data_PCOD8056586
_publ_section_title
;
Structure prediction by ZEFSAII (Michael W. Deem and Ramdas Pophale) SiO2 
 PCOD8056586
Probable space group: C C
;
_chemical_formula_sum "Si O2"
_cell_formula_units_Z 24
_cell_length_a 8.486057
_cell_length_b 14.788705
_cell_length_c 8.689024
_cell_angle_alpha 90.000000
_cell_angle_beta 103.202412
_cell_angle_gamma 90.000000
_cell_volume 1061.631883
_symmetry_space_group_name_H-M "C C"
_symmetry_group_IT_number 9
_symmetry_cell_setting 'monoclinic'
loop_
_space_group_symop_operation_xyz
x,y,z
x,-y,1/2+z
1/2+x,1/2+y,z
1/2+x,1/2-y,1/2+z
loop_
_atom_site_type_symbol
_atom_site_label
_atom_site_fract_x
_atom_site_fract_y
_atom_site_fract_z
Si Si1 0.815990 0.527712 0.968080
Si Si2 0.767164 0.179128 0.879325
Si Si3 0.763555 0.860140 0.730194
Si Si4 0.613913 0.638053 0.437348
Si Si5 0.550955 0.024049 0.767658
Si Si6 0.607368 0.322872 0.286281
O O1 0.681731 0.455490 0.883709
O O2 0.738059 0.627551 0.928223
O O3 0.993417 0.522234 0.930874
O O4 0.877336 0.499971 0.151398
O O5 0.725428 0.283728 0.891001
O O6 0.932134 0.169264 0.822455
O O7 0.626296 0.124520 0.754270
O O8 0.783967 0.135353 0.051564
O O9 0.694270 0.954134 0.773890
O O10 0.647662 0.781890 0.769157
O O11 0.935310 0.843148 0.842754
O O12 0.614992 0.630182 0.621960
#
# Coordination Sequence:
#
# PCOD8056586 Si02
#       6
#     4   4   4   4   4   4
#     4  12  25  45  72 103 140 179 226 283 343 407
#     4  11  26  46  70 103 139 180 232 282 340 408
#     4  11  26  45  71 101 139 183 228 282 343 406
#     4  11  26  45  71 101 139 183 228 282 343 406
#     4  12  25  45  72 103 140 179 226 283 343 407
#     4  11  26  46  70 103 139 180 232 282 340 408
#
# _framework density 22.606705999999999
#
# number of rings (size 3 to 8) (size 9 to 14) (size 15 to 20)
#    0.000    0.667    3.333    3.000    9.333    4.000 
#    0.000    0.000    0.000    0.000    0.000    0.000 
#    0.000    0.000    0.000    0.000    0.000    0.000 
#
# Total GULP energy -148776.283942 kJ/mol
# GULP energy per Si atom -12398.023662 kJ/mol
# Density = 2.255525 g / cm^3
# Si number density = 22.606706 Si / 1000 Ang^3
#
#
#
# Elastic Constant Matrix: (Units=GPa)
#
#
# Indices 1 2 3 4 5 6 
#
# 1 130.6970 34.2654 32.8582 0.0000 -17.3413 0.0000
# 2 34.2654 91.3034 27.9510 0.0000 -23.0795 0.0000
# 3 32.8582 27.9510 50.3732 0.0000 9.0019 0.0000
# 4 0.0000 0.0000 0.0000 19.9055 0.0000 13.0099
# 5 -17.3413 -23.0795 9.0019 0.0000 40.1062 0.0000
# 6 0.0000 0.0000 0.0000 13.0099 0.0000 31.9004
#
#
#
# Elastic Compliance Matrix: (Units=1/GPa)
#
#
# Indices 1 2 3 4 5 6 
#
# 1 0.010498 0.000170 -0.008096 0.000000 0.006454 0.000000
# 2 0.000170 0.018079 -0.012517 0.000000 0.013287 0.000000
# 3 -0.008096 -0.012517 0.035411 0.000000 -0.018652 0.000000
# 4 0.000000 0.000000 0.000000 0.068495 0.000000 -0.027934
# 5 0.006454 0.013287 -0.018652 0.000000 0.039557 0.000000
# 6 0.000000 0.000000 0.000000 -0.027934 0.000000 0.042740
#
#
# Mechanical properties :
#
#
# Convention : Reuss Voigt Hill
#
# Bulk Modulus (GPa) = 43.28416 51.39141 47.33778
# Shear Modulus (GPa) = 18.98491 30.20234 24.59363
#
# Velocity S-wave (km/s) = 2.90106 3.65909 3.30190
# Velocity P-wave (km/s) = 5.51450 6.37448 5.96002
#
# Compressibility (1/GPa) = 0.02310314
#
# Stress axis : x y z
#
# Youngs Moduli (GPa) = 95.25221 55.31211 28.23967
#
# Poissons Ratio (x) = -0.00940 0.22862
# Poissons Ratio (y) = -0.01618 0.35348
# Poissons Ratio (z) = 0.77114 0.69234
#
# Static dielectric constant tensor:
#      x y z
#    x 3.982690 0.000000 -0.069530 
#    y 0.000000 4.128840 0.000000 
#    z -0.069530 0.000000 4.076730 
# 
# 
# High freq. dielectric constant tensor:
#      x y z
#    x 1.909030 0.000000 -0.006350 
#    y 0.000000 1.897410 0.000000 
#    z -0.006350 0.000000 1.891460 
# 
# From -- ./inp_files/4777.got.cif
#   From: 2010.06.25/outbox.cif.g09.slc.cpg/sg9_3_cif.got.tgz:4777.got - 2010.06.27 21:40:51.
