data_PCOD8056573
_publ_section_title
;
Structure prediction by ZEFSAII (Michael W. Deem and Ramdas Pophale) SiO2 
 PCOD8056573
Probable space group: C C
;
_chemical_formula_sum "Si O2"
_cell_formula_units_Z 16
_cell_length_a 6.549009
_cell_length_b 13.577636
_cell_length_c 6.906621
_cell_angle_alpha 90.000000
_cell_angle_beta 60.645860
_cell_angle_gamma 90.000000
_cell_volume 535.285910
_symmetry_space_group_name_H-M "C C"
_symmetry_group_IT_number 9
_symmetry_cell_setting 'monoclinic'
loop_
_space_group_symop_operation_xyz
x,y,z
x,-y,1/2+z
1/2+x,1/2+y,z
1/2+x,1/2-y,1/2+z
loop_
_atom_site_type_symbol
_atom_site_label
_atom_site_fract_x
_atom_site_fract_y
_atom_site_fract_z
Si Si1 0.195940 0.400292 0.506950
Si Si2 0.571704 0.397241 0.656537
Si Si3 0.048709 0.804942 0.056671
Si Si4 0.834397 0.570087 0.678343
O O1 0.341572 0.402394 0.636226
O O2 0.340175 0.367904 0.249059
O O3 0.011890 0.310197 0.626511
O O4 0.071185 0.507025 0.538644
O O5 0.606734 0.496753 0.766429
O O6 0.805572 0.385772 0.409446
O O7 0.544850 0.310524 0.824851
O O8 0.298681 0.846084 0.031045
#
# Coordination Sequence:
#
# PCOD8056573 Si02
#       4
#     4   4   4   4
#     4  11  28  51  84 118 166 218 271 350 412 495
#     4  11  25  51  77 120 161 207 278 331 412 497
#     4  11  26  52  82 123 162 217 279 337 422 501
#     4  11  25  50  79 117 163 214 274 338 412 497
#
# _framework density 29.890568999999999
#
# number of rings (size 3 to 8) (size 9 to 14) (size 15 to 20)
#    0.000    1.000    2.500    1.500    0.000   14.000 
#    0.000    2.500    0.000    0.000    0.000    0.000 
#    0.000    0.000    0.000    0.000    0.000    0.000 
#
# Total GULP energy -99141.591107 kJ/mol
# GULP energy per Si atom -12392.698888 kJ/mol
# Density = 2.982254 g / cm^3
# Si number density = 29.890569 Si / 1000 Ang^3
#
#
#
# Elastic Constant Matrix: (Units=GPa)
#
#
# Indices 1 2 3 4 5 6 
#
# 1 94.5329 3.7641 74.0682 0.0000 4.6376 0.0000
# 2 3.7641 84.4692 43.5811 0.0000 -7.1841 0.0000
# 3 74.0682 43.5811 215.9348 0.0000 26.1588 0.0000
# 4 0.0000 0.0000 0.0000 28.0721 0.0000 -1.0184
# 5 4.6376 -7.1841 26.1588 0.0000 50.3996 0.0000
# 6 0.0000 0.0000 0.0000 -1.0184 0.0000 51.4179
#
#
#
# Elastic Compliance Matrix: (Units=1/GPa)
#
#
# Indices 1 2 3 4 5 6 
#
# 1 0.015009 0.002556 -0.005913 0.000000 0.002052 0.000000
# 2 0.002556 0.014251 -0.004237 0.000000 0.003995 0.000000
# 3 -0.005913 -0.004237 0.008026 0.000000 -0.004226 0.000000
# 4 0.000000 0.000000 0.000000 0.035648 0.000000 0.000706
# 5 0.002052 0.003995 -0.004226 0.000000 0.022415 0.000000
# 6 0.000000 0.000000 0.000000 0.000706 0.000000 0.019462
#
#
# Mechanical properties :
#
#
# Convention : Reuss Voigt Hill
#
# Bulk Modulus (GPa) = 45.25162 70.86262 58.05712
# Shear Modulus (GPa) = 36.39965 44.21282 40.30624
#
# Velocity S-wave (km/s) = 3.49343 3.85015 3.67612
# Velocity P-wave (km/s) = 5.60750 6.59725 6.12241
#
# Compressibility (1/GPa) = 0.02209866
#
# Stress axis : x y z
#
# Youngs Moduli (GPa) = 66.62879 70.17290 124.59261
#
# Poissons Ratio (x) = -0.17938 0.73667
# Poissons Ratio (y) = -0.17032 0.52789
# Poissons Ratio (z) = 0.39395 0.29732
#
# Static dielectric constant tensor:
#      x y z
#    x 5.824880 0.000000 0.104510 
#    y 0.000000 5.698600 0.000000 
#    z 0.104510 0.000000 5.370050 
# 
# 
# High freq. dielectric constant tensor:
#      x y z
#    x 2.230340 0.000000 0.010650 
#    y 0.000000 2.209600 0.000000 
#    z 0.010650 0.000000 2.235990 
# 
# From -- ./inp_files/4731.got.cif
#   From: 2010.06.25/outbox.cif.g09.slc.cpg/sg9_3_cif.got.tgz:4731.got - 2010.06.27 21:40:51.
