data_PCOD8056749
_publ_section_title
;
Structure prediction by ZEFSAII (Michael W. Deem and Ramdas Pophale) SiO2 
 PCOD8056749
Probable space group: C C
;
_chemical_formula_sum "Si O2"
_cell_formula_units_Z 28
_cell_length_a 15.852566
_cell_length_b 6.491729
_cell_length_c 18.400188
_cell_angle_alpha 90.000000
_cell_angle_beta 38.312004
_cell_angle_gamma 90.000000
_cell_volume 1173.908584
_symmetry_space_group_name_H-M "C C"
_symmetry_group_IT_number 9
_symmetry_cell_setting 'monoclinic'
loop_
_space_group_symop_operation_xyz
x,y,z
x,-y,1/2+z
1/2+x,1/2+y,z
1/2+x,1/2-y,1/2+z
loop_
_atom_site_type_symbol
_atom_site_label
_atom_site_fract_x
_atom_site_fract_y
_atom_site_fract_z
Si Si1 0.909010 0.222229 0.161960
Si Si2 0.117750 0.242058 0.816071
Si Si3 0.109479 0.423255 0.521540
Si Si4 0.900069 0.877610 0.826331
Si Si5 0.627481 0.329215 0.154284
Si Si6 0.389767 0.919849 0.462184
Si Si7 0.509295 0.609963 0.481463
O O1 0.746329 0.220524 0.281222
O O2 0.963690 0.178493 0.205320
O O3 0.977166 0.437949 0.092012
O O4 0.947256 0.042396 0.081675
O O5 0.182451 0.274261 0.691386
O O6 0.996303 0.402007 0.911101
O O7 0.073034 0.011165 0.869927
O O8 0.242212 0.564369 0.432838
O O9 0.092339 0.324825 0.613183
O O10 0.118852 0.250355 0.451826
O O11 0.929604 0.687258 0.859401
O O12 0.989376 0.078409 0.784488
O O13 0.738548 0.494113 0.053349
O O14 0.391827 0.753923 0.526085
#
# Coordination Sequence:
#
# PCOD8056749 Si02
#       7
#     4   4   4   4   4   4   4
#     4  12  27  47  76 107 147 201 244 304 372 430
#     4  12  27  47  76 107 147 201 244 304 372 430
#     4  12  28  48  74 112 151 189 254 304 359 455
#     4  12  26  48  76 107 149 198 241 307 374 427
#     4  12  26  48  76 107 149 198 241 307 374 427
#     4  12  28  48  74 112 151 189 254 304 359 455
#     4  12  26  48  72 110 152 190 254 296 360 452
#
# _framework density 23.851944
#
# number of rings (size 3 to 8) (size 9 to 14) (size 15 to 20)
#    0.000    0.000    2.857    6.857    8.000    2.286 
#    0.000    0.000    0.000    0.000    0.000    0.000 
#    0.000    0.000    0.000    0.000    0.000    0.000 
#
# Total GULP energy -173571.206621 kJ/mol
# GULP energy per Si atom -12397.943330 kJ/mol
# Density = 2.379766 g / cm^3
# Si number density = 23.851944 Si / 1000 Ang^3
#
#
#
# Elastic Constant Matrix: (Units=GPa)
#
#
# Indices 1 2 3 4 5 6 
#
# 1 104.6577 54.2401 38.9199 -0.0002 5.1127 0.0002
# 2 54.2401 127.2324 41.5232 -0.0006 1.9316 0.0012
# 3 38.9199 41.5232 88.6734 -0.0001 3.7504 0.0002
# 4 -0.0002 -0.0006 -0.0001 41.3601 0.0001 11.9394
# 5 5.1127 1.9316 3.7504 0.0001 59.3655 -0.0001
# 6 0.0002 0.0012 0.0002 11.9394 -0.0001 42.6233
#
#
#
# Elastic Compliance Matrix: (Units=1/GPa)
#
#
# Indices 1 2 3 4 5 6 
#
# 1 0.013272 -0.004433 -0.003717 0.000000 -0.000764 0.000000
# 2 -0.004433 0.010758 -0.003102 0.000000 0.000228 0.000000
# 3 -0.003717 -0.003102 0.014382 0.000000 -0.000488 0.000000
# 4 0.000000 0.000000 0.000000 0.026305 0.000000 -0.007368
# 5 -0.000764 0.000228 -0.000488 0.000000 0.016934 0.000000
# 6 0.000000 0.000000 0.000000 -0.007368 0.000000 0.025525
#
#
# Mechanical properties :
#
#
# Convention : Reuss Voigt Hill
#
# Bulk Modulus (GPa) = 62.85984 65.54777 64.20381
# Shear Modulus (GPa) = 37.04158 41.06178 39.05168
#
# Velocity S-wave (km/s) = 3.94506 4.15363 4.05069
# Velocity P-wave (km/s) = 6.86751 7.10945 6.98953
#
# Compressibility (1/GPa) = 0.01590841
#
# Stress axis : x y z
#
# Youngs Moduli (GPa) = 75.34541 92.95079 69.53229
#
# Poissons Ratio (x) = 0.41208 0.25845
# Poissons Ratio (y) = 0.33403 0.21566
# Poissons Ratio (z) = 0.28006 0.28830
#
# Static dielectric constant tensor:
#      x y z
#    x 4.590840 0.000000 0.174700 
#    y 0.000000 4.344630 0.000000 
#    z 0.174700 0.000000 3.995760 
# 
# 
# High freq. dielectric constant tensor:
#      x y z
#    x 1.974330 0.000000 0.015670 
#    y 0.000000 1.948420 0.000000 
#    z 0.015670 0.000000 1.938650 
# 
# From -- ./inp_files/18835.got.cif
#   From: 2010.06.25/outbox.cif.g09.slc.cpg/sg9_10_cif.got.tgz:18835.got - 2010.06.27 21:40:51.
