data_PCOD8056943
_publ_section_title
;
Structure prediction by ZEFSAII (Michael W. Deem and Ramdas Pophale) SiO2 
 PCOD8056943
Probable space group: P 2/M
;
_chemical_formula_sum "Si O2"
_cell_formula_units_Z 16
_cell_length_a 8.911364
_cell_length_b 11.787983
_cell_length_c 12.220516
_cell_angle_alpha 90.000000
_cell_angle_beta 35.056508
_cell_angle_gamma 90.000000
_cell_volume 737.353247
_symmetry_space_group_name_H-M "P 2/M"
_symmetry_group_IT_number 10
_symmetry_cell_setting 'monoclinic'
loop_
_space_group_symop_operation_xyz
x,y,z
-x,y,-z
-x,-y,-z
x,-y,z
loop_
_atom_site_type_symbol
_atom_site_label
_atom_site_fract_x
_atom_site_fract_y
_atom_site_fract_z
Si Si1 0.928588 0.134151 0.920534
Si Si2 0.730939 0.500000 0.446703
Si Si3 0.906150 0.256572 0.376829
Si Si4 0.683180 0.500000 0.707620
Si Si5 0.392350 0.254022 0.227719
O O1 0.652979 0.185946 0.047636
O O2 0.915412 0.000000 0.923555
O O3 0.000000 0.175837 0.000000
O O4 0.137500 0.179908 0.706070
O O5 0.500000 0.500000 0.500000
O O6 0.916502 0.388106 0.330470
O O7 0.564848 0.500000 0.656981
O O8 0.673215 0.240820 0.603809
O O9 0.164051 0.210152 0.284627
O O10 0.578945 0.386084 0.826426
O O11 0.000000 0.500000 0.500000
#
# Coordination Sequence:
#
# PCOD8056943 Si02
#       5
#     4   2   4   2   4
#     4  11  27  44  58  87 126 163 210 258 301 358
#     4  10  20  33  62  99 128 156 192 245 306 374
#     4  10  21  40  66  93 123 160 202 247 306 366
#     4  10  16  37  62  95 128 150 192 245 304 374
#     4  10  20  40  68  91 123 161 199 249 308 361
#
# _framework density 21.699234000000001
#
# number of rings (size 3 to 8) (size 9 to 14) (size 15 to 20)
#    0.000    1.750    5.000    0.750    7.000    4.000 
#    0.000    8.750    0.000    0.000    0.000    0.000 
#    0.000    0.000    0.000    0.000    0.000    0.000 
#
# Total GULP energy -198226.117724 kJ/mol
# GULP energy per Si atom -12389.132358 kJ/mol
# Density = 2.164985 g / cm^3
# Si number density = 21.699234 Si / 1000 Ang^3
#
#
#
# Elastic Constant Matrix: (Units=GPa)
#
#
# Indices 1 2 3 4 5 6 
#
# 1 93.6274 19.3661 23.5773 0.0000 16.4614 0.0000
# 2 19.3661 90.1534 29.9590 0.0000 12.2568 0.0000
# 3 23.5773 29.9590 72.5777 0.0000 20.9203 0.0000
# 4 0.0000 0.0000 0.0000 -280.6456 0.0000 -631.5915
# 5 16.4614 12.2568 20.9203 0.0000 39.3730 0.0000
# 6 0.0000 0.0000 0.0000 -631.5915 0.0000-1285.4410
#
#
#
# Elastic Compliance Matrix: (Units=1/GPa)
#
#
# Indices 1 2 3 4 5 6 
#
# 1 0.012163 -0.001349 -0.002420 0.000000 -0.003379 0.000000
# 2 -0.001349 0.013071 -0.004661 0.000000 -0.001028 0.000000
# 3 -0.002420 -0.004661 0.018632 0.000000 -0.007437 0.000000
# 4 0.000000 0.000000 0.000000 0.033690 0.000000 -0.016554
# 5 -0.003379 -0.001028 -0.007437 0.000000 0.031083 0.000000
# 6 0.000000 0.000000 0.000000 -0.016554 0.000000 0.007356
#
#
# Mechanical properties :
#
#
# Convention : Reuss Voigt Hill
#
# Bulk Modulus (GPa) = 37.02883 44.68480 40.85681
# Shear Modulus (GPa) = 35.24676 -293.11230 -128.93277
#
# Velocity S-wave (km/s) = 4.03467 -11.63498 -7.71668
# Velocity P-wave (km/s) = 6.22948 12.64356 7.77988
#
# Compressibility (1/GPa) = 0.02700599
#
# Stress axis : x y z
#
# Youngs Moduli (GPa) = 82.21435 76.50752 53.67054
#
# Poissons Ratio (x) = 0.10321 0.12990
# Poissons Ratio (y) = 0.11091 0.25014
# Poissons Ratio (z) = 0.19899 0.35657
#
# Static dielectric constant tensor:
#      x y z
#    x 4.149580 0.000000 0.423540 
#    y 0.000000 3.832000 0.000000 
#    z 0.423540 0.000000 3.723100 
# 
# 
# High freq. dielectric constant tensor:
#      x y z
#    x 1.861590 0.000000 0.024080 
#    y 0.000000 1.839380 0.000000 
#    z 0.024080 0.000000 1.829570 
# 
# From -- ./inp_files/23361.got.cif
#   From: 2010.06.25/outbox.cif.g09.slc.cpg/sg10_12_cif.got.tgz:23361.got - 2010.06.27 22:07:45.
