data_PCOD8056654
_publ_section_title
;
Structure prediction by ZEFSAII (Michael W. Deem and Ramdas Pophale) SiO2 
 PCOD8056654
Probable space group: C C
;
_chemical_formula_sum "Si O2"
_cell_formula_units_Z 32
_cell_length_a 27.047341
_cell_length_b 4.710726
_cell_length_c 15.372952
_cell_angle_alpha 90.000000
_cell_angle_beta 138.664295
_cell_angle_gamma 90.000000
_cell_volume 1293.667279
_symmetry_space_group_name_H-M "C C"
_symmetry_group_IT_number 9
_symmetry_cell_setting 'monoclinic'
loop_
_space_group_symop_operation_xyz
x,y,z
x,-y,1/2+z
1/2+x,1/2+y,z
1/2+x,1/2-y,1/2+z
loop_
_atom_site_type_symbol
_atom_site_label
_atom_site_fract_x
_atom_site_fract_y
_atom_site_fract_z
Si Si1 0.599460 0.730459 0.310010
Si Si2 0.099446 0.649995 0.563634
Si Si3 0.030228 0.864569 0.887661
Si Si4 0.760832 0.782286 0.571087
Si Si5 0.544249 0.793180 0.644988
Si Si6 0.887378 0.436539 0.480686
Si Si7 0.760060 0.278192 0.693565
Si Si8 0.883530 0.079358 0.099855
O O1 0.579731 0.549563 0.369796
O O2 0.682478 0.856784 0.423280
O O3 0.580537 0.518009 0.203777
O O4 0.549636 0.017001 0.239790
O O5 0.048232 0.465111 0.429595
O O6 0.095991 0.483922 0.649498
O O7 0.185103 0.698785 0.647719
O O8 0.058458 0.958673 0.509934
O O9 0.945447 0.955702 0.756936
O O10 0.748458 0.470567 0.593668
O O11 0.814325 0.786043 0.558823
O O12 0.788333 0.984634 0.687133
O O13 0.453682 0.799633 0.507130
O O14 0.819250 0.562780 0.333759
O O15 0.918041 0.703813 0.575473
O O16 0.860241 0.203802 0.516051
#
# Coordination Sequence:
#
# PCOD8056654 Si02
#       8
#     4   4   4   4   4   4   4   4
#     4  12  23  48  73 100 145 186 250 304 358 435
#     4  12  26  45  72 108 141 191 242 299 372 432
#     4  12  23  46  75  98 143 190 245 304 351 437
#     4  12  27  46  73 106 139 196 245 297 368 438
#     4  12  26  44  74 107 140 193 242 303 371 437
#     4  12  26  47  69 105 151 190 237 304 374 440
#     4  12  26  48  70 104 152 188 235 304 373 440
#     4  12  27  46  72 106 143 194 244 301 369 439
#
# _framework density 24.735880999999999
#
# number of rings (size 3 to 8) (size 9 to 14) (size 15 to 20)
#    0.000    0.000    5.000    4.500    5.250    0.000 
#    0.000    0.000    0.000    0.000    0.000    0.000 
#    0.000    0.000    0.000    0.000    0.000    0.000 
#
# Total GULP energy -198246.008451 kJ/mol
# GULP energy per Si atom -12390.375528 kJ/mol
# Density = 2.467958 g / cm^3
# Si number density = 24.735881 Si / 1000 Ang^3
#
#
#
# Elastic Constant Matrix: (Units=GPa)
#
#
# Indices 1 2 3 4 5 6 
#
# 1 73.6053 1.0213 19.5982 -0.0009 18.9739 0.0001
# 2 1.0213 102.2417 15.6048 -0.0053 7.5441 -0.0013
# 3 19.5982 15.6048 103.4689 -0.0047 13.1844 -0.0075
# 4 -0.0009 -0.0053 -0.0047 53.8943 -0.0001 -2.4093
# 5 18.9739 7.5441 13.1844 -0.0001 32.1729 -0.0015
# 6 0.0001 -0.0013 -0.0075 -2.4093 -0.0015 22.0255
#
#
#
# Elastic Compliance Matrix: (Units=1/GPa)
#
#
# Indices 1 2 3 4 5 6 
#
# 1 0.016463 0.000822 -0.002090 0.000000 -0.009045 -0.000001
# 2 0.000822 0.010155 -0.001395 0.000001 -0.002294 0.000000
# 3 -0.002090 -0.001395 0.010627 0.000001 -0.002796 0.000003
# 4 0.000000 0.000001 0.000001 0.018646 0.000000 0.002040
# 5 -0.009045 -0.002294 -0.002796 0.000000 0.038100 0.000001
# 6 -0.000001 0.000000 0.000003 0.002040 0.000001 0.045625
#
#
# Mechanical properties :
#
#
# Convention : Reuss Voigt Hill
#
# Bulk Modulus (GPa) = 31.32896 39.08497 35.20697
# Shear Modulus (GPa) = 32.13774 37.82465 34.98119
#
# Velocity S-wave (km/s) = 3.60840 3.91467 3.76465
# Velocity P-wave (km/s) = 5.48212 6.02229 5.75854
#
# Compressibility (1/GPa) = 0.03191935
#
# Stress axis : x y z
#
# Youngs Moduli (GPa) = 60.74369 98.47653 94.09883
#
# Poissons Ratio (x) = -0.08094 0.19663
# Poissons Ratio (y) = -0.04992 0.13125
# Poissons Ratio (z) = 0.12693 0.13736
#
# Static dielectric constant tensor:
#      x y z
#    x 4.371210 -0.000030 -0.082000 
#    y -0.000030 4.600860 -0.000020 
#    z -0.082000 -0.000020 4.570920 
# 
# 
# High freq. dielectric constant tensor:
#      x y z
#    x 1.981830 0.000000 -0.006100 
#    y 0.000000 2.003880 0.000000 
#    z -0.006100 0.000000 1.989160 
# 
# From -- ./inp_files/27899.got.cif
#   From: 2010.06.25/outbox.cif.g09.slc.cpg/sg9_14_cif.got.tgz:27899.got - 2010.06.27 21:40:51.
