data_PCOD8056805
_publ_section_title
;
Structure prediction by ZEFSAII (Michael W. Deem and Ramdas Pophale) SiO2 
 PCOD8056805
Probable space group: P 2/M
;
_chemical_formula_sum "Si O2"
_cell_formula_units_Z 24
_cell_length_a 13.629343
_cell_length_b 14.614345
_cell_length_c 9.218008
_cell_angle_alpha 90.000000
_cell_angle_beta 132.927055
_cell_angle_gamma 90.000000
_cell_volume 1344.416283
_symmetry_space_group_name_H-M "P 2/M"
_symmetry_group_IT_number 10
_symmetry_cell_setting 'monoclinic'
loop_
_space_group_symop_operation_xyz
x,y,z
-x,y,-z
-x,-y,-z
x,-y,z
loop_
_atom_site_type_symbol
_atom_site_label
_atom_site_fract_x
_atom_site_fract_y
_atom_site_fract_z
Si Si1 0.993948 0.191969 0.158905
Si Si2 0.210364 0.000000 0.660415
Si Si3 0.745492 0.806184 0.391003
Si Si4 0.407574 0.500000 0.765577
Si Si5 0.062185 0.000000 0.792109
Si Si6 0.210918 0.301998 0.857900
Si Si7 0.155175 0.500000 0.695563
Si Si8 0.505017 0.688925 0.177907
O O1 0.902289 0.261739 0.154171
O O2 0.141890 0.193542 0.373416
O O3 0.931941 0.089929 0.102237
O O4 0.000000 0.225062 0.000000
O O5 0.290690 0.091229 0.697646
O O6 0.189482 0.000000 0.812796
O O7 0.068859 0.000000 0.438126
O O8 0.796850 0.745595 0.307517
O O9 0.610809 0.766886 0.329370
O O10 0.249841 0.500000 0.648244
O O11 0.442699 0.590971 0.707990
O O12 0.500000 0.500000 0.000000
O O13 0.187994 0.410312 0.822160
O O14 0.355617 0.286252 0.080955
O O15 0.000000 0.500000 0.500000
O O16 0.500000 0.682150 0.000000
#
# Coordination Sequence:
#
# PCOD8056805 Si02
#       8
#     4   2   4   2   2   4   2   4
#     4  11  22  35  52  76 105 141 179 214 254 311
#     4   9  16  28  52  82 106 126 165 221 268 306
#     4  10  18  33  54  78 105 135 168 217 267 306
#     4  10  14  30  48  77 110 129 167 214 259 312
#     4   9  17  32  53  75 102 138 172 211 259 313
#     4  11  20  34  53  79 108 133 176 217 262 305
#     4  12  20  28  51  85 110 136 166 218 269 305
#     4   9  17  30  51  77 107 132 167 213 264 309
#
# _framework density 17.851614000000001
#
# number of rings (size 3 to 8) (size 9 to 14) (size 15 to 20)
#    0.000    1.833    6.667    1.750    0.000    0.000 
#    0.000    5.833    0.000    0.000    0.000    7.000 
#    0.000    0.000    0.000    0.000    0.000    0.000 
#
# Total GULP energy -297523.352377 kJ/mol
# GULP energy per Si atom -12396.806349 kJ/mol
# Density = 1.781098 g / cm^3
# Si number density = 17.851614 Si / 1000 Ang^3
#
#
#
# Elastic Constant Matrix: (Units=GPa)
#
#
# Indices 1 2 3 4 5 6 
#
# 1 47.0356 22.9377 45.6995 0.0000 15.2418 0.0000
# 2 22.9377 136.6060 35.7497 0.0000 10.3611 0.0000
# 3 45.6995 35.7497 67.8048 0.0000 13.5355 0.0000
# 4 0.0000 0.0000 0.0000 18.9189 0.0000 11.4256
# 5 15.2418 10.3611 13.5355 0.0000 30.9243 0.0000
# 6 0.0000 0.0000 0.0000 11.4256 0.0000 11.0181
#
#
#
# Elastic Compliance Matrix: (Units=1/GPa)
#
#
# Indices 1 2 3 4 5 6 
#
# 1 0.067210 0.001063 -0.042926 0.000000 -0.014694 0.000000
# 2 0.001063 0.008536 -0.004976 0.000000 -0.001206 0.000000
# 3 -0.042926 -0.004976 0.045744 0.000000 0.002802 0.000000
# 4 0.000000 0.000000 0.000000 0.141430 0.000000 -0.146662
# 5 -0.014694 -0.001206 0.002802 0.000000 0.038757 0.000000
# 6 0.000000 0.000000 0.000000 -0.146662 0.000000 0.242847
#
#
# Mechanical properties :
#
#
# Convention : Reuss Voigt Hill
#
# Bulk Modulus (GPa) = 35.95640 51.13556 43.54598
# Shear Modulus (GPa) = 7.72235 21.97622 14.84928
#
# Velocity S-wave (km/s) = 2.08213 3.51244 2.88725
# Velocity P-wave (km/s) = 5.09567 6.71987 5.96332
#
# Compressibility (1/GPa) = 0.02781146
#
# Stress axis : x y z
#
# Youngs Moduli (GPa) = 14.87874 117.15761 21.86093
#
# Poissons Ratio (x) = -0.12451 0.93840
# Poissons Ratio (y) = -0.01581 0.10878
# Poissons Ratio (z) = 0.63868 0.58297
#
# Static dielectric constant tensor:
#      x y z
#    x 3.235450 0.000000 0.412330 
#    y 0.000000 3.768100 0.000000 
#    z 0.412330 0.000000 3.088340 
# 
# 
# High freq. dielectric constant tensor:
#      x y z
#    x 1.664900 0.000000 0.033610 
#    y 0.000000 1.712200 0.000000 
#    z 0.033610 0.000000 1.652190 
# 
# From -- ./inp_files/29757.got.cif
#   From: 2010.06.25/outbox.cif.g09.slc.cpg/sg10_15_cif.got.tgz:29757.got - 2010.06.27 22:07:45.
