data_PCOD8056724
_publ_section_title
;
Structure prediction by ZEFSAII (Michael W. Deem and Ramdas Pophale) SiO2 
 PCOD8056724
Probable space group: C C
;
_chemical_formula_sum "Si O2"
_cell_formula_units_Z 28
_cell_length_a 8.856478
_cell_length_b 17.144324
_cell_length_c 11.640030
_cell_angle_alpha 90.000000
_cell_angle_beta 143.079463
_cell_angle_gamma 90.000000
_cell_volume 1061.690861
_symmetry_space_group_name_H-M "C C"
_symmetry_group_IT_number 9
_symmetry_cell_setting 'monoclinic'
loop_
_space_group_symop_operation_xyz
x,y,z
x,-y,1/2+z
1/2+x,1/2+y,z
1/2+x,1/2-y,1/2+z
loop_
_atom_site_type_symbol
_atom_site_label
_atom_site_fract_x
_atom_site_fract_y
_atom_site_fract_z
Si Si1 0.026840 0.638232 0.505760
Si Si2 0.373117 0.691324 0.360687
Si Si3 0.172137 0.938227 0.159168
Si Si4 0.946507 0.809127 0.414334
Si Si5 0.981652 0.140294 0.192539
Si Si6 0.347039 0.147535 0.981458
Si Si7 0.688627 0.999637 0.457366
O O1 0.175871 0.658747 0.711811
O O2 0.191835 0.580052 0.529430
O O3 0.975813 0.717418 0.401928
O O4 0.757251 0.600335 0.372414
O O5 0.600476 0.642434 0.554702
O O6 0.443260 0.705464 0.268635
O O7 0.338171 0.771375 0.405924
O O8 0.117792 0.639508 0.207657
O O9 0.272830 0.922185 0.350048
O O10 0.406340 0.981946 0.236297
O O11 0.920269 0.993326 0.006356
O O12 0.957473 0.817982 0.556654
O O13 0.155682 0.855373 0.470996
O O14 0.768349 0.074764 0.083743
#
# Coordination Sequence:
#
# PCOD8056724 Si02
#       7
#     4   4   4   4   4   4   4
#     4  12  26  48  79 114 162 210 278 333 410 486
#     4  12  28  47  83 116 158 204 276 344 410 484
#     4  12  27  51  79 112 163 209 274 332 418 492
#     4  12  27  48  84 115 160 216 277 339 402 499
#     4  12  30  48  77 123 161 214 267 340 418 495
#     4  12  25  48  83 116 154 210 274 341 410 486
#     4  12  27  54  75 120 164 219 266 339 416 502
#
# _framework density 26.373025999999999
#
# number of rings (size 3 to 8) (size 9 to 14) (size 15 to 20)
#    0.000    0.000    7.143    1.714    6.000    1.143 
#    2.571    0.000    0.000    0.000    0.000    0.000 
#    0.000    0.000    0.000    0.000    0.000    0.000 
#
# Total GULP energy -173572.961122 kJ/mol
# GULP energy per Si atom -12398.068652 kJ/mol
# Density = 2.631300 g / cm^3
# Si number density = 26.373026 Si / 1000 Ang^3
#
#
#
# Elastic Constant Matrix: (Units=GPa)
#
#
# Indices 1 2 3 4 5 6 
#
# 1 117.5301 14.3214 53.7252 0.0004 25.6403 0.0002
# 2 14.3214 80.7196 24.0995 0.0000 8.6836 -0.0001
# 3 53.7252 24.0995 142.0751 -0.0003 28.6907 -0.0002
# 4 0.0004 0.0000 -0.0003 32.3178 -0.0001 18.8919
# 5 25.6403 8.6836 28.6907 -0.0001 54.3016 0.0000
# 6 0.0002 -0.0001 -0.0002 18.8919 0.0000 29.2375
#
#
#
# Elastic Compliance Matrix: (Units=1/GPa)
#
#
# Indices 1 2 3 4 5 6 
#
# 1 0.010812 -0.000573 -0.003335 0.000000 -0.003252 0.000000
# 2 -0.000573 0.013131 -0.001837 0.000000 -0.000859 0.000000
# 3 -0.003335 -0.001837 0.009217 0.000000 -0.003002 0.000000
# 4 0.000000 0.000000 0.000000 0.049725 0.000000 -0.032130
# 5 -0.003252 -0.000859 -0.003002 0.000000 0.021674 0.000000
# 6 0.000000 0.000000 0.000000 -0.032130 0.000000 0.054963
#
#
# Mechanical properties :
#
#
# Convention : Reuss Voigt Hill
#
# Bulk Modulus (GPa) = 46.14539 58.29078 52.21809
# Shear Modulus (GPa) = 28.05272 39.71663 33.88468
#
# Velocity S-wave (km/s) = 3.26496 3.88488 3.58833
# Velocity P-wave (km/s) = 5.63458 6.50180 6.08366
#
# Compressibility (1/GPa) = 0.02167064
#
# Stress axis : x y z
#
# Youngs Moduli (GPa) = 92.48976 76.15498 108.49095
#
# Poissons Ratio (x) = 0.04363 0.36178
# Poissons Ratio (y) = 0.05298 0.19934
# Poissons Ratio (z) = 0.30843 0.13992
#
# Static dielectric constant tensor:
#      x y z
#    x 4.719460 0.000000 0.442290 
#    y 0.000000 4.590520 0.000000 
#    z 0.442290 0.000000 5.154230 
# 
# 
# High freq. dielectric constant tensor:
#      x y z
#    x 2.054010 0.000000 0.027370 
#    y 0.000000 2.047210 0.000000 
#    z 0.027370 0.000000 2.070870 
# 
# From -- ./inp_files/15449.got.cif
#   From: 2010.06.25/outbox.cif.g09.slc.cpg/sg9_8_cif.got.tgz:15449.got - 2010.06.27 21:40:51.
