data_PCOD8056664
_publ_section_title
;
Structure prediction by ZEFSAII (Michael W. Deem and Ramdas Pophale) SiO2 
 PCOD8056664
Probable space group: C C
;
_chemical_formula_sum "Si O2"
_cell_formula_units_Z 32
_cell_length_a 7.794361
_cell_length_b 19.608389
_cell_length_c 11.683916
_cell_angle_alpha 90.000000
_cell_angle_beta 53.601170
_cell_angle_gamma 90.000000
_cell_volume 1437.328296
_symmetry_space_group_name_H-M "C C"
_symmetry_group_IT_number 9
_symmetry_cell_setting 'monoclinic'
loop_
_space_group_symop_operation_xyz
x,y,z
x,-y,1/2+z
1/2+x,1/2+y,z
1/2+x,1/2-y,1/2+z
loop_
_atom_site_type_symbol
_atom_site_label
_atom_site_fract_x
_atom_site_fract_y
_atom_site_fract_z
Si Si1 0.714310 0.236296 0.829490
Si Si2 0.562419 0.020712 0.398887
Si Si3 0.974513 0.357046 0.059015
Si Si4 0.677768 0.763090 0.598567
Si Si5 0.082223 0.602573 0.752906
Si Si6 0.866398 0.101517 0.118258
Si Si7 0.980671 0.857872 0.807756
Si Si8 0.386661 0.521356 0.472018
O O1 0.676211 0.162601 0.792228
O O2 0.616139 0.292521 0.784954
O O3 0.963956 0.249672 0.754512
O O4 0.604604 0.242984 0.996018
O O5 0.394583 0.074288 0.523042
O O6 0.671233 0.061671 0.252404
O O7 0.725216 0.998975 0.435088
O O8 0.459983 0.951761 0.385278
O O9 0.853124 0.291690 0.064039
O O10 0.930878 0.367253 0.212442
O O11 0.228050 0.347464 0.933736
O O12 0.774583 0.837135 0.580064
O O13 0.277849 0.563055 0.617985
O O14 0.021637 0.130284 0.156025
O O15 0.987944 0.047952 0.984979
O O16 0.058008 0.925807 0.847410
#
# Coordination Sequence:
#
# PCOD8056664 Si02
#       8
#     4   4   4   4   4   4   4   4
#     4  12  24  38  60  90 126 162 203 255 307 364
#     4   8  15  31  57  86 115 152 197 251 300 346
#     4   9  19  37  61  86 120 160 202 255 307 355
#     4  12  24  38  60  90 126 162 203 255 307 364
#     4   9  17  32  59  84 112 158 204 240 293 364
#     4   9  17  32  59  84 112 158 204 240 293 364
#     4   9  19  37  61  86 120 160 202 255 307 355
#     4   8  15  31  57  86 115 152 197 251 300 346
#
# _framework density 22.263528999999998
#
# number of rings (size 3 to 8) (size 9 to 14) (size 15 to 20)
#    0.000    3.000    0.000    4.500    0.000    0.000 
#    0.000    0.000    0.000   73.500    0.000    0.000 
#    0.000    0.000    0.000    0.000    0.000    0.000 
#
# Total GULP energy -198232.681767 kJ/mol
# GULP energy per Si atom -12389.542610 kJ/mol
# Density = 2.221286 g / cm^3
# Si number density = 22.263529 Si / 1000 Ang^3
#
#
#
# Elastic Constant Matrix: (Units=GPa)
#
#
# Indices 1 2 3 4 5 6 
#
# 1 61.0096 61.5699 28.5337 0.0000 17.0624 0.0000
# 2 61.5699 169.4935 35.1950 0.0000 23.2954 0.0000
# 3 28.5337 35.1950 44.9967 0.0000 19.4806 0.0000
# 4 0.0000 0.0000 0.0000 26.7010 0.0000 21.2764
# 5 17.0624 23.2954 19.4806 0.0000 29.4069 0.0000
# 6 0.0000 0.0000 0.0000 21.2764 0.0000 24.1792
#
#
#
# Elastic Compliance Matrix: (Units=1/GPa)
#
#
# Indices 1 2 3 4 5 6 
#
# 1 0.031483 -0.008489 -0.011677 0.000000 -0.003808 0.000000
# 2 -0.008489 0.009490 -0.001286 0.000000 -0.001740 0.000000
# 3 -0.011677 -0.001286 0.038222 0.000000 -0.017526 0.000000
# 4 0.000000 0.000000 0.000000 0.125329 0.000000 -0.110282
# 5 -0.003808 -0.001740 -0.017526 0.000000 0.049204 0.000000
# 6 0.000000 0.000000 0.000000 -0.110282 0.000000 0.138400
#
#
# Mechanical properties :
#
#
# Convention : Reuss Voigt Hill
#
# Bulk Modulus (GPa) = 27.55411 58.45521 43.00466
# Shear Modulus (GPa) = 11.18247 26.07084 18.62666
#
# Velocity S-wave (km/s) = 2.24359 3.42572 2.89562
# Velocity P-wave (km/s) = 4.37205 6.47769 5.52608
#
# Compressibility (1/GPa) = 0.03629222
#
# Stress axis : x y z
#
# Youngs Moduli (GPa) = 31.76286 105.37660 26.16284
#
# Poissons Ratio (x) = 0.89450 0.30549
# Poissons Ratio (y) = 0.26962 0.03365
# Poissons Ratio (z) = 0.37088 0.13555
#
# Static dielectric constant tensor:
#      x y z
#    x 3.580720 0.000000 0.557830 
#    y 0.000000 4.349310 0.000000 
#    z 0.557830 0.000000 4.184550 
# 
# 
# High freq. dielectric constant tensor:
#      x y z
#    x 1.834920 0.000000 0.044510 
#    y 0.000000 1.897440 0.000000 
#    z 0.044510 0.000000 1.870970 
# 
# From -- ./inp_files/15421.got.cif
#   From: 2010.06.25/outbox.cif.g09.slc.cpg/sg9_8_cif.got.tgz:15421.got - 2010.06.27 21:40:51.
