data_PCOD8056236
_publ_section_title
;
Structure prediction by ZEFSAII (Michael W. Deem and Ramdas Pophale) SiO2 
 PCOD8056236
Probable space group: C C
;
_chemical_formula_sum "Si O2"
_cell_formula_units_Z 32
_cell_length_a 9.471039
_cell_length_b 11.223535
_cell_length_c 15.666238
_cell_angle_alpha 90.000000
_cell_angle_beta 62.035908
_cell_angle_gamma 90.000000
_cell_volume 1470.860711
_symmetry_space_group_name_H-M "C C"
_symmetry_group_IT_number 9
_symmetry_cell_setting 'monoclinic'
loop_
_space_group_symop_operation_xyz
x,y,z
x,-y,1/2+z
1/2+x,1/2+y,z
1/2+x,1/2-y,1/2+z
loop_
_atom_site_type_symbol
_atom_site_label
_atom_site_fract_x
_atom_site_fract_y
_atom_site_fract_z
Si Si1 0.230230 0.390333 0.017110
Si Si2 0.691706 0.919808 0.396159
Si Si3 0.951672 0.775539 0.228563
Si Si4 0.962715 0.297049 0.990783
Si Si5 0.379733 0.562061 0.095723
Si Si6 0.129787 0.611012 0.291836
Si Si7 0.179494 0.959938 0.092958
Si Si8 0.384662 0.816187 0.564905
O O1 0.247453 0.469879 0.097470
O O2 0.336630 0.271392 0.000275
O O3 0.282911 0.471921 0.920643
O O4 0.047379 0.346750 0.053341
O O5 0.561744 0.863963 0.496328
O O6 0.813757 0.819422 0.331400
O O7 0.601311 0.978976 0.339651
O O8 0.016183 0.648622 0.245031
O O9 0.884448 0.757310 0.152875
O O10 0.092609 0.875557 0.187702
O O11 0.094320 0.293613 0.877423
O O12 0.896323 0.165467 0.021448
O O13 0.816942 0.383918 0.006598
O O14 0.312842 0.612805 0.204961
O O15 0.550151 0.499112 0.059031
O O16 0.257183 0.077254 0.112708
#
# Coordination Sequence:
#
# PCOD8056236 Si02
#       8
#     4   4   4   4   4   4   4   4
#     4  11  23  42  72  97 136 185 217 281 341 395
#     4  11  25  45  65 103 141 177 234 279 340 413
#     4  12  26  43  69 102 139 184 227 282 345 408
#     4  11  25  44  67 100 136 177 228 278 341 405
#     4  12  23  44  70  97 138 177 223 281 338 399
#     4  11  23  42  69  97 133 181 225 278 335 403
#     4  12  24  42  68 101 133 174 228 276 336 409
#     4  12  25  44  70 103 140 181 226 285 344 408
#
# _framework density 21.755969
#
# number of rings (size 3 to 8) (size 9 to 14) (size 15 to 20)
#    0.000    0.500    7.500    1.500    1.750    1.000 
#    0.000    5.000    0.000    0.000    0.000    0.000 
#    0.000    0.000    0.000    0.000    0.000    0.000 
#
# Total GULP energy -198306.678107 kJ/mol
# GULP energy per Si atom -12394.167382 kJ/mol
# Density = 2.170645 g / cm^3
# Si number density = 21.755969 Si / 1000 Ang^3
#
#
#
# Elastic Constant Matrix: (Units=GPa)
#
#
# Indices 1 2 3 4 5 6 
#
# 1 105.5488 45.1154 30.5052 0.0000 3.6663 0.0000
# 2 45.1154 97.8928 23.5207 0.0000 4.3499 0.0000
# 3 30.5052 23.5207 82.9884 0.0000 -3.8456 0.0000
# 4 0.0000 0.0000 0.0000 38.1098 0.0000 5.8099
# 5 3.6663 4.3499 -3.8456 0.0000 23.6111 0.0000
# 6 0.0000 0.0000 0.0000 5.8099 0.0000 46.7872
#
#
#
# Elastic Compliance Matrix: (Units=1/GPa)
#
#
# Indices 1 2 3 4 5 6 
#
# 1 0.012596 -0.004941 -0.003303 0.000000 -0.001584 0.000000
# 2 -0.004941 0.013054 -0.001974 0.000000 -0.001959 0.000000
# 3 -0.003303 -0.001974 0.013970 0.000000 0.003152 0.000000
# 4 0.000000 0.000000 0.000000 0.026746 0.000000 -0.003321
# 5 -0.001584 -0.001959 0.003152 0.000000 0.043473 0.000000
# 6 0.000000 0.000000 0.000000 -0.003321 0.000000 0.021786
#
#
# Mechanical properties :
#
#
# Convention : Reuss Voigt Hill
#
# Bulk Modulus (GPa) = 52.13042 53.85696 52.99369
# Shear Modulus (GPa) = 31.55456 34.18751 32.87104
#
# Velocity S-wave (km/s) = 3.81253 3.96840 3.89124
# Velocity P-wave (km/s) = 6.58741 6.76804 6.67833
#
# Compressibility (1/GPa) = 0.01918266
#
# Stress axis : x y z
#
# Youngs Moduli (GPa) = 79.39088 76.60584 71.58381
#
# Poissons Ratio (x) = 0.37851 0.23644
# Poissons Ratio (y) = 0.39227 0.14133
# Poissons Ratio (z) = 0.26223 0.15124
#
# Static dielectric constant tensor:
#      x y z
#    x 4.014970 0.000000 0.020380 
#    y 0.000000 4.187880 0.000000 
#    z 0.020380 0.000000 3.768860 
# 
# 
# High freq. dielectric constant tensor:
#      x y z
#    x 1.849380 0.000000 0.003550 
#    y 0.000000 1.869620 0.000000 
#    z 0.003550 0.000000 1.837220 
# 
# From -- ./inp_files/22696.got.cif
#   From: 2010.06.25/outbox.cif.g09.slc.cpg/sg9_12_cif.got.tgz:22696.got - 2010.06.27 21:40:51.
