data_PCOD8056273
_publ_section_title
;
Structure prediction by ZEFSAII (Michael W. Deem and Ramdas Pophale) SiO2 
 PCOD8056273
Probable space group: C C
;
_chemical_formula_sum "Si O2"
_cell_formula_units_Z 32
_cell_length_a 8.269111
_cell_length_b 12.176123
_cell_length_c 14.174202
_cell_angle_alpha 90.000000
_cell_angle_beta 62.089214
_cell_angle_gamma 90.000000
_cell_volume 1261.131217
_symmetry_space_group_name_H-M "C C"
_symmetry_group_IT_number 9
_symmetry_cell_setting 'monoclinic'
loop_
_space_group_symop_operation_xyz
x,y,z
x,-y,1/2+z
1/2+x,1/2+y,z
1/2+x,1/2-y,1/2+z
loop_
_atom_site_type_symbol
_atom_site_label
_atom_site_fract_x
_atom_site_fract_y
_atom_site_fract_z
Si Si1 0.809710 0.520075 0.924580
Si Si2 0.088490 0.148699 0.373446
Si Si3 0.716639 0.054236 0.270495
Si Si4 0.135808 0.562144 0.081464
Si Si5 0.832700 0.855946 0.348057
Si Si6 0.169471 0.222049 0.859059
Si Si7 0.254191 0.869015 0.638832
Si Si8 0.669179 0.822189 0.040392
O O1 0.664850 0.427875 0.935591
O O2 0.801443 0.621181 0.851968
O O3 0.012769 0.470840 0.864822
O O4 0.757065 0.553699 0.045782
O O5 0.186437 0.267376 0.351821
O O6 0.129494 0.090810 0.260466
O O7 0.875114 0.161487 0.446003
O O8 0.734648 0.068340 0.154290
O O9 0.785251 0.171389 0.292886
O O10 0.846226 0.954641 0.268649
O O11 0.067788 0.436369 0.086669
O O12 0.960245 0.641173 0.123501
O O13 0.281269 0.593086 0.962983
O O14 0.032704 0.805050 0.310323
O O15 0.062985 0.258115 0.984969
O O16 0.178593 0.748643 0.632854
#
# Coordination Sequence:
#
# PCOD8056273 Si02
#       8
#     4   4   4   4   4   4   4   4
#     4  11  23  44  72 101 144 190 237 299 361 434
#     4  12  24  47  74 104 150 194 240 308 364 429
#     4  12  24  47  72 103 145 187 240 300 361 431
#     4  12  23  44  75 106 138 194 239 291 372 431
#     4  12  23  46  74 101 145 186 239 304 356 429
#     4  11  24  46  68  99 141 190 234 300 357 417
#     4  11  23  45  74 106 140 197 244 286 375 433
#     4  11  24  45  73 102 149 190 239 308 354 436
#
# _framework density 25.374047000000001
#
# number of rings (size 3 to 8) (size 9 to 14) (size 15 to 20)
#    0.000    0.500    6.250    2.250    0.000    0.000 
#   11.250    0.000    0.000    0.000    0.000    0.000 
#    0.000    0.000    0.000    0.000    0.000    0.000 
#
# Total GULP energy -198380.746257 kJ/mol
# GULP energy per Si atom -12398.796641 kJ/mol
# Density = 2.531629 g / cm^3
# Si number density = 25.374047 Si / 1000 Ang^3
#
#
#
# Elastic Constant Matrix: (Units=GPa)
#
#
# Indices 1 2 3 4 5 6 
#
# 1 78.0132 20.2003 11.5984 0.0000 22.7891 0.0000
# 2 20.2003 117.4472 6.7188 0.0000 26.4090 0.0000
# 3 11.5984 6.7188 110.0698 0.0000 33.2071 0.0000
# 4 0.0000 0.0000 0.0000 28.1464 0.0000 16.0472
# 5 22.7891 26.4090 33.2071 0.0000 37.7251 0.0000
# 6 0.0000 0.0000 0.0000 16.0472 0.0000 36.4055
#
#
#
# Elastic Compliance Matrix: (Units=1/GPa)
#
#
# Indices 1 2 3 4 5 6 
#
# 1 0.015799 -0.000416 0.001569 0.000000 -0.010633 0.000000
# 2 -0.000416 0.010473 0.002098 0.000000 -0.008927 0.000000
# 3 0.001569 0.002098 0.012963 0.000000 -0.013827 0.000000
# 4 0.000000 0.000000 0.000000 0.047454 0.000000 -0.020917
# 5 -0.010633 -0.008927 -0.013827 0.000000 0.051351 0.000000
# 6 0.000000 0.000000 0.000000 -0.020917 0.000000 0.036688
#
#
# Mechanical properties :
#
#
# Convention : Reuss Voigt Hill
#
# Bulk Modulus (GPa) = 21.86459 42.50725 32.18592
# Shear Modulus (GPa) = 27.25179 38.25624 32.75402
#
# Velocity S-wave (km/s) = 3.28075 3.88711 3.59673
# Velocity P-wave (km/s) = 4.79445 6.07740 5.47364
#
# Compressibility (1/GPa) = 0.04573606
#
# Stress axis : x y z
#
# Youngs Moduli (GPa) = 63.29474 95.48091 77.14134
#
# Poissons Ratio (x) = 0.03973 -0.12101
# Poissons Ratio (y) = 0.02634 -0.16182
# Poissons Ratio (z) = -0.09929 -0.20029
#
# Static dielectric constant tensor:
#      x y z
#    x 4.489920 0.000000 0.463740 
#    y 0.000000 4.981350 0.000000 
#    z 0.463740 0.000000 4.527760 
# 
# 
# High freq. dielectric constant tensor:
#      x y z
#    x 2.011360 0.000000 0.031930 
#    y 0.000000 2.024190 0.000000 
#    z 0.031930 0.000000 2.005310 
# 
# From -- ./inp_files/22713.got.cif
#   From: 2010.06.25/outbox.cif.g09.slc.cpg/sg9_12_cif.got.tgz:22713.got - 2010.06.27 21:40:51.
