data_PCOD8056418
_publ_section_title
;
Structure prediction by ZEFSAII (Michael W. Deem and Ramdas Pophale) SiO2 
 PCOD8056418
Probable space group: C C
;
_chemical_formula_sum "Si O2"
_cell_formula_units_Z 32
_cell_length_a 8.770758
_cell_length_b 11.969150
_cell_length_c 15.564784
_cell_angle_alpha 90.000000
_cell_angle_beta 63.347189
_cell_angle_gamma 90.000000
_cell_volume 1460.344396
_symmetry_space_group_name_H-M "C C"
_symmetry_group_IT_number 9
_symmetry_cell_setting 'monoclinic'
loop_
_space_group_symop_operation_xyz
x,y,z
x,-y,1/2+z
1/2+x,1/2+y,z
1/2+x,1/2-y,1/2+z
loop_
_atom_site_type_symbol
_atom_site_label
_atom_site_fract_x
_atom_site_fract_y
_atom_site_fract_z
Si Si1 0.064670 0.932999 0.639450
Si Si2 0.536294 0.609925 0.506042
Si Si3 0.542629 0.467956 0.335831
Si Si4 0.916577 0.408174 0.223593
Si Si5 0.357038 0.746366 0.915440
Si Si6 0.842069 0.236172 0.107907
Si Si7 0.481336 0.158216 0.224698
Si Si8 0.731310 0.230619 0.667270
O O1 0.202511 0.832918 0.607944
O O2 0.890735 0.874256 0.650085
O O3 0.120690 0.026033 0.555657
O O4 0.043552 0.977109 0.741605
O O5 0.505302 0.555856 0.420629
O O6 0.658731 0.717574 0.465470
O O7 0.352221 0.643768 0.588190
O O8 0.727686 0.413053 0.313288
O O9 0.391419 0.376907 0.368364
O O10 0.895146 0.353198 0.135761
O O11 0.992234 0.531329 0.190956
O O12 0.054403 0.331691 0.239740
O O13 0.466226 0.835974 0.832215
O O14 0.431274 0.739761 0.992802
O O15 0.638246 0.229389 0.148829
O O16 0.311405 0.219906 0.233726
#
# Coordination Sequence:
#
# PCOD8056418 Si02
#       8
#     4   4   4   4   4   4   4   4
#     4  11  24  48  73  98 144 193 230 305 358 423
#     4  12  24  46  72 104 146 182 238 301 359 426
#     4  12  24  46  70 105 148 184 244 302 357 436
#     4  11  24  45  70 100 137 189 235 286 357 430
#     4  12  24  42  73 104 138 189 234 292 363 429
#     4  11  24  46  70 100 145 187 239 293 365 430
#     4  12  23  45  70 102 142 187 231 295 362 425
#     4  11  25  44  74 103 138 189 241 292 357 433
#
# _framework density 21.91264
#
# number of rings (size 3 to 8) (size 9 to 14) (size 15 to 20)
#    0.000    0.500    6.250    2.250    0.000    0.000 
#   11.250    2.500    0.000    0.000    0.000    0.000 
#    0.000    0.000    0.000    0.000    0.000    0.000 
#
# Total GULP energy -198338.034789 kJ/mol
# GULP energy per Si atom -12396.127174 kJ/mol
# Density = 2.186277 g / cm^3
# Si number density = 21.912640 Si / 1000 Ang^3
#
#
#
# Elastic Constant Matrix: (Units=GPa)
#
#
# Indices 1 2 3 4 5 6 
#
# 1 99.9787 59.9271 32.6105 0.0000 3.2013 0.0000
# 2 59.9271 130.5043 52.4156 0.0000 8.0576 0.0000
# 3 32.6105 52.4156 118.5724 0.0000 11.9603 0.0000
# 4 0.0000 0.0000 0.0000 30.2554 0.0000 2.3146
# 5 3.2013 8.0576 11.9603 0.0000 29.0832 0.0000
# 6 0.0000 0.0000 0.0000 2.3146 0.0000 42.2628
#
#
#
# Elastic Compliance Matrix: (Units=1/GPa)
#
#
# Indices 1 2 3 4 5 6 
#
# 1 0.013956 -0.005934 -0.001279 0.000000 0.000634 0.000000
# 2 -0.005934 0.011864 -0.003492 0.000000 -0.001198 0.000000
# 3 -0.001279 -0.003492 0.010659 0.000000 -0.003275 0.000000
# 4 0.000000 0.000000 0.000000 0.033191 0.000000 -0.001818
# 5 0.000634 -0.001198 -0.003275 0.000000 0.035993 0.000000
# 6 0.000000 0.000000 0.000000 -0.001818 0.000000 0.023761
#
#
# Mechanical properties :
#
#
# Convention : Reuss Voigt Hill
#
# Bulk Modulus (GPa) = 66.35813 70.99577 68.67695
# Shear Modulus (GPa) = 32.08081 33.92709 33.00395
#
# Velocity S-wave (km/s) = 3.83042 3.93910 3.88514
# Velocity P-wave (km/s) = 7.06481 7.29098 7.17879
#
# Compressibility (1/GPa) = 0.01506974
#
# Stress axis : x y z
#
# Youngs Moduli (GPa) = 71.65490 84.29056 93.81455
#
# Poissons Ratio (x) = 0.50017 0.11999
# Poissons Ratio (y) = 0.42519 0.32757
# Poissons Ratio (z) = 0.09165 0.29431
#
# Static dielectric constant tensor:
#      x y z
#    x 4.096060 0.000000 0.127190 
#    y 0.000000 4.133090 0.000000 
#    z 0.127190 0.000000 3.915290 
# 
# 
# High freq. dielectric constant tensor:
#      x y z
#    x 1.858360 0.000000 0.009340 
#    y 0.000000 1.874700 0.000000 
#    z 0.009340 0.000000 1.853730 
# 
# From -- ./inp_files/22792.got.cif
#   From: 2010.06.25/outbox.cif.g09.slc.cpg/sg9_12_cif.got.tgz:22792.got - 2010.06.27 21:40:51.
