data_PCOD8056172
_publ_section_title
;
Structure prediction by ZEFSAII (Michael W. Deem and Ramdas Pophale) SiO2 
 PCOD8056172
Probable space group: C C
;
_chemical_formula_sum "Si O2"
_cell_formula_units_Z 32
_cell_length_a 8.585737
_cell_length_b 12.885177
_cell_length_c 14.705905
_cell_angle_alpha 90.000000
_cell_angle_beta 54.567524
_cell_angle_gamma 90.000000
_cell_volume 1325.593555
_symmetry_space_group_name_H-M "C C"
_symmetry_group_IT_number 9
_symmetry_cell_setting 'monoclinic'
loop_
_space_group_symop_operation_xyz
x,y,z
x,-y,1/2+z
1/2+x,1/2+y,z
1/2+x,1/2-y,1/2+z
loop_
_atom_site_type_symbol
_atom_site_label
_atom_site_fract_x
_atom_site_fract_y
_atom_site_fract_z
Si Si1 0.740870 0.376261 0.680490
Si Si2 0.511495 0.067540 0.403303
Si Si3 0.821074 0.334806 0.289885
Si Si4 0.067796 0.462619 0.078105
Si Si5 0.419520 0.165972 0.952513
Si Si6 0.384674 0.617668 0.201155
Si Si7 0.483814 0.532589 0.977660
Si Si8 0.210849 0.174619 0.389956
O O1 0.895827 0.462899 0.606955
O O2 0.520707 0.410832 0.742242
O O3 0.793302 0.330196 0.759903
O O4 0.766727 0.299748 0.582842
O O5 0.578147 0.106077 0.481523
O O6 0.695583 0.048933 0.276800
O O7 0.377209 0.158412 0.407350
O O8 0.408311 0.956753 0.434481
O O9 0.999511 0.402967 0.191641
O O10 0.804119 0.236431 0.229022
O O11 0.624782 0.403371 0.361063
O O12 0.875445 0.284150 0.369357
O O13 0.262097 0.528297 0.023404
O O14 0.618865 0.210743 0.926390
O O15 0.495431 0.589778 0.070929
O O16 0.551949 0.413924 0.959665
#
# Coordination Sequence:
#
# PCOD8056172 Si02
#       8
#     4   4   4   4   4   4   4   4
#     4  11  22  44  69 107 146 201 255 326 398 476
#     4  11  26  49  68 114 155 201 273 332 395 486
#     4  12  25  46  76 113 157 205 274 326 405 494
#     4  11  26  47  76 103 159 207 260 336 404 471
#     4  11  24  45  75 107 150 203 263 320 402 487
#     4  12  26  42  78 107 159 200 263 330 410 471
#     4  12  25  46  78 109 152 212 259 338 405 480
#     4  12  24  47  76 104 152 205 265 326 403 477
#
# _framework density 24.140128000000001
#
# number of rings (size 3 to 8) (size 9 to 14) (size 15 to 20)
#    0.000    0.500    5.000    3.000    3.500    3.000 
#    2.250    0.000    0.000    0.000    0.000    0.000 
#    0.000    0.000    0.000    0.000    0.000    0.000 
#
# Total GULP energy -198217.162656 kJ/mol
# GULP energy per Si atom -12388.572666 kJ/mol
# Density = 2.408518 g / cm^3
# Si number density = 24.140128 Si / 1000 Ang^3
#
#
#
# Elastic Constant Matrix: (Units=GPa)
#
#
# Indices 1 2 3 4 5 6 
#
# 1 126.5239 26.5853 33.1259 0.0000 -4.2692 0.0000
# 2 26.5853 45.2909 29.3160 0.0000 0.2874 0.0000
# 3 33.1259 29.3160 135.3727 -0.0001 8.9292 0.0000
# 4 0.0000 0.0000 -0.0001 21.9143 0.0001 -7.2453
# 5 -4.2692 0.2874 8.9292 0.0001 49.2202 0.0000
# 6 0.0000 0.0000 0.0000 -7.2453 0.0000 39.8622
#
#
#
# Elastic Compliance Matrix: (Units=1/GPa)
#
#
# Indices 1 2 3 4 5 6 
#
# 1 0.009252 -0.004566 -0.001346 0.000000 0.001073 0.000000
# 2 -0.004566 0.027970 -0.004962 0.000000 0.000341 0.000000
# 3 -0.001346 -0.004962 0.008903 0.000000 -0.001703 0.000000
# 4 0.000000 0.000000 0.000000 0.048550 0.000000 0.008824
# 5 0.001073 0.000341 -0.001703 0.000000 0.020717 0.000000
# 6 0.000000 0.000000 0.000000 0.008824 0.000000 0.026690
#
#
# Mechanical properties :
#
#
# Convention : Reuss Voigt Hill
#
# Bulk Modulus (GPa) = 41.02395 53.91577 47.46986
# Shear Modulus (GPa) = 29.07725 36.74334 32.91029
#
# Velocity S-wave (km/s) = 3.47438 3.90562 3.69630
# Velocity P-wave (km/s) = 5.75553 6.53617 6.15823
#
# Compressibility (1/GPa) = 0.02437600
#
# Stress axis : x y z
#
# Youngs Moduli (GPa) = 108.08819 35.75306 112.31851
#
# Poissons Ratio (x) = 0.16326 0.15116
# Poissons Ratio (y) = 0.49357 0.55734
# Poissons Ratio (z) = 0.14547 0.17741
#
# Static dielectric constant tensor:
#      x y z
#    x 4.255300 0.000000 0.089920 
#    y 0.000000 4.106580 0.000000 
#    z 0.089920 0.000000 4.988980 
# 
# 
# High freq. dielectric constant tensor:
#      x y z
#    x 1.958320 0.000000 -0.001470 
#    y 0.000000 1.930080 0.000000 
#    z -0.001470 0.000000 1.985810 
# 
# From -- ./inp_files/23359.got.cif
#   From: 2010.06.25/outbox.cif.g09.slc.cpg/sg9_12_cif.got.tgz:23359.got - 2010.06.27 21:40:51.
