data_PCOD8056657
_publ_section_title
;
Structure prediction by ZEFSAII (Michael W. Deem and Ramdas Pophale) SiO2 
 PCOD8056657
Probable space group: C C
;
_chemical_formula_sum "Si O2"
_cell_formula_units_Z 32
_cell_length_a 26.104802
_cell_length_b 9.546950
_cell_length_c 9.690906
_cell_angle_alpha 90.000000
_cell_angle_beta 142.045587
_cell_angle_gamma 90.000000
_cell_volume 1485.418310
_symmetry_space_group_name_H-M "C C"
_symmetry_group_IT_number 9
_symmetry_cell_setting 'monoclinic'
loop_
_space_group_symop_operation_xyz
x,y,z
x,-y,1/2+z
1/2+x,1/2+y,z
1/2+x,1/2-y,1/2+z
loop_
_atom_site_type_symbol
_atom_site_label
_atom_site_fract_x
_atom_site_fract_y
_atom_site_fract_z
Si Si1 0.152300 0.273212 0.169970
Si Si2 0.040758 0.510589 0.840412
Si Si3 0.677722 0.490288 0.081270
Si Si4 0.547533 0.288670 0.704632
Si Si5 0.832640 0.138702 0.094825
Si Si6 0.857792 0.863555 0.327130
Si Si7 0.934684 0.410396 0.372202
Si Si8 0.777879 0.407927 0.548785
O O1 0.165626 0.152613 0.087161
O O2 0.081198 0.218789 0.121391
O O3 0.240114 0.304802 0.430983
O O4 0.120491 0.411110 0.024767
O O5 0.075547 0.646459 0.837628
O O6 0.969250 0.431849 0.600094
O O7 0.007422 0.558170 0.918145
O O8 0.721327 0.399567 0.292934
O O9 0.734396 0.486661 0.064911
O O10 0.587713 0.422243 0.864797
O O11 0.448697 0.299699 0.496729
O O12 0.901235 0.253058 0.283856
O O13 0.848329 0.001849 0.217570
O O14 0.842247 0.101886 0.953979
O O15 0.791121 0.747464 0.136952
O O16 0.864166 0.522753 0.188485
#
# Coordination Sequence:
#
# PCOD8056657 Si02
#       8
#     4   4   4   4   4   4   4   4
#     4  12  27  47  70 110 140 185 238 292 354 421
#     4  12  26  44  77 101 146 184 237 292 356 419
#     4  12  26  44  77 101 146 184 237 292 356 419
#     4  12  27  47  70 110 140 185 238 292 354 421
#     4  12  28  47  71 105 145 183 238 290 350 415
#     4  12  28  47  71 105 145 183 238 290 350 415
#     4  12  23  48  73 103 137 189 236 287 348 427
#     4  12  23  48  73 103 137 189 236 287 348 427
#
# _framework density 21.542755
#
# number of rings (size 3 to 8) (size 9 to 14) (size 15 to 20)
#    0.000    0.000    7.500    0.750    7.000    3.000 
#    0.000    0.000    0.000    0.000    0.000    0.000 
#    0.000    0.000    0.000    0.000    0.000    0.000 
#
# Total GULP energy -198512.159341 kJ/mol
# GULP energy per Si atom -12407.009959 kJ/mol
# Density = 2.149372 g / cm^3
# Si number density = 21.542755 Si / 1000 Ang^3
#
#
#
# Elastic Constant Matrix: (Units=GPa)
#
#
# Indices 1 2 3 4 5 6 
#
# 1 72.8186 3.9142 17.3810 0.0000 -0.7562 0.0000
# 2 3.9142 135.2208 39.2701 0.0000 3.0809 0.0000
# 3 17.3810 39.2701 76.7313 0.0000 3.8511 0.0000
# 4 0.0000 0.0000 0.0000 53.2049 0.0000 1.1425
# 5 -0.7562 3.0809 3.8511 0.0000 32.1743 0.0000
# 6 0.0000 0.0000 0.0000 1.1425 0.0000 32.2626
#
#
#
# Elastic Compliance Matrix: (Units=1/GPa)
#
#
# Indices 1 2 3 4 5 6 
#
# 1 0.014580 0.000624 -0.003658 0.000000 0.000721 0.000000
# 2 0.000624 0.008716 -0.004588 0.000000 -0.000271 0.000000
# 3 -0.003658 -0.004588 0.016290 0.000000 -0.001596 0.000000
# 4 0.000000 0.000000 0.000000 0.018810 0.000000 -0.000666
# 5 0.000721 -0.000271 -0.001596 0.000000 0.031315 0.000000
# 6 0.000000 0.000000 0.000000 -0.000666 0.000000 0.031019
#
#
# Mechanical properties :
#
#
# Convention : Reuss Voigt Hill
#
# Bulk Modulus (GPa) = 41.08447 45.10014 43.09231
# Shear Modulus (GPa) = 34.70115 38.47540 36.58828
#
# Velocity S-wave (km/s) = 4.01784 4.23070 4.12564
# Velocity P-wave (km/s) = 6.37468 6.69669 6.53767
#
# Compressibility (1/GPa) = 0.02434010
#
# Stress axis : x y z
#
# Youngs Moduli (GPa) = 68.58780 114.73182 61.38906
#
# Poissons Ratio (x) = -0.07158 0.22457
# Poissons Ratio (y) = -0.04279 0.28168
# Poissons Ratio (z) = 0.25090 0.52644
#
# Static dielectric constant tensor:
#      x y z
#    x 3.977030 0.000000 0.031010 
#    y 0.000000 3.999940 0.000000 
#    z 0.031010 0.000000 3.970850 
# 
# 
# High freq. dielectric constant tensor:
#      x y z
#    x 1.858140 0.000000 -0.001190 
#    y 0.000000 1.856320 0.000000 
#    z -0.001190 0.000000 1.847020 
# 
# From -- ./inp_files/12407.got.cif
#   From: 2010.06.25/outbox.cif.g09.slc.cpg/sg9_7_cif.got.tgz:12407.got - 2010.06.27 21:40:51.
