data_PCOD8056252
_publ_section_title
;
Structure prediction by ZEFSAII (Michael W. Deem and Ramdas Pophale) SiO2 
 PCOD8056252
Probable space group: C C
;
_chemical_formula_sum "Si O2"
_cell_formula_units_Z 28
_cell_length_a 12.140603
_cell_length_b 14.124798
_cell_length_c 7.848350
_cell_angle_alpha 90.000000
_cell_angle_beta 62.139672
_cell_angle_gamma 90.000000
_cell_volume 1189.863267
_symmetry_space_group_name_H-M "C C"
_symmetry_group_IT_number 9
_symmetry_cell_setting 'monoclinic'
loop_
_space_group_symop_operation_xyz
x,y,z
x,-y,1/2+z
1/2+x,1/2+y,z
1/2+x,1/2-y,1/2+z
loop_
_atom_site_type_symbol
_atom_site_label
_atom_site_fract_x
_atom_site_fract_y
_atom_site_fract_z
Si Si1 0.419220 0.125260 0.843160
Si Si2 0.132410 0.105392 0.794914
Si Si3 0.799776 0.185737 0.390252
Si Si4 0.402707 0.072603 0.497799
Si Si5 0.651235 0.777732 0.318519
Si Si6 0.067287 0.094174 0.216405
Si Si7 0.114830 0.307664 0.721036
O O1 0.313696 0.200844 0.865961
O O2 0.474362 0.083899 0.626801
O O3 0.514597 0.182550 0.887556
O O4 0.371973 0.037092 0.987127
O O5 0.265974 0.117993 0.606183
O O6 0.059737 0.202797 0.803417
O O7 0.057325 0.012874 0.789627
O O8 0.147782 0.095424 0.986293
O O9 0.742503 0.168268 0.620651
O O10 0.708643 0.155977 0.300894
O O11 0.927142 0.128330 0.278985
O O12 0.493944 0.123201 0.295613
O O13 0.640197 0.663753 0.296181
O O14 0.686733 0.804013 0.487062
#
# Coordination Sequence:
#
# PCOD8056252 Si02
#       7
#     4   4   4   4   4   4   4
#     4  11  23  43  70 103 146 183 236 289 356 414
#     4  12  24  44  71 104 139 192 230 294 346 429
#     4  11  23  51  68 103 151 183 229 308 344 427
#     4  12  23  43  72 104 140 185 236 295 342 428
#     4  11  23  45  72 105 141 190 231 294 352 423
#     4  11  25  46  72 104 149 184 240 286 364 417
#     4  12  25  44  77 105 138 187 244 286 366 408
#
# _framework density 23.532114
#
# number of rings (size 3 to 8) (size 9 to 14) (size 15 to 20)
#    0.000    0.571    4.286    4.286    0.000    3.429 
#    5.143    0.000    0.000    0.000    0.000    0.000 
#    0.000    0.000    0.000    0.000    0.000    0.000 
#
# Total GULP energy -173521.149698 kJ/mol
# GULP energy per Si atom -12394.367836 kJ/mol
# Density = 2.347855 g / cm^3
# Si number density = 23.532114 Si / 1000 Ang^3
#
#
#
# Elastic Constant Matrix: (Units=GPa)
#
#
# Indices 1 2 3 4 5 6 
#
# 1 78.4561 35.3579 36.7380 0.0000 -2.1085 0.0000
# 2 35.3579 95.3953 13.7478 0.0000 -4.3487 0.0000
# 3 36.7380 13.7478 128.4241 0.0000 17.0808 0.0000
# 4 0.0000 0.0000 0.0000 35.0833 0.0000 2.2546
# 5 -2.1085 -4.3487 17.0808 0.0000 39.9359 0.0000
# 6 0.0000 0.0000 0.0000 2.2546 0.0000 27.9804
#
#
#
# Elastic Compliance Matrix: (Units=1/GPa)
#
#
# Indices 1 2 3 4 5 6 
#
# 1 0.017612 -0.005739 -0.004734 0.000000 0.002329 0.000000
# 2 -0.005739 0.012633 0.000156 0.000000 0.001006 0.000000
# 3 -0.004734 0.000156 0.009707 0.000000 -0.004385 0.000000
# 4 0.000000 0.000000 0.000000 0.028652 0.000000 -0.002309
# 5 0.002329 0.001006 -0.004385 0.000000 0.027148 0.000000
# 6 0.000000 0.000000 0.000000 -0.002309 0.000000 0.035925
#
#
# Mechanical properties :
#
#
# Convention : Reuss Voigt Hill
#
# Bulk Modulus (GPa) = 51.76551 52.66254 52.21402
# Shear Modulus (GPa) = 31.49571 35.02870 33.26220
#
# Velocity S-wave (km/s) = 3.66240 3.86236 3.76371
# Velocity P-wave (km/s) = 6.31901 6.50523 6.41279
#
# Compressibility (1/GPa) = 0.01931788
#
# Stress axis : x y z
#
# Youngs Moduli (GPa) = 56.78047 79.15519 103.01461
#
# Poissons Ratio (x) = 0.45430 0.48763
# Poissons Ratio (y) = 0.32588 -0.01603
# Poissons Ratio (z) = 0.26877 -0.01232
#
# Static dielectric constant tensor:
#      x y z
#    x 3.888020 0.000000 0.153650 
#    y 0.000000 4.335790 0.000000 
#    z 0.153650 0.000000 4.301960 
# 
# 
# High freq. dielectric constant tensor:
#      x y z
#    x 1.917850 0.000000 0.005960 
#    y 0.000000 1.931020 0.000000 
#    z 0.005960 0.000000 1.938640 
# 
# From -- ./inp_files/7333.got.cif
#   From: 2010.06.25/outbox.cif.g09.slc.cpg/sg9_4_cif.got.tgz:7333.got - 2010.06.27 21:40:51.
