data_PCOD8056407
_publ_section_title
;
Structure prediction by ZEFSAII (Michael W. Deem and Ramdas Pophale) SiO2 
 PCOD8056407
Probable space group: C C
;
_chemical_formula_sum "Si O2"
_cell_formula_units_Z 24
_cell_length_a 13.734600
_cell_length_b 13.078700
_cell_length_c 9.115665
_cell_angle_alpha 90.000000
_cell_angle_beta 36.452641
_cell_angle_gamma 90.000000
_cell_volume 972.906267
_symmetry_space_group_name_H-M "C C"
_symmetry_group_IT_number 9
_symmetry_cell_setting 'monoclinic'
loop_
_space_group_symop_operation_xyz
x,y,z
x,-y,1/2+z
1/2+x,1/2+y,z
1/2+x,1/2-y,1/2+z
loop_
_atom_site_type_symbol
_atom_site_label
_atom_site_fract_x
_atom_site_fract_y
_atom_site_fract_z
Si Si1 0.103600 0.111214 0.173720
Si Si2 0.479402 0.799329 0.795714
Si Si3 0.071878 0.433686 0.407961
Si Si4 0.775120 0.192670 0.473073
Si Si5 0.747415 0.454820 0.207136
Si Si6 0.757619 0.859682 0.665844
O O1 0.240419 0.191197 0.060988
O O2 0.121225 0.016429 0.259136
O O3 0.922117 0.157504 0.399860
O O4 0.128037 0.085064 0.975278
O O5 0.569919 0.849616 0.543541
O O6 0.595320 0.809697 0.795405
O O7 0.411437 0.679909 0.873181
O O8 0.316157 0.865258 0.021959
O O9 0.114913 0.374888 0.205986
O O10 0.218571 0.519806 0.240624
O O11 0.893765 0.482055 0.606457
O O12 0.802250 0.189929 0.267111
#
# Coordination Sequence:
#
# PCOD8056407 Si02
#       6
#     4   4   4   4   4   4
#     4  12  27  47  76 106 150 196 251 310 385 462
#     4  11  24  44  74 108 145 200 248 315 386 452
#     4  11  26  48  72 109 153 195 253 326 383 453
#     4  12  27  47  74 108 151 200 249 312 390 460
#     4  11  24  48  73 105 145 196 253 316 380 459
#     4  11  24  44  75 106 150 197 254 307 386 462
#
# _framework density 24.668358999999999
#
# number of rings (size 3 to 8) (size 9 to 14) (size 15 to 20)
#    0.000    0.667    3.333    4.000    7.000    2.667 
#    3.000    0.000    0.000    0.000    0.000    0.000 
#    0.000    0.000    0.000    0.000    0.000    0.000 
#
# Total GULP energy -148674.464713 kJ/mol
# GULP energy per Si atom -12389.538726 kJ/mol
# Density = 2.461221 g / cm^3
# Si number density = 24.668359 Si / 1000 Ang^3
#
#
#
# Elastic Constant Matrix: (Units=GPa)
#
#
# Indices 1 2 3 4 5 6 
#
# 1 91.4853 22.8766 14.2861 -0.0001 -14.2939 0.0001
# 2 22.8766 100.8290 53.6750 0.0000 0.9869 0.0000
# 3 14.2861 53.6750 89.0422 0.0000 1.8707 0.0000
# 4 -0.0001 0.0000 0.0000 55.7749 0.0000 -1.4704
# 5 -14.2939 0.9869 1.8707 0.0000 24.8540 -0.0001
# 6 0.0001 0.0000 0.0000 -1.4704 -0.0001 13.0703
#
#
#
# Elastic Compliance Matrix: (Units=1/GPa)
#
#
# Indices 1 2 3 4 5 6 
#
# 1 0.012875 -0.002667 -0.000617 0.000000 0.007557 0.000000
# 2 -0.002667 0.015157 -0.008678 0.000000 -0.001482 0.000000
# 3 -0.000617 -0.008678 0.016587 0.000000 -0.001259 0.000000
# 4 0.000000 0.000000 0.000000 0.017983 0.000000 0.002023
# 5 0.007557 -0.001482 -0.001259 0.000000 0.044734 0.000000
# 6 0.000000 0.000000 0.000000 0.002023 0.000000 0.076737
#
#
# Mechanical properties :
#
#
# Convention : Reuss Voigt Hill
#
# Bulk Modulus (GPa) = 48.31853 51.44799 49.88326
# Shear Modulus (GPa) = 23.26741 31.44108 27.35424
#
# Velocity S-wave (km/s) = 3.07450 3.57396 3.33360
# Velocity P-wave (km/s) = 5.67743 6.15890 5.92306
#
# Compressibility (1/GPa) = 0.02069599
#
# Stress axis : x y z
#
# Youngs Moduli (GPa) = 77.67277 65.97759 60.28853
#
# Poissons Ratio (x) = 0.17593 0.03719
# Poissons Ratio (y) = 0.20712 0.52315
# Poissons Ratio (z) = 0.04792 0.57252
#
# Static dielectric constant tensor:
#      x y z
#    x 4.097320 0.000000 -0.057020 
#    y 0.000000 4.828130 0.000000 
#    z -0.057020 0.000000 4.400890 
# 
# 
# High freq. dielectric constant tensor:
#      x y z
#    x 1.978620 0.000000 -0.008840 
#    y 0.000000 1.990870 0.000000 
#    z -0.008840 0.000000 1.976080 
# 
# From -- ./inp_files/6931.got.cif
#   From: 2010.06.25/outbox.cif.g09.slc.cpg/sg9_4_cif.got.tgz:6931.got - 2010.06.27 21:40:51.
