data_PCOD8056247
_publ_section_title
;
Structure prediction by ZEFSAII (Michael W. Deem and Ramdas Pophale) SiO2 
 PCOD8056247
Probable space group: C C
;
_chemical_formula_sum "Si O2"
_cell_formula_units_Z 24
_cell_length_a 12.433948
_cell_length_b 13.399158
_cell_length_c 8.623538
_cell_angle_alpha 90.000000
_cell_angle_beta 134.515056
_cell_angle_gamma 90.000000
_cell_volume 1024.476293
_symmetry_space_group_name_H-M "C C"
_symmetry_group_IT_number 9
_symmetry_cell_setting 'monoclinic'
loop_
_space_group_symop_operation_xyz
x,y,z
x,-y,1/2+z
1/2+x,1/2+y,z
1/2+x,1/2-y,1/2+z
loop_
_atom_site_type_symbol
_atom_site_label
_atom_site_fract_x
_atom_site_fract_y
_atom_site_fract_z
Si Si1 0.300910 0.982790 0.311630
Si Si2 0.596732 0.442150 0.372574
Si Si3 0.625929 0.938302 0.076404
Si Si4 0.366928 0.229181 0.832024
Si Si5 0.622093 0.773896 0.807640
Si Si6 0.813383 0.915069 0.570422
O O1 0.253995 0.963592 0.440912
O O2 0.298346 0.877846 0.212022
O O3 0.459761 0.039221 0.472662
O O4 0.155712 0.045191 0.106691
O O5 0.550991 0.327811 0.303427
O O6 0.456731 0.513169 0.189628
O O7 0.611007 0.857933 0.925742
O O8 0.729455 0.898010 0.321749
O O9 0.700726 0.037301 0.081919
O O10 0.535257 0.202135 0.058901
O O11 0.292038 0.267906 0.917120
O O12 0.365784 0.307443 0.689208
#
# Coordination Sequence:
#
# PCOD8056247 Si02
#       6
#     4   4   4   4   4   4
#     4  11  24  43  65  92 130 172 214 268 330 390
#     4  11  24  43  65  92 130 172 214 268 330 390
#     4  12  24  42  69 101 133 173 224 278 330 391
#     4  11  23  43  67  93 129 173 217 270 331 393
#     4  11  23  43  67  93 129 173 217 270 331 393
#     4  12  24  42  69 101 133 173 224 278 330 391
#
# _framework density 23.426604000000001
#
# number of rings (size 3 to 8) (size 9 to 14) (size 15 to 20)
#    0.000    0.667    0.000   11.000    0.000    1.333 
#    0.000   10.000    0.000    2.000    0.000    0.000 
#    0.000    0.000    0.000    0.000    0.000    0.000 
#
# Total GULP energy -148751.950083 kJ/mol
# GULP energy per Si atom -12395.995840 kJ/mol
# Density = 2.337328 g / cm^3
# Si number density = 23.426604 Si / 1000 Ang^3
#
#
#
# Elastic Constant Matrix: (Units=GPa)
#
#
# Indices 1 2 3 4 5 6 
#
# 1 55.1534 15.8295 5.0264 0.0000 15.0701 0.0000
# 2 15.8295 87.0713 31.8782 0.0000 -2.5991 0.0000
# 3 5.0264 31.8782 143.6834 0.0000 -0.9042 0.0000
# 4 0.0000 0.0000 0.0000 44.9073 0.0000 -7.5973
# 5 15.0701 -2.5991 -0.9042 0.0000 38.2671 0.0000
# 6 0.0000 0.0000 0.0000 -7.5973 0.0000 39.0569
#
#
#
# Elastic Compliance Matrix: (Units=1/GPa)
#
#
# Indices 1 2 3 4 5 6 
#
# 1 0.021765 -0.004269 0.000130 0.000000 -0.008858 0.000000
# 2 -0.004269 0.013361 -0.002799 0.000000 0.002522 0.000000
# 3 0.000130 -0.002799 0.007576 0.000000 -0.000062 0.000000
# 4 0.000000 0.000000 0.000000 0.023026 0.000000 0.004479
# 5 -0.008858 0.002522 -0.000062 0.000000 0.029790 0.000000
# 6 0.000000 0.000000 0.000000 0.004479 0.000000 0.026475
#
#
# Mechanical properties :
#
#
# Convention : Reuss Voigt Hill
#
# Bulk Modulus (GPa) = 34.69114 43.48627 39.08871
# Shear Modulus (GPa) = 34.36952 39.99118 37.18035
#
# Velocity S-wave (km/s) = 3.83445 4.13617 3.98816
# Velocity P-wave (km/s) = 5.86895 6.43534 6.15866
#
# Compressibility (1/GPa) = 0.02882580
#
# Stress axis : x y z
#
# Youngs Moduli (GPa) = 45.94532 74.84455 131.99868
#
# Poissons Ratio (x) = 0.31950 -0.01716
# Poissons Ratio (y) = 0.19613 0.36948
# Poissons Ratio (z) = -0.00597 0.20950
#
# Static dielectric constant tensor:
#      x y z
#    x 4.195760 0.000000 0.134300 
#    y 0.000000 4.273670 0.000000 
#    z 0.134300 0.000000 4.125940 
# 
# 
# High freq. dielectric constant tensor:
#      x y z
#    x 1.930830 0.000000 0.014430 
#    y 0.000000 1.929220 0.000000 
#    z 0.014430 0.000000 1.935950 
# 
# From -- ./inp_files/6927.got.cif
#   From: 2010.06.25/outbox.cif.g09.slc.cpg/sg9_4_cif.got.tgz:6927.got - 2010.06.27 21:40:51.
