data_PCOD8056009
_publ_section_title
;
Structure prediction by ZEFSAII (Michael W. Deem and Ramdas Pophale) SiO2 
 PCOD8056009
Probable space group: C C
;
_chemical_formula_sum "Si O2"
_cell_formula_units_Z 28
_cell_length_a 6.661969
_cell_length_b 21.464045
_cell_length_c 12.619428
_cell_angle_alpha 90.000000
_cell_angle_beta 134.838964
_cell_angle_gamma 90.000000
_cell_volume 1279.546453
_symmetry_space_group_name_H-M "C C"
_symmetry_group_IT_number 9
_symmetry_cell_setting 'monoclinic'
loop_
_space_group_symop_operation_xyz
x,y,z
x,-y,1/2+z
1/2+x,1/2+y,z
1/2+x,1/2-y,1/2+z
loop_
_atom_site_type_symbol
_atom_site_label
_atom_site_fract_x
_atom_site_fract_y
_atom_site_fract_z
Si Si1 0.695510 0.674196 0.264080
Si Si2 0.282317 0.429581 0.684123
Si Si3 0.355457 0.866331 0.120767
Si Si4 0.884401 0.630845 0.868333
Si Si5 0.300630 0.432622 0.143021
Si Si6 0.213681 0.398109 0.885561
Si Si7 0.755021 0.241316 0.985025
O O1 0.549775 0.616571 0.272310
O O2 0.726198 0.731593 0.357021
O O3 0.505916 0.690042 0.090053
O O4 0.005193 0.658576 0.335896
O O5 0.398318 0.499788 0.718288
O O6 0.123165 0.427642 0.739384
O O7 0.046234 0.414610 0.508459
O O8 0.471457 0.885350 0.279505
O O9 0.525160 0.906539 0.098646
O O10 0.372119 0.792421 0.110656
O O11 0.026639 0.875663 0.980763
O O12 0.548327 0.618523 0.754442
O O13 0.967927 0.704308 0.916291
O O14 0.220375 0.443464 0.989534
#
# Coordination Sequence:
#
# PCOD8056009 Si02
#       7
#     4   4   4   4   4   4   4
#     4  11  24  46  69 105 136 187 227 295 348 407
#     4  11  26  45  70 105 140 178 240 283 346 426
#     4  11  23  45  67 101 139 182 230 285 340 417
#     4  10  26  43  69 108 134 184 229 293 343 411
#     4  11  26  44  73 100 142 185 232 283 357 407
#     4  11  24  44  69 101 136 185 229 282 354 396
#     4  11  21  45  71  98 143 171 237 281 340 424
#
# _framework density 21.882750999999999
#
# number of rings (size 3 to 8) (size 9 to 14) (size 15 to 20)
#    0.000    1.143    4.286    0.000    6.000    4.571 
#    5.143    0.000    0.000    0.000    0.000    0.000 
#    0.000    0.000    0.000    0.000    0.000    0.000 
#
# Total GULP energy -173463.284712 kJ/mol
# GULP energy per Si atom -12390.234622 kJ/mol
# Density = 2.183295 g / cm^3
# Si number density = 21.882751 Si / 1000 Ang^3
#
#
#
# Elastic Constant Matrix: (Units=GPa)
#
#
# Indices 1 2 3 4 5 6 
#
# 1 127.5440 55.4728 63.5328 0.0000 -0.2528 0.0000
# 2 55.4728 123.4267 44.8330 0.0000 -1.9785 0.0000
# 3 63.5328 44.8330 133.2478 0.0000 -12.9894 0.0000
# 4 0.0000 0.0000 0.0000 30.1821 0.0000 -1.2788
# 5 -0.2528 -1.9785 -12.9894 0.0000 32.6086 0.0000
# 6 0.0000 0.0000 0.0000 -1.2788 0.0000 26.3713
#
#
#
# Elastic Compliance Matrix: (Units=1/GPa)
#
#
# Indices 1 2 3 4 5 6 
#
# 1 0.011674 -0.003631 -0.004533 0.000000 -0.001936 0.000000
# 2 -0.003631 0.010375 -0.001770 0.000000 -0.000104 0.000000
# 3 -0.004533 -0.001770 0.010662 0.000000 0.004105 0.000000
# 4 0.000000 0.000000 0.000000 0.033200 0.000000 0.001610
# 5 -0.001936 -0.000104 0.004105 0.000000 0.032280 0.000000
# 6 0.000000 0.000000 0.000000 0.001610 0.000000 0.037998
#
#
# Mechanical properties :
#
#
# Convention : Reuss Voigt Hill
#
# Bulk Modulus (GPa) = 77.86302 79.09952 78.48127
# Shear Modulus (GPa) = 31.18403 32.52439 31.85421
#
# Velocity S-wave (km/s) = 3.77908 3.85944 3.81947
# Velocity P-wave (km/s) = 7.39602 7.48905 7.44268
#
# Compressibility (1/GPa) = 0.01284307
#
# Stress axis : x y z
#
# Youngs Moduli (GPa) = 85.66084 96.38482 93.79350
#
# Poissons Ratio (x) = 0.34999 0.42517
# Poissons Ratio (y) = 0.31105 0.16597
# Poissons Ratio (z) = 0.38831 0.17056
#
# Static dielectric constant tensor:
#      x y z
#    x 3.914150 0.000000 -0.194660 
#    y 0.000000 3.831030 0.000000 
#    z -0.194660 0.000000 4.212270 
# 
# 
# High freq. dielectric constant tensor:
#      x y z
#    x 1.847670 0.000000 -0.006360 
#    y 0.000000 1.847880 0.000000 
#    z -0.006360 0.000000 1.886910 
# 
# From -- ./inp_files/13707.got.cif
#   From: 2010.06.25/outbox.cif.g09.slc.cpg/sg9_7_cif.got.tgz:13707.got - 2010.06.27 21:40:51.
