data_PCOD8056079
_publ_section_title
;
Structure prediction by ZEFSAII (Michael W. Deem and Ramdas Pophale) SiO2 
 PCOD8056079
Probable space group: C C
;
_chemical_formula_sum "Si O2"
_cell_formula_units_Z 24
_cell_length_a 12.768005
_cell_length_b 14.938861
_cell_length_c 8.731458
_cell_angle_alpha 90.000000
_cell_angle_beta 138.220509
_cell_angle_gamma 90.000000
_cell_volume 1109.621034
_symmetry_space_group_name_H-M "C C"
_symmetry_group_IT_number 9
_symmetry_cell_setting 'monoclinic'
loop_
_space_group_symop_operation_xyz
x,y,z
x,-y,1/2+z
1/2+x,1/2+y,z
1/2+x,1/2-y,1/2+z
loop_
_atom_site_type_symbol
_atom_site_label
_atom_site_fract_x
_atom_site_fract_y
_atom_site_fract_z
Si Si1 0.099810 0.974392 0.969980
Si Si2 0.291827 0.922014 0.902148
Si Si3 0.050280 0.670568 0.831719
Si Si4 0.414683 0.344315 0.220247
Si Si5 0.379184 0.677460 0.336839
Si Si6 0.176064 0.255766 0.159350
O O1 0.146960 0.931775 0.860452
O O2 0.010449 0.898236 0.964911
O O3 0.983253 0.056375 0.809827
O O4 0.259204 0.001725 0.238282
O O5 0.291618 0.827128 0.816919
O O6 0.456998 0.920902 0.177208
O O7 0.091163 0.723876 0.724459
O O8 0.938016 0.730646 0.820292
O O9 0.213031 0.644063 0.088801
O O10 0.276963 0.336904 0.197755
O O11 0.549018 0.271794 0.395642
O O12 0.348327 0.314128 0.983646
#
# Coordination Sequence:
#
# PCOD8056079 Si02
#       6
#     4   4   4   4   4   4
#     4  11  24  45  68  95 144 179 229 293 358 397
#     4  11  23  46  68 100 135 186 225 288 350 417
#     4  12  23  42  74  98 138 184 242 278 347 426
#     4  11  24  41  68 100 138 180 231 291 344 410
#     4  12  23  43  68 104 137 187 233 294 340 417
#     4  11  21  41  70  99 130 182 236 276 341 419
#
# _framework density 21.629006
#
# number of rings (size 3 to 8) (size 9 to 14) (size 15 to 20)
#    0.000    0.667    6.667    1.000    2.333    0.000 
#    6.000    0.000    0.000    0.000    0.000    0.000 
#    0.000    0.000    0.000    0.000    0.000    0.000 
#
# Total GULP energy -148722.012905 kJ/mol
# GULP energy per Si atom -12393.501075 kJ/mol
# Density = 2.157978 g / cm^3
# Si number density = 21.629006 Si / 1000 Ang^3
#
#
#
# Elastic Constant Matrix: (Units=GPa)
#
#
# Indices 1 2 3 4 5 6 
#
# 1 53.7171 6.6586 6.4902 0.0000 -17.3943 0.0000
# 2 6.6586 57.0784 30.6495 0.0000 -0.1540 0.0000
# 3 6.4902 30.6495 116.1144 0.0000 -4.1612 0.0000
# 4 0.0000 0.0000 0.0000 12.1460 0.0000 3.3599
# 5 -17.3943 -0.1540 -4.1612 0.0000 36.6752 0.0000
# 6 0.0000 0.0000 0.0000 3.3599 0.0000 34.0915
#
#
#
# Elastic Compliance Matrix: (Units=1/GPa)
#
#
# Indices 1 2 3 4 5 6 
#
# 1 0.022373 -0.002462 -0.000222 0.000000 0.010575 0.000000
# 2 -0.002462 0.020694 -0.005385 0.000000 -0.001692 0.000000
# 3 -0.000222 -0.005385 0.010083 0.000000 0.001016 0.000000
# 4 0.000000 0.000000 0.000000 0.084639 0.000000 -0.008341
# 5 0.010575 -0.001692 0.001016 0.000000 0.032390 0.000000
# 6 0.000000 0.000000 0.000000 -0.008341 0.000000 0.030155
#
#
# Mechanical properties :
#
#
# Convention : Reuss Voigt Hill
#
# Bulk Modulus (GPa) = 27.01934 34.94516 30.98225
# Shear Modulus (GPa) = 21.85229 28.78999 25.32114
#
# Velocity S-wave (km/s) = 3.18201 3.65236 3.42527
# Velocity P-wave (km/s) = 5.10093 5.82906 5.47711
#
# Compressibility (1/GPa) = 0.03701052
#
# Stress axis : x y z
#
# Youngs Moduli (GPa) = 44.69772 48.32252 99.18137
#
# Poissons Ratio (x) = 0.11899 0.02197
# Poissons Ratio (y) = 0.11006 0.53414
# Poissons Ratio (z) = 0.00990 0.26024
#
# Static dielectric constant tensor:
#      x y z
#    x 3.878770 0.000000 -0.063280 
#    y 0.000000 3.697940 0.000000 
#    z -0.063280 0.000000 4.292930 
# 
# 
# High freq. dielectric constant tensor:
#      x y z
#    x 1.852120 0.000000 -0.007560 
#    y 0.000000 1.823480 0.000000 
#    z -0.007560 0.000000 1.869320 
# 
# From -- ./inp_files/6928.got.cif
#   From: 2010.06.25/outbox.cif.g09.slc.cpg/sg9_4_cif.got.tgz:6928.got - 2010.06.27 21:40:51.
