data_PCOD8056424
_publ_section_title
;
Structure prediction by ZEFSAII (Michael W. Deem and Ramdas Pophale) SiO2 
 PCOD8056424
Probable space group: C C
;
_chemical_formula_sum "Si O2"
_cell_formula_units_Z 28
_cell_length_a 9.449190
_cell_length_b 13.284570
_cell_length_c 21.295550
_cell_angle_alpha 90.000000
_cell_angle_beta 152.393404
_cell_angle_gamma 90.000000
_cell_volume 1238.754227
_symmetry_space_group_name_H-M "C C"
_symmetry_group_IT_number 9
_symmetry_cell_setting 'monoclinic'
loop_
_space_group_symop_operation_xyz
x,y,z
x,-y,1/2+z
1/2+x,1/2+y,z
1/2+x,1/2-y,1/2+z
loop_
_atom_site_type_symbol
_atom_site_label
_atom_site_fract_x
_atom_site_fract_y
_atom_site_fract_z
Si Si1 0.789880 0.771807 0.275530
Si Si2 0.611544 0.069929 0.381454
Si Si3 0.098993 0.609287 0.184497
Si Si4 0.680936 0.835749 0.579900
Si Si5 0.563900 0.290726 0.261911
Si Si6 0.468758 0.474683 0.407273
Si Si7 0.461693 0.522818 0.639533
O O1 0.462997 0.730102 0.166582
O O2 0.873877 0.857954 0.358824
O O3 0.068382 0.689624 0.377430
O O4 0.787031 0.811661 0.202502
O O5 0.813280 0.022901 0.513986
O O6 0.770545 0.034666 0.380158
O O7 0.279748 0.026997 0.252874
O O8 0.138754 0.678691 0.138206
O O9 0.037304 0.680612 0.220479
O O10 0.400672 0.540289 0.317204
O O11 0.822179 0.529019 0.066192
O O12 0.389273 0.805785 0.424268
O O13 0.749909 0.954401 0.600692
O O14 0.510057 0.367485 0.185151
#
# Coordination Sequence:
#
# PCOD8056424 Si02
#       7
#     4   4   4   4   4   4   4
#     4  11  26  47  73 108 149 195 255 308 385 461
#     4  11  24  45  72 111 144 195 247 309 386 460
#     4  12  28  46  77 111 150 201 255 320 389 460
#     4  11  27  48  71 111 147 199 251 320 389 461
#     4  12  25  49  72 111 152 194 261 319 381 475
#     4  12  26  48  77 110 154 197 257 319 390 461
#     4  11  24  45  72 102 152 191 246 313 386 454
#
# _framework density 22.603352999999998
#
# number of rings (size 3 to 8) (size 9 to 14) (size 15 to 20)
#    0.000    0.571    4.286    2.571    6.000    0.000 
#    5.143    0.000    0.000    0.000    0.000    0.000 
#    0.000    0.000    0.000    0.000    0.000    0.000 
#
# Total GULP energy -173507.914936 kJ/mol
# GULP energy per Si atom -12393.422495 kJ/mol
# Density = 2.255191 g / cm^3
# Si number density = 22.603353 Si / 1000 Ang^3
#
#
#
# Elastic Constant Matrix: (Units=GPa)
#
#
# Indices 1 2 3 4 5 6 
#
# 1 115.0245 31.1828 41.2042 0.0006 -3.0234 0.0036
# 2 31.1828 109.1578 47.2110 0.0008 -8.6298 -0.0053
# 3 41.2042 47.2110 138.8504 -0.0104 -14.7100 -0.0414
# 4 0.0006 0.0008 -0.0104 -14.5418 0.0059 -59.7420
# 5 -3.0234 -8.6298 -14.7100 0.0059 31.2864 0.0042
# 6 0.0036 -0.0053 -0.0414 -59.7420 0.0042 -43.5735
#
#
#
# Elastic Compliance Matrix: (Units=1/GPa)
#
#
# Indices 1 2 3 4 5 6 
#
# 1 0.010051 -0.001880 -0.002416 0.000003 -0.000683 0.000000
# 2 -0.001880 0.011144 -0.003078 0.000001 0.001445 0.000001
# 3 -0.002416 -0.003078 0.009315 -0.000006 0.003297 0.000000
# 4 0.000003 0.000001 -0.000006 0.014844 -0.000003 -0.020352
# 5 -0.000683 0.001445 0.003297 -0.000003 0.033845 0.000003
# 6 0.000000 0.000001 0.000000 -0.020352 0.000003 0.004954
#
#
# Mechanical properties :
#
#
# Convention : Reuss Voigt Hill
#
# Bulk Modulus (GPa) = 63.44654 66.91429 65.18042
# Shear Modulus (GPa) = 48.00580 10.86321 29.43451
#
# Velocity S-wave (km/s) = 4.61351 2.19464 3.61254
# Velocity P-wave (km/s) = 7.51730 6.00749 6.80440
#
# Compressibility (1/GPa) = 0.01576130
#
# Stress axis : x y z
#
# Youngs Moduli (GPa) = 99.49286 89.73715 107.35763
#
# Poissons Ratio (x) = 0.16875 0.25934
# Poissons Ratio (y) = 0.18709 0.33043
# Poissons Ratio (z) = 0.24034 0.27620
#
# Static dielectric constant tensor:
#      x y z
#    x 4.218580 -0.000020 -0.095790 
#    y -0.000020 6.104100 -0.000030 
#    z -0.095790 -0.000030 4.135720 
# 
# 
# High freq. dielectric constant tensor:
#      x y z
#    x 1.898000 0.000000 -0.010170 
#    y 0.000000 1.905870 0.000000 
#    z -0.010170 0.000000 1.897980 
# 
# From -- ./inp_files/11731.got.cif
#   From: 2010.06.25/outbox.cif.g09.slc.cpg/sg9_6_cif.got.tgz:11731.got - 2010.06.27 21:40:51.
