data_PCOD8056673
_publ_section_title
;
Structure prediction by ZEFSAII (Michael W. Deem and Ramdas Pophale) SiO2 
 PCOD8056673
Probable space group: C C
;
_chemical_formula_sum "Si O2"
_cell_formula_units_Z 24
_cell_length_a 4.872522
_cell_length_b 18.657241
_cell_length_c 12.040695
_cell_angle_alpha 90.000000
_cell_angle_beta 75.258101
_cell_angle_gamma 90.000000
_cell_volume 1058.561398
_symmetry_space_group_name_H-M "C C"
_symmetry_group_IT_number 9
_symmetry_cell_setting 'monoclinic'
loop_
_space_group_symop_operation_xyz
x,y,z
x,-y,1/2+z
1/2+x,1/2+y,z
1/2+x,1/2-y,1/2+z
loop_
_atom_site_type_symbol
_atom_site_label
_atom_site_fract_x
_atom_site_fract_y
_atom_site_fract_z
Si Si1 0.062320 0.080742 0.782140
Si Si2 0.478521 0.774137 0.987773
Si Si3 0.766585 0.429823 0.679377
Si Si4 0.111867 0.662089 0.704521
Si Si5 0.073083 0.201570 0.339208
Si Si6 0.372858 0.609615 0.036445
O O1 0.315270 0.135237 0.786223
O O2 0.866117 0.105302 0.698742
O O3 0.211466 0.006165 0.739902
O O4 0.861543 0.079622 0.912061
O O5 0.204719 0.802503 0.949183
O O6 0.742892 0.777860 0.877394
O O7 0.554994 0.827258 0.080189
O O8 0.406535 0.695233 0.039318
O O9 0.611711 0.373100 0.774090
O O10 0.640660 0.426278 0.568860
O O11 0.099097 0.414221 0.634796
O O12 0.217936 0.734743 0.753521
#
# Coordination Sequence:
#
# PCOD8056673 Si02
#       6
#     4   4   4   4   4   4
#     4  12  27  47  70 105 144 188 234 295 357 428
#     4  12  25  42  76 108 138 185 241 295 351 418
#     4  12  28  45  73 105 147 186 239 297 356 432
#     4  12  24  44  72 103 140 185 242 287 348 426
#     4  12  24  44  71 107 137 185 240 294 343 424
#     4  12  24  46  74 102 142 195 234 292 371 418
#
# _framework density 22.672281000000002
#
# number of rings (size 3 to 8) (size 9 to 14) (size 15 to 20)
#    0.000    0.000    5.000    5.000    2.333    4.000 
#    0.000    0.000    0.000    0.000    0.000    0.000 
#    0.000    0.000    0.000    0.000    0.000    0.000 
#
# Total GULP energy -148874.765422 kJ/mol
# GULP energy per Si atom -12406.230452 kJ/mol
# Density = 2.262068 g / cm^3
# Si number density = 22.672281 Si / 1000 Ang^3
#
#
#
# Elastic Constant Matrix: (Units=GPa)
#
#
# Indices 1 2 3 4 5 6 
#
# 1 107.7434 32.4339 20.1668 0.0000 5.3655 0.0000
# 2 32.4339 114.8621 55.2125 0.0000 -1.4184 0.0000
# 3 20.1668 55.2125 85.5184 0.0000 7.8710 0.0000
# 4 0.0000 0.0000 0.0000 22.5096 0.0000 -10.3329
# 5 5.3655 -1.4184 7.8710 0.0000 45.1970 0.0000
# 6 0.0000 0.0000 0.0000 -10.3329 0.0000 28.7901
#
#
#
# Elastic Compliance Matrix: (Units=1/GPa)
#
#
# Indices 1 2 3 4 5 6 
#
# 1 0.010242 -0.002608 -0.000622 0.000000 -0.001189 0.000000
# 2 -0.002608 0.013441 -0.008263 0.000000 0.002170 0.000000
# 3 -0.000622 -0.008263 0.017472 0.000000 -0.003228 0.000000
# 4 0.000000 0.000000 0.000000 0.053188 0.000000 0.019090
# 5 -0.001189 0.002170 -0.003228 0.000000 0.022897 0.000000
# 6 0.000000 0.000000 0.000000 0.019090 0.000000 0.041585
#
#
# Mechanical properties :
#
#
# Convention : Reuss Voigt Hill
#
# Bulk Modulus (GPa) = 55.03655 58.19448 56.61551
# Shear Modulus (GPa) = 26.61461 32.65340 29.63400
#
# Velocity S-wave (km/s) = 3.42991 3.79916 3.61925
# Velocity P-wave (km/s) = 6.32560 6.70583 6.51849
#
# Compressibility (1/GPa) = 0.01816974
#
# Stress axis : x y z
#
# Youngs Moduli (GPa) = 97.63735 74.39973 57.23531
#
# Poissons Ratio (x) = 0.19401 0.03561
# Poissons Ratio (y) = 0.25460 0.47291
# Poissons Ratio (z) = 0.06075 0.61473
#
# Static dielectric constant tensor:
#      x y z
#    x 4.168540 0.000000 0.074880 
#    y 0.000000 3.953470 0.000000 
#    z 0.074880 0.000000 3.997820 
# 
# 
# High freq. dielectric constant tensor:
#      x y z
#    x 1.911760 0.000000 0.004120 
#    y 0.000000 1.886700 0.000000 
#    z 0.004120 0.000000 1.896260 
# 
# From -- ./inp_files/13006.got.cif
#   From: 2010.06.25/outbox.cif.g09.slc.cpg/sg9_7_cif.got.tgz:13006.got - 2010.06.27 21:40:51.
