data_PCOD8056560
_publ_section_title
;
Structure prediction by ZEFSAII (Michael W. Deem and Ramdas Pophale) SiO2 
 PCOD8056560
Probable space group: C C
;
_chemical_formula_sum "Si O2"
_cell_formula_units_Z 28
_cell_length_a 22.291766
_cell_length_b 7.969161
_cell_length_c 8.717699
_cell_angle_alpha 90.000000
_cell_angle_beta 39.063190
_cell_angle_gamma 90.000000
_cell_volume 975.936509
_symmetry_space_group_name_H-M "C C"
_symmetry_group_IT_number 9
_symmetry_cell_setting 'monoclinic'
loop_
_space_group_symop_operation_xyz
x,y,z
x,-y,1/2+z
1/2+x,1/2+y,z
1/2+x,1/2-y,1/2+z
loop_
_atom_site_type_symbol
_atom_site_label
_atom_site_fract_x
_atom_site_fract_y
_atom_site_fract_z
Si Si1 0.843760 0.351390 0.094750
Si Si2 0.170829 0.976378 0.067970
Si Si3 0.702452 0.880279 0.454686
Si Si4 0.580983 0.971111 0.955477
Si Si5 0.392091 0.478230 0.657241
Si Si6 0.919136 0.347109 0.627090
Si Si7 0.543249 0.613550 0.091186
O O1 0.740952 0.366406 0.388078
O O2 0.908733 0.507012 0.022725
O O3 0.900196 0.181127 0.028529
O O4 0.832963 0.350357 0.928698
O O5 0.229650 0.816337 0.881515
O O6 0.065351 0.007473 0.201732
O O7 0.138891 0.941504 0.305282
O O8 0.605071 0.886473 0.744501
O O9 0.779739 0.987491 0.394492
O O10 0.677226 0.957313 0.339950
O O11 0.539735 0.813813 0.135309
O O12 0.508164 0.121286 0.064999
O O13 0.429640 0.663781 0.521714
O O14 0.441443 0.441205 0.722346
#
# Coordination Sequence:
#
# PCOD8056560 Si02
#       7
#     4   4   4   4   4   4   4
#     4  12  27  49  78 111 152 197 254 313 379 448
#     4  11  25  49  72 107 143 199 241 311 369 451
#     4  11  26  45  74 105 150 186 254 302 375 444
#     4  11  25  49  72 107 143 199 241 311 369 451
#     4  12  28  46  74 114 148 198 252 314 370 454
#     4  12  27  49  78 111 152 197 254 313 379 448
#     4  11  26  45  74 105 150 186 254 302 375 444
#
# _framework density 28.690391000000002
#
# number of rings (size 3 to 8) (size 9 to 14) (size 15 to 20)
#    0.000    0.571    2.857    3.429    8.000    8.000 
#    0.000    0.000    0.000    0.000    0.000    0.000 
#    0.000    0.000    0.000    0.000    0.000    0.000 
#
# Total GULP energy -173534.264625 kJ/mol
# GULP energy per Si atom -12395.304616 kJ/mol
# Density = 2.862509 g / cm^3
# Si number density = 28.690391 Si / 1000 Ang^3
#
#
#
# Elastic Constant Matrix: (Units=GPa)
#
#
# Indices 1 2 3 4 5 6 
#
# 1 109.5546 54.3609 -0.5953 0.0000 -12.7232 0.0000
# 2 54.3609 209.5890 36.6910 0.0000 12.9580 0.0000
# 3 -0.5953 36.6910 42.7402 0.0000 -2.7774 0.0000
# 4 0.0000 0.0000 0.0000 41.4510 0.0000 -7.5353
# 5 -12.7232 12.9580 -2.7774 0.0000 41.1139 0.0000
# 6 0.0000 0.0000 0.0000 -7.5353 0.0000 61.6059
#
#
#
# Elastic Compliance Matrix: (Units=1/GPa)
#
#
# Indices 1 2 3 4 5 6 
#
# 1 0.011776 -0.004076 0.004001 0.000000 0.005199 0.000000
# 2 -0.004076 0.007213 -0.006508 0.000000 -0.003975 0.000000
# 3 0.004001 -0.006508 0.029382 0.000000 0.005274 0.000000
# 4 0.000000 0.000000 0.000000 0.024673 0.000000 0.003018
# 5 0.005199 -0.003975 0.005274 0.000000 0.027541 0.000000
# 6 0.000000 0.000000 0.000000 0.003018 0.000000 0.016601
#
#
# Mechanical properties :
#
#
# Convention : Reuss Voigt Hill
#
# Bulk Modulus (GPa) = 28.40386 60.31075 44.35731
# Shear Modulus (GPa) = 35.18952 46.92930 41.05941
#
# Velocity S-wave (km/s) = 3.50598 4.04878 3.78712
# Velocity P-wave (km/s) = 5.12941 6.55162 5.88365
#
# Compressibility (1/GPa) = 0.03520649
#
# Stress axis : x y z
#
# Youngs Moduli (GPa) = 84.91804 138.62999 34.03425
#
# Poissons Ratio (x) = 0.56509 -0.13618
# Poissons Ratio (y) = 0.34615 0.22148
# Poissons Ratio (z) = -0.33977 0.90214
#
# Static dielectric constant tensor:
#      x y z
#    x 5.115290 0.000000 -0.148900 
#    y 0.000000 5.262060 0.000000 
#    z -0.148900 0.000000 4.904320 
# 
# 
# High freq. dielectric constant tensor:
#      x y z
#    x 2.170550 0.000000 -0.010530 
#    y 0.000000 2.170410 0.000000 
#    z -0.010530 0.000000 2.176480 
# 
# From -- ./inp_files/11418.got.cif
#   From: 2010.06.25/outbox.cif.g09.slc.cpg/sg9_6_cif.got.tgz:11418.got - 2010.06.27 21:40:51.
