data_PCOD8056427
_publ_section_title
;
Structure prediction by ZEFSAII (Michael W. Deem and Ramdas Pophale) SiO2 
 PCOD8056427
Probable space group: C C
;
_chemical_formula_sum "Si O2"
_cell_formula_units_Z 24
_cell_length_a 15.449800
_cell_length_b 12.831687
_cell_length_c 8.391475
_cell_angle_alpha 90.000000
_cell_angle_beta 35.727765
_cell_angle_gamma 90.000000
_cell_volume 971.424800
_symmetry_space_group_name_H-M "C C"
_symmetry_group_IT_number 9
_symmetry_cell_setting 'monoclinic'
loop_
_space_group_symop_operation_xyz
x,y,z
x,-y,1/2+z
1/2+x,1/2+y,z
1/2+x,1/2-y,1/2+z
loop_
_atom_site_type_symbol
_atom_site_label
_atom_site_fract_x
_atom_site_fract_y
_atom_site_fract_z
Si Si1 0.636630 0.552617 0.404250
Si Si2 0.914111 0.179783 0.563765
Si Si3 0.271349 0.313372 0.596050
Si Si4 0.463617 0.100639 0.891946
Si Si5 0.543455 0.643947 0.882972
Si Si6 0.659937 0.981024 0.348294
O O1 0.573287 0.628907 0.361965
O O2 0.612867 0.597337 0.616389
O O3 0.549211 0.443090 0.513575
O O4 0.810171 0.537169 0.106958
O O5 0.932961 0.275349 0.410647
O O6 0.795877 0.094060 0.685648
O O7 0.858094 0.229712 0.813476
O O8 0.376744 0.316206 0.595969
O O9 0.130545 0.240046 0.830262
O O10 0.221226 0.432180 0.632633
O O11 0.590536 0.053057 0.591034
O O12 0.527828 0.087758 0.974193
#
# Coordination Sequence:
#
# PCOD8056427 Si02
#       6
#     4   4   4   4   4   4
#     4  11  24  45  72 107 143 192 249 313 381 454
#     4  11  24  49  72 104 152 200 243 321 384 445
#     4  11  25  47  73 107 148 199 252 314 387 453
#     4  12  26  44  78 110 148 197 259 313 385 457
#     4  11  25  45  76 101 147 196 246 313 385 449
#     4  12  26  48  75 111 152 198 257 318 382 460
#
# _framework density 24.705977000000001
#
# number of rings (size 3 to 8) (size 9 to 14) (size 15 to 20)
#    0.000    0.667    5.000    2.000    4.667    1.333 
#    6.000    0.000    0.000    0.000    0.000    0.000 
#    0.000    0.000    0.000    0.000    0.000    0.000 
#
# Total GULP energy -148754.955131 kJ/mol
# GULP energy per Si atom -12396.246261 kJ/mol
# Density = 2.464975 g / cm^3
# Si number density = 24.705977 Si / 1000 Ang^3
#
#
#
# Elastic Constant Matrix: (Units=GPa)
#
#
# Indices 1 2 3 4 5 6 
#
# 1 95.1767 53.4255 42.5990 0.0000 -29.5319 0.0000
# 2 53.4255 157.5181 37.2680 0.0000 -16.3168 0.0000
# 3 42.5990 37.2680 90.6410 0.0000 -28.9193 0.0000
# 4 0.0000 0.0000 0.0000 49.1185 0.0000 -11.4770
# 5 -29.5319 -16.3168 -28.9193 0.0000 39.4122 0.0000
# 6 0.0000 0.0000 0.0000 -11.4770 0.0000 41.8128
#
#
#
# Elastic Compliance Matrix: (Units=1/GPa)
#
#
# Indices 1 2 3 4 5 6 
#
# 1 0.017014 -0.004036 -0.003659 0.000000 0.008393 0.000000
# 2 -0.004036 0.008022 -0.001706 0.000000 -0.000955 0.000000
# 3 -0.003659 -0.001706 0.016130 0.000000 0.008387 0.000000
# 4 0.000000 0.000000 0.000000 0.021754 0.000000 0.005971
# 5 0.008393 -0.000955 0.008387 0.000000 0.037421 0.000000
# 6 0.000000 0.000000 0.000000 0.005971 0.000000 0.025555
#
#
# Mechanical properties :
#
#
# Convention : Reuss Voigt Hill
#
# Bulk Modulus (GPa) = 44.71493 67.76898 56.24195
# Shear Modulus (GPa) = 32.86178 40.07159 36.46668
#
# Velocity S-wave (km/s) = 3.65103 4.03170 3.84608
# Velocity P-wave (km/s) = 5.99262 7.01160 6.52204
#
# Compressibility (1/GPa) = 0.02236390
#
# Stress axis : x y z
#
# Youngs Moduli (GPa) = 58.77519 124.65679 61.99715
#
# Poissons Ratio (x) = 0.50305 0.22685
# Poissons Ratio (y) = 0.23719 0.10579
# Poissons Ratio (z) = 0.21506 0.21271
#
# Static dielectric constant tensor:
#      x y z
#    x 4.413270 0.000000 -0.240440 
#    y 0.000000 4.523570 0.000000 
#    z -0.240440 0.000000 4.241470 
# 
# 
# High freq. dielectric constant tensor:
#      x y z
#    x 1.980970 0.000000 -0.019760 
#    y 0.000000 1.989850 0.000000 
#    z -0.019760 0.000000 1.980380 
# 
# From -- ./inp_files/6845.got.cif
#   From: 2010.06.25/outbox.cif.g09.slc.cpg/sg9_4_cif.got.tgz:6845.got - 2010.06.27 21:40:51.
