data_PCOD8056600
_publ_section_title
;
Structure prediction by ZEFSAII (Michael W. Deem and Ramdas Pophale) SiO2 
 PCOD8056600
Probable space group: C C
;
_chemical_formula_sum "Si O2"
_cell_formula_units_Z 20
_cell_length_a 7.770553
_cell_length_b 13.069948
_cell_length_c 7.835084
_cell_angle_alpha 90.000000
_cell_angle_beta 98.119025
_cell_angle_gamma 90.000000
_cell_volume 787.760985
_symmetry_space_group_name_H-M "C C"
_symmetry_group_IT_number 9
_symmetry_cell_setting 'monoclinic'
loop_
_space_group_symop_operation_xyz
x,y,z
x,-y,1/2+z
1/2+x,1/2+y,z
1/2+x,1/2-y,1/2+z
loop_
_atom_site_type_symbol
_atom_site_label
_atom_site_fract_x
_atom_site_fract_y
_atom_site_fract_z
Si Si1 0.278870 0.837850 0.508850
Si Si2 0.755232 0.963086 0.342536
Si Si3 0.977615 0.094402 0.166435
Si Si4 0.469047 0.826293 0.206425
Si Si5 0.021949 0.659419 0.355407
O O1 0.367773 0.882332 0.348377
O O2 0.159620 0.744883 0.431309
O O3 0.422621 0.805489 0.670134
O O4 0.155797 0.922550 0.584403
O O5 0.942178 0.003356 0.296122
O O6 0.617004 0.053517 0.337858
O O7 0.802429 0.911797 0.528350
O O8 0.664704 0.873311 0.220866
O O9 0.979219 0.206093 0.254521
O O10 0.391692 0.847234 0.004214
#
# Coordination Sequence:
#
# PCOD8056600 Si02
#       5
#     4   4   4   4   4
#     4  11  27  47  77 118 163 209 277 324 415 465
#     4  12  24  53  76 111 167 209 272 335 405 482
#     4  11  27  47  80 119 155 220 264 341 403 484
#     4  11  26  47  82 110 163 213 272 332 404 480
#     4  11  26  48  77 116 158 217 263 340 397 487
#
# _framework density 25.388411999999999
#
# number of rings (size 3 to 8) (size 9 to 14) (size 15 to 20)
#    0.000    0.800    4.000    1.200   11.200    1.600 
#    3.600    0.000    0.000    0.000    0.000    0.000 
#    0.000    0.000    0.000    0.000    0.000    0.000 
#
# Total GULP energy -123883.186134 kJ/mol
# GULP energy per Si atom -12388.318613 kJ/mol
# Density = 2.533063 g / cm^3
# Si number density = 25.388412 Si / 1000 Ang^3
#
#
#
# Elastic Constant Matrix: (Units=GPa)
#
#
# Indices 1 2 3 4 5 6 
#
# 1 119.7069 49.3936 62.2926 0.0000 -19.1134 0.0000
# 2 49.3936 106.3536 25.1381 0.0000 6.8444 0.0000
# 3 62.2926 25.1381 165.9685 0.0000 -11.1288 0.0000
# 4 0.0000 0.0000 0.0000 26.5248 0.0000 5.2055
# 5 -19.1134 6.8444 -11.1288 0.0000 63.6236 0.0000
# 6 0.0000 0.0000 0.0000 5.2055 0.0000 56.6653
#
#
#
# Elastic Compliance Matrix: (Units=1/GPa)
#
#
# Indices 1 2 3 4 5 6 
#
# 1 0.013264 -0.005493 -0.003885 0.000000 0.003896 0.000000
# 2 -0.005493 0.012137 0.000025 0.000000 -0.002951 0.000000
# 3 -0.003885 0.000025 0.007489 0.000000 0.000140 0.000000
# 4 0.000000 0.000000 0.000000 0.038393 0.000000 -0.003527
# 5 0.003896 -0.002951 0.000140 0.000000 0.017230 0.000000
# 6 0.000000 0.000000 0.000000 -0.003527 0.000000 0.017971
#
#
# Mechanical properties :
#
#
# Convention : Reuss Voigt Hill
#
# Bulk Modulus (GPa) = 70.49484 73.96418 72.22951
# Shear Modulus (GPa) = 38.48587 46.37638 42.43113
#
# Velocity S-wave (km/s) = 3.89766 4.27860 4.09256
# Velocity P-wave (km/s) = 6.93415 7.32153 7.13047
#
# Compressibility (1/GPa) = 0.01418544
#
# Stress axis : x y z
#
# Youngs Moduli (GPa) = 75.39274 82.38962 133.52889
#
# Poissons Ratio (x) = 0.45253 0.51878
# Poissons Ratio (y) = 0.41410 -0.00337
# Poissons Ratio (z) = 0.29291 -0.00208
#
# Static dielectric constant tensor:
#      x y z
#    x 4.858560 0.000000 -0.549010 
#    y 0.000000 4.403480 0.000000 
#    z -0.549010 0.000000 5.243640 
# 
# 
# High freq. dielectric constant tensor:
#      x y z
#    x 2.002240 0.000000 -0.012950 
#    y 0.000000 1.999220 0.000000 
#    z -0.012950 0.000000 2.034160 
# 
# From -- ./inp_files/4799.got.cif
#   From: 2010.06.25/outbox.cif.g09.slc.cpg/sg9_3_cif.got.tgz:4799.got - 2010.06.27 21:40:51.
