data_PCOD8056908
_publ_section_title
;
Structure prediction by ZEFSAII (Michael W. Deem and Ramdas Pophale) SiO2 
 PCOD8056908
Probable space group: P 2/M
;
_chemical_formula_sum "Si O2"
_cell_formula_units_Z 30
_cell_length_a 12.178430
_cell_length_b 9.626442
_cell_length_c 18.180999
_cell_angle_alpha 90.000000
_cell_angle_beta 125.594068
_cell_angle_gamma 90.000000
_cell_volume 1733.210856
_symmetry_space_group_name_H-M "P 2/M"
_symmetry_group_IT_number 10
_symmetry_cell_setting 'monoclinic'
loop_
_space_group_symop_operation_xyz
x,y,z
-x,y,-z
-x,-y,-z
x,-y,z
loop_
_atom_site_type_symbol
_atom_site_label
_atom_site_fract_x
_atom_site_fract_y
_atom_site_fract_z
Si Si1 0.947295 0.164821 0.591151
Si Si2 0.063233 0.834472 0.248296
Si Si3 0.238220 0.842441 0.184382
Si Si4 0.863819 0.346103 0.087629
Si Si5 0.490500 0.833638 0.781237
Si Si6 0.439259 0.660335 0.055629
Si Si7 0.000000 0.739276 0.000000
Si Si8 0.206905 0.835258 0.608671
O O1 0.907258 0.216402 0.657165
O O2 0.835941 0.219582 0.489260
O O3 0.096491 0.218493 0.625324
O O4 0.948707 0.000000 0.591128
O O5 0.183707 0.781101 0.241193
O O6 0.923848 0.763611 0.168663
O O7 0.043626 0.000000 0.234474
O O8 0.379127 0.773805 0.212695
O O9 0.123826 0.833805 0.076814
O O10 0.274645 0.000000 0.213631
O O11 0.859582 0.500000 0.121836
O O12 0.716231 0.294829 0.007891
O O13 0.952056 0.356687 0.047993
O O14 0.484817 0.760682 0.858098
O O15 0.356699 0.782857 0.686095
O O16 0.495313 0.000000 0.793996
O O17 0.456372 0.500000 0.086776
O O18 0.500000 0.687553 0.000000
O O19 0.205109 0.000000 0.607925
#
# Coordination Sequence:
#
# PCOD8056908 Si02
#       8
#     4   4   4   4   4   4   2   4
#     4   8  14  28  47  70  95 121 150 190 239 286
#     4   9  18  30  48  70  95 124 156 191 234 281
#     4   9  17  28  43  68  98 124 153 193 239 272
#     4  10  20  32  47  69  93 123 160 196 230 270
#     4  10  19  32  50  72  95 122 160 200 228 270
#     4  10  22  37  48  64  96 132 157 187 236 286
#     4  10  16  30  48  64  89 128 163 194 223 272
#     4   8  15  27  47  71  95 119 152 195 238 273
#
# _framework density 17.308914000000001
#
# number of rings (size 3 to 8) (size 9 to 14) (size 15 to 20)
#    0.000    2.800    1.333    1.200    1.867    1.333 
#    0.000    0.667    0.000    4.800    0.000    1.867 
#    0.000    3.467    0.000    0.000    0.000    0.000 
#
# Total GULP energy -371771.462119 kJ/mol
# GULP energy per Si atom -12392.382071 kJ/mol
# Density = 1.726952 g / cm^3
# Si number density = 17.308914 Si / 1000 Ang^3
#
#
#
# Elastic Constant Matrix: (Units=GPa)
#
#
# Indices 1 2 3 4 5 6 
#
# 1 106.2169 18.7796 80.8058 0.0000 6.6317 0.0000
# 2 18.7796 31.8974 29.6904 0.0000 -0.9288 0.0000
# 3 80.8058 29.6904 143.0488 0.0000 0.0670 0.0000
# 4 0.0000 0.0000 0.0000 8.4087 0.0000 -0.8145
# 5 6.6317 -0.9288 0.0670 0.0000 33.2502 0.0000
# 6 0.0000 0.0000 0.0000 -0.8145 0.0000 13.9888
#
#
#
# Elastic Compliance Matrix: (Units=1/GPa)
#
#
# Indices 1 2 3 4 5 6 
#
# 1 0.016927 -0.001445 -0.009260 0.000000 -0.003398 0.000000
# 2 -0.001445 0.039021 -0.007283 0.000000 0.001393 0.000000
# 3 -0.009260 -0.007283 0.013733 0.000000 0.001616 0.000000
# 4 0.000000 0.000000 0.000000 0.119599 0.000000 0.006963
# 5 -0.003398 0.001393 0.001616 0.000000 0.030788 0.000000
# 6 0.000000 0.000000 0.000000 0.006963 0.000000 0.071891
#
#
# Mechanical properties :
#
#
# Convention : Reuss Voigt Hill
#
# Bulk Modulus (GPa) = 29.67064 59.96830 44.81947
# Shear Modulus (GPa) = 14.74180 21.25536 17.99858
#
# Velocity S-wave (km/s) = 2.92154 3.50809 3.22816
# Velocity P-wave (km/s) = 5.34411 7.15053 6.31227
#
# Compressibility (1/GPa) = 0.03370335
#
# Stress axis : x y z
#
# Youngs Moduli (GPa) = 59.07616 25.62701 72.81964
#
# Poissons Ratio (x) = 0.03704 0.67434
# Poissons Ratio (y) = 0.08538 0.53037
# Poissons Ratio (z) = 0.54707 0.18665
#
# Static dielectric constant tensor:
#      x y z
#    x 3.552420 0.000000 -0.028620 
#    y 0.000000 2.791020 0.000000 
#    z -0.028620 0.000000 3.370370 
# 
# 
# High freq. dielectric constant tensor:
#      x y z
#    x 1.676820 0.000000 -0.003500 
#    y 0.000000 1.624200 0.000000 
#    z -0.003500 0.000000 1.661940 
# 
# From -- ./inp_files/76234.got.cif
#   From: 2010.06.25/outbox.cif.g09.slc.cpg/sg10_39_cif.got.tgz:76234.got - 2010.06.27 22:07:45.
