data_PCOD8056802
_publ_section_title
;
Structure prediction by ZEFSAII (Michael W. Deem and Ramdas Pophale) SiO2 
 PCOD8056802
Probable space group: P 2/M
;
_chemical_formula_sum "Si O2"
_cell_formula_units_Z 24
_cell_length_a 9.578890
_cell_length_b 11.722146
_cell_length_c 18.947220
_cell_angle_alpha 90.000000
_cell_angle_beta 42.747230
_cell_angle_gamma 90.000000
_cell_volume 1444.067208
_symmetry_space_group_name_H-M "P 2/M"
_symmetry_group_IT_number 10
_symmetry_cell_setting 'monoclinic'
loop_
_space_group_symop_operation_xyz
x,y,z
-x,y,-z
-x,-y,-z
x,-y,z
loop_
_atom_site_type_symbol
_atom_site_label
_atom_site_fract_x
_atom_site_fract_y
_atom_site_fract_z
Si Si1 0.846124 0.127683 0.992529
Si Si2 0.299863 0.000000 0.478355
Si Si3 0.470723 0.867385 0.780580
Si Si4 0.843919 0.202597 0.222495
Si Si5 0.229956 0.767025 0.425395
Si Si6 0.539004 0.365493 0.404905
Si Si7 0.221424 0.000000 0.662403
O O1 0.629126 0.169953 0.106953
O O2 0.822882 0.000000 0.968238
O O3 0.000000 0.118525 0.000000
O O4 0.936596 0.216920 0.900513
O O5 0.232531 0.110660 0.461071
O O6 0.175736 0.000000 0.596889
O O7 0.539804 0.000000 0.405791
O O8 0.314895 0.852517 0.773327
O O9 0.664125 0.785202 0.691203
O O10 0.535514 0.000000 0.759216
O O11 0.751970 0.316232 0.292833
O O12 0.886354 0.112903 0.268428
O O13 0.347087 0.674043 0.429163
O O14 0.000000 0.721286 0.500000
O O15 0.500000 0.323309 0.500000
O O16 0.559647 0.500000 0.394142
#
# Coordination Sequence:
#
# PCOD8056802 Si02
#       7
#     4   2   4   4   4   4   2
#     4   8  13  20  37  63  93 121 147 177 218 276
#     4  11  19  26  41  69  98 119 148 185 234 270
#     4   9  14  24  39  64  97 124 148 179 219 274
#     4  10  14  25  42  66  91 116 151 186 226 275
#     4  11  20  31  48  69  96 125 155 188 229 275
#     4  10  21  35  49  67  92 121 155 195 234 272
#     4  11  16  24  44  68  93 122 147 188 227 279
#
# _framework density 16.619726
#
# number of rings (size 3 to 8) (size 9 to 14) (size 15 to 20)
#    0.000    2.167    5.833    2.250    0.000    0.333 
#    0.000    0.000    0.000   12.500    0.000    5.833 
#    0.000    2.667    0.000    0.000    0.000    0.000 
#
# Total GULP energy -297326.167425 kJ/mol
# GULP energy per Si atom -12388.590309 kJ/mol
# Density = 1.658190 g / cm^3
# Si number density = 16.619726 Si / 1000 Ang^3
#
#
#
# Elastic Constant Matrix: (Units=GPa)
#
#
# Indices 1 2 3 4 5 6 
#
# 1 29.2180 14.7721 35.6828 0.0000 -3.1530 0.0000
# 2 14.7721 61.6320 45.6404 0.0000 4.8391 0.0000
# 3 35.6828 45.6404 174.1783 0.0000 1.8645 0.0000
# 4 0.0000 0.0000 0.0000 20.6806 0.0000 6.5230
# 5 -3.1530 4.8391 1.8645 0.0000 17.0389 0.0000
# 6 0.0000 0.0000 0.0000 6.5230 0.0000 19.4663
#
#
#
# Elastic Compliance Matrix: (Units=1/GPa)
#
#
# Indices 1 2 3 4 5 6 
#
# 1 0.049141 -0.006401 -0.008517 0.000000 0.011843 0.000000
# 2 -0.006401 0.021427 -0.004230 0.000000 -0.006807 0.000000
# 3 -0.008517 -0.004230 0.008609 0.000000 -0.001317 0.000000
# 4 0.000000 0.000000 0.000000 0.054069 0.000000 -0.018118
# 5 0.011843 -0.006807 -0.001317 0.000000 0.062958 0.000000
# 6 0.000000 0.000000 0.000000 -0.018118 0.000000 0.057442
#
#
# Mechanical properties :
#
#
# Convention : Reuss Voigt Hill
#
# Bulk Modulus (GPa) = 24.46193 50.80209 37.63201
# Shear Modulus (GPa) = 16.36293 22.69934 19.53114
#
# Velocity S-wave (km/s) = 3.14116 3.69969 3.43181
# Velocity P-wave (km/s) = 5.28265 6.99171 6.19639
#
# Compressibility (1/GPa) = 0.04087984
#
# Stress axis : x y z
#
# Youngs Moduli (GPa) = 20.34966 46.67080 116.16376
#
# Poissons Ratio (x) = 0.29875 0.98932
# Poissons Ratio (y) = 0.13026 0.49140
# Poissons Ratio (z) = 0.17331 0.19743
#
# Static dielectric constant tensor:
#      x y z
#    x 2.697830 0.000000 0.029850 
#    y 0.000000 2.795040 0.000000 
#    z 0.029850 0.000000 4.110720 
# 
# 
# High freq. dielectric constant tensor:
#      x y z
#    x 1.584500 0.000000 0.011110 
#    y 0.000000 1.600480 0.000000 
#    z 0.011110 0.000000 1.666640 
# 
# From -- ./inp_files/60667.got.cif
#   From: 2010.06.25/outbox.cif.g09.slc.cpg/sg10_31_cif.got.tgz:60667.got - 2010.06.27 22:07:45.
