data_PCOD8056312
_publ_section_title
;
Structure prediction by ZEFSAII (Michael W. Deem and Ramdas Pophale) SiO2 
 PCOD8056312
Probable space group: C C
;
_chemical_formula_sum "Si O2"
_cell_formula_units_Z 32
_cell_length_a 11.137040
_cell_length_b 14.749222
_cell_length_c 17.646776
_cell_angle_alpha 90.000000
_cell_angle_beta 30.520961
_cell_angle_gamma 90.000000
_cell_volume 1472.118445
_symmetry_space_group_name_H-M "C C"
_symmetry_group_IT_number 9
_symmetry_cell_setting 'monoclinic'
loop_
_space_group_symop_operation_xyz
x,y,z
x,-y,1/2+z
1/2+x,1/2+y,z
1/2+x,1/2-y,1/2+z
loop_
_atom_site_type_symbol
_atom_site_label
_atom_site_fract_x
_atom_site_fract_y
_atom_site_fract_z
Si Si1 0.411100 0.448028 0.035680
Si Si2 0.813477 0.849185 0.608145
Si Si3 0.558587 0.084287 0.589269
Si Si4 0.469528 0.311073 0.803798
Si Si5 0.195545 0.335054 0.287093
Si Si6 0.734855 0.266678 0.296916
Si Si7 0.879865 0.664889 0.241419
Si Si8 0.422680 0.913842 0.567813
O O1 0.444479 0.552761 0.044086
O O2 0.353260 0.390452 0.142400
O O3 0.199341 0.445775 0.088765
O O4 0.651346 0.403377 0.871173
O O5 0.730540 0.806622 0.732484
O O6 0.569419 0.868189 0.697990
O O7 0.977130 0.775733 0.475841
O O8 0.303703 0.129884 0.740366
O O9 0.707703 0.157717 0.463515
O O10 0.498065 0.007772 0.562135
O O11 0.533281 0.236574 0.831651
O O12 0.452154 0.263327 0.732423
O O13 0.642808 0.398035 0.705204
O O14 0.332697 0.272716 0.274956
O O15 0.047948 0.404256 0.418591
O O16 0.988810 0.659362 0.096813
#
# Coordination Sequence:
#
# PCOD8056312 Si02
#       8
#     4   4   4   4   4   4   4   4
#     4  12  25  46  73 105 144 190 238 299 357 440
#     4  12  30  46  71 104 148 192 240 302 360 424
#     4  12  23  44  71 103 139 182 237 293 367 420
#     4  11  23  46  72 100 141 192 240 282 366 435
#     4  11  24  41  75 106 135 191 241 298 346 436
#     4  12  27  49  70 104 143 195 236 297 360 427
#     4  11  24  47  69 103 144 191 234 286 370 425
#     4  11  24  41  73 105 138 181 240 299 350 429
#
# _framework density 21.737382
#
# number of rings (size 3 to 8) (size 9 to 14) (size 15 to 20)
#    0.000    0.500    6.250    3.000    5.250    0.000 
#    0.000    0.000    0.000    0.000    0.000    0.000 
#    0.000    0.000    0.000    0.000    0.000    0.000 
#
# Total GULP energy -198239.643232 kJ/mol
# GULP energy per Si atom -12389.977702 kJ/mol
# Density = 2.168791 g / cm^3
# Si number density = 21.737382 Si / 1000 Ang^3
#
#
#
# Elastic Constant Matrix: (Units=GPa)
#
#
# Indices 1 2 3 4 5 6 
#
# 1 91.4888 45.9216 38.4185 0.0698 -1.2833 0.0158
# 2 45.9216 116.7859 45.1960 0.0163 7.4949 -0.0192
# 3 38.4185 45.1960 94.2138 0.0488 14.9545 -0.0922
# 4 0.0698 0.0163 0.0488 28.8041 -0.0514 2.6505
# 5 -1.2833 7.4949 14.9545 -0.0514 31.8733 0.0220
# 6 0.0158 -0.0192 -0.0922 2.6505 0.0220 32.6243
#
#
#
# Elastic Compliance Matrix: (Units=1/GPa)
#
#
# Indices 1 2 3 4 5 6 
#
# 1 0.015156 -0.004394 -0.004682 -0.000017 0.003840 -0.000024
# 2 -0.004394 0.011789 -0.003669 0.000008 -0.001228 -0.000001
# 3 -0.004682 -0.003669 0.015317 -0.000029 -0.006512 0.000050
# 4 -0.000017 0.000008 -0.000029 0.034979 0.000069 -0.002842
# 5 0.003840 -0.001228 -0.006512 0.000069 0.034873 -0.000050
# 6 -0.000024 -0.000001 0.000050 -0.002842 -0.000050 0.030883
#
#
# Mechanical properties :
#
#
# Convention : Reuss Voigt Hill
#
# Bulk Modulus (GPa) = 59.62106 62.39565 61.00835
# Shear Modulus (GPa) = 28.72289 30.19050 29.45669
#
# Velocity S-wave (km/s) = 3.63899 3.73080 3.68518
# Velocity P-wave (km/s) = 6.71891 6.87933 6.79959
#
# Compressibility (1/GPa) = 0.01677260
#
# Stress axis : x y z
#
# Youngs Moduli (GPa) = 65.98170 84.82454 65.28659
#
# Poissons Ratio (x) = 0.37272 0.30566
# Poissons Ratio (y) = 0.28992 0.23952
# Poissons Ratio (z) = 0.30892 0.31120
#
# Static dielectric constant tensor:
#      x y z
#    x 3.912150 0.000030 0.073770 
#    y 0.000030 4.160240 -0.000240 
#    z 0.073770 -0.000240 3.975290 
# 
# 
# High freq. dielectric constant tensor:
#      x y z
#    x 1.849670 0.000000 0.009320 
#    y 0.000000 1.858920 0.000000 
#    z 0.009320 0.000000 1.858300 
# 
# From -- ./inp_files/7391.got.cif
#   From: 2010.06.25/outbox.cif.g09.slc.cpg/sg9_4_cif.got.tgz:7391.got - 2010.06.27 21:40:51.
