data_PCOD8056402
_publ_section_title
;
Structure prediction by ZEFSAII (Michael W. Deem and Ramdas Pophale) SiO2 
 PCOD8056402
Probable space group: C C
;
_chemical_formula_sum "Si O2"
_cell_formula_units_Z 28
_cell_length_a 6.722830
_cell_length_b 13.200409
_cell_length_c 15.268919
_cell_angle_alpha 90.000000
_cell_angle_beta 116.122722
_cell_angle_gamma 90.000000
_cell_volume 1216.614713
_symmetry_space_group_name_H-M "C C"
_symmetry_group_IT_number 9
_symmetry_cell_setting 'monoclinic'
loop_
_space_group_symop_operation_xyz
x,y,z
x,-y,1/2+z
1/2+x,1/2+y,z
1/2+x,1/2-y,1/2+z
loop_
_atom_site_type_symbol
_atom_site_label
_atom_site_fract_x
_atom_site_fract_y
_atom_site_fract_z
Si Si1 0.276370 0.456770 0.211660
Si Si2 0.377829 0.250000 0.854764
Si Si3 0.562578 0.043230 0.497868
Si Si4 0.384100 0.775723 0.714497
Si Si5 0.732385 0.911429 0.388814
Si Si6 0.664286 0.588572 0.320714
Si Si7 0.164634 0.775723 0.495031
O O1 0.296259 0.336514 0.212346
O O2 0.209530 0.483329 0.298401
O O3 0.505929 0.514259 0.234478
O O4 0.094063 0.492466 0.104764
O O5 0.508142 0.153430 0.843704
O O6 0.530263 0.346570 0.865825
O O7 0.149339 0.270520 0.759230
O O8 0.340406 0.229480 0.950298
O O9 0.322257 0.016672 0.411128
O O10 0.581094 0.163486 0.497182
O O11 0.746501 0.985741 0.475050
O O12 0.306135 0.844160 0.780636
O O13 0.288714 0.819493 0.604764
O O14 0.954391 0.844160 0.428892
#
# Coordination Sequence:
#
# PCOD8056402 Si02
#       7
#     4   4   4   4   4   4   4
#     4  11  24  44  71 102 139 187 238 291 357 428
#     4  12  22  44  70 100 140 190 228 306 354 418
#     4  11  24  44  71 102 139 187 238 291 357 428
#     4  11  24  45  69 102 142 189 240 294 365 428
#     4  12  24  47  71 101 151 182 240 302 356 426
#     4  12  24  47  71 101 151 182 240 302 356 426
#     4  11  24  45  69 102 142 189 240 294 365 428
#
# _framework density 23.014681
#
# number of rings (size 3 to 8) (size 9 to 14) (size 15 to 20)
#    0.000    0.571    5.714    2.571    0.000    3.429 
#    0.000    1.429    0.000    0.000    0.000    0.000 
#    0.000    0.000    0.000    0.000    0.000    0.000 
#
# Total GULP energy -173566.826323 kJ/mol
# GULP energy per Si atom -12397.630452 kJ/mol
# Density = 2.296230 g / cm^3
# Si number density = 23.014681 Si / 1000 Ang^3
#
#
#
# Elastic Constant Matrix: (Units=GPa)
#
#
# Indices 1 2 3 4 5 6 
#
# 1 114.8137 23.0248 70.1383 0.0000 -2.3625 0.0000
# 2 23.0248 55.1106 38.0220 0.0000 -1.6360 0.0000
# 3 70.1383 38.0220 205.3722 0.0000 -7.5166 0.0000
# 4 0.0000 0.0000 0.0000 25.8274 0.0000 1.6295
# 5 -2.3625 -1.6360 -7.5166 0.0000 33.7282 0.0000
# 6 0.0000 0.0000 0.0000 1.6295 0.0000 40.7651
#
#
#
# Elastic Compliance Matrix: (Units=1/GPa)
#
#
# Indices 1 2 3 4 5 6 
#
# 1 0.011266 -0.002353 -0.003415 0.000000 -0.000086 0.000000
# 2 -0.002353 0.021295 -0.003133 0.000000 0.000170 0.000000
# 3 -0.003415 -0.003133 0.006655 0.000000 0.001092 0.000000
# 4 0.000000 0.000000 0.000000 0.038816 0.000000 -0.001552
# 5 -0.000086 0.000170 0.001092 0.000000 0.029894 0.000000
# 6 0.000000 0.000000 0.000000 -0.001552 0.000000 0.024593
#
#
# Mechanical properties :
#
#
# Convention : Reuss Voigt Hill
#
# Bulk Modulus (GPa) = 46.69734 70.85186 58.77460
# Shear Modulus (GPa) = 31.75409 36.33823 34.04616
#
# Velocity S-wave (km/s) = 3.71850 3.97787 3.85037
# Velocity P-wave (km/s) = 6.22661 7.20765 6.73502
#
# Compressibility (1/GPa) = 0.02141449
#
# Stress axis : x y z
#
# Youngs Moduli (GPa) = 88.76145 46.95991 150.25336
#
# Poissons Ratio (x) = 0.11051 0.51312
# Poissons Ratio (y) = 0.20889 0.47067
# Poissons Ratio (z) = 0.30313 0.14710
#
# Static dielectric constant tensor:
#      x y z
#    x 4.191890 0.000000 -0.064750 
#    y 0.000000 4.209960 0.000000 
#    z -0.064750 0.000000 4.785390 
# 
# 
# High freq. dielectric constant tensor:
#      x y z
#    x 1.904320 0.000000 -0.001540 
#    y 0.000000 1.918780 0.000000 
#    z -0.001540 0.000000 1.918450 
# 
# From -- ./inp_files/21722.got.cif
#   From: 2010.06.25/outbox.cif.g09.slc.cpg/sg9_11_cif.got.tgz:21722.got - 2010.06.27 21:40:51.
