data_PCOD8056141
_publ_section_title
;
Structure prediction by ZEFSAII (Michael W. Deem and Ramdas Pophale) SiO2 
 PCOD8056141
Probable space group: C C
;
_chemical_formula_sum "Si O2"
_cell_formula_units_Z 28
_cell_length_a 6.702909
_cell_length_b 20.541673
_cell_length_c 12.360123
_cell_angle_alpha 90.000000
_cell_angle_beta 131.899620
_cell_angle_gamma 90.000000
_cell_volume 1266.716034
_symmetry_space_group_name_H-M "C C"
_symmetry_group_IT_number 9
_symmetry_cell_setting 'monoclinic'
loop_
_space_group_symop_operation_xyz
x,y,z
x,-y,1/2+z
1/2+x,1/2+y,z
1/2+x,1/2-y,1/2+z
loop_
_atom_site_type_symbol
_atom_site_label
_atom_site_fract_x
_atom_site_fract_y
_atom_site_fract_z
Si Si1 0.788240 0.950171 0.314990
Si Si2 0.152353 0.733398 0.506474
Si Si3 0.924866 0.845291 0.537556
Si Si4 0.677069 0.437669 0.038739
Si Si5 0.621969 0.337829 0.828546
Si Si6 0.427722 0.232369 0.893201
Si Si7 0.516042 0.373992 0.201834
O O1 0.783980 0.897122 0.409170
O O2 0.474785 0.967025 0.174338
O O3 0.951292 0.927522 0.268625
O O4 0.959196 0.010559 0.419647
O O5 0.339319 0.733879 0.470355
O O6 0.286190 0.680470 0.633812
O O7 0.158265 0.806676 0.557524
O O8 0.859037 0.708145 0.370346
O O9 0.739696 0.785308 0.509019
O O10 0.025548 0.878032 0.686842
O O11 0.535291 0.407117 0.091978
O O12 0.719593 0.385832 0.958325
O O13 0.389864 0.288870 0.788516
O O14 0.291893 0.163228 0.821700
#
# Coordination Sequence:
#
# PCOD8056141 Si02
#       7
#     4   4   4   4   4   4   4
#     4  12  29  51  73 101 147 200 253 304 356 430
#     4  11  22  41  71 107 144 182 223 294 377 440
#     4  11  25  42  70 107 145 179 236 297 368 439
#     4  12  29  51  73 101 147 200 253 304 356 430
#     4  11  25  42  70 107 145 179 236 297 368 439
#     4  11  22  41  71 107 144 182 223 294 377 440
#     4  12  24  46  74 102 144 188 242 298 366 438
#
# _framework density 22.104399999999998
#
# number of rings (size 3 to 8) (size 9 to 14) (size 15 to 20)
#    0.000    0.571    5.714    1.714    6.000    3.429 
#    2.571    0.000    0.000    0.000    0.000    0.000 
#    0.000    0.000    0.000    0.000    0.000    0.000 
#
# Total GULP energy -173506.417725 kJ/mol
# GULP energy per Si atom -12393.315552 kJ/mol
# Density = 2.205409 g / cm^3
# Si number density = 22.104400 Si / 1000 Ang^3
#
#
#
# Elastic Constant Matrix: (Units=GPa)
#
#
# Indices 1 2 3 4 5 6 
#
# 1 94.8427 27.0986 35.0565 0.0000 -6.7402 0.0000
# 2 27.0986 84.1234 31.0595 0.0000 0.5067 0.0000
# 3 35.0565 31.0595 110.9138 0.0000 -12.8275 0.0000
# 4 0.0000 0.0000 0.0000 41.0396 0.0000 9.1245
# 5 -6.7402 0.5067 -12.8275 0.0000 37.5006 0.0000
# 6 0.0000 0.0000 0.0000 9.1245 0.0000 29.4727
#
#
#
# Elastic Compliance Matrix: (Units=1/GPa)
#
#
# Indices 1 2 3 4 5 6 
#
# 1 0.012589 -0.002954 -0.003004 0.000000 0.001275 0.000000
# 2 -0.002954 0.014034 -0.003206 0.000000 -0.001817 0.000000
# 3 -0.003004 -0.003206 0.011251 0.000000 0.003352 0.000000
# 4 0.000000 0.000000 0.000000 0.026168 0.000000 -0.008101
# 5 0.001275 -0.001817 0.003352 0.000000 0.028067 0.000000
# 6 0.000000 0.000000 0.000000 -0.008101 0.000000 0.036438
#
#
# Mechanical properties :
#
#
# Convention : Reuss Voigt Hill
#
# Bulk Modulus (GPa) = 51.16516 52.92325 52.04421
# Shear Modulus (GPa) = 32.59674 34.71360 33.65517
#
# Velocity S-wave (km/s) = 3.84431 3.96718 3.90623
# Velocity P-wave (km/s) = 6.54998 6.70664 6.62877
#
# Compressibility (1/GPa) = 0.01954455
#
# Stress axis : x y z
#
# Youngs Moduli (GPa) = 79.43572 71.25772 88.87960
#
# Poissons Ratio (x) = 0.21047 0.26703
# Poissons Ratio (y) = 0.23462 0.28499
# Poissons Ratio (z) = 0.23865 0.22849
#
# Static dielectric constant tensor:
#      x y z
#    x 4.168540 0.000000 -0.090360 
#    y 0.000000 3.858530 0.000000 
#    z -0.090360 0.000000 3.983580 
# 
# 
# High freq. dielectric constant tensor:
#      x y z
#    x 1.887990 0.000000 -0.009800 
#    y 0.000000 1.853910 0.000000 
#    z -0.009800 0.000000 1.874360 
# 
# From -- ./inp_files/3978.got.cif
#   From: 2010.06.25/outbox.cif.g09.slc.cpg/sg9_2_cif.got.tgz:3978.got - 2010.06.27 21:40:51.
