data_PCOD8056198
_publ_section_title
;
Structure prediction by ZEFSAII (Michael W. Deem and Ramdas Pophale) SiO2 
 PCOD8056198
Probable space group: C C
;
_chemical_formula_sum "Si O2"
_cell_formula_units_Z 32
_cell_length_a 8.926230
_cell_length_b 11.282620
_cell_length_c 14.203848
_cell_angle_alpha 90.000000
_cell_angle_beta 80.239004
_cell_angle_gamma 90.000000
_cell_volume 1409.779051
_symmetry_space_group_name_H-M "C C"
_symmetry_group_IT_number 9
_symmetry_cell_setting 'monoclinic'
loop_
_space_group_symop_operation_xyz
x,y,z
x,-y,1/2+z
1/2+x,1/2+y,z
1/2+x,1/2-y,1/2+z
loop_
_atom_site_type_symbol
_atom_site_label
_atom_site_fract_x
_atom_site_fract_y
_atom_site_fract_z
Si Si1 0.995180 0.215952 0.013660
Si Si2 0.367089 0.033643 0.204599
Si Si3 0.143686 0.224179 0.196241
Si Si4 0.782503 0.428993 0.027235
Si Si5 0.430315 0.540094 0.536191
Si Si6 0.273081 0.119278 0.882894
Si Si7 0.693491 0.971914 0.216227
Si Si8 0.386969 0.372522 0.832149
O O1 0.881918 0.315539 0.982680
O O2 0.091921 0.256613 0.094804
O O3 0.902162 0.100280 0.053918
O O4 0.103356 0.169947 0.917546
O O5 0.310328 0.164652 0.181399
O O6 0.321074 0.937315 0.132126
O O7 0.282616 0.986584 0.306822
O O8 0.549623 0.043622 0.191381
O O9 0.134956 0.344083 0.260967
O O10 0.040780 0.119893 0.254857
O O11 0.601088 0.412020 0.034808
O O12 0.832500 0.551872 0.970955
O O13 0.310870 0.584074 0.626421
O O14 0.385593 0.576921 0.436470
O O15 0.366968 0.231339 0.839132
O O16 0.759965 0.053553 0.290637
#
# Coordination Sequence:
#
# PCOD8056198 Si02
#       8
#     4   4   4   4   4   4   4   4
#     4  11  22  45  74 104 150 188 238 307 358 436
#     4  12  25  46  76 106 144 199 241 299 369 431
#     4  12  23  50  71 106 153 187 240 303 358 437
#     4  11  24  47  75 105 145 195 242 296 379 429
#     4  11  26  45  72 109 144 195 241 305 363 433
#     4  11  25  45  72 105 146 191 240 300 358 436
#     4  12  27  47  74 110 146 192 247 301 366 429
#     4  12  26  49  70 105 152 183 247 303 355 439
#
# _framework density 22.698591
#
# number of rings (size 3 to 8) (size 9 to 14) (size 15 to 20)
#    0.000    0.500    6.250    2.250    1.750    3.000 
#    4.500    0.000    0.000    0.000    0.000    0.000 
#    0.000    0.000    0.000    0.000    0.000    0.000 
#
# Total GULP energy -198256.796648 kJ/mol
# GULP energy per Si atom -12391.049790 kJ/mol
# Density = 2.264693 g / cm^3
# Si number density = 22.698591 Si / 1000 Ang^3
#
#
#
# Elastic Constant Matrix: (Units=GPa)
#
#
# Indices 1 2 3 4 5 6 
#
# 1 138.4346 59.2005 55.2467 0.0000 19.6776 0.0000
# 2 59.2005 120.2918 10.0473 0.0000 16.2598 0.0000
# 3 55.2467 10.0473 107.2768 0.0000 8.1821 0.0000
# 4 0.0000 0.0000 0.0000 34.4160 0.0000 5.4839
# 5 19.6776 16.2598 8.1821 0.0000 31.3700 0.0000
# 6 0.0000 0.0000 0.0000 5.4839 0.0000 47.0408
#
#
#
# Elastic Compliance Matrix: (Units=1/GPa)
#
#
# Indices 1 2 3 4 5 6 
#
# 1 0.012042 -0.004991 -0.005464 0.000000 -0.003541 0.000000
# 2 -0.004991 0.011034 0.001770 0.000000 -0.003050 0.000000
# 3 -0.005464 0.001770 0.012017 0.000000 -0.000624 0.000000
# 4 0.000000 0.000000 0.000000 0.029606 0.000000 -0.003451
# 5 -0.003541 -0.003050 -0.000624 0.000000 0.035843 0.000000
# 6 0.000000 0.000000 0.000000 -0.003451 0.000000 0.021661
#
#
# Mechanical properties :
#
#
# Convention : Reuss Voigt Hill
#
# Bulk Modulus (GPa) = 56.42618 68.33246 62.37932
# Shear Modulus (GPa) = 34.36860 38.66595 36.51727
#
# Velocity S-wave (km/s) = 3.89540 4.13177 4.01532
# Velocity P-wave (km/s) = 6.71901 7.27541 7.00274
#
# Compressibility (1/GPa) = 0.01772227
#
# Stress axis : x y z
#
# Youngs Moduli (GPa) = 83.04193 90.62905 83.21222
#
# Poissons Ratio (x) = 0.45236 0.45467
# Poissons Ratio (y) = 0.41449 -0.14726
# Poissons Ratio (z) = 0.45374 -0.16039
#
# Static dielectric constant tensor:
#      x y z
#    x 4.155380 0.000000 -0.158900 
#    y 0.000000 4.220970 0.000000 
#    z -0.158900 0.000000 4.105850 
# 
# 
# High freq. dielectric constant tensor:
#      x y z
#    x 1.896140 0.000000 -0.013040 
#    y 0.000000 1.905200 0.000000 
#    z -0.013040 0.000000 1.894390 
# 
# From -- ./inp_files/22735.got.cif
#   From: 2010.06.25/outbox.cif.g09.slc.cpg/sg9_12_cif.got.tgz:22735.got - 2010.06.27 21:40:51.
