data_PCOD8056268
_publ_section_title
;
Structure prediction by ZEFSAII (Michael W. Deem and Ramdas Pophale) SiO2 
 PCOD8056268
Probable space group: C C
;
_chemical_formula_sum "Si O2"
_cell_formula_units_Z 32
_cell_length_a 16.132486
_cell_length_b 11.158600
_cell_length_c 8.915921
_cell_angle_alpha 90.000000
_cell_angle_beta 69.629118
_cell_angle_gamma 90.000000
_cell_volume 1504.629277
_symmetry_space_group_name_H-M "C C"
_symmetry_group_IT_number 9
_symmetry_cell_setting 'monoclinic'
loop_
_space_group_symop_operation_xyz
x,y,z
x,-y,1/2+z
1/2+x,1/2+y,z
1/2+x,1/2-y,1/2+z
loop_
_atom_site_type_symbol
_atom_site_label
_atom_site_fract_x
_atom_site_fract_y
_atom_site_fract_z
Si Si1 0.567350 0.256857 0.000000
Si Si2 0.960623 0.565262 0.230806
Si Si3 0.672955 0.666233 0.703910
Si Si4 0.123889 0.579794 0.725070
Si Si5 0.909365 0.124198 0.170073
Si Si6 0.371057 0.884004 0.095272
Si Si7 0.212329 0.611635 0.371115
Si Si8 0.014962 0.012709 0.373947
O O1 0.485827 0.180808 0.116471
O O2 0.644459 0.257861 0.076078
O O3 0.602734 0.203589 0.822109
O O4 0.535322 0.391474 0.991042
O O5 0.881162 0.499133 0.195349
O O6 0.932607 0.607725 0.411683
O O7 0.040019 0.470038 0.187997
O O8 0.769375 0.613916 0.608351
O O9 0.681679 0.756400 0.838567
O O10 0.603752 0.560899 0.781483
O O11 0.201453 0.605567 0.557259
O O12 0.149982 0.485041 0.833856
O O13 0.902376 0.267676 0.168109
O O14 0.812129 0.075547 0.268174
O O15 0.978830 0.081906 0.251480
O O16 0.940599 0.075997 0.987955
#
# Coordination Sequence:
#
# PCOD8056268 Si02
#       8
#     4   4   4   4   4   4   4   4
#     4  12  25  43  69 101 129 186 227 269 341 405
#     4  12  23  46  71 100 136 178 230 281 332 405
#     4  11  26  48  67  99 141 180 226 278 338 408
#     4  12  22  41  75  98 137 176 231 274 342 397
#     4  11  26  46  69 100 140 176 228 279 339 403
#     4  11  27  45  71 102 137 177 228 286 334 392
#     4  11  23  44  70 103 134 177 228 287 332 398
#     4  12  26  45  70  97 140 184 222 272 348 408
#
# _framework density 21.267696999999998
#
# number of rings (size 3 to 8) (size 9 to 14) (size 15 to 20)
#    0.000    0.500    5.000    2.250    5.250    1.000 
#    4.500    0.000    0.000    0.000    0.000    0.000 
#    0.000    0.000    0.000    0.000    0.000    0.000 
#
# Total GULP energy -198497.090208 kJ/mol
# GULP energy per Si atom -12406.068138 kJ/mol
# Density = 2.121929 g / cm^3
# Si number density = 21.267697 Si / 1000 Ang^3
#
#
#
# Elastic Constant Matrix: (Units=GPa)
#
#
# Indices 1 2 3 4 5 6 
#
# 1 96.6175 47.8317 30.7304 0.0000 -10.5090 0.0000
# 2 47.8317 95.6905 30.2544 0.0000 -3.1278 0.0000
# 3 30.7304 30.2544 115.8299 0.0000 -5.2532 0.0000
# 4 0.0000 0.0000 0.0000 42.7565 0.0000 4.9843
# 5 -10.5090 -3.1278 -5.2532 0.0000 32.1327 0.0000
# 6 0.0000 0.0000 0.0000 4.9843 0.0000 41.7210
#
#
#
# Elastic Compliance Matrix: (Units=1/GPa)
#
#
# Indices 1 2 3 4 5 6 
#
# 1 0.014653 -0.006568 -0.001999 0.000000 0.003826 0.000000
# 2 -0.006568 0.014347 -0.002054 0.000000 -0.001087 0.000000
# 3 -0.001999 -0.002054 0.009734 0.000000 0.000738 0.000000
# 4 0.000000 0.000000 0.000000 0.023719 0.000000 -0.002834
# 5 0.003826 -0.001087 0.000738 0.000000 0.032387 0.000000
# 6 0.000000 0.000000 0.000000 -0.002834 0.000000 0.024307
#
#
# Mechanical properties :
#
#
# Convention : Reuss Voigt Hill
#
# Bulk Modulus (GPa) = 57.16566 58.41899 57.79233
# Shear Modulus (GPa) = 34.19520 36.61014 35.40267
#
# Velocity S-wave (km/s) = 4.01415 4.15347 4.08440
# Velocity P-wave (km/s) = 6.95859 7.10843 7.03391
#
# Compressibility (1/GPa) = 0.01749302
#
# Stress axis : x y z
#
# Youngs Moduli (GPa) = 68.24376 69.69992 102.73639
#
# Poissons Ratio (x) = 0.45776 0.20533
# Poissons Ratio (y) = 0.44820 0.21105
# Poissons Ratio (z) = 0.13640 0.14319
#
# Static dielectric constant tensor:
#      x y z
#    x 3.884880 0.000000 -0.007550 
#    y 0.000000 3.895130 0.000000 
#    z -0.007550 0.000000 3.850690 
# 
# 
# High freq. dielectric constant tensor:
#      x y z
#    x 1.832190 0.000000 0.002250 
#    y 0.000000 1.840980 0.000000 
#    z 0.002250 0.000000 1.845180 
# 
# From -- ./inp_files/9095.got.cif
#   From: 2010.06.25/outbox.cif.g09.slc.cpg/sg9_5_cif.got.tgz:9095.got - 2010.06.27 21:40:51.
