data_PCOD8056675
_publ_section_title
;
Structure prediction by ZEFSAII (Michael W. Deem and Ramdas Pophale) SiO2 
 PCOD8056675
Probable space group: C C
;
_chemical_formula_sum "Si O2"
_cell_formula_units_Z 28
_cell_length_a 7.684872
_cell_length_b 20.497938
_cell_length_c 9.072401
_cell_angle_alpha 90.000000
_cell_angle_beta 54.226974
_cell_angle_gamma 90.000000
_cell_volume 1159.501907
_symmetry_space_group_name_H-M "C C"
_symmetry_group_IT_number 9
_symmetry_cell_setting 'monoclinic'
loop_
_space_group_symop_operation_xyz
x,y,z
x,-y,1/2+z
1/2+x,1/2+y,z
1/2+x,1/2-y,1/2+z
loop_
_atom_site_type_symbol
_atom_site_label
_atom_site_fract_x
_atom_site_fract_y
_atom_site_fract_z
Si Si1 0.104750 0.427173 0.686300
Si Si2 0.077157 0.810476 0.220489
Si Si3 0.859457 0.852221 0.801059
Si Si4 0.208865 0.946017 0.064807
Si Si5 0.225414 0.224520 0.968041
Si Si6 0.087008 0.312966 0.505249
Si Si7 0.961252 0.981230 0.918674
O O1 0.265950 0.382153 0.699070
O O2 0.984833 0.377924 0.632124
O O3 0.237110 0.479822 0.524553
O O4 0.938195 0.463569 0.877862
O O5 0.205780 0.867981 0.076077
O O6 0.187788 0.804640 0.324819
O O7 0.829807 0.831446 0.344716
O O8 0.101457 0.745196 0.115417
O O9 0.698758 0.803697 0.969417
O O10 0.937973 0.909340 0.866697
O O11 0.050959 0.802722 0.666933
O O12 0.162985 0.980838 0.243612
O O13 0.017573 0.974785 0.061463
O O14 0.456493 0.205196 0.923052
#
# Coordination Sequence:
#
# PCOD8056675 Si02
#       7
#     4   4   4   4   4   4   4
#     4  12  26  51  78 114 159 213 265 335 397 477
#     4  12  24  47  72 116 160 200 272 334 392 484
#     4  12  26  50  75 116 156 202 271 330 397 488
#     4  12  28  48  77 112 155 213 262 335 399 475
#     4  12  25  47  79 114 157 214 260 336 413 471
#     4  12  24  45  77 113 159 210 263 331 407 467
#     4  12  27  54  74 115 160 206 275 323 403 496
#
# _framework density 24.148298
#
# number of rings (size 3 to 8) (size 9 to 14) (size 15 to 20)
#    0.000    0.000    5.714    3.429    4.000    0.000 
#    5.143    0.000    0.000    0.000    0.000    0.000 
#    0.000    0.000    0.000    0.000    0.000    0.000 
#
# Total GULP energy -173625.595796 kJ/mol
# GULP energy per Si atom -12401.828271 kJ/mol
# Density = 2.409334 g / cm^3
# Si number density = 24.148298 Si / 1000 Ang^3
#
#
#
# Elastic Constant Matrix: (Units=GPa)
#
#
# Indices 1 2 3 4 5 6 
#
# 1 104.8361 22.2855 26.0750 0.0000 19.3826 0.0000
# 2 22.2855 138.1795 55.7547 0.0000 -8.7622 0.0000
# 3 26.0750 55.7547 119.1062 0.0000 -12.5784 0.0000
# 4 0.0000 0.0000 0.0000 46.4643 0.0000 1.6208
# 5 19.3826 -8.7622 -12.5784 0.0000 37.4403 0.0000
# 6 0.0000 0.0000 0.0000 1.6208 0.0000 30.7303
#
#
#
# Elastic Compliance Matrix: (Units=1/GPa)
#
#
# Indices 1 2 3 4 5 6 
#
# 1 0.011862 -0.001256 -0.002787 0.000000 -0.007371 0.000000
# 2 -0.001256 0.009073 -0.003815 0.000000 0.001492 0.000000
# 3 -0.002787 -0.003815 0.011249 0.000000 0.004329 0.000000
# 4 0.000000 0.000000 0.000000 0.021562 0.000000 -0.001137
# 5 -0.007371 0.001492 0.004329 0.000000 0.032329 0.000000
# 6 0.000000 0.000000 0.000000 -0.001137 0.000000 0.032601
#
#
# Mechanical properties :
#
#
# Convention : Reuss Voigt Hill
#
# Bulk Modulus (GPa) = 60.72329 63.37246 62.04787
# Shear Modulus (GPa) = 35.74465 40.12744 37.93605
#
# Velocity S-wave (km/s) = 3.85153 4.08083 3.96784
# Velocity P-wave (km/s) = 6.70668 6.96450 6.83681
#
# Compressibility (1/GPa) = 0.01646815
#
# Stress axis : x y z
#
# Youngs Moduli (GPa) = 84.30480 110.21267 88.89628
#
# Poissons Ratio (x) = 0.13840 0.24779
# Poissons Ratio (y) = 0.10587 0.33913
# Poissons Ratio (z) = 0.23499 0.42044
#
# Static dielectric constant tensor:
#      x y z
#    x 4.330670 0.000000 0.022610 
#    y 0.000000 4.509780 0.000000 
#    z 0.022610 0.000000 4.427230 
# 
# 
# High freq. dielectric constant tensor:
#      x y z
#    x 1.956480 0.000000 0.005910 
#    y 0.000000 1.968860 0.000000 
#    z 0.005910 0.000000 1.966750 
# 
# From -- ./inp_files/5841.got.cif
#   From: 2010.06.25/outbox.cif.g09.slc.cpg/sg9_3_cif.got.tgz:5841.got - 2010.06.27 21:40:51.
