data_PCOD8056945
_publ_section_title
;
Structure prediction by ZEFSAII (Michael W. Deem and Ramdas Pophale) SiO2 
 PCOD8056945
Probable space group: P 2/M
;
_chemical_formula_sum "Si O2"
_cell_formula_units_Z 32
_cell_length_a 12.365265
_cell_length_b 9.068879
_cell_length_c 24.388201
_cell_angle_alpha 90.000000
_cell_angle_beta 49.136775
_cell_angle_gamma 90.000000
_cell_volume 2068.310401
_symmetry_space_group_name_H-M "P 2/M"
_symmetry_group_IT_number 10
_symmetry_cell_setting 'monoclinic'
loop_
_space_group_symop_operation_xyz
x,y,z
-x,y,-z
-x,-y,-z
x,-y,z
loop_
_atom_site_type_symbol
_atom_site_label
_atom_site_fract_x
_atom_site_fract_y
_atom_site_fract_z
Si Si1 0.158946 0.674236 0.506018
Si Si2 0.573369 0.827446 0.743477
Si Si3 0.592244 0.832643 0.313389
Si Si4 0.109049 0.836407 0.014624
Si Si5 0.162906 0.169793 0.842020
Si Si6 0.449700 0.324914 0.458180
Si Si7 0.329453 0.672833 0.879865
Si Si8 0.843548 0.325507 0.617361
O O1 0.164843 0.500000 0.501008
O O2 0.289116 0.735614 0.499803
O O3 0.177954 0.731741 0.437734
O O4 0.004933 0.720138 0.582102
O O5 0.501494 0.790585 0.708735
O O6 0.482538 0.752912 0.822676
O O7 0.732047 0.759286 0.692861
O O8 0.581276 0.000000 0.752136
O O9 0.761000 0.810360 0.242346
O O10 0.557413 0.727301 0.375363
O O11 0.560738 0.000000 0.341676
O O12 0.009213 0.800492 0.101455
O O13 0.174046 0.000000 0.997902
O O14 0.243244 0.726115 0.963044
O O15 0.000000 0.825541 0.000000
O O16 0.233742 0.285500 0.859631
O O17 0.192258 0.000000 0.852685
O O18 0.500000 0.261308 0.500000
O O19 0.452715 0.500000 0.457373
O O20 0.354850 0.500000 0.875102
O O21 0.818323 0.500000 0.630926
#
# Coordination Sequence:
#
# PCOD8056945 Si02
#       8
#     4   4   4   4   4   4   4   4
#     4   8  15  27  42  60  79  99 127 162 203 243
#     4  10  18  27  38  55  78 103 131 165 201 236
#     4   9  17  28  40  55  75 100 132 167 200 236
#     4   8  13  23  35  46  67  99 129 159 194 231
#     4   8  15  26  37  49  69  98 130 163 200 234
#     4  10  19  30  44  60  79 104 133 165 201 242
#     4  10  17  22  32  51  74 100 131 162 191 230
#     4   9  15  26  44  59  75 101 130 164 201 236
#
# _framework density 15.471565999999999
#
# number of rings (size 3 to 8) (size 9 to 14) (size 15 to 20)
#    0.000    3.000    1.250    3.750    0.000    4.500 
#    0.000    1.875    0.000    0.000    0.000    0.000 
#    0.000    0.000    0.000    1.125    0.000   23.625 
#
# Total GULP energy -396459.838742 kJ/mol
# GULP energy per Si atom -12389.369961 kJ/mol
# Density = 1.543635 g / cm^3
# Si number density = 15.471566 Si / 1000 Ang^3
#
#
#
# Elastic Constant Matrix: (Units=GPa)
#
#
# Indices 1 2 3 4 5 6 
#
# 1 56.8390 19.3898 45.4223 0.0000 -12.4145 0.0000
# 2 19.3898 64.0121 44.6268 0.0000 -15.3999 0.0000
# 3 45.4223 44.6268 128.2129 0.0000 -37.0405 0.0000
# 4 0.0000 0.0000 0.0000 28.3272 0.0000 -6.7849
# 5 -12.4145 -15.3999 -37.0405 0.0000 21.8084 0.0000
# 6 0.0000 0.0000 0.0000 -6.7849 0.0000 8.2324
#
#
#
# Elastic Compliance Matrix: (Units=1/GPa)
#
#
# Indices 1 2 3 4 5 6 
#
# 1 0.024746 -0.001931 -0.008676 0.000000 -0.002013 0.000000
# 2 -0.001931 0.021022 -0.005226 0.000000 0.004868 0.000000
# 3 -0.008676 -0.005226 0.020025 0.000000 0.025383 0.000000
# 4 0.000000 0.000000 0.000000 0.043985 0.000000 0.036251
# 5 -0.002013 0.004868 0.025383 0.000000 0.091257 0.000000
# 6 0.000000 0.000000 0.000000 0.036251 0.000000 0.151349
#
#
# Mechanical properties :
#
#
# Convention : Reuss Voigt Hill
#
# Bulk Modulus (GPa) = 29.30356 51.99353 40.64854
# Shear Modulus (GPa) = 12.64454 20.98192 16.81323
#
# Velocity S-wave (km/s) = 2.86191 3.68660 3.30012
# Velocity P-wave (km/s) = 5.46828 7.19724 6.39149
#
# Compressibility (1/GPa) = 0.03412555
#
# Stress axis : x y z
#
# Youngs Moduli (GPa) = 40.41012 47.56941 49.93650
#
# Poissons Ratio (x) = 0.09188 0.43326
# Poissons Ratio (y) = 0.07805 0.26099
# Poissons Ratio (z) = 0.35061 0.24862
#
# Static dielectric constant tensor:
#      x y z
#    x 2.686640 0.000000 -0.391560 
#    y 0.000000 2.784820 0.000000 
#    z -0.391560 0.000000 3.357420 
# 
# 
# High freq. dielectric constant tensor:
#      x y z
#    x 1.520270 0.000000 -0.040390 
#    y 0.000000 1.583770 0.000000 
#    z -0.040390 0.000000 1.604280 
# 
# From -- ./inp_files/88531.got.cif
#   From: 2010.06.25/outbox.cif.g09.slc.cpg/sg10_45_cif.got.tgz:88531.got - 2010.06.27 22:07:45.
