data_PCOD8056780
_publ_section_title
;
Structure prediction by ZEFSAII (Michael W. Deem and Ramdas Pophale) SiO2 
 PCOD8056780
Probable space group: C C
;
_chemical_formula_sum "Si O2"
_cell_formula_units_Z 28
_cell_length_a 17.019926
_cell_length_b 6.775511
_cell_length_c 12.151018
_cell_angle_alpha 90.000000
_cell_angle_beta 66.396376
_cell_angle_gamma 90.000000
_cell_volume 1284.008212
_symmetry_space_group_name_H-M "C C"
_symmetry_group_IT_number 9
_symmetry_cell_setting 'monoclinic'
loop_
_space_group_symop_operation_xyz
x,y,z
x,-y,1/2+z
1/2+x,1/2+y,z
1/2+x,1/2-y,1/2+z
loop_
_atom_site_type_symbol
_atom_site_label
_atom_site_fract_x
_atom_site_fract_y
_atom_site_fract_z
Si Si1 0.790710 0.676941 0.496650
Si Si2 0.444083 0.970663 0.764960
Si Si3 0.138132 0.880172 0.587686
Si Si4 0.200098 0.519489 0.423748
Si Si5 0.348990 0.309187 0.696195
Si Si6 0.571201 0.805690 0.335576
Si Si7 0.483802 0.629935 0.579213
O O1 0.870668 0.640743 0.372771
O O2 0.727240 0.492755 0.522992
O O3 0.821264 0.688384 0.604729
O O4 0.747027 0.881324 0.486036
O O5 0.477193 0.832066 0.649669
O O6 0.412767 0.177278 0.732640
O O7 0.524413 0.015604 0.798913
O O8 0.141501 0.671745 0.523424
O O9 0.119689 0.842724 0.726343
O O10 0.062159 0.005072 0.580017
O O11 0.265960 0.640439 0.312953
O O12 0.141021 0.387673 0.379990
O O13 0.395563 0.510532 0.635004
O O14 0.499956 0.681470 0.442458
#
# Coordination Sequence:
#
# PCOD8056780 Si02
#       7
#     4   4   4   4   4   4   4
#     4  12  28  47  78 106 147 194 242 301 358 431
#     4  12  27  51  71 112 144 191 247 295 363 434
#     4  12  28  48  74 109 147 191 242 296 366 427
#     4  12  27  51  71 112 144 191 247 295 363 434
#     4  12  28  47  78 106 147 194 242 301 358 431
#     4  12  28  46  78 106 150 192 240 300 362 436
#     4  12  28  48  74 109 147 191 242 296 366 427
#
# _framework density 21.806712999999998
#
# number of rings (size 3 to 8) (size 9 to 14) (size 15 to 20)
#    0.000    0.000    5.714    2.571   12.000    2.286 
#    0.000    0.000    0.000    0.000    0.000    0.000 
#    0.000    0.000    0.000    0.000    0.000    0.000 
#
# Total GULP energy -173747.430283 kJ/mol
# GULP energy per Si atom -12410.530735 kJ/mol
# Density = 2.175708 g / cm^3
# Si number density = 21.806713 Si / 1000 Ang^3
#
#
#
# Elastic Constant Matrix: (Units=GPa)
#
#
# Indices 1 2 3 4 5 6 
#
# 1 63.5579 0.5871 10.2318 0.0000 2.1135 0.0000
# 2 0.5871 79.8213 33.3878 0.0000 -5.4432 0.0001
# 3 10.2318 33.3878 133.2463 0.0000 -5.8938 0.0000
# 4 0.0000 0.0000 0.0000 35.2069 0.0000 5.8809
# 5 2.1135 -5.4432 -5.8938 0.0000 35.0864 0.0000
# 6 0.0000 0.0001 0.0000 5.8809 0.0000 35.9069
#
#
#
# Elastic Compliance Matrix: (Units=1/GPa)
#
#
# Indices 1 2 3 4 5 6 
#
# 1 0.015989 0.000379 -0.001373 0.000000 -0.001135 0.000000
# 2 0.000379 0.014093 -0.003491 0.000000 0.001577 0.000000
# 3 -0.001373 -0.003491 0.008528 0.000000 0.000974 0.000000
# 4 0.000000 0.000000 0.000000 0.029202 0.000000 -0.004783
# 5 -0.001135 0.001577 0.000974 0.000000 0.028978 0.000000
# 6 0.000000 0.000000 0.000000 -0.004783 0.000000 0.028633
#
#
# Mechanical properties :
#
#
# Convention : Reuss Voigt Hill
#
# Bulk Modulus (GPa) = 33.73689 40.55989 37.14839
# Shear Modulus (GPa) = 34.65673 36.73463 35.69568
#
# Velocity S-wave (km/s) = 3.99089 4.10879 4.05027
# Velocity P-wave (km/s) = 6.06141 6.41480 6.24061
#
# Compressibility (1/GPa) = 0.02964114
#
# Stress axis : x y z
#
# Youngs Moduli (GPa) = 62.54319 70.95815 117.26006
#
# Poissons Ratio (x) = -0.02691 0.16100
# Poissons Ratio (y) = -0.02372 0.40931
# Poissons Ratio (z) = 0.08587 0.24769
#
# Static dielectric constant tensor:
#      x y z
#    x 3.958790 0.000000 -0.131380 
#    y 0.000000 4.137660 0.000000 
#    z -0.131380 0.000000 4.348960 
# 
# 
# High freq. dielectric constant tensor:
#      x y z
#    x 1.866130 0.000000 -0.006960 
#    y 0.000000 1.868070 0.000000 
#    z -0.006960 0.000000 1.880210 
# 
# From -- ./inp_files/18803.got.cif
#   From: 2010.06.25/outbox.cif.g09.slc.cpg/sg9_10_cif.got.tgz:18803.got - 2010.06.27 21:40:51.
