data_PCOD8056626
_publ_section_title
;
Structure prediction by ZEFSAII (Michael W. Deem and Ramdas Pophale) SiO2 
 PCOD8056626
Probable space group: C C
;
_chemical_formula_sum "Si O2"
_cell_formula_units_Z 20
_cell_length_a 5.223657
_cell_length_b 18.020175
_cell_length_c 8.754524
_cell_angle_alpha 90.000000
_cell_angle_beta 104.671842
_cell_angle_gamma 90.000000
_cell_volume 797.202846
_symmetry_space_group_name_H-M "C C"
_symmetry_group_IT_number 9
_symmetry_cell_setting 'monoclinic'
loop_
_space_group_symop_operation_xyz
x,y,z
x,-y,1/2+z
1/2+x,1/2+y,z
1/2+x,1/2-y,1/2+z
loop_
_atom_site_type_symbol
_atom_site_label
_atom_site_fract_x
_atom_site_fract_y
_atom_site_fract_z
Si Si1 0.131960 0.372517 0.050660
Si Si2 0.662468 0.132498 0.223265
Si Si3 0.171860 0.802573 0.184395
Si Si4 0.980179 0.988538 0.667291
Si Si5 0.241144 0.083527 0.929391
O O1 0.382590 0.316528 0.069147
O O2 0.237034 0.452510 0.122009
O O3 0.908270 0.343266 0.130123
O O4 0.006536 0.373907 0.860467
O O5 0.736824 0.216046 0.192214
O O6 0.921677 0.080679 0.272303
O O7 0.512618 0.092448 0.060036
O O8 0.159667 0.834473 0.356316
O O9 0.239405 0.030108 0.778092
O O10 0.026153 0.953599 0.507848
#
# Coordination Sequence:
#
# PCOD8056626 Si02
#       5
#     4   4   4   4   4
#     4  11  28  53  76 114 158 208 267 323 393 469
#     4  12  28  45  82 111 158 211 259 329 391 467
#     4  11  29  51  79 117 161 205 264 325 398 472
#     4  11  27  49  75 114 153 212 262 328 384 470
#     4  11  28  48  78 112 158 204 264 325 392 466
#
# _framework density 25.087719
#
# number of rings (size 3 to 8) (size 9 to 14) (size 15 to 20)
#    0.000    0.800    2.000    1.200   22.400    0.000 
#    0.000    0.000    0.000    0.000    0.000    0.000 
#    0.000    0.000    0.000    0.000    0.000    0.000 
#
# Total GULP energy -123918.659775 kJ/mol
# GULP energy per Si atom -12391.865977 kJ/mol
# Density = 2.503062 g / cm^3
# Si number density = 25.087719 Si / 1000 Ang^3
#
#
#
# Elastic Constant Matrix: (Units=GPa)
#
#
# Indices 1 2 3 4 5 6 
#
# 1 112.0782 57.4890 39.1652 0.0000 -12.1565 0.0000
# 2 57.4890 208.3433 63.0912 0.0000 -9.1745 0.0000
# 3 39.1652 63.0912 144.9108 0.0000 0.1429 0.0000
# 4 0.0000 0.0000 0.0000 35.7158 0.0000 -3.0388
# 5 -12.1565 -9.1745 0.1429 0.0000 35.2599 0.0000
# 6 0.0000 0.0000 0.0000 -3.0388 0.0000 35.7652
#
#
#
# Elastic Compliance Matrix: (Units=1/GPa)
#
#
# Indices 1 2 3 4 5 6 
#
# 1 0.011173 -0.002332 -0.002008 0.000000 0.003253 0.000000
# 2 -0.002332 0.006090 -0.002022 0.000000 0.000789 0.000000
# 3 -0.002008 -0.002022 0.008325 0.000000 -0.001252 0.000000
# 4 0.000000 0.000000 0.000000 0.028203 0.000000 0.002396
# 5 0.003253 0.000789 -0.001252 0.000000 0.029693 0.000000
# 6 0.000000 0.000000 0.000000 0.002396 0.000000 0.028164
#
#
# Mechanical properties :
#
#
# Convention : Reuss Voigt Hill
#
# Bulk Modulus (GPa) = 77.73040 87.20258 82.46649
# Shear Modulus (GPa) = 38.86240 41.72063 40.29152
#
# Velocity S-wave (km/s) = 3.94008 4.08240 4.01187
# Velocity P-wave (km/s) = 7.19373 7.55353 7.37582
#
# Compressibility (1/GPa) = 0.01286498
#
# Stress axis : x y z
#
# Youngs Moduli (GPa) = 89.50273 164.19640 120.11908
#
# Poissons Ratio (x) = 0.38286 0.24117
# Poissons Ratio (y) = 0.20869 0.24290
# Poissons Ratio (z) = 0.17970 0.33203
#
# Static dielectric constant tensor:
#      x y z
#    x 4.026310 0.000000 0.093490 
#    y 0.000000 4.779900 0.000000 
#    z 0.093490 0.000000 4.817500 
# 
# 
# High freq. dielectric constant tensor:
#      x y z
#    x 1.974170 0.000000 0.003020 
#    y 0.000000 2.020470 0.000000 
#    z 0.003020 0.000000 2.014780 
# 
# From -- ./inp_files/3593.got.cif
#   From: 2010.06.25/outbox.cif.g09.slc.cpg/sg9_2_cif.got.tgz:3593.got - 2010.06.27 21:40:51.
