data_PCOD8056005
_publ_section_title
;
Structure prediction by ZEFSAII (Michael W. Deem and Ramdas Pophale) SiO2 
 PCOD8056005
Probable space group: C C
;
_chemical_formula_sum "Si O2"
_cell_formula_units_Z 28
_cell_length_a 25.403998
_cell_length_b 5.801724
_cell_length_c 21.849788
_cell_angle_alpha 90.000000
_cell_angle_beta 159.412109
_cell_angle_gamma 90.000000
_cell_volume 1132.424721
_symmetry_space_group_name_H-M "C C"
_symmetry_group_IT_number 9
_symmetry_cell_setting 'monoclinic'
loop_
_space_group_symop_operation_xyz
x,y,z
x,-y,1/2+z
1/2+x,1/2+y,z
1/2+x,1/2-y,1/2+z
loop_
_atom_site_type_symbol
_atom_site_label
_atom_site_fract_x
_atom_site_fract_y
_atom_site_fract_z
Si Si1 0.623390 0.548457 0.406330
Si Si2 0.194493 0.661057 0.289070
Si Si3 0.997813 0.005858 0.141409
Si Si4 0.007843 0.717466 0.529115
Si Si5 0.404945 0.244314 0.247828
Si Si6 0.673804 0.931759 0.554786
Si Si7 0.724061 0.450545 0.211124
O O1 0.584129 0.606916 0.293479
O O2 0.492253 0.391233 0.291797
O O3 0.782896 0.420040 0.582924
O O4 0.631256 0.797108 0.446615
O O5 0.325250 0.544275 0.471068
O O6 0.271169 0.853228 0.328740
O O7 0.075668 0.767314 0.206124
O O8 0.121762 0.494394 0.158982
O O9 0.994706 0.188575 0.083658
O O10 0.850758 0.634050 0.329939
O O11 0.067598 0.912274 0.547386
O O12 0.320476 0.412325 0.203425
O O13 0.530907 0.087668 0.419709
O O14 0.710441 0.742667 0.645349
#
# Coordination Sequence:
#
# PCOD8056005 Si02
#       7
#     4   4   4   4   4   4   4
#     4  11  24  45  74 111 148 193 246 311 369 447
#     4  11  23  45  67 105 145 200 243 302 359 438
#     4  11  24  43  73 106 149 192 249 301 368 439
#     4  11  24  46  72 108 145 198 242 304 374 428
#     4  10  25  49  70 112 141 199 246 302 392 430
#     4  11  26  50  75 106 149 193 253 311 376 450
#     4  11  26  48  73 106 147 195 253 305 366 450
#
# _framework density 24.725707
#
# number of rings (size 3 to 8) (size 9 to 14) (size 15 to 20)
#    0.000    1.143    2.857    1.714    0.000   10.286 
#    2.571    2.857    0.000    0.000    0.000    0.000 
#    0.000    0.000    0.000    0.000    0.000    0.000 
#
# Total GULP energy -173648.438292 kJ/mol
# GULP energy per Si atom -12403.459878 kJ/mol
# Density = 2.466943 g / cm^3
# Si number density = 24.725707 Si / 1000 Ang^3
#
#
#
# Elastic Constant Matrix: (Units=GPa)
#
#
# Indices 1 2 3 4 5 6 
#
# 1 96.8649 58.1838 71.1058 -0.0005 0.5012 0.0002
# 2 58.1838 127.6678 58.9299 0.0003 2.7536 -0.0008
# 3 71.1058 58.9299 154.4990 -0.0010 8.9886 -0.0002
# 4 -0.0005 0.0003 -0.0010 46.7054 -0.0005 6.0466
# 5 0.5012 2.7536 8.9886 -0.0005 40.0535 -0.0001
# 6 0.0002 -0.0008 -0.0002 6.0466 -0.0001 35.2740
#
#
#
# Elastic Compliance Matrix: (Units=1/GPa)
#
#
# Indices 1 2 3 4 5 6 
#
# 1 0.018292 -0.005391 -0.006455 0.000000 0.001590 0.000000
# 2 -0.005391 0.011097 -0.001733 0.000000 -0.000306 0.000000
# 3 -0.006455 -0.001733 0.010226 0.000000 -0.002095 0.000000
# 4 0.000000 0.000000 0.000000 0.021897 0.000000 -0.003754
# 5 0.001590 -0.000306 -0.002095 0.000000 0.025438 0.000000
# 6 0.000000 0.000000 0.000000 -0.003754 0.000000 0.028993
#
#
# Mechanical properties :
#
#
# Convention : Reuss Voigt Hill
#
# Bulk Modulus (GPa) = 80.28311 83.94120 82.11216
# Shear Modulus (GPa) = 33.95497 37.12739 35.54118
#
# Velocity S-wave (km/s) = 3.70978 3.87921 3.79544
# Velocity P-wave (km/s) = 7.13372 7.35439 7.24489
#
# Compressibility (1/GPa) = 0.01245592
#
# Stress axis : x y z
#
# Youngs Moduli (GPa) = 54.66828 90.11723 97.78690
#
# Poissons Ratio (x) = 0.48586 0.63119
# Poissons Ratio (y) = 0.29474 0.16951
# Poissons Ratio (z) = 0.35287 0.15621
#
# Static dielectric constant tensor:
#      x y z
#    x 4.269520 0.000000 0.221680 
#    y 0.000000 4.719070 0.000000 
#    z 0.221680 0.000000 4.515480 
# 
# 
# High freq. dielectric constant tensor:
#      x y z
#    x 1.978640 0.000000 0.008930 
#    y 0.000000 1.995810 0.000000 
#    z 0.008930 0.000000 1.996630 
# 
# From -- ./inp_files/11935.got.cif
#   From: 2010.06.25/outbox.cif.g09.slc.cpg/sg9_6_cif.got.tgz:11935.got - 2010.06.27 21:40:51.
