data_PCOD8056344
_publ_section_title
;
Structure prediction by ZEFSAII (Michael W. Deem and Ramdas Pophale) SiO2 
 PCOD8056344
Probable space group: C C
;
_chemical_formula_sum "Si O2"
_cell_formula_units_Z 24
_cell_length_a 10.086741
_cell_length_b 11.232750
_cell_length_c 8.975538
_cell_angle_alpha 90.000000
_cell_angle_beta 95.670669
_cell_angle_gamma 90.000000
_cell_volume 1011.968330
_symmetry_space_group_name_H-M "C C"
_symmetry_group_IT_number 9
_symmetry_cell_setting 'monoclinic'
loop_
_space_group_symop_operation_xyz
x,y,z
x,-y,1/2+z
1/2+x,1/2+y,z
1/2+x,1/2-y,1/2+z
loop_
_atom_site_type_symbol
_atom_site_label
_atom_site_fract_x
_atom_site_fract_y
_atom_site_fract_z
Si Si1 0.281440 0.097409 0.750000
Si Si2 0.530136 0.554590 0.209905
Si Si3 0.700989 0.811297 0.943663
Si Si4 0.849896 0.955696 0.421558
Si Si5 0.208014 0.252137 0.277662
Si Si6 0.912989 0.594960 0.452920
O O1 0.220656 0.221184 0.806979
O O2 0.384417 0.116751 0.625299
O O3 0.162947 0.014655 0.669949
O O4 0.361398 0.034295 0.893650
O O5 0.454512 0.457289 0.299154
O O6 0.578021 0.673141 0.308415
O O7 0.431117 0.600148 0.068891
O O8 0.566292 0.888082 0.928247
O O9 0.817078 0.908100 0.950663
O O10 0.711291 0.743390 0.100133
O O11 0.716029 0.883069 0.355482
O O12 0.343538 0.196367 0.350209
#
# Coordination Sequence:
#
# PCOD8056344 Si02
#       6
#     4   4   4   4   4   4
#     4  11  25  50  76 108 142 203 241 304 379 422
#     4  11  23  47  74  99 142 187 244 300 359 442
#     4  12  28  44  72 110 148 193 247 305 365 443
#     4  12  26  44  70 109 143 186 246 300 364 439
#     4  11  24  47  70 102 141 193 240 301 366 428
#     4  11  26  48  76 104 150 190 252 302 361 450
#
# _framework density 23.716156000000002
#
# number of rings (size 3 to 8) (size 9 to 14) (size 15 to 20)
#    0.000    0.667    1.667    7.000    7.000    0.000 
#    0.000    0.000    0.000    0.000    0.000    0.000 
#    0.000    0.000    0.000    0.000    0.000    0.000 
#
# Total GULP energy -148741.913851 kJ/mol
# GULP energy per Si atom -12395.159488 kJ/mol
# Density = 2.366218 g / cm^3
# Si number density = 23.716156 Si / 1000 Ang^3
#
#
#
# Elastic Constant Matrix: (Units=GPa)
#
#
# Indices 1 2 3 4 5 6 
#
# 1 94.0008 43.2721 50.3132 0.0000 -0.9207 0.0000
# 2 43.2721 112.0561 31.0531 0.0000 7.6767 0.0000
# 3 50.3132 31.0531 71.5487 0.0000 18.0928 0.0000
# 4 0.0000 0.0000 0.0000 38.7366 0.0000 5.9046
# 5 -0.9207 7.6767 18.0928 0.0000 32.7338 0.0000
# 6 0.0000 0.0000 0.0000 5.9046 0.0000 39.0730
#
#
#
# Elastic Compliance Matrix: (Units=1/GPa)
#
#
# Indices 1 2 3 4 5 6 
#
# 1 0.021103 -0.004571 -0.015435 0.000000 0.010197 0.000000
# 2 -0.004571 0.011134 -0.001076 0.000000 -0.002145 0.000000
# 3 -0.015435 -0.001076 0.029461 0.000000 -0.016466 0.000000
# 4 0.000000 0.000000 0.000000 0.026424 0.000000 -0.003993
# 5 0.010197 -0.002145 -0.016466 0.000000 0.040440 0.000000
# 6 0.000000 0.000000 0.000000 -0.003993 0.000000 0.026197
#
#
# Mechanical properties :
#
#
# Convention : Reuss Voigt Hill
#
# Bulk Modulus (GPa) = 51.18749 58.54251 54.86500
# Shear Modulus (GPa) = 24.57803 32.30649 28.44226
#
# Velocity S-wave (km/s) = 3.22272 3.69482 3.46682
# Velocity P-wave (km/s) = 5.95635 6.55290 6.26173
#
# Compressibility (1/GPa) = 0.01953602
#
# Stress axis : x y z
#
# Youngs Moduli (GPa) = 47.38569 89.81311 33.94335
#
# Poissons Ratio (x) = 0.41050 0.52391
# Poissons Ratio (y) = 0.21658 0.03652
# Poissons Ratio (z) = 0.73138 0.09663
#
# Static dielectric constant tensor:
#      x y z
#    x 4.326000 0.000000 0.281170 
#    y 0.000000 4.351520 0.000000 
#    z 0.281170 0.000000 4.552730 
# 
# 
# High freq. dielectric constant tensor:
#      x y z
#    x 1.940100 0.000000 0.010710 
#    y 0.000000 1.950940 0.000000 
#    z 0.010710 0.000000 1.931020 
# 
# From -- ./inp_files/4770.got.cif
#   From: 2010.06.25/outbox.cif.g09.slc.cpg/sg9_3_cif.got.tgz:4770.got - 2010.06.27 21:40:51.
