data_PCOD8056682
_publ_section_title
;
Structure prediction by ZEFSAII (Michael W. Deem and Ramdas Pophale) SiO2 
 PCOD8056682
Probable space group: C C
;
_chemical_formula_sum "Si O2"
_cell_formula_units_Z 28
_cell_length_a 13.437657
_cell_length_b 13.809537
_cell_length_c 9.174097
_cell_angle_alpha 90.000000
_cell_angle_beta 139.626751
_cell_angle_gamma 90.000000
_cell_volume 1102.765037
_symmetry_space_group_name_H-M "C C"
_symmetry_group_IT_number 9
_symmetry_cell_setting 'monoclinic'
loop_
_space_group_symop_operation_xyz
x,y,z
x,-y,1/2+z
1/2+x,1/2+y,z
1/2+x,1/2-y,1/2+z
loop_
_atom_site_type_symbol
_atom_site_label
_atom_site_fract_x
_atom_site_fract_y
_atom_site_fract_z
Si Si1 0.929030 0.676904 0.445670
Si Si2 0.706469 0.938354 0.373124
Si Si3 0.860027 0.375361 0.364060
Si Si4 0.596996 0.351537 0.532270
Si Si5 0.897901 0.967073 0.847223
Si Si6 0.447030 0.977125 0.725145
Si Si7 0.069218 0.200411 0.672346
O O1 0.752107 0.665924 0.302596
O O2 0.928056 0.619363 0.294489
O O3 0.065483 0.638693 0.702940
O O4 0.959437 0.790333 0.452203
O O5 0.845989 0.912373 0.638967
O O6 0.763163 0.972361 0.278211
O O7 0.624974 0.023561 0.374001
O O8 0.848558 0.464813 0.466507
O O9 0.887587 0.424798 0.238040
O O10 0.703079 0.314776 0.201014
O O11 0.002305 0.306120 0.564436
O O12 0.542918 0.463354 0.471303
O O13 0.628873 0.310996 0.404532
O O14 0.942590 0.882938 0.008653
#
# Coordination Sequence:
#
# PCOD8056682 Si02
#       7
#     4   4   4   4   4   4   4
#     4  12  25  45  78 110 152 204 263 314 391 468
#     4  12  26  48  78 108 156 202 259 320 394 459
#     4  12  28  48  81 111 156 200 262 317 395 463
#     4  12  25  48  79 113 157 211 263 319 397 484
#     4  12  27  49  77 114 159 204 264 329 392 467
#     4  12  24  46  78 108 148 201 254 315 384 464
#     4  12  27  48  79 114 156 204 263 322 395 473
#
# _framework density 25.390722
#
# number of rings (size 3 to 8) (size 9 to 14) (size 15 to 20)
#    0.000    0.000    7.143    1.714    4.000    0.000 
#    5.143    0.000    0.000    0.000    0.000    0.000 
#    0.000    0.000    0.000    0.000    0.000    0.000 
#
# Total GULP energy -173500.225486 kJ/mol
# GULP energy per Si atom -12392.873249 kJ/mol
# Density = 2.533293 g / cm^3
# Si number density = 25.390722 Si / 1000 Ang^3
#
#
#
# Elastic Constant Matrix: (Units=GPa)
#
#
# Indices 1 2 3 4 5 6 
#
# 1 105.0264 28.0848 29.2519 0.0000 7.1904 0.0000
# 2 28.0848 100.0569 47.3362 0.0000 4.3963 0.0000
# 3 29.2519 47.3362 134.4963 0.0000 9.0228 0.0000
# 4 0.0000 0.0000 0.0000 35.1669 0.0000 8.3626
# 5 7.1904 4.3963 9.0228 0.0000 38.8009 0.0000
# 6 0.0000 0.0000 0.0000 8.3626 0.0000 30.5501
#
#
#
# Elastic Compliance Matrix: (Units=1/GPa)
#
#
# Indices 1 2 3 4 5 6 
#
# 1 0.010613 -0.002244 -0.001426 0.000000 -0.001381 0.000000
# 2 -0.002244 0.012471 -0.003895 0.000000 -0.000091 0.000000
# 3 -0.001426 -0.003895 0.009213 0.000000 -0.001437 0.000000
# 4 0.000000 0.000000 0.000000 0.030416 0.000000 -0.008326
# 5 -0.001381 -0.000091 -0.001437 0.000000 0.026373 0.000000
# 6 0.000000 0.000000 0.000000 -0.008326 0.000000 0.035012
#
#
# Mechanical properties :
#
#
# Convention : Reuss Voigt Hill
#
# Bulk Modulus (GPa) = 58.25083 60.99171 59.62127
# Shear Modulus (GPa) = 34.49490 36.56402 35.52946
#
# Velocity S-wave (km/s) = 3.68987 3.79892 3.74479
# Velocity P-wave (km/s) = 6.41444 6.58148 6.49850
#
# Compressibility (1/GPa) = 0.01716714
#
# Stress axis : x y z
#
# Youngs Moduli (GPa) = 94.22318 80.18731 108.54799
#
# Poissons Ratio (x) = 0.17991 0.15478
# Poissons Ratio (y) = 0.21141 0.42279
# Poissons Ratio (z) = 0.13436 0.31233
#
# Static dielectric constant tensor:
#      x y z
#    x 4.581280 0.000000 0.188560 
#    y 0.000000 4.411190 0.000000 
#    z 0.188560 0.000000 4.650080 
# 
# 
# High freq. dielectric constant tensor:
#      x y z
#    x 2.013490 0.000000 0.008230 
#    y 0.000000 2.004750 0.000000 
#    z 0.008230 0.000000 2.017050 
# 
# From -- ./inp_files/9748.got.cif
#   From: 2010.06.25/outbox.cif.g09.slc.cpg/sg9_5_cif.got.tgz:9748.got - 2010.06.27 21:40:51.
