data_PCOD8056963
_publ_section_title
;
Structure prediction by ZEFSAII (Michael W. Deem and Ramdas Pophale) SiO2 
 PCOD8056963
Probable space group: P 2/M
;
_chemical_formula_sum "Si O2"
_cell_formula_units_Z 28
_cell_length_a 19.014455
_cell_length_b 9.096294
_cell_length_c 17.866053
_cell_angle_alpha 90.000000
_cell_angle_beta 147.591437
_cell_angle_gamma 90.000000
_cell_volume 1656.165278
_symmetry_space_group_name_H-M "P 2/M"
_symmetry_group_IT_number 10
_symmetry_cell_setting 'monoclinic'
loop_
_space_group_symop_operation_xyz
x,y,z
-x,y,-z
-x,-y,-z
x,-y,z
loop_
_atom_site_type_symbol
_atom_site_label
_atom_site_fract_x
_atom_site_fract_y
_atom_site_fract_z
Si Si1 0.160443 0.830549 0.006378
Si Si2 0.777126 0.832964 0.096810
Si Si3 0.357925 0.673384 0.895475
Si Si4 0.865613 0.327336 0.419690
Si Si5 0.082695 0.827206 0.383987
Si Si6 0.152749 0.836896 0.159168
Si Si7 0.106210 0.327322 0.257304
O O1 0.229616 0.801394 0.149534
O O2 0.105183 0.000000 0.954422
O O3 0.257748 0.809835 0.022959
O O4 0.043615 0.715239 0.892196
O O5 0.680346 0.732891 0.057514
O O6 0.928358 0.788026 0.246288
O O7 0.754140 0.000000 0.101119
O O8 0.360637 0.500000 0.904886
O O9 0.252985 0.724497 0.739638
O O10 0.500000 0.735595 0.000000
O O11 0.861304 0.500000 0.433414
O O12 0.849796 0.238748 0.482002
O O13 0.000000 0.282684 0.500000
O O14 0.152872 0.752562 0.375297
O O15 0.107459 0.000000 0.402700
O O16 0.190272 0.726179 0.260157
O O17 0.188845 0.000000 0.219633
O O18 0.000000 0.826522 0.000000
O O19 0.123289 0.500000 0.282227
#
# Coordination Sequence:
#
# PCOD8056963 Si02
#       7
#     4   4   4   4   4   4   4
#     4   8  15  26  38  55  81 116 152 187 227 271
#     4   9  17  29  45  65  88 116 154 194 228 268
#     4  10  21  35  49  67  94 124 151 186 236 282
#     4  10  19  32  50  70  91 117 154 194 229 270
#     4  10  19  30  45  65  89 118 154 191 232 274
#     4   8  13  23  36  50  78 117 151 181 222 272
#     4  10  17  23  35  57  86 116 149 187 227 269
#
# _framework density 16.906524999999998
#
# number of rings (size 3 to 8) (size 9 to 14) (size 15 to 20)
#    0.000    2.714    1.429    3.429    0.000    6.000 
#    0.000    0.000    0.000    0.000    0.000    0.000 
#    0.000    1.143    0.000   13.143    0.000    6.857 
#
# Total GULP energy -346989.419591 kJ/mol
# GULP energy per Si atom -12392.479271 kJ/mol
# Density = 1.686805 g / cm^3
# Si number density = 16.906525 Si / 1000 Ang^3
#
#
#
# Elastic Constant Matrix: (Units=GPa)
#
#
# Indices 1 2 3 4 5 6 
#
# 1 133.2767 50.2863 60.6261 0.0000 -38.1233 0.0000
# 2 50.2863 72.7391 31.1087 0.0000 -19.6346 0.0000
# 3 60.6261 31.1087 60.4872 0.0000 -12.9538 0.0000
# 4 0.0000 0.0000 0.0000 14.7168 0.0000 -10.7582
# 5 -38.1233 -19.6346 -12.9538 0.0000 30.4252 0.0000
# 6 0.0000 0.0000 0.0000 -10.7582 0.0000 26.2085
#
#
#
# Elastic Compliance Matrix: (Units=1/GPa)
#
#
# Indices 1 2 3 4 5 6 
#
# 1 0.020576 -0.002970 -0.015388 0.000000 0.017314 0.000000
# 2 -0.002970 0.020171 -0.005948 0.000000 0.006763 0.000000
# 3 -0.015388 -0.005948 0.033080 0.000000 -0.009036 0.000000
# 4 0.000000 0.000000 0.000000 0.097081 0.000000 0.039850
# 5 0.017314 0.006763 -0.009036 0.000000 0.055079 0.000000
# 6 0.000000 0.000000 0.000000 0.039850 0.000000 0.054513
#
#
# Mechanical properties :
#
#
# Convention : Reuss Voigt Hill
#
# Bulk Modulus (GPa) = 39.66148 61.17168 50.41658
# Shear Modulus (GPa) = 14.81400 22.56890 18.69145
#
# Velocity S-wave (km/s) = 2.96333 3.65762 3.32863
# Velocity P-wave (km/s) = 5.93453 7.35516 6.68270
#
# Compressibility (1/GPa) = 0.02521338
#
# Stress axis : x y z
#
# Youngs Moduli (GPa) = 48.59928 49.57715 30.22975
#
# Poissons Ratio (x) = 0.14725 0.46518
# Poissons Ratio (y) = 0.14435 0.17982
# Poissons Ratio (z) = 0.74785 0.29491
#
# Static dielectric constant tensor:
#      x y z
#    x 3.506960 0.000000 -0.481880 
#    y 0.000000 3.053340 0.000000 
#    z -0.481880 0.000000 2.864720 
# 
# 
# High freq. dielectric constant tensor:
#      x y z
#    x 1.654730 0.000000 -0.049890 
#    y 0.000000 1.649610 0.000000 
#    z -0.049890 0.000000 1.592940 
# 
# From -- ./inp_files/38038.got.cif
#   From: 2010.06.25/outbox.cif.g09.slc.cpg/sg10_20_cif.got.tgz:38038.got - 2010.06.27 22:07:45.
