data_PCOD8056941
_publ_section_title
;
Structure prediction by ZEFSAII (Michael W. Deem and Ramdas Pophale) SiO2 
 PCOD8056941
Probable space group: P 2/M
;
_chemical_formula_sum "Si O2"
_cell_formula_units_Z 28
_cell_length_a 15.338742
_cell_length_b 17.473817
_cell_length_c 8.935843
_cell_angle_alpha 90.000000
_cell_angle_beta 40.191132
_cell_angle_gamma 90.000000
_cell_volume 1545.614839
_symmetry_space_group_name_H-M "P 2/M"
_symmetry_group_IT_number 10
_symmetry_cell_setting 'monoclinic'
loop_
_space_group_symop_operation_xyz
x,y,z
-x,y,-z
-x,-y,-z
x,-y,z
loop_
_atom_site_type_symbol
_atom_site_label
_atom_site_fract_x
_atom_site_fract_y
_atom_site_fract_z
Si Si1 0.352759 0.278679 0.756299
Si Si2 0.854572 0.294819 0.241701
Si Si3 0.304909 0.587561 0.362554
Si Si4 0.198603 0.165346 0.156281
Si Si5 0.039569 0.000000 0.777763
Si Si6 0.909310 0.163402 0.390608
Si Si7 0.852936 0.000000 0.778513
Si Si8 0.601689 0.587424 0.085493
O O1 0.500000 0.259871 0.500000
O O2 0.245786 0.283772 0.764325
O O3 0.347127 0.359887 0.847435
O O4 0.318539 0.211676 0.920069
O O5 0.806513 0.357844 0.422250
O O6 0.869530 0.212951 0.300281
O O7 0.000000 0.324719 0.000000
O O8 0.266617 0.500000 0.447413
O O9 0.447781 0.607912 0.249584
O O10 0.308449 0.601029 0.179809
O O11 0.175512 0.194603 0.355933
O O12 0.066627 0.173053 0.225484
O O13 0.235227 0.075720 0.135096
O O14 0.122265 0.924764 0.614003
O O15 0.890351 0.000000 0.903428
O O16 0.000000 0.000000 0.000000
O O17 0.000000 0.000000 0.500000
O O18 0.614735 0.500000 0.122765
#
# Coordination Sequence:
#
# PCOD8056941 Si02
#       8
#     4   4   4   4   2   4   2   4
#     4  12  24  38  56  87 121 156 191 237 294 349
#     4  12  23  36  55  86 124 149 184 238 298 347
#     4   9  19  38  62  85 111 148 197 242 286 343
#     4  10  19  36  59  83 118 150 197 240 284 341
#     4  10  18  28  54  87 116 142 189 240 282 323
#     4  10  19  35  56  85 115 149 190 239 285 337
#     4  10  16  34  59  87 112 151 200 237 281 339
#     4   9  19  39  64  84 107 153 206 239 274 349
#
# _framework density 18.115770000000001
#
# number of rings (size 3 to 8) (size 9 to 14) (size 15 to 20)
#    0.000    1.714    5.714    2.143    2.000    1.143 
#    0.000    0.357    0.000    1.714    0.000    2.000 
#    0.000    0.000    0.000    0.000    0.000    0.000 
#
# Total GULP energy -347082.633746 kJ/mol
# GULP energy per Si atom -12395.808348 kJ/mol
# Density = 1.807454 g / cm^3
# Si number density = 18.115770 Si / 1000 Ang^3
#
#
#
# Elastic Constant Matrix: (Units=GPa)
#
#
# Indices 1 2 3 4 5 6 
#
# 1 90.6554 36.6477 40.8046 0.0000 11.8067 0.0000
# 2 36.6477 122.1255 68.3316 0.0000 5.8849 0.0000
# 3 40.8046 68.3316 131.4346 0.0000 4.9355 0.0000
# 4 0.0000 0.0000 0.0000 23.3012 0.0000 2.3747
# 5 11.8067 5.8849 4.9355 0.0000 23.6111 0.0000
# 6 0.0000 0.0000 0.0000 2.3747 0.0000 13.3560
#
#
#
# Elastic Compliance Matrix: (Units=1/GPa)
#
#
# Indices 1 2 3 4 5 6 
#
# 1 0.014042 -0.002279 -0.002956 0.000000 -0.005836 0.000000
# 2 -0.002279 0.011980 -0.005495 0.000000 -0.000698 0.000000
# 3 -0.002956 -0.005495 0.011365 0.000000 0.000472 0.000000
# 4 0.000000 0.000000 0.000000 0.043708 0.000000 -0.007771
# 5 -0.005836 -0.000698 0.000472 0.000000 0.045346 0.000000
# 6 0.000000 0.000000 0.000000 -0.007771 0.000000 0.076255
#
#
# Mechanical properties :
#
#
# Convention : Reuss Voigt Hill
#
# Bulk Modulus (GPa) = 62.77845 70.64259 66.71052
# Shear Modulus (GPa) = 21.78983 25.28245 23.53614
#
# Velocity S-wave (km/s) = 3.47192 3.73983 3.60836
# Velocity P-wave (km/s) = 7.12752 7.59791 7.36647
#
# Compressibility (1/GPa) = 0.01592903
#
# Stress axis : x y z
#
# Youngs Moduli (GPa) = 71.21262 83.47140 87.99076
#
# Poissons Ratio (x) = 0.19023 0.26007
# Poissons Ratio (y) = 0.16229 0.48348
# Poissons Ratio (z) = 0.21048 0.45865
#
# Static dielectric constant tensor:
#      x y z
#    x 2.927900 0.000000 0.493960 
#    y 0.000000 3.472020 0.000000 
#    z 0.493960 0.000000 3.169390 
# 
# 
# High freq. dielectric constant tensor:
#      x y z
#    x 1.687860 0.000000 0.033490 
#    y 0.000000 1.710620 0.000000 
#    z 0.033490 0.000000 1.693070 
# 
# From -- ./inp_files/30124.got.cif
#   From: 2010.06.25/outbox.cif.g09.slc.cpg/sg10_16_cif.got.tgz:30124.got - 2010.06.27 22:07:45.
