data_PCOD8056316
_publ_section_title
;
Structure prediction by ZEFSAII (Michael W. Deem and Ramdas Pophale) SiO2 
 PCOD8056316
Probable space group: C C
;
_chemical_formula_sum "Si O2"
_cell_formula_units_Z 32
_cell_length_a 11.290024
_cell_length_b 8.551160
_cell_length_c 26.395172
_cell_angle_alpha 90.000000
_cell_angle_beta 34.194319
_cell_angle_gamma 90.000000
_cell_volume 1432.127773
_symmetry_space_group_name_H-M "C C"
_symmetry_group_IT_number 9
_symmetry_cell_setting 'monoclinic'
loop_
_space_group_symop_operation_xyz
x,y,z
x,-y,1/2+z
1/2+x,1/2+y,z
1/2+x,1/2-y,1/2+z
loop_
_atom_site_type_symbol
_atom_site_label
_atom_site_fract_x
_atom_site_fract_y
_atom_site_fract_z
Si Si1 0.248160 0.647100 0.420780
Si Si2 0.442068 0.383467 0.671217
Si Si3 0.533206 0.272162 0.163400
Si Si4 0.359983 0.682198 0.532364
Si Si5 0.613179 0.251264 0.361109
Si Si6 0.142038 0.332163 0.516258
Si Si7 0.633162 0.388267 0.843799
Si Si8 0.916102 0.873981 0.566599
O O1 0.183575 0.642602 0.384199
O O2 0.163375 0.508820 0.487953
O O3 0.502385 0.636181 0.337128
O O4 0.153444 0.811017 0.474585
O O5 0.493827 0.544651 0.679312
O O6 0.632111 0.260325 0.608002
O O7 0.233593 0.309543 0.769190
O O8 0.390916 0.434013 0.632163
O O9 0.359222 0.189468 0.259687
O O10 0.757093 0.268200 0.112564
O O11 0.535070 0.181932 0.109029
O O12 0.487451 0.745715 0.534025
O O13 0.492784 0.705470 0.434372
O O14 0.339013 0.498341 0.551707
O O15 0.363415 0.237689 0.439928
O O16 0.668944 0.433621 0.348992
#
# Coordination Sequence:
#
# PCOD8056316 Si02
#       8
#     4   4   4   4   4   4   4   4
#     4  11  23  46  73  98 141 186 233 293 353 416
#     4  12  29  45  71 108 140 189 238 292 353 424
#     4  12  27  46  70 107 143 185 240 290 354 422
#     4  12  25  47  71 103 143 185 240 293 352 421
#     4  11  26  46  69 105 141 184 239 288 355 421
#     4  11  26  45  70 105 143 186 236 292 351 425
#     4  11  26  43  72 105 138 187 236 291 355 424
#     4  12  24  48  74  97 141 190 230 293 353 419
#
# _framework density 22.344373999999998
#
# number of rings (size 3 to 8) (size 9 to 14) (size 15 to 20)
#    0.000    0.500    5.000    2.250    7.000    3.000 
#    0.000    0.000    0.000    0.000    0.000    0.000 
#    0.000    0.000    0.000    0.000    0.000    0.000 
#
# Total GULP energy -198357.097388 kJ/mol
# GULP energy per Si atom -12397.318587 kJ/mol
# Density = 2.229352 g / cm^3
# Si number density = 22.344374 Si / 1000 Ang^3
#
#
#
# Elastic Constant Matrix: (Units=GPa)
#
#
# Indices 1 2 3 4 5 6 
#
# 1 85.5607 7.4856 19.5482 0.0000 -4.0988 -0.0005
# 2 7.4856 84.7158 23.0800 0.0010 -4.0929 -0.0008
# 3 19.5482 23.0800 110.7691 0.0072 12.5279 -0.0016
# 4 0.0000 0.0010 0.0072 28.0264 0.0009 0.9177
# 5 -4.0988 -4.0929 12.5279 0.0009 28.0614 0.0001
# 6 -0.0005 -0.0008 -0.0016 0.9177 0.0001 44.6093
#
#
#
# Elastic Compliance Matrix: (Units=1/GPa)
#
#
# Indices 1 2 3 4 5 6 
#
# 1 0.012411 -0.000290 -0.002454 0.000001 0.002866 0.000000
# 2 -0.000290 0.012791 -0.002970 0.000000 0.003149 0.000000
# 3 -0.002454 -0.002970 0.010710 -0.000002 -0.005573 0.000000
# 4 0.000001 0.000000 -0.000002 0.035705 0.000000 -0.000735
# 5 0.002866 0.003149 -0.005573 0.000000 0.039002 0.000000
# 6 0.000000 0.000000 0.000000 -0.000735 0.000000 0.022432
#
#
# Mechanical properties :
#
#
# Convention : Reuss Voigt Hill
#
# Bulk Modulus (GPa) = 40.84249 42.36370 41.60310
# Shear Modulus (GPa) = 32.75673 35.53488 34.14581
#
# Velocity S-wave (km/s) = 3.83298 3.99222 3.91341
# Velocity P-wave (km/s) = 6.15690 6.34437 6.25133
#
# Compressibility (1/GPa) = 0.02448430
#
# Stress axis : x y z
#
# Youngs Moduli (GPa) = 80.57414 78.17912 93.36995
#
# Poissons Ratio (x) = 0.02264 0.22914
# Poissons Ratio (y) = 0.02333 0.27733
# Poissons Ratio (z) = 0.19773 0.23221
#
# Static dielectric constant tensor:
#      x y z
#    x 4.196080 0.000000 -0.020850 
#    y 0.000000 4.150970 0.000000 
#    z -0.020850 0.000000 4.083320 
# 
# 
# High freq. dielectric constant tensor:
#      x y z
#    x 1.892460 0.000000 -0.000910 
#    y 0.000000 1.881460 0.000000 
#    z -0.000910 0.000000 1.882200 
# 
# From -- ./inp_files/24238.got.cif
#   From: 2010.06.25/outbox.cif.g09.slc.cpg/sg9_13_cif.got.tgz:24238.got - 2010.06.27 21:40:51.
