data_PCOD8056574
_publ_section_title
;
Structure prediction by ZEFSAII (Michael W. Deem and Ramdas Pophale) SiO2 
 PCOD8056574
Probable space group: C C
;
_chemical_formula_sum "Si O2"
_cell_formula_units_Z 16
_cell_length_a 22.513583
_cell_length_b 5.128247
_cell_length_c 8.562165
_cell_angle_alpha 90.000000
_cell_angle_beta 148.590626
_cell_angle_gamma 90.000000
_cell_volume 515.180339
_symmetry_space_group_name_H-M "C C"
_symmetry_group_IT_number 9
_symmetry_cell_setting 'monoclinic'
loop_
_space_group_symop_operation_xyz
x,y,z
x,-y,1/2+z
1/2+x,1/2+y,z
1/2+x,1/2-y,1/2+z
loop_
_atom_site_type_symbol
_atom_site_label
_atom_site_fract_x
_atom_site_fract_y
_atom_site_fract_z
Si Si1 0.641000 0.540235 0.710800
Si Si2 0.974317 0.309280 0.134084
Si Si3 0.860465 0.221986 0.559928
Si Si4 0.687285 0.862046 0.095612
O O1 0.510849 0.593638 0.349881
O O2 0.673030 0.241046 0.743230
O O3 0.731870 0.735365 0.834361
O O4 0.655694 0.599497 0.926454
O O5 0.895345 0.541907 0.024307
O O6 0.093587 0.427647 0.342713
O O7 0.938565 0.185415 0.887362
O O8 0.823054 0.953593 0.377023
#
# Coordination Sequence:
#
# PCOD8056574 Si02
#       4
#     4   4   4   4
#     4  11  26  48  77 120 163 214 273 342 406 499
#     4  11  25  50  83 118 159 219 277 340 412 492
#     4  11  26  49  81 119 161 217 272 342 419 487
#     4  11  27  49  81 121 167 212 276 344 409 498
#
# _framework density 31.057086999999999
#
# number of rings (size 3 to 8) (size 9 to 14) (size 15 to 20)
#    0.000    1.000    2.500    1.500    3.500   12.000 
#    0.000    2.500    0.000    0.000    0.000    0.000 
#    0.000    0.000    0.000    0.000    0.000    0.000 
#
# Total GULP energy -99171.799599 kJ/mol
# GULP energy per Si atom -12396.474950 kJ/mol
# Density = 3.098640 g / cm^3
# Si number density = 31.057087 Si / 1000 Ang^3
#
#
#
# Elastic Constant Matrix: (Units=GPa)
#
#
# Indices 1 2 3 4 5 6 
#
# 1 92.1711 31.0182 52.8617 0.0000 -21.9162 0.0000
# 2 31.0182 151.6757 86.6714 0.0000 -29.1208 0.0001
# 3 52.8617 86.6714 254.1524 0.0000 2.2186 0.0000
# 4 0.0000 0.0000 0.0000 57.5589 0.0000 -12.9702
# 5 -21.9162 -29.1208 2.2186 0.0000 51.1210 0.0000
# 6 0.0000 0.0001 0.0000 -12.9702 0.0000 45.5166
#
#
#
# Elastic Compliance Matrix: (Units=1/GPa)
#
#
# Indices 1 2 3 4 5 6 
#
# 1 0.014010 0.000012 -0.002972 0.000000 0.006142 0.000000
# 2 0.000012 0.009556 -0.003310 0.000000 0.005592 0.000000
# 3 -0.002972 -0.003310 0.005711 0.000000 -0.003407 0.000000
# 4 0.000000 0.000000 0.000000 0.018566 0.000000 0.005290
# 5 0.006142 0.005592 -0.003407 0.000000 0.025528 0.000000
# 6 0.000000 0.000000 0.000000 0.005290 0.000000 0.023478
#
#
# Mechanical properties :
#
#
# Convention : Reuss Voigt Hill
#
# Bulk Modulus (GPa) = 59.74436 93.23354 76.48895
# Shear Modulus (GPa) = 43.49081 52.66915 48.07998
#
# Velocity S-wave (km/s) = 3.74619 4.12258 3.93888
# Velocity P-wave (km/s) = 6.16365 7.26265 6.73560
#
# Compressibility (1/GPa) = 0.01673798
#
# Stress axis : x y z
#
# Youngs Moduli (GPa) = 71.37696 104.65044 175.09117
#
# Poissons Ratio (x) = -0.00129 0.52034
# Poissons Ratio (y) = -0.00088 0.57956
# Poissons Ratio (z) = 0.21212 0.34640
#
# Static dielectric constant tensor:
#      x y z
#    x 6.043310 0.000000 0.597830 
#    y 0.000000 5.773000 0.000000 
#    z 0.597830 0.000000 6.408620 
# 
# 
# High freq. dielectric constant tensor:
#      x y z
#    x 2.303740 0.000000 0.029570 
#    y 0.000000 2.289450 0.000000 
#    z 0.029570 0.000000 2.320140 
# 
# From -- ./inp_files/6587.got.cif
#   From: 2010.06.25/outbox.cif.g09.slc.cpg/sg9_4_cif.got.tgz:6587.got - 2010.06.27 21:40:51.
