data_PCOD8056237
_publ_section_title
;
Structure prediction by ZEFSAII (Michael W. Deem and Ramdas Pophale) SiO2 
 PCOD8056237
Probable space group: C C
;
_chemical_formula_sum "Si O2"
_cell_formula_units_Z 32
_cell_length_a 18.867962
_cell_length_b 8.737425
_cell_length_c 13.344172
_cell_angle_alpha 90.000000
_cell_angle_beta 37.191463
_cell_angle_gamma 90.000000
_cell_volume 1329.787748
_symmetry_space_group_name_H-M "C C"
_symmetry_group_IT_number 9
_symmetry_cell_setting 'monoclinic'
loop_
_space_group_symop_operation_xyz
x,y,z
x,-y,1/2+z
1/2+x,1/2+y,z
1/2+x,1/2-y,1/2+z
loop_
_atom_site_type_symbol
_atom_site_label
_atom_site_fract_x
_atom_site_fract_y
_atom_site_fract_z
Si Si1 0.765970 0.026071 0.588740
Si Si2 0.289548 0.197466 0.186348
Si Si3 0.624402 0.448241 0.657442
Si Si4 0.587228 0.477708 0.476073
Si Si5 0.875115 0.574303 0.410141
Si Si6 0.357686 0.355806 0.293643
Si Si7 0.523768 0.869620 0.340939
Si Si8 0.457804 0.331873 0.449415
O O1 0.790033 0.206639 0.580757
O O2 0.625712 0.011054 0.759337
O O3 0.801478 0.975407 0.435404
O O4 0.834521 0.925776 0.594508
O O5 0.270448 0.318419 0.299221
O O6 0.188862 0.068347 0.302566
O O7 0.420213 0.124340 0.041606
O O8 0.637390 0.412536 0.524179
O O9 0.747079 0.499643 0.568118
O O10 0.573487 0.300776 0.771213
O O11 0.531807 0.587258 0.775819
O O12 0.481364 0.592503 0.612832
O O13 0.534718 0.341764 0.464627
O O14 0.877499 0.687153 0.315750
O O15 0.918334 0.661948 0.463695
O O16 0.967988 0.434375 0.298946
#
# Coordination Sequence:
#
# PCOD8056237 Si02
#       8
#     4   4   4   4   4   4   4   4
#     4  11  23  42  70 102 147 197 251 311 377 456
#     4  12  23  46  73 108 150 204 255 312 390 465
#     4  12  24  48  76 105 159 202 253 321 393 464
#     4  12  23  44  79 110 157 203 258 326 389 462
#     4  11  26  45  74 109 149 200 262 312 388 467
#     4  11  23  42  73 112 143 202 263 308 387 466
#     4  12  26  47  74 107 155 202 257 314 393 462
#     4  11  24  44  73 111 148 200 255 322 389 458
#
# _framework density 24.063993
#
# number of rings (size 3 to 8) (size 9 to 14) (size 15 to 20)
#    0.000    0.500    6.250    3.000    5.250    0.000 
#    2.250    2.500    0.000    0.000    0.000    0.000 
#    0.000    0.000    0.000    0.000    0.000    0.000 
#
# Total GULP energy -198208.785057 kJ/mol
# GULP energy per Si atom -12388.049066 kJ/mol
# Density = 2.400922 g / cm^3
# Si number density = 24.063993 Si / 1000 Ang^3
#
#
#
# Elastic Constant Matrix: (Units=GPa)
#
#
# Indices 1 2 3 4 5 6 
#
# 1 134.2987 45.4481 66.7554 0.0000 -18.1223 0.0000
# 2 45.4481 77.5348 33.4715 -0.0001 -10.0161 0.0001
# 3 66.7554 33.4715 106.6157 0.0000 -21.0543 0.0000
# 4 0.0000 -0.0001 0.0000 32.9741 0.0000 -6.3571
# 5 -18.1223 -10.0161 -21.0543 0.0000 49.3593 0.0000
# 6 0.0000 0.0001 0.0000 -6.3571 0.0000 49.2274
#
#
#
# Elastic Compliance Matrix: (Units=1/GPa)
#
#
# Indices 1 2 3 4 5 6 
#
# 1 0.012012 -0.004339 -0.005964 0.000000 0.000986 0.000000
# 2 -0.004339 0.016544 -0.002325 0.000000 0.000773 0.000000
# 3 -0.005964 -0.002325 0.014543 0.000000 0.003542 0.000000
# 4 0.000000 0.000000 0.000000 0.031101 0.000000 0.004016
# 5 0.000986 0.000773 0.003542 0.000000 0.022289 0.000000
# 6 0.000000 0.000000 0.000000 0.004016 0.000000 0.020833
#
#
# Mechanical properties :
#
#
# Convention : Reuss Voigt Hill
#
# Bulk Modulus (GPa) = 56.04249 67.75548 61.89898
# Shear Modulus (GPa) = 33.66417 37.83043 35.74730
#
# Velocity S-wave (km/s) = 3.74430 3.96924 3.85841
# Velocity P-wave (km/s) = 6.48325 7.01598 6.75487
#
# Compressibility (1/GPa) = 0.01784360
#
# Stress axis : x y z
#
# Youngs Moduli (GPa) = 83.24932 60.44445 68.76074
#
# Poissons Ratio (x) = 0.26227 0.41011
# Poissons Ratio (y) = 0.36122 0.15984
# Poissons Ratio (z) = 0.49652 0.14051
#
# Static dielectric constant tensor:
#      x y z
#    x 4.772050 0.000000 -0.240100 
#    y 0.000000 4.308720 0.000000 
#    z -0.240100 0.000000 4.417100 
# 
# 
# High freq. dielectric constant tensor:
#      x y z
#    x 1.970990 0.000000 -0.022880 
#    y 0.000000 1.948850 0.000000 
#    z -0.022880 0.000000 1.944590 
# 
# From -- ./inp_files/27337.got.cif
#   From: 2010.06.25/outbox.cif.g09.slc.cpg/sg9_14_cif.got.tgz:27337.got - 2010.06.27 21:40:51.
