data_PCOD8056939
_publ_section_title
;
Structure prediction by ZEFSAII (Michael W. Deem and Ramdas Pophale) SiO2 
 PCOD8056939
Probable space group: P 2/M
;
_chemical_formula_sum "Si O2"
_cell_formula_units_Z 26
_cell_length_a 14.061514
_cell_length_b 9.071906
_cell_length_c 12.218704
_cell_angle_alpha 90.000000
_cell_angle_beta 123.991372
_cell_angle_gamma 90.000000
_cell_volume 1292.331969
_symmetry_space_group_name_H-M "P 2/M"
_symmetry_group_IT_number 10
_symmetry_cell_setting 'monoclinic'
loop_
_space_group_symop_operation_xyz
x,y,z
-x,y,-z
-x,-y,-z
x,-y,z
loop_
_atom_site_type_symbol
_atom_site_label
_atom_site_fract_x
_atom_site_fract_y
_atom_site_fract_z
Si Si1 0.672776 0.824101 0.914902
Si Si2 0.074954 0.176258 0.322508
Si Si3 0.455409 0.336636 0.708713
Si Si4 0.841389 0.672012 0.181642
Si Si5 0.739357 0.164055 0.724307
Si Si6 0.199452 0.329361 0.590871
Si Si7 0.500000 0.255503 0.500000
O O1 0.539984 0.775522 0.824823
O O2 0.733845 0.765491 0.842205
O O3 0.678312 0.000000 0.930537
O O4 0.731274 0.744085 0.053966
O O5 0.167951 0.241633 0.295205
O O6 0.110051 0.232609 0.464888
O O7 0.953429 0.244013 0.209802
O O8 0.068358 0.000000 0.319411
O O9 0.468178 0.500000 0.768433
O O10 0.327893 0.275587 0.646902
O O11 0.481389 0.352960 0.596117
O O12 0.848986 0.500000 0.157076
O O13 0.828447 0.698515 0.301454
O O14 0.613446 0.157170 0.588759
O O15 0.784575 0.000000 0.768695
O O16 0.182801 0.500000 0.547902
#
# Coordination Sequence:
#
# PCOD8056939 Si02
#       7
#     4   4   4   4   4   4   2
#     4  10  22  40  60  85 117 155 194 236 286 345
#     4  11  22  38  61  90 117 148 192 243 289 338
#     4  10  20  35  58  89 119 149 188 237 289 341
#     4  11  24  42  60  79 114 160 200 238 283 341
#     4   9  19  34  57  87 119 151 184 231 294 348
#     4  10  22  40  60  85 118 155 192 234 290 345
#     4  10  16  32  58  86 117 152 185 232 279 346
#
# _framework density 20.118669000000001
#
# number of rings (size 3 to 8) (size 9 to 14) (size 15 to 20)
#    0.000    1.846    1.538    2.308    0.000    5.538 
#    0.000    8.462    0.000    0.000    0.000    0.000 
#    0.000    0.000    0.000    0.000    0.000    0.000 
#
# Total GULP energy -322368.748686 kJ/mol
# GULP energy per Si atom -12398.798026 kJ/mol
# Density = 2.007288 g / cm^3
# Si number density = 20.118669 Si / 1000 Ang^3
#
#
#
# Elastic Constant Matrix: (Units=GPa)
#
#
# Indices 1 2 3 4 5 6 
#
# 1 80.5434 17.4404 2.3128 0.0000 13.7226 0.0000
# 2 17.4404 83.8198 31.7846 0.0000 5.0090 0.0000
# 3 2.3128 31.7846 58.0539 0.0000 16.1603 0.0000
# 4 0.0000 0.0000 0.0000 30.7255 0.0000 5.9467
# 5 13.7226 5.0090 16.1603 0.0000 24.9772 0.0000
# 6 0.0000 0.0000 0.0000 5.9467 0.0000 29.0251
#
#
#
# Elastic Compliance Matrix: (Units=1/GPa)
#
#
# Indices 1 2 3 4 5 6 
#
# 1 0.014966 -0.004243 0.004609 0.000000 -0.010354 0.000000
# 2 -0.004243 0.016424 -0.010434 0.000000 0.005789 0.000000
# 3 0.004609 -0.010434 0.027902 0.000000 -0.018493 0.000000
# 4 0.000000 0.000000 0.000000 0.033890 0.000000 -0.006943
# 5 -0.010354 0.005789 -0.018493 0.000000 0.056529 0.000000
# 6 0.000000 0.000000 0.000000 -0.006943 0.000000 0.035876
#
#
# Mechanical properties :
#
#
# Convention : Reuss Voigt Hill
#
# Bulk Modulus (GPa) = 25.53932 36.16586 30.85259
# Shear Modulus (GPa) = 22.85445 28.33750 25.59598
#
# Velocity S-wave (km/s) = 3.37409 3.75709 3.57073
# Velocity P-wave (km/s) = 5.28216 6.06929 5.68935
#
# Compressibility (1/GPa) = 0.03915532
#
# Stress axis : x y z
#
# Youngs Moduli (GPa) = 66.81782 60.88632 35.83924
#
# Poissons Ratio (x) = 0.25834 -0.16518
# Poissons Ratio (y) = 0.28351 0.37396
# Poissons Ratio (z) = -0.30796 0.63532
#
# Static dielectric constant tensor:
#      x y z
#    x 3.841860 0.000000 -0.034420 
#    y 0.000000 3.437610 0.000000 
#    z -0.034420 0.000000 3.568070 
# 
# 
# High freq. dielectric constant tensor:
#      x y z
#    x 1.794840 0.000000 0.002320 
#    y 0.000000 1.772760 0.000000 
#    z 0.002320 0.000000 1.781520 
# 
# From -- ./inp_files/49483.got.cif
#   From: 2010.06.25/outbox.cif.g09.slc.cpg/sg10_25_cif.got.tgz:49483.got - 2010.06.27 22:07:45.
