data_PCOD8056146
_publ_section_title
;
Structure prediction by ZEFSAII (Michael W. Deem and Ramdas Pophale) SiO2 
 PCOD8056146
Probable space group: C C
;
_chemical_formula_sum "Si O2"
_cell_formula_units_Z 20
_cell_length_a 8.545485
_cell_length_b 12.396753
_cell_length_c 12.072391
_cell_angle_alpha 90.000000
_cell_angle_beta 51.366179
_cell_angle_gamma 90.000000
_cell_volume 999.018531
_symmetry_space_group_name_H-M "C C"
_symmetry_group_IT_number 9
_symmetry_cell_setting 'monoclinic'
loop_
_space_group_symop_operation_xyz
x,y,z
x,-y,1/2+z
1/2+x,1/2+y,z
1/2+x,1/2-y,1/2+z
loop_
_atom_site_type_symbol
_atom_site_label
_atom_site_fract_x
_atom_site_fract_y
_atom_site_fract_z
Si Si1 0.794800 0.821437 0.645690
Si Si2 0.926324 0.189195 0.736161
Si Si3 0.208027 0.249480 0.908878
Si Si4 0.025514 0.814179 0.943980
Si Si5 0.039298 0.051407 0.885142
O O1 0.587759 0.781536 0.686947
O O2 0.768919 0.838714 0.789542
O O3 0.854693 0.931255 0.554492
O O4 0.975418 0.733897 0.546593
O O5 0.710432 0.233331 0.867484
O O6 0.972403 0.084561 0.790685
O O7 0.934147 0.159111 0.604150
O O8 0.350902 0.257818 0.950801
O O9 0.222437 0.129333 0.845081
O O10 0.099564 0.926413 0.856624
#
# Coordination Sequence:
#
# PCOD8056146 Si02
#       5
#     4   4   4   4   4
#     4   9  18  43  59  81 131 158 194 248 314 350
#     4  11  22  42  62  95 126 160 205 262 298 368
#     4   9  20  38  61  88 121 161 201 253 296 365
#     4  12  23  40  67  92 125 157 215 256 298 367
#     4   9  23  41  61  86 127 168 197 243 322 362
#
# _framework density 20.019649000000001
#
# number of rings (size 3 to 8) (size 9 to 14) (size 15 to 20)
#    1.200    0.800    2.000    1.200    2.800    0.000 
#   10.800    2.000    0.000    0.000    0.000    0.000 
#    0.000    0.000    0.000    0.000    0.000    0.000 
#
# Total GULP energy -123897.653323 kJ/mol
# GULP energy per Si atom -12389.765332 kJ/mol
# Density = 1.997408 g / cm^3
# Si number density = 20.019649 Si / 1000 Ang^3
#
#
#
# Elastic Constant Matrix: (Units=GPa)
#
#
# Indices 1 2 3 4 5 6 
#
# 1 121.7998 22.8492 38.7479 -0.0001 19.8408 0.0002
# 2 22.8492 66.0928 3.6593 0.0000 14.7943 0.0001
# 3 38.7479 3.6593 105.8748 -0.0001 19.4959 0.0001
# 4 -0.0001 0.0000 -0.0001 18.0369 0.0001 2.2540
# 5 19.8408 14.7943 19.4959 0.0001 37.4976 -0.0001
# 6 0.0002 0.0001 0.0001 2.2540 -0.0001 17.6704
#
#
#
# Elastic Compliance Matrix: (Units=1/GPa)
#
#
# Indices 1 2 3 4 5 6 
#
# 1 0.010154 -0.002741 -0.003131 0.000000 -0.002664 0.000000
# 2 -0.002741 0.017383 0.001546 0.000000 -0.006212 0.000000
# 3 -0.003131 0.001546 0.011440 0.000000 -0.004901 0.000000
# 4 0.000000 0.000000 0.000000 0.056340 0.000000 -0.007187
# 5 -0.002664 -0.006212 -0.004901 0.000000 0.033077 0.000000
# 6 0.000000 0.000000 0.000000 -0.007187 0.000000 0.057509
#
#
# Mechanical properties :
#
#
# Convention : Reuss Voigt Hill
#
# Bulk Modulus (GPa) = 32.97561 47.14224 40.05892
# Shear Modulus (GPa) = 24.43045 29.87505 27.15275
#
# Velocity S-wave (km/s) = 3.49710 3.86720 3.68680
# Velocity P-wave (km/s) = 5.72832 6.59844 6.17872
#
# Compressibility (1/GPa) = 0.03032544
#
# Stress axis : x y z
#
# Youngs Moduli (GPa) = 98.47998 57.52862 87.41183
#
# Poissons Ratio (x) = 0.15768 0.27369
# Poissons Ratio (y) = 0.26993 -0.13515
# Poissons Ratio (z) = 0.30835 -0.08895
#
# Static dielectric constant tensor:
#      x y z
#    x 3.558720 0.000000 0.168210 
#    y 0.000000 3.133940 0.000000 
#    z 0.168210 0.000000 3.794610 
# 
# 
# High freq. dielectric constant tensor:
#      x y z
#    x 1.783710 0.000000 0.015110 
#    y 0.000000 1.738920 0.000000 
#    z 0.015110 0.000000 1.792010 
# 
# From -- ./inp_files/4662.got.cif
#   From: 2010.06.25/outbox.cif.g09.slc.cpg/sg9_3_cif.got.tgz:4662.got - 2010.06.27 21:40:51.
