data_PCOD8056511
_publ_section_title
;
Structure prediction by ZEFSAII (Michael W. Deem and Ramdas Pophale) SiO2 
 PCOD8056511
Probable space group: C C
;
_chemical_formula_sum "Si O2"
_cell_formula_units_Z 32
_cell_length_a 7.580182
_cell_length_b 6.645508
_cell_length_c 28.976366
_cell_angle_alpha 90.000000
_cell_angle_beta 113.597896
_cell_angle_gamma 90.000000
_cell_volume 1337.599572
_symmetry_space_group_name_H-M "C C"
_symmetry_group_IT_number 9
_symmetry_cell_setting 'monoclinic'
loop_
_space_group_symop_operation_xyz
x,y,z
x,-y,1/2+z
1/2+x,1/2+y,z
1/2+x,1/2-y,1/2+z
loop_
_atom_site_type_symbol
_atom_site_label
_atom_site_fract_x
_atom_site_fract_y
_atom_site_fract_z
Si Si1 0.130620 0.110926 0.641040
Si Si2 0.005188 0.624184 0.790743
Si Si3 0.210369 0.203980 0.922806
Si Si4 0.389400 0.415354 0.856635
Si Si5 0.916676 0.165335 0.055202
Si Si6 0.529930 0.949365 0.148896
Si Si7 0.546477 0.060580 0.489664
Si Si8 0.149664 0.133754 0.225039
O O1 0.346322 0.017769 0.663098
O O2 0.129524 0.350883 0.640717
O O3 0.042566 0.030871 0.680652
O O4 0.016058 0.038844 0.583854
O O5 0.208063 0.510381 0.811527
O O6 0.008001 0.796918 0.751560
O O7 0.968969 0.727761 0.835966
O O8 0.845240 0.454290 0.766170
O O9 0.339818 0.336636 0.902228
O O10 0.109533 0.358553 0.946701
O O11 0.340770 0.047449 0.964593
O O12 0.051054 0.086351 0.876728
O O13 0.937107 0.334012 0.096072
O O14 0.024571 0.248020 0.021181
O O15 0.695831 0.108023 0.022879
O O16 0.687772 0.824788 0.194787
#
# Coordination Sequence:
#
# PCOD8056511 Si02
#       8
#     4   4   4   4   4   4   4   4
#     4  11  25  45  72 100 154 189 237 289 350 412
#     4  12  26  45  76 104 142 182 242 291 348 435
#     4  12  26  48  72 104 140 182 230 297 368 422
#     4  12  26  48  72 104 140 182 230 297 368 422
#     4  11  26  43  70 111 142 192 238 291 348 415
#     4  11  25  45  72 100 154 189 237 289 350 412
#     4  12  26  45  76 104 142 182 242 291 348 435
#     4  11  26  47  70 111 142 192 238 291 348 415
#
# _framework density 23.923454
#
# number of rings (size 3 to 8) (size 9 to 14) (size 15 to 20)
#    0.000    0.500    1.250    6.000    7.000    5.000 
#    0.000    0.000    0.000    0.000    0.000    0.000 
#    0.000    0.000    0.000    0.000    0.000    0.000 
#
# Total GULP energy -198454.938847 kJ/mol
# GULP energy per Si atom -12403.433678 kJ/mol
# Density = 2.386900 g / cm^3
# Si number density = 23.923454 Si / 1000 Ang^3
#
#
#
# Elastic Constant Matrix: (Units=GPa)
#
#
# Indices 1 2 3 4 5 6 
#
# 1 76.8769 15.9996 15.1910 0.0000 -5.0237 0.0000
# 2 15.9996 94.5473 25.3695 0.0000 -5.3734 0.0000
# 3 15.1910 25.3695 93.5754 0.0000 -6.6606 0.0000
# 4 0.0000 0.0000 0.0000 32.4758 0.0000 -1.8435
# 5 -5.0237 -5.3734 -6.6606 0.0000 34.3691 0.0000
# 6 0.0000 0.0000 0.0000 -1.8435 0.0000 43.0237
#
#
#
# Elastic Compliance Matrix: (Units=1/GPa)
#
#
# Indices 1 2 3 4 5 6 
#
# 1 0.013803 -0.001813 -0.001649 0.000000 0.001415 0.000000
# 2 -0.001813 0.011694 -0.002803 0.000000 0.001020 0.000000
# 3 -0.001649 -0.002803 0.011829 0.000000 0.001613 0.000000
# 4 0.000000 0.000000 0.000000 0.030867 0.000000 0.001323
# 5 0.001415 0.001020 0.001613 0.000000 0.029775 0.000000
# 6 0.000000 0.000000 0.000000 0.001323 0.000000 0.023300
#
#
# Mechanical properties :
#
#
# Convention : Reuss Voigt Hill
#
# Bulk Modulus (GPa) = 40.32906 42.01331 41.17118
# Shear Modulus (GPa) = 35.19558 35.86968 35.53263
#
# Velocity S-wave (km/s) = 3.83975 3.87635 3.85809
# Velocity P-wave (km/s) = 6.04586 6.13469 6.09044
#
# Compressibility (1/GPa) = 0.02479602
#
# Stress axis : x y z
#
# Youngs Moduli (GPa) = 72.44613 85.51592 84.53754
#
# Poissons Ratio (x) = 0.15505 0.13937
# Poissons Ratio (y) = 0.13135 0.23699
# Poissons Ratio (z) = 0.11943 0.23973
#
# Static dielectric constant tensor:
#      x y z
#    x 4.221350 0.000000 -0.089240 
#    y 0.000000 4.314870 0.000000 
#    z -0.089240 0.000000 4.439190 
# 
# 
# High freq. dielectric constant tensor:
#      x y z
#    x 1.947680 0.000000 -0.005090 
#    y 0.000000 1.956390 0.000000 
#    z -0.005090 0.000000 1.964360 
# 
# From -- ./inp_files/37125.got.cif
#   From: 2010.06.25/outbox.cif.g09.slc.cpg/sg9_19_cif.got.tgz:37125.got - 2010.06.27 21:40:51.
