data_PCOD8056942
_publ_section_title
;
Structure prediction by ZEFSAII (Michael W. Deem and Ramdas Pophale) SiO2 
 PCOD8056942
Probable space group: P 2/M
;
_chemical_formula_sum "Si O2"
_cell_formula_units_Z 32
_cell_length_a 14.348902
_cell_length_b 18.089120
_cell_length_c 11.557019
_cell_angle_alpha 90.000000
_cell_angle_beta 32.415090
_cell_angle_gamma 90.000000
_cell_volume 1608.001857
_symmetry_space_group_name_H-M "P 2/M"
_symmetry_group_IT_number 10
_symmetry_cell_setting 'monoclinic'
loop_
_space_group_symop_operation_xyz
x,y,z
-x,y,-z
-x,-y,-z
x,-y,z
loop_
_atom_site_type_symbol
_atom_site_label
_atom_site_fract_x
_atom_site_fract_y
_atom_site_fract_z
Si Si1 0.064251 0.350142 0.044560
Si Si2 0.199320 0.413143 0.295070
Si Si3 0.726195 0.666523 0.554636
Si Si4 0.001475 0.086730 0.364131
Si Si5 0.184374 0.192456 0.821113
Si Si6 0.317243 0.829801 0.919530
Si Si7 0.301757 0.828132 0.439686
Si Si8 0.344609 0.658264 0.918661
O O1 0.897527 0.340860 0.299684
O O2 0.140030 0.274921 0.910382
O O3 0.221431 0.385437 0.955036
O O4 0.000000 0.398625 0.000000
O O5 0.218731 0.500000 0.257929
O O6 0.274592 0.390302 0.339465
O O7 0.000000 0.387232 0.500000
O O8 0.312056 0.373480 0.079465
O O9 0.717926 0.751071 0.609479
O O10 0.547438 0.649570 0.671026
O O11 0.828721 0.113122 0.478133
O O12 0.000000 0.108213 0.500000
O O13 0.014455 0.000000 0.331666
O O14 0.169540 0.124212 0.135955
O O15 0.303516 0.155342 0.795299
O O16 0.278334 0.191452 0.599695
O O17 0.000000 0.149197 0.000000
O O18 0.501672 0.858728 0.775474
O O19 0.287616 0.743793 0.979296
#
# Coordination Sequence:
#
# PCOD8056942 Si02
#       8
#     4   4   4   4   4   4   4   4
#     4  10  18  34  55  86 125 156 190 244 293 354
#     4  11  24  41  63  89 123 164 202 250 307 358
#     4  11  21  35  61  91 122 156 199 244 301 351
#     4  11  26  44  61  83 120 169 204 245 307 360
#     4  10  16  34  61  90 123 157 187 248 310 348
#     4  10  22  37  62  94 122 152 203 256 297 359
#     4  11  21  38  63  94 120 154 204 252 303 358
#     4  10  22  36  59  92 120 158 197 247 301 354
#
# _framework density 19.900473999999999
#
# number of rings (size 3 to 8) (size 9 to 14) (size 15 to 20)
#    0.000    1.500    5.000    1.500    1.750    2.500 
#    0.000    2.500    0.000    3.000    0.000    1.750 
#    0.000    0.000    0.000    0.000    0.000    0.000 
#
# Total GULP energy -396564.403855 kJ/mol
# GULP energy per Si atom -12392.637620 kJ/mol
# Density = 1.985518 g / cm^3
# Si number density = 19.900474 Si / 1000 Ang^3
#
#
#
# Elastic Constant Matrix: (Units=GPa)
#
#
# Indices 1 2 3 4 5 6 
#
# 1 129.7999 35.2567 53.0289 0.0000 -8.2841 0.0000
# 2 35.2567 44.3786 32.9711 0.0000 -0.0717 0.0000
# 3 53.0289 32.9711 53.6610 0.0000 -17.6189 0.0000
# 4 0.0000 0.0000 0.0000 4.8107 0.0000 -12.7385
# 5 -8.2841 -0.0717 -17.6189 0.0000 41.3293 0.0000
# 6 0.0000 0.0000 0.0000 -12.7385 0.0000 5.8126
#
#
#
# Elastic Compliance Matrix: (Units=1/GPa)
#
#
# Indices 1 2 3 4 5 6 
#
# 1 0.013324 0.000056 -0.014331 0.000000 -0.003438 0.000000
# 2 0.000056 0.047924 -0.034267 0.000000 -0.014514 0.000000
# 3 -0.014331 -0.034267 0.061497 0.000000 0.023285 0.000000
# 4 0.000000 0.000000 0.000000 -0.043279 0.000000 -0.094847
# 5 -0.003438 -0.014514 0.023285 0.000000 0.033408 0.000000
# 6 0.000000 0.000000 0.000000 -0.094847 0.000000 -0.035819
#
#
# Mechanical properties :
#
#
# Convention : Reuss Voigt Hill
#
# Bulk Modulus (GPa) = 38.96731 52.26142 45.61437
# Shear Modulus (GPa) = 27.36845 17.49605 22.43225
#
# Velocity S-wave (km/s) = 3.71248 2.96831 3.36105
# Velocity P-wave (km/s) = 6.16444 6.16978 6.16711
#
# Compressibility (1/GPa) = 0.02566253
#
# Stress axis : x y z
#
# Youngs Moduli (GPa) = 75.05157 20.86639 16.26093
#
# Poissons Ratio (x) = -0.00117 0.23303
# Poissons Ratio (y) = -0.00419 0.55721
# Poissons Ratio (z) = 1.07553 0.71502
#
# Static dielectric constant tensor:
#      x y z
#    x 4.441210 0.000000 -0.193770 
#    y 0.000000 3.244660 0.000000 
#    z -0.193770 0.000000 3.706590 
# 
# 
# High freq. dielectric constant tensor:
#      x y z
#    x 1.799670 0.000000 -0.012980 
#    y 0.000000 1.726290 0.000000 
#    z -0.012980 0.000000 1.787300 
# 
# From -- ./inp_files/51960.got.cif
#   From: 2010.06.25/outbox.cif.g09.slc.cpg/sg10_26_cif.got.tgz:51960.got - 2010.06.27 22:07:45.
