data_PCOD8056107
_publ_section_title
;
Structure prediction by ZEFSAII (Michael W. Deem and Ramdas Pophale) SiO2 
 PCOD8056107
Probable space group: C C
;
_chemical_formula_sum "Si O2"
_cell_formula_units_Z 32
_cell_length_a 9.526482
_cell_length_b 10.482295
_cell_length_c 14.036106
_cell_angle_alpha 90.000000
_cell_angle_beta 88.682829
_cell_angle_gamma 90.000000
_cell_volume 1401.266687
_symmetry_space_group_name_H-M "C C"
_symmetry_group_IT_number 9
_symmetry_cell_setting 'monoclinic'
loop_
_space_group_symop_operation_xyz
x,y,z
x,-y,1/2+z
1/2+x,1/2+y,z
1/2+x,1/2-y,1/2+z
loop_
_atom_site_type_symbol
_atom_site_label
_atom_site_fract_x
_atom_site_fract_y
_atom_site_fract_z
Si Si1 0.717460 0.329693 0.243490
Si Si2 0.375635 0.087338 0.452518
Si Si3 0.660955 0.671536 0.295279
Si Si4 0.238557 0.552183 0.186860
Si Si5 0.188554 0.960230 0.602037
Si Si6 0.455530 0.447748 0.315670
Si Si7 0.009415 0.435845 0.300448
Si Si8 0.902624 0.863652 0.515367
O O1 0.768385 0.186274 0.238039
O O2 0.671514 0.396873 0.145119
O O3 0.576437 0.338917 0.309373
O O4 0.845921 0.410434 0.284142
O O5 0.275817 0.145212 0.372898
O O6 0.416661 0.208966 0.517843
O O7 0.306740 0.974424 0.518195
O O8 0.509470 0.022340 0.396979
O O9 0.722438 0.640642 0.187442
O O10 0.526004 0.585200 0.315720
O O11 0.607096 0.813811 0.310888
O O12 0.343469 0.446485 0.230867
O O13 0.077187 0.512077 0.208989
O O14 0.270513 0.579113 0.076151
O O15 0.044784 0.918649 0.556168
O O16 0.370747 0.419788 0.412436
#
# Coordination Sequence:
#
# PCOD8056107 Si02
#       8
#     4   4   4   4   4   4   4   4
#     4  11  21  46  72  94 137 186 228 281 358 407
#     4  12  25  46  73 103 142 187 240 289 351 424
#     4  11  23  46  70 102 145 181 234 290 350 416
#     4  12  25  44  70 103 146 181 230 298 346 416
#     4  11  22  44  77  99 137 194 230 287 354 418
#     4  11  22  44  72  97 141 188 228 292 350 406
#     4  12  25  45  72 104 142 186 231 293 353 419
#     4  12  23  43  72 106 138 185 245 284 350 430
#
# _framework density 22.836482
#
# number of rings (size 3 to 8) (size 9 to 14) (size 15 to 20)
#    0.000    0.500    8.750    1.500    0.000    0.000 
#    6.750    0.000    0.000    0.000    0.000    0.000 
#    0.000    0.000    0.000    0.000    0.000    0.000 
#
# Total GULP energy -198276.321252 kJ/mol
# GULP energy per Si atom -12392.270078 kJ/mol
# Density = 2.278450 g / cm^3
# Si number density = 22.836482 Si / 1000 Ang^3
#
#
#
# Elastic Constant Matrix: (Units=GPa)
#
#
# Indices 1 2 3 4 5 6 
#
# 1 87.9495 33.0585 45.8302 0.0000 -22.2248 0.0000
# 2 33.0585 78.7378 42.8199 0.0000 -15.1587 0.0000
# 3 45.8302 42.8199 131.7693 0.0000 -37.9306 0.0000
# 4 0.0000 0.0000 0.0000 33.9796 0.0000 -3.0030
# 5 -22.2248 -15.1587 -37.9306 0.0000 49.2096 0.0000
# 6 0.0000 0.0000 0.0000 -3.0030 0.0000 33.9910
#
#
#
# Elastic Compliance Matrix: (Units=1/GPa)
#
#
# Indices 1 2 3 4 5 6 
#
# 1 0.015351 -0.004157 -0.003035 0.000000 0.003314 0.000000
# 2 -0.004157 0.016602 -0.003878 0.000000 0.000248 0.000000
# 3 -0.003035 -0.003878 0.011780 0.000000 0.006515 0.000000
# 4 0.000000 0.000000 0.000000 0.029661 0.000000 0.002620
# 5 0.003314 0.000248 0.006515 0.000000 0.026916 0.000000
# 6 0.000000 0.000000 0.000000 0.002620 0.000000 0.029651
#
#
# Mechanical properties :
#
#
# Convention : Reuss Voigt Hill
#
# Bulk Modulus (GPa) = 46.30821 60.20821 53.25821
# Shear Modulus (GPa) = 31.38749 35.21924 33.30336
#
# Velocity S-wave (km/s) = 3.71137 3.93139 3.82297
# Velocity P-wave (km/s) = 6.21996 6.85784 6.54667
#
# Compressibility (1/GPa) = 0.02159444
#
# Stress axis : x y z
#
# Youngs Moduli (GPa) = 65.14061 60.23215 84.88965
#
# Poissons Ratio (x) = 0.25039 0.25760
# Poissons Ratio (y) = 0.27080 0.32920
# Poissons Ratio (z) = 0.19767 0.23358
#
# Static dielectric constant tensor:
#      x y z
#    x 4.115100 0.000000 -0.281570 
#    y 0.000000 4.301410 0.000000 
#    z -0.281570 0.000000 4.361880 
# 
# 
# High freq. dielectric constant tensor:
#      x y z
#    x 1.897990 0.000000 -0.016290 
#    y 0.000000 1.903230 0.000000 
#    z -0.016290 0.000000 1.898840 
# 
# From -- ./inp_files/22757.got.cif
#   From: 2010.06.25/outbox.cif.g09.slc.cpg/sg9_12_cif.got.tgz:22757.got - 2010.06.27 21:40:51.
