data_PCOD8056473
_publ_section_title
;
Structure prediction by ZEFSAII (Michael W. Deem and Ramdas Pophale) SiO2 
 PCOD8056473
Probable space group: C C
;
_chemical_formula_sum "Si O2"
_cell_formula_units_Z 32
_cell_length_a 14.389289
_cell_length_b 11.728075
_cell_length_c 9.027990
_cell_angle_alpha 90.000000
_cell_angle_beta 112.681670
_cell_angle_gamma 90.000000
_cell_volume 1405.722314
_symmetry_space_group_name_H-M "C C"
_symmetry_group_IT_number 9
_symmetry_cell_setting 'monoclinic'
loop_
_space_group_symop_operation_xyz
x,y,z
x,-y,1/2+z
1/2+x,1/2+y,z
1/2+x,1/2-y,1/2+z
loop_
_atom_site_type_symbol
_atom_site_label
_atom_site_fract_x
_atom_site_fract_y
_atom_site_fract_z
Si Si1 0.303660 0.909713 0.562510
Si Si2 0.919233 0.799953 0.047848
Si Si3 0.052399 0.281214 0.071278
Si Si4 0.335422 0.133805 0.416510
Si Si5 0.247815 0.427424 0.120434
Si Si6 0.583713 0.396560 0.355418
Si Si7 0.492680 0.363817 0.779816
Si Si8 0.804266 0.883780 0.472324
O O1 0.398155 0.833770 0.566577
O O2 0.285818 0.899829 0.728796
O O3 0.202705 0.871709 0.413153
O O4 0.323088 0.040708 0.536032
O O5 0.822239 0.863913 0.053453
O O6 0.024843 0.839575 0.183010
O O7 0.929493 0.818830 0.879929
O O8 0.146846 0.357222 0.084868
O O9 0.053513 0.243953 0.245656
O O10 0.045801 0.161840 0.981587
O O11 0.954044 0.351210 0.965046
O O12 0.281770 0.249227 0.442941
O O13 0.304879 0.442795 0.311188
O O14 0.223941 0.550918 0.030754
O O15 0.567349 0.532353 0.361879
O O16 0.413426 0.408057 0.608791
#
# Coordination Sequence:
#
# PCOD8056473 Si02
#       8
#     4   4   4   4   4   4   4   4
#     4  12  28  48  76 107 153 198 252 316 389 453
#     4  12  24  47  72 111 148 197 255 315 378 452
#     4  11  25  50  72 106 158 203 249 317 388 457
#     4  11  27  51  72 110 154 198 246 320 385 450
#     4  12  24  47  77 110 151 200 253 317 381 453
#     4  12  24  46  78 107 147 201 255 318 377 462
#     4  11  26  42  74 110 149 199 255 311 378 448
#     4  11  24  47  73 107 150 196 247 314 374 447
#
# _framework density 22.764097
#
# number of rings (size 3 to 8) (size 9 to 14) (size 15 to 20)
#    0.000    0.500    5.000    2.250   10.500    1.000 
#    2.250    0.000    0.000    0.000    0.000    0.000 
#    0.000    0.000    0.000    0.000    0.000    0.000 
#
# Total GULP energy -198390.092339 kJ/mol
# GULP energy per Si atom -12399.380771 kJ/mol
# Density = 2.271229 g / cm^3
# Si number density = 22.764097 Si / 1000 Ang^3
#
#
#
# Elastic Constant Matrix: (Units=GPa)
#
#
# Indices 1 2 3 4 5 6 
#
# 1 111.9788 59.5238 61.6611 0.0000 -1.8983 0.0000
# 2 59.5238 164.3201 74.3876 0.0000 -15.4805 0.0000
# 3 61.6611 74.3876 120.8612 0.0000 -17.7757 0.0000
# 4 0.0000 0.0000 0.0000 38.1951 0.0000 -14.0536
# 5 -1.8983 -15.4805 -17.7757 0.0000 36.5899 0.0000
# 6 0.0000 0.0000 0.0000 -14.0536 0.0000 38.0623
#
#
#
# Elastic Compliance Matrix: (Units=1/GPa)
#
#
# Indices 1 2 3 4 5 6 
#
# 1 0.013386 -0.002558 -0.005721 0.000000 -0.003167 0.000000
# 2 -0.002558 0.008968 -0.003959 0.000000 0.001738 0.000000
# 3 -0.005721 -0.003959 0.014366 0.000000 0.005007 0.000000
# 4 0.000000 0.000000 0.000000 0.030297 0.000000 0.011187
# 5 -0.003167 0.001738 0.005007 0.000000 0.030334 0.000000
# 6 0.000000 0.000000 0.000000 0.011187 0.000000 0.030403
#
#
# Mechanical properties :
#
#
# Convention : Reuss Voigt Hill
#
# Bulk Modulus (GPa) = 81.66781 87.58946 84.62863
# Shear Modulus (GPa) = 31.98720 36.00863 33.99791
#
# Velocity S-wave (km/s) = 3.75261 3.98152 3.86876
# Velocity P-wave (km/s) = 7.39795 7.72640 7.56396
#
# Compressibility (1/GPa) = 0.01224473
#
# Stress axis : x y z
#
# Youngs Moduli (GPa) = 74.70253 111.50428 69.60819
#
# Poissons Ratio (x) = 0.28517 0.39824
# Poissons Ratio (y) = 0.19105 0.27560
# Poissons Ratio (z) = 0.42739 0.44148
#
# Static dielectric constant tensor:
#      x y z
#    x 4.223350 0.000000 -0.118020 
#    y 0.000000 4.408210 0.000000 
#    z -0.118020 0.000000 4.330430 
# 
# 
# High freq. dielectric constant tensor:
#      x y z
#    x 1.888190 0.000000 0.000610 
#    y 0.000000 1.902300 0.000000 
#    z 0.000610 0.000000 1.905690 
# 
# From -- ./inp_files/9183.got.cif
#   From: 2010.06.25/outbox.cif.g09.slc.cpg/sg9_5_cif.got.tgz:9183.got - 2010.06.27 21:40:51.
