data_PCOD8056685
_publ_section_title
;
Structure prediction by ZEFSAII (Michael W. Deem and Ramdas Pophale) SiO2 
 PCOD8056685
Probable space group: C C
;
_chemical_formula_sum "Si O2"
_cell_formula_units_Z 32
_cell_length_a 11.278984
_cell_length_b 18.023089
_cell_length_c 8.686556
_cell_angle_alpha 90.000000
_cell_angle_beta 53.773371
_cell_angle_gamma 90.000000
_cell_volume 1424.463114
_symmetry_space_group_name_H-M "C C"
_symmetry_group_IT_number 9
_symmetry_cell_setting 'monoclinic'
loop_
_space_group_symop_operation_xyz
x,y,z
x,-y,1/2+z
1/2+x,1/2+y,z
1/2+x,1/2-y,1/2+z
loop_
_atom_site_type_symbol
_atom_site_label
_atom_site_fract_x
_atom_site_fract_y
_atom_site_fract_z
Si Si1 0.300020 0.728408 0.820380
Si Si2 0.581837 0.918435 0.793061
Si Si3 0.403509 0.450909 0.454345
Si Si4 0.912489 0.500285 0.158604
Si Si5 0.587374 0.754089 0.753294
Si Si6 0.674317 0.625179 0.897985
Si Si7 0.933463 0.094939 0.593794
Si Si8 0.225121 0.867674 0.705642
O O1 0.433281 0.713422 0.838382
O O2 0.305153 0.657186 0.703173
O O3 0.324421 0.801093 0.696801
O O4 0.154235 0.731050 0.033201
O O5 0.745889 0.913897 0.602043
O O6 0.462970 0.952137 0.765898
O O7 0.547722 0.832879 0.862518
O O8 0.559830 0.970194 0.960277
O O9 0.524508 0.418111 0.477140
O O10 0.381003 0.537682 0.505436
O O11 0.457891 0.445294 0.238434
O O12 0.813988 0.428017 0.267796
O O13 0.816341 0.555875 0.127513
O O14 0.685826 0.699695 0.783805
O O15 0.669450 0.652070 0.077914
O O16 0.089455 0.128525 0.426720
#
# Coordination Sequence:
#
# PCOD8056685 Si02
#       8
#     4   4   4   4   4   4   4   4
#     4  12  24  47  73 102 145 198 242 299 385 448
#     4  12  26  47  72 108 153 183 244 314 377 436
#     4  12  25  44  76 106 142 194 246 302 374 444
#     4  12  26  46  77 107 143 197 244 310 372 447
#     4  12  24  47  75 104 146 198 243 298 383 449
#     4  12  26  48  75 112 144 197 260 303 367 464
#     4  12  25  46  74 104 145 193 250 303 368 455
#     4  12  26  47  76 109 144 194 255 313 370 453
#
# _framework density 22.464606
#
# number of rings (size 3 to 8) (size 9 to 14) (size 15 to 20)
#    0.000    0.000    7.500    2.250    1.750    0.000 
#   11.250    0.000    0.000    0.000    0.000    0.000 
#    0.000    0.000    0.000    0.000    0.000    0.000 
#
# Total GULP energy -198429.203822 kJ/mol
# GULP energy per Si atom -12401.825239 kJ/mol
# Density = 2.241348 g / cm^3
# Si number density = 22.464606 Si / 1000 Ang^3
#
#
#
# Elastic Constant Matrix: (Units=GPa)
#
#
# Indices 1 2 3 4 5 6 
#
# 1 75.8192 22.7116 29.7972 0.0000 0.5882 0.0000
# 2 22.7116 147.8158 49.3800 0.0000 16.4427 0.0000
# 3 29.7972 49.3800 107.2236 0.0000 6.4308 0.0000
# 4 0.0000 0.0000 0.0000 38.8643 0.0000 1.1062
# 5 0.5882 16.4427 6.4308 0.0000 31.1197 0.0000
# 6 0.0000 0.0000 0.0000 1.1062 0.0000 45.6281
#
#
#
# Elastic Compliance Matrix: (Units=1/GPa)
#
#
# Indices 1 2 3 4 5 6 
#
# 1 0.014985 -0.001197 -0.003680 0.000000 0.001109 0.000000
# 2 -0.001197 0.008488 -0.003350 0.000000 -0.003770 0.000000
# 3 -0.003680 -0.003350 0.011929 0.000000 -0.000625 0.000000
# 4 0.000000 0.000000 0.000000 0.025748 0.000000 -0.000624
# 5 0.001109 -0.003770 -0.000625 0.000000 0.034234 0.000000
# 6 0.000000 0.000000 0.000000 -0.000624 0.000000 0.021931
#
#
# Mechanical properties :
#
#
# Convention : Reuss Voigt Hill
#
# Bulk Modulus (GPa) = 52.77343 59.40403 56.08873
# Shear Modulus (GPa) = 35.69250 38.38707 37.03979
#
# Velocity S-wave (km/s) = 3.99034 4.13822 4.06495
# Velocity P-wave (km/s) = 6.69128 7.02382 6.85956
#
# Compressibility (1/GPa) = 0.01894893
#
# Stress axis : x y z
#
# Youngs Moduli (GPa) = 66.73211 117.81989 83.82712
#
# Poissons Ratio (x) = 0.14098 0.30847
# Poissons Ratio (y) = 0.07985 0.28084
# Poissons Ratio (z) = 0.24556 0.39472
#
# Static dielectric constant tensor:
#      x y z
#    x 3.789650 0.000000 -0.003490 
#    y 0.000000 4.335390 0.000000 
#    z -0.003490 0.000000 3.939820 
# 
# 
# High freq. dielectric constant tensor:
#      x y z
#    x 1.869490 0.000000 -0.006660 
#    y 0.000000 1.907420 0.000000 
#    z -0.006660 0.000000 1.886280 
# 
# From -- ./inp_files/8012.got.cif
#   From: 2010.06.25/outbox.cif.g09.slc.cpg/sg9_5_cif.got.tgz:8012.got - 2010.06.27 21:40:51.
