data_PCOD8056017
_publ_section_title
;
Structure prediction by ZEFSAII (Michael W. Deem and Ramdas Pophale) SiO2 
 PCOD8056017
Probable space group: C C
;
_chemical_formula_sum "Si O2"
_cell_formula_units_Z 28
_cell_length_a 25.546279
_cell_length_b 6.344681
_cell_length_c 9.072857
_cell_angle_alpha 90.000000
_cell_angle_beta 61.672599
_cell_angle_gamma 90.000000
_cell_volume 1294.457516
_symmetry_space_group_name_H-M "C C"
_symmetry_group_IT_number 9
_symmetry_cell_setting 'monoclinic'
loop_
_space_group_symop_operation_xyz
x,y,z
x,-y,1/2+z
1/2+x,1/2+y,z
1/2+x,1/2-y,1/2+z
loop_
_atom_site_type_symbol
_atom_site_label
_atom_site_fract_x
_atom_site_fract_y
_atom_site_fract_z
Si Si1 0.130740 0.797372 0.829160
Si Si2 0.909347 0.808120 0.673820
Si Si3 0.341611 0.446390 0.486366
Si Si4 0.764108 0.308089 0.602476
Si Si5 0.586725 0.001831 0.138145
Si Si6 0.331863 0.946316 0.789949
Si Si7 0.042712 0.797376 0.447129
O O1 0.198194 0.877384 0.737111
O O2 0.124606 0.651891 0.692367
O O3 0.086729 0.000004 0.888141
O O4 0.125214 0.655909 0.983266
O O5 0.860629 0.895125 0.625392
O O6 0.897322 0.556314 0.696780
O O7 0.975261 0.877412 0.539173
O O8 0.893263 0.901736 0.854297
O O9 0.276131 0.556279 0.579391
O O10 0.336778 0.249934 0.388187
O O11 0.812821 0.394827 0.651012
O O12 0.780202 0.401853 0.422035
O O13 0.548238 0.155913 0.293022
O O14 0.548845 0.848109 0.083921
#
# Coordination Sequence:
#
# PCOD8056017 Si02
#       7
#     4   4   4   4   4   4   4
#     4  11  26  45  70  99 137 183 229 289 343 410
#     4  11  26  42  71  96 137 174 229 273 344 410
#     4  11  24  44  64 103 131 176 219 277 337 404
#     4  11  26  42  71  96 137 174 229 273 344 410
#     4  10  26  46  64 102 132 176 238 274 356 400
#     4  11  24  44  64 103 131 176 219 277 337 404
#     4  11  26  45  70  99 137 183 229 289 343 410
#
# _framework density 21.630682
#
# number of rings (size 3 to 8) (size 9 to 14) (size 15 to 20)
#    0.000    1.143    2.857    0.857   12.000    2.286 
#    0.000    0.000    0.000    0.000    0.000    0.000 
#    0.000    0.000    0.000    0.000    0.000    0.000 
#
# Total GULP energy -173527.613899 kJ/mol
# GULP energy per Si atom -12394.829564 kJ/mol
# Density = 2.158145 g / cm^3
# Si number density = 21.630682 Si / 1000 Ang^3
#
#
#
# Elastic Constant Matrix: (Units=GPa)
#
#
# Indices 1 2 3 4 5 6 
#
# 1 81.2649 43.3744 37.5690 0.0000 -23.1838 0.0000
# 2 43.3744 128.1499 41.0543 0.0000 -7.1965 0.0000
# 3 37.5690 41.0543 106.7580 0.0000 1.8687 0.0000
# 4 0.0000 0.0000 0.0000 47.2874 0.0000 5.3256
# 5 -23.1838 -7.1965 1.8687 0.0000 47.2126 0.0000
# 6 0.0000 0.0000 0.0000 5.3256 0.0000 31.9217
#
#
#
# Elastic Compliance Matrix: (Units=1/GPa)
#
#
# Indices 1 2 3 4 5 6 
#
# 1 0.019841 -0.004454 -0.005432 0.000000 0.009279 0.000000
# 2 -0.004454 0.010006 -0.002270 0.000000 -0.000572 0.000000
# 3 -0.005432 -0.002270 0.012213 0.000000 -0.003497 0.000000
# 4 0.000000 0.000000 0.000000 0.021552 0.000000 -0.003596
# 5 0.009279 -0.000572 -0.003497 0.000000 0.025788 0.000000
# 6 0.000000 0.000000 0.000000 -0.003596 0.000000 0.031927
#
#
# Mechanical properties :
#
#
# Convention : Reuss Voigt Hill
#
# Bulk Modulus (GPa) = 56.34705 62.24089 59.29397
# Shear Modulus (GPa) = 32.99106 38.22933 35.61019
#
# Velocity S-wave (km/s) = 3.90961 4.20857 4.06184
# Velocity P-wave (km/s) = 6.81808 7.24243 7.03346
#
# Compressibility (1/GPa) = 0.01774716
#
# Stress axis : x y z
#
# Youngs Moduli (GPa) = 50.40012 99.93774 81.88157
#
# Poissons Ratio (x) = 0.44516 0.44476
# Poissons Ratio (y) = 0.22450 0.18590
# Poissons Ratio (z) = 0.27376 0.22690
#
# Static dielectric constant tensor:
#      x y z
#    x 6.068900 0.000000 0.969800 
#    y 0.000000 4.337140 0.000000 
#    z 0.969800 0.000000 4.411210 
# 
# 
# High freq. dielectric constant tensor:
#      x y z
#    x 1.826600 0.000000 0.014740 
#    y 0.000000 1.866280 0.000000 
#    z 0.014740 0.000000 1.871880 
# 
# From -- ./inp_files/11912.got.cif
#   From: 2010.06.25/outbox.cif.g09.slc.cpg/sg9_6_cif.got.tgz:11912.got - 2010.06.27 21:40:51.
