data_PCOD8056986
_publ_section_title
;
Structure prediction by ZEFSAII (Michael W. Deem and Ramdas Pophale) SiO2 
 PCOD8056986
Probable space group: P 2/M
;
_chemical_formula_sum "Si O2"
_cell_formula_units_Z 28
_cell_length_a 21.208500
_cell_length_b 8.844085
_cell_length_c 11.388420
_cell_angle_alpha 90.000000
_cell_angle_beta 129.977226
_cell_angle_gamma 90.000000
_cell_volume 1636.911100
_symmetry_space_group_name_H-M "P 2/M"
_symmetry_group_IT_number 10
_symmetry_cell_setting 'monoclinic'
loop_
_space_group_symop_operation_xyz
x,y,z
-x,y,-z
-x,-y,-z
x,-y,z
loop_
_atom_site_type_symbol
_atom_site_label
_atom_site_fract_x
_atom_site_fract_y
_atom_site_fract_z
Si Si1 0.454866 0.321100 0.123091
Si Si2 0.907955 0.675775 0.986438
Si Si3 0.424114 0.822843 0.332734
Si Si4 0.777104 0.676525 0.529930
Si Si5 0.728555 0.328289 0.738510
Si Si6 0.620781 0.679209 0.207033
Si Si7 0.061817 0.178166 0.226992
O O1 0.454372 0.500000 0.137675
O O2 0.422994 0.248644 0.203468
O O3 0.546339 0.261396 0.200461
O O4 0.393237 0.270912 0.944374
O O5 0.925897 0.500000 0.981055
O O6 0.974530 0.742177 0.159657
O O7 0.813287 0.695115 0.914471
O O8 0.918960 0.772913 0.882227
O O9 0.500000 0.757659 0.500000
O O10 0.339198 0.785733 0.295523
O O11 0.432891 0.000000 0.328624
O O12 0.794045 0.500000 0.531416
O O13 0.745410 0.708442 0.623036
O O14 0.707928 0.741135 0.358210
O O15 0.862068 0.763915 0.602587
O O16 0.696612 0.500000 0.714739
O O17 0.619687 0.500000 0.215034
O O18 0.052680 0.000000 0.228716
#
# Coordination Sequence:
#
# PCOD8056986 Si02
#       7
#     4   4   4   4   4   4   4
#     4   9  17  32  52  70  88 114 153 193 227 265
#     4   9  16  28  43  60  85 117 152 188 227 267
#     4  11  23  34  44  64  95 126 153 183 222 267
#     4   9  16  28  45  67  94 120 149 185 227 269
#     4   9  18  30  47  68  88 118 156 189 222 264
#     4   8  15  29  51  73  89 112 149 193 231 263
#     4  10  17  24  38  63  92 121 150 179 219 269
#
# _framework density 17.105388999999999
#
# number of rings (size 3 to 8) (size 9 to 14) (size 15 to 20)
#    0.000    2.714    0.000    5.571    0.000    5.143 
#    0.000    2.857    0.000    0.000    0.000    1.000 
#    0.000    8.000    0.000    0.000    0.000    0.000 
#
# Total GULP energy -347005.921467 kJ/mol
# GULP energy per Si atom -12393.068624 kJ/mol
# Density = 1.706646 g / cm^3
# Si number density = 17.105389 Si / 1000 Ang^3
#
#
#
# Elastic Constant Matrix: (Units=GPa)
#
#
# Indices 1 2 3 4 5 6 
#
# 1 58.3944 24.8579 50.1537 0.0000 16.8865 0.0000
# 2 24.8579 54.4581 36.2974 0.0000 9.7282 0.0000
# 3 50.1537 36.2974 135.6666 0.0000 31.9416 0.0000
# 4 0.0000 0.0000 0.0000 18.7715 0.0000 7.8000
# 5 16.8865 9.7282 31.9416 0.0000 30.8767 0.0000
# 6 0.0000 0.0000 0.0000 7.8000 0.0000 5.4577
#
#
#
# Elastic Compliance Matrix: (Units=1/GPa)
#
#
# Indices 1 2 3 4 5 6 
#
# 1 0.027816 -0.006960 -0.007080 0.000000 -0.005695 0.000000
# 2 -0.006960 0.024120 -0.003949 0.000000 0.000292 0.000000
# 3 -0.007080 -0.003949 0.013009 0.000000 -0.008341 0.000000
# 4 0.000000 0.000000 0.000000 0.131169 0.000000 -0.187465
# 5 -0.005695 0.000292 -0.008341 0.000000 0.044038 0.000000
# 6 0.000000 0.000000 0.000000 -0.187465 0.000000 0.451152
#
#
# Mechanical properties :
#
#
# Convention : Reuss Voigt Hill
#
# Bulk Modulus (GPa) = 34.52355 52.34858 43.43606
# Shear Modulus (GPa) = 6.78484 20.16852 13.47668
#
# Velocity S-wave (km/s) = 1.99377 3.43749 2.80993
# Velocity P-wave (km/s) = 5.05241 6.81360 5.99800
#
# Compressibility (1/GPa) = 0.02896573
#
# Stress axis : x y z
#
# Youngs Moduli (GPa) = 35.95103 41.45998 76.87179
#
# Poissons Ratio (x) = 0.28858 0.54424
# Poissons Ratio (y) = 0.25024 0.30356
# Poissons Ratio (z) = 0.25453 0.16372
#
# Static dielectric constant tensor:
#      x y z
#    x 3.060660 0.000000 0.534710 
#    y 0.000000 2.993960 0.000000 
#    z 0.534710 0.000000 3.754870 
# 
# 
# High freq. dielectric constant tensor:
#      x y z
#    x 1.624790 0.000000 0.037020 
#    y 0.000000 1.646830 0.000000 
#    z 0.037020 0.000000 1.661550 
# 
# From -- ./inp_files/54958.got.cif
#   From: 2010.06.25/outbox.cif.g09.slc.cpg/sg10_28_cif.got.tgz:54958.got - 2010.06.27 22:07:45.
