data_PCOD8056452
_publ_section_title
;
Structure prediction by ZEFSAII (Michael W. Deem and Ramdas Pophale) SiO2 
 PCOD8056452
Probable space group: C C
;
_chemical_formula_sum "Si O2"
_cell_formula_units_Z 28
_cell_length_a 14.448601
_cell_length_b 13.913588
_cell_length_c 8.148593
_cell_angle_alpha 90.000000
_cell_angle_beta 133.519843
_cell_angle_gamma 90.000000
_cell_volume 1187.864737
_symmetry_space_group_name_H-M "C C"
_symmetry_group_IT_number 9
_symmetry_cell_setting 'monoclinic'
loop_
_space_group_symop_operation_xyz
x,y,z
x,-y,1/2+z
1/2+x,1/2+y,z
1/2+x,1/2-y,1/2+z
loop_
_atom_site_type_symbol
_atom_site_label
_atom_site_fract_x
_atom_site_fract_y
_atom_site_fract_z
Si Si1 0.456390 0.296401 0.836360
Si Si2 0.415506 0.070783 0.289379
Si Si3 0.009523 0.395136 0.243644
Si Si4 0.582741 0.802254 0.782719
Si Si5 0.631730 0.383730 0.507233
Si Si6 0.484891 0.468627 0.629543
Si Si7 0.252184 0.595919 0.257785
O O1 0.454672 0.213017 0.696710
O O2 0.482179 0.400394 0.786345
O O3 0.326366 0.310050 0.779778
O O4 0.561542 0.261322 0.093978
O O5 0.519581 0.081143 0.562742
O O6 0.456986 0.141052 0.190964
O O7 0.407308 0.963267 0.209774
O O8 0.279452 0.091695 0.202246
O O9 0.144602 0.423754 0.489583
O O10 0.626785 0.731266 0.980295
O O11 0.692353 0.878053 0.863426
O O12 0.555654 0.408949 0.577110
O O13 0.566042 0.436639 0.272448
O O14 0.344444 0.503311 0.398436
#
# Coordination Sequence:
#
# PCOD8056452 Si02
#       7
#     4   4   4   4   4   4   4
#     4  11  24  46  72 108 147 190 250 301 388 444
#     4  12  27  47  70 109 147 200 252 305 387 453
#     4  11  27  46  72 106 148 198 245 313 376 453
#     4  11  25  47  74 108 149 197 249 314 387 444
#     4  12  25  45  75 101 151 191 250 312 368 459
#     4  12  25  45  75 114 142 197 250 308 384 440
#     4  11  25  46  74 108 152 191 248 317 370 457
#
# _framework density 23.571708999999998
#
# number of rings (size 3 to 8) (size 9 to 14) (size 15 to 20)
#    0.000    0.571    2.857    4.286    4.000    6.857 
#    0.000    0.000    0.000    0.000    0.000    0.000 
#    0.000    0.000    0.000    0.000    0.000    0.000 
#
# Total GULP energy -173587.876397 kJ/mol
# GULP energy per Si atom -12399.134028 kJ/mol
# Density = 2.351806 g / cm^3
# Si number density = 23.571709 Si / 1000 Ang^3
#
#
#
# Elastic Constant Matrix: (Units=GPa)
#
#
# Indices 1 2 3 4 5 6 
#
# 1 141.7891 41.5082 40.5798 0.0000 8.3573 0.0000
# 2 41.5082 111.6247 25.3327 0.0000 5.0179 0.0000
# 3 40.5798 25.3327 84.0085 0.0000 6.7227 0.0000
# 4 0.0000 0.0000 0.0000 33.9203 0.0000 -5.3895
# 5 8.3573 5.0179 6.7227 0.0000 37.5054 0.0000
# 6 0.0000 0.0000 0.0000 -5.3895 0.0000 34.5266
#
#
#
# Elastic Compliance Matrix: (Units=1/GPa)
#
#
# Indices 1 2 3 4 5 6 
#
# 1 0.008814 -0.002452 -0.003437 0.000000 -0.001020 0.000000
# 2 -0.002452 0.010321 -0.001888 0.000000 -0.000496 0.000000
# 3 -0.003437 -0.001888 0.014256 0.000000 -0.001537 0.000000
# 4 0.000000 0.000000 0.000000 0.030231 0.000000 0.004719
# 5 -0.001020 -0.000496 -0.001537 0.000000 0.027232 0.000000
# 6 0.000000 0.000000 0.000000 0.004719 0.000000 0.029700
#
#
# Mechanical properties :
#
#
# Convention : Reuss Voigt Hill
#
# Bulk Modulus (GPa) = 56.06077 61.36263 58.71170
# Shear Modulus (GPa) = 35.19808 36.52391 35.86100
#
# Velocity S-wave (km/s) = 3.86843 3.94061 3.90469
# Velocity P-wave (km/s) = 6.61723 6.84057 6.72983
#
# Compressibility (1/GPa) = 0.01783779
#
# Stress axis : x y z
#
# Youngs Moduli (GPa) = 113.45360 96.88845 70.14579
#
# Poissons Ratio (x) = 0.23755 0.24107
# Poissons Ratio (y) = 0.27817 0.13246
# Poissons Ratio (z) = 0.38990 0.18296
#
# Static dielectric constant tensor:
#      x y z
#    x 4.272830 0.000000 -0.076440 
#    y 0.000000 4.516770 0.000000 
#    z -0.076440 0.000000 4.033550 
# 
# 
# High freq. dielectric constant tensor:
#      x y z
#    x 1.945760 0.000000 -0.010210 
#    y 0.000000 1.944550 0.000000 
#    z -0.010210 0.000000 1.919390 
# 
# From -- ./inp_files/9656.got.cif
#   From: 2010.06.25/outbox.cif.g09.slc.cpg/sg9_5_cif.got.tgz:9656.got - 2010.06.27 21:40:51.
