data_PCOD8056429
_publ_section_title
;
Structure prediction by ZEFSAII (Michael W. Deem and Ramdas Pophale) SiO2 
 PCOD8056429
Probable space group: C C
;
_chemical_formula_sum "Si O2"
_cell_formula_units_Z 32
_cell_length_a 10.620485
_cell_length_b 16.053660
_cell_length_c 9.507707
_cell_angle_alpha 90.000000
_cell_angle_beta 58.514362
_cell_angle_gamma 90.000000
_cell_volume 1382.377571
_symmetry_space_group_name_H-M "C C"
_symmetry_group_IT_number 9
_symmetry_cell_setting 'monoclinic'
loop_
_space_group_symop_operation_xyz
x,y,z
x,-y,1/2+z
1/2+x,1/2+y,z
1/2+x,1/2-y,1/2+z
loop_
_atom_site_type_symbol
_atom_site_label
_atom_site_fract_x
_atom_site_fract_y
_atom_site_fract_z
Si Si1 0.392070 0.690812 0.628120
Si Si2 0.607768 0.294268 0.456723
Si Si3 0.077458 0.694724 0.205008
Si Si4 0.266246 0.476551 0.324945
Si Si5 0.945569 0.456346 0.631027
Si Si6 0.575329 0.754319 0.278033
Si Si7 0.377776 0.899402 0.387047
Si Si8 0.353767 0.405626 0.540265
O O1 0.513724 0.722672 0.669136
O O2 0.334800 0.599255 0.695297
O O3 0.480046 0.691425 0.429364
O O4 0.251101 0.753318 0.703963
O O5 0.597946 0.215291 0.357830
O O6 0.532032 0.265403 0.643954
O O7 0.770933 0.327237 0.391882
O O8 0.518465 0.372565 0.448732
O O9 0.240959 0.668228 0.053680
O O10 0.967720 0.618568 0.230468
O O11 0.349003 0.478821 0.427067
O O12 0.299147 0.560954 0.222231
O O13 0.092514 0.476683 0.456569
O O14 0.830003 0.436510 0.569513
O O15 0.890880 0.532915 0.756460
O O16 0.531431 0.851197 0.330398
#
# Coordination Sequence:
#
# PCOD8056429 Si02
#       8
#     4   4   4   4   4   4   4   4
#     4  12  24  49  77 103 145 190 250 303 367 443
#     4  12  27  45  68 109 149 194 247 308 366 436
#     4  11  24  48  71 108 139 195 246 305 363 446
#     4  11  24  45  73 103 136 191 242 302 372 434
#     4  11  24  47  75 104 146 193 251 302 376 449
#     4  12  25  45  75 107 143 190 243 311 368 437
#     4  12  26  47  70 109 150 195 251 304 374 445
#     4  11  26  44  69 103 146 186 248 295 372 436
#
# _framework density 23.148523999999998
#
# number of rings (size 3 to 8) (size 9 to 14) (size 15 to 20)
#    0.000    0.500    5.000    3.000    5.250    1.000 
#    2.250    0.000    0.000    0.000    0.000    0.000 
#    0.000    0.000    0.000    0.000    0.000    0.000 
#
# Total GULP energy -198311.567468 kJ/mol
# GULP energy per Si atom -12394.472967 kJ/mol
# Density = 2.309584 g / cm^3
# Si number density = 23.148524 Si / 1000 Ang^3
#
#
#
# Elastic Constant Matrix: (Units=GPa)
#
#
# Indices 1 2 3 4 5 6 
#
# 1 99.1205 21.4476 41.5967 0.0000 9.6670 0.0000
# 2 21.4476 76.2962 39.8322 0.0000 7.2105 0.0000
# 3 41.5967 39.8322 136.6537 0.0000 22.0871 0.0000
# 4 0.0000 0.0000 0.0000 47.5346 0.0000 7.6074
# 5 9.6670 7.2105 22.0871 0.0000 36.5515 0.0000
# 6 0.0000 0.0000 0.0000 7.6074 0.0000 23.3451
#
#
#
# Elastic Compliance Matrix: (Units=1/GPa)
#
#
# Indices 1 2 3 4 5 6 
#
# 1 0.011782 -0.001686 -0.002931 0.000000 -0.001012 0.000000
# 2 -0.001686 0.015705 -0.004029 0.000000 -0.000217 0.000000
# 3 -0.002931 -0.004029 0.010119 0.000000 -0.004545 0.000000
# 4 0.000000 0.000000 0.000000 0.022195 0.000000 -0.007233
# 5 -0.001012 -0.000217 -0.004545 0.000000 0.030415 0.000000
# 6 0.000000 0.000000 0.000000 -0.007233 0.000000 0.045192
#
#
# Mechanical properties :
#
#
# Convention : Reuss Voigt Hill
#
# Bulk Modulus (GPa) = 49.23022 57.53593 53.38307
# Shear Modulus (GPa) = 31.35310 35.43250 33.39280
#
# Velocity S-wave (km/s) = 3.68425 3.91661 3.80221
# Velocity P-wave (km/s) = 6.27786 6.73514 6.51052
#
# Compressibility (1/GPa) = 0.02031273
#
# Stress axis : x y z
#
# Youngs Moduli (GPa) = 84.87172 63.67426 98.82294
#
# Poissons Ratio (x) = 0.10736 0.28970
# Poissons Ratio (y) = 0.14310 0.39819
# Poissons Ratio (z) = 0.24880 0.25657
#
# Static dielectric constant tensor:
#      x y z
#    x 4.238890 0.000000 0.306740 
#    y 0.000000 3.957480 0.000000 
#    z 0.306740 0.000000 4.238730 
# 
# 
# High freq. dielectric constant tensor:
#      x y z
#    x 1.919130 0.000000 0.022090 
#    y 0.000000 1.900180 0.000000 
#    z 0.022090 0.000000 1.918850 
# 
# From -- ./inp_files/8005.got.cif
#   From: 2010.06.25/outbox.cif.g09.slc.cpg/sg9_5_cif.got.tgz:8005.got - 2010.06.27 21:40:51.
