data_PCOD8056385
_publ_section_title
;
Structure prediction by ZEFSAII (Michael W. Deem and Ramdas Pophale) SiO2 
 PCOD8056385
Probable space group: C C
;
_chemical_formula_sum "Si O2"
_cell_formula_units_Z 32
_cell_length_a 15.268854
_cell_length_b 17.179904
_cell_length_c 4.926735
_cell_angle_alpha 90.000000
_cell_angle_beta 98.584162
_cell_angle_gamma 90.000000
_cell_volume 1277.891014
_symmetry_space_group_name_H-M "C C"
_symmetry_group_IT_number 9
_symmetry_cell_setting 'monoclinic'
loop_
_space_group_symop_operation_xyz
x,y,z
x,-y,1/2+z
1/2+x,1/2+y,z
1/2+x,1/2-y,1/2+z
loop_
_atom_site_type_symbol
_atom_site_label
_atom_site_fract_x
_atom_site_fract_y
_atom_site_fract_z
Si Si1 0.443510 0.946924 0.719820
Si Si2 0.317978 0.190415 0.154668
Si Si3 0.974596 0.779004 0.524784
Si Si4 0.101684 0.664711 0.345423
Si Si5 0.950544 0.123128 0.536462
Si Si6 0.758255 0.052952 0.470628
Si Si7 0.119681 0.046206 0.529747
Si Si8 0.704486 0.708591 0.603532
O O1 0.352934 0.898092 0.647351
O O2 0.528065 0.893383 0.689561
O O3 0.445554 0.021598 0.526913
O O4 0.391816 0.243506 0.324512
O O5 0.231689 0.201893 0.302168
O O6 0.290124 0.217991 0.840354
O O7 0.953538 0.804832 0.821622
O O8 0.056548 0.717968 0.560400
O O9 0.995489 0.853057 0.344894
O O10 0.181897 0.614809 0.508378
O O11 0.138231 0.719083 0.118766
O O12 0.851354 0.095640 0.544806
O O13 0.012223 0.052699 0.462131
O O14 0.749167 0.978653 0.661642
O O15 0.155700 0.128528 0.648011
O O16 0.153224 0.020253 0.251193
#
# Coordination Sequence:
#
# PCOD8056385 Si02
#       8
#     4   4   4   4   4   4   4   4
#     4  11  25  46  72 102 142 191 236 292 353 425
#     4  11  25  43  68 101 138 181 236 286 354 417
#     4  11  24  43  71 102 135 184 228 295 349 420
#     4  11  26  45  72 107 146 182 237 294 358 429
#     4  12  24  46  70  99 140 182 240 282 354 424
#     4  12  26  45  71 105 143 190 235 293 356 423
#     4  12  26  45  68 100 139 183 237 296 353 423
#     4  12  26  45  70 104 141 185 235 294 359 419
#
# _framework density 25.041259
#
# number of rings (size 3 to 8) (size 9 to 14) (size 15 to 20)
#    0.000    0.500    1.250    6.750    1.750    9.000 
#    0.000    0.000    0.000    0.000    0.000    0.000 
#    0.000    0.000    0.000    0.000    0.000    0.000 
#
# Total GULP energy -198425.650196 kJ/mol
# GULP energy per Si atom -12401.603137 kJ/mol
# Density = 2.498426 g / cm^3
# Si number density = 25.041259 Si / 1000 Ang^3
#
#
#
# Elastic Constant Matrix: (Units=GPa)
#
#
# Indices 1 2 3 4 5 6 
#
# 1 89.6053 21.0507 14.0849 0.0000 -9.4028 0.0000
# 2 21.0507 96.4234 17.5584 0.0000 -6.7492 0.0000
# 3 14.0849 17.5584 90.8726 0.0000 -1.6186 0.0000
# 4 0.0000 0.0000 0.0000 28.7287 0.0000 -0.2390
# 5 -9.4028 -6.7492 -1.6186 0.0000 27.3478 0.0000
# 6 0.0000 0.0000 0.0000 -0.2390 0.0000 53.4897
#
#
#
# Elastic Compliance Matrix: (Units=1/GPa)
#
#
# Indices 1 2 3 4 5 6 
#
# 1 0.012270 -0.002168 -0.001419 0.000000 0.003600 0.000000
# 2 -0.002168 0.011310 -0.001815 0.000000 0.001938 0.000000
# 3 -0.001419 -0.001815 0.011571 0.000000 -0.000251 0.000000
# 4 0.000000 0.000000 0.000000 0.034810 0.000000 0.000156
# 5 0.003600 0.001938 -0.000251 0.000000 0.038267 0.000000
# 6 0.000000 0.000000 0.000000 0.000156 0.000000 0.018696
#
#
# Mechanical properties :
#
#
# Convention : Reuss Voigt Hill
#
# Bulk Modulus (GPa) = 41.07240 42.47658 41.77449
# Shear Modulus (GPa) = 34.28326 36.86038 35.57182
#
# Velocity S-wave (km/s) = 3.70411 3.84081 3.77308
# Velocity P-wave (km/s) = 5.89334 6.05546 5.97495
#
# Compressibility (1/GPa) = 0.02434725
#
# Stress axis : x y z
#
# Youngs Moduli (GPa) = 81.49806 88.41358 86.42669
#
# Poissons Ratio (x) = 0.19172 0.12262
# Poissons Ratio (y) = 0.17673 0.15685
# Poissons Ratio (z) = 0.11562 0.16045
#
# Static dielectric constant tensor:
#      x y z
#    x 4.671900 0.000000 -0.102690 
#    y 0.000000 4.603890 0.000000 
#    z -0.102690 0.000000 4.338350 
# 
# 
# High freq. dielectric constant tensor:
#      x y z
#    x 2.009170 0.000000 -0.002830 
#    y 0.000000 2.006870 0.000000 
#    z -0.002830 0.000000 1.993380 
# 
# From -- ./inp_files/2528.got.cif
#   From: 2010.06.25/outbox.cif.g09.slc.cpg/sg9_2_cif.got.tgz:2528.got - 2010.06.27 21:40:51.
