data_PCOD8056478
_publ_section_title
;
Structure prediction by ZEFSAII (Michael W. Deem and Ramdas Pophale) SiO2 
 PCOD8056478
Probable space group: C C
;
_chemical_formula_sum "Si O2"
_cell_formula_units_Z 32
_cell_length_a 12.097080
_cell_length_b 8.711731
_cell_length_c 15.233022
_cell_angle_alpha 90.000000
_cell_angle_beta 59.165482
_cell_angle_gamma 90.000000
_cell_volume 1378.440073
_symmetry_space_group_name_H-M "C C"
_symmetry_group_IT_number 9
_symmetry_cell_setting 'monoclinic'
loop_
_space_group_symop_operation_xyz
x,y,z
x,-y,1/2+z
1/2+x,1/2+y,z
1/2+x,1/2-y,1/2+z
loop_
_atom_site_type_symbol
_atom_site_label
_atom_site_fract_x
_atom_site_fract_y
_atom_site_fract_z
Si Si1 0.219460 0.838107 0.728540
Si Si2 0.350191 0.527534 0.068462
Si Si3 0.570301 0.628712 0.855842
Si Si4 0.391018 0.190020 0.316572
Si Si5 0.702040 0.098541 0.963577
Si Si6 0.979535 0.344984 0.306499
Si Si7 0.792832 0.858961 0.784136
Si Si8 0.921925 0.310152 0.525818
O O1 0.341362 0.789997 0.738380
O O2 0.292695 0.900908 0.611516
O O3 0.133829 0.685140 0.745325
O O4 0.129561 0.962851 0.811142
O O5 0.303429 0.604354 0.177199
O O6 0.403460 0.360621 0.070896
O O7 0.466153 0.621196 0.975878
O O8 0.230613 0.524466 0.047320
O O9 0.505908 0.691567 0.792363
O O10 0.676431 0.743131 0.848693
O O11 0.268250 0.231651 0.429732
O O12 0.447782 0.021206 0.305174
O O13 0.769226 0.003471 0.857001
O O14 0.549694 0.108991 0.011243
O O15 0.922723 0.230964 0.256925
O O16 0.917690 0.299792 0.423920
#
# Coordination Sequence:
#
# PCOD8056478 Si02
#       8
#     4   4   4   4   4   4   4   4
#     4  12  26  48  74 109 149 196 255 307 378 450
#     4  11  26  48  75 113 149 205 250 311 389 448
#     4  11  25  48  74 111 157 191 257 314 371 460
#     4  11  24  47  78 103 153 195 239 322 371 443
#     4  11  24  50  77 111 155 196 260 311 374 466
#     4  12  25  51  74 109 155 194 253 322 378 452
#     4  12  26  48  81 110 156 203 250 323 382 452
#     4  12  26  46  79 106 150 206 250 310 385 447
#
# _framework density 23.214646999999999
#
# number of rings (size 3 to 8) (size 9 to 14) (size 15 to 20)
#    0.000    0.500    5.000    2.250    3.500    4.000 
#    0.000    0.000    0.000    0.000    0.000    0.000 
#    0.000    0.000    0.000    0.000    0.000    0.000 
#
# Total GULP energy -198358.101953 kJ/mol
# GULP energy per Si atom -12397.381372 kJ/mol
# Density = 2.316181 g / cm^3
# Si number density = 23.214647 Si / 1000 Ang^3
#
#
#
# Elastic Constant Matrix: (Units=GPa)
#
#
# Indices 1 2 3 4 5 6 
#
# 1 121.7498 47.6476 46.1840 0.0000 10.4154 0.0000
# 2 47.6476 101.2958 27.7847 0.0000 3.7995 0.0000
# 3 46.1840 27.7847 125.8499 0.0000 10.2594 0.0000
# 4 0.0000 0.0000 0.0000 23.3784 0.0000 -2.3789
# 5 10.4154 3.7995 10.2594 0.0000 35.1063 0.0000
# 6 0.0000 0.0000 0.0000 -2.3789 0.0000 39.0862
#
#
#
# Elastic Compliance Matrix: (Units=1/GPa)
#
#
# Indices 1 2 3 4 5 6 
#
# 1 0.011237 -0.004390 -0.002993 0.000000 -0.001984 0.000000
# 2 -0.004390 0.012231 -0.001114 0.000000 0.000304 0.000000
# 3 -0.002993 -0.001114 0.009433 0.000000 -0.001748 0.000000
# 4 0.000000 0.000000 0.000000 0.043041 0.000000 0.002620
# 5 -0.001984 0.000304 -0.001748 0.000000 0.029551 0.000000
# 6 0.000000 0.000000 0.000000 0.002620 0.000000 0.025744
#
#
# Mechanical properties :
#
#
# Convention : Reuss Voigt Hill
#
# Bulk Modulus (GPa) = 62.86616 65.79203 64.32909
# Shear Modulus (GPa) = 32.56625 34.66612 33.61618
#
# Velocity S-wave (km/s) = 3.74950 3.86850 3.80947
# Velocity P-wave (km/s) = 6.77379 6.95385 6.86441
#
# Compressibility (1/GPa) = 0.01590681
#
# Stress axis : x y z
#
# Youngs Moduli (GPa) = 88.99454 81.75719 106.01463
#
# Poissons Ratio (x) = 0.35893 0.31726
# Poissons Ratio (y) = 0.39071 0.11811
# Poissons Ratio (z) = 0.26632 0.09108
#
# Static dielectric constant tensor:
#      x y z
#    x 4.462490 0.000000 -0.020680 
#    y 0.000000 4.253080 0.000000 
#    z -0.020680 0.000000 4.329110 
# 
# 
# High freq. dielectric constant tensor:
#      x y z
#    x 1.934010 0.000000 -0.003390 
#    y 0.000000 1.917450 0.000000 
#    z -0.003390 0.000000 1.918290 
# 
# From -- ./inp_files/24214.got.cif
#   From: 2010.06.25/outbox.cif.g09.slc.cpg/sg9_13_cif.got.tgz:24214.got - 2010.06.27 21:40:51.
