data_PCOD8056067
_publ_section_title
;
Structure prediction by ZEFSAII (Michael W. Deem and Ramdas Pophale) SiO2 
 PCOD8056067
Probable space group: C C
;
_chemical_formula_sum "Si O2"
_cell_formula_units_Z 24
_cell_length_a 10.483416
_cell_length_b 20.510579
_cell_length_c 4.863589
_cell_angle_alpha 90.000000
_cell_angle_beta 86.260465
_cell_angle_gamma 90.000000
_cell_volume 1043.546834
_symmetry_space_group_name_H-M "C C"
_symmetry_group_IT_number 9
_symmetry_cell_setting 'monoclinic'
loop_
_space_group_symop_operation_xyz
x,y,z
x,-y,1/2+z
1/2+x,1/2+y,z
1/2+x,1/2-y,1/2+z
loop_
_atom_site_type_symbol
_atom_site_label
_atom_site_fract_x
_atom_site_fract_y
_atom_site_fract_z
Si Si1 0.120820 0.133515 0.375000
Si Si2 0.086075 0.650136 0.354761
Si Si3 0.520886 0.293514 0.351113
Si Si4 0.396544 0.460007 0.979979
Si Si5 0.368947 0.952900 0.790094
Si Si6 0.253059 0.358246 0.316317
O O1 0.131578 0.184893 0.621662
O O2 0.254585 0.099020 0.304512
O O3 0.026568 0.078740 0.511974
O O4 0.061407 0.174077 0.132005
O O5 0.009091 0.716151 0.311554
O O6 0.135318 0.668547 0.653935
O O7 0.996534 0.587157 0.339669
O O8 0.206691 0.635673 0.136846
O O9 0.378836 0.314709 0.285716
O O10 0.395289 0.528681 0.149878
O O11 0.277006 0.424943 0.140997
O O12 0.362919 0.985553 0.492800
#
# Coordination Sequence:
#
# PCOD8056067 Si02
#       6
#     4   4   4   4   4   4
#     4  11  23  45  70 105 133 181 232 296 338 410
#     4  12  27  43  71  97 141 188 224 293 348 426
#     4  11  25  44  72 100 137 175 241 294 354 401
#     4  11  21  38  68  96 131 174 219 283 339 395
#     4  12  27  47  70 104 146 190 234 279 353 430
#     4  11  25  45  63 104 132 176 238 279 350 418
#
# _framework density 22.998491000000001
#
# number of rings (size 3 to 8) (size 9 to 14) (size 15 to 20)
#    0.000    0.667    0.000    9.000    4.667    4.000 
#    0.000    0.000    0.000    0.000    0.000    0.000 
#    0.000    0.000    0.000    0.000    0.000    0.000 
#
# Total GULP energy -148699.672119 kJ/mol
# GULP energy per Si atom -12391.639343 kJ/mol
# Density = 2.294615 g / cm^3
# Si number density = 22.998491 Si / 1000 Ang^3
#
#
#
# Elastic Constant Matrix: (Units=GPa)
#
#
# Indices 1 2 3 4 5 6 
#
# 1 89.8469 23.7402 8.3693 0.0000 -7.2888 0.0000
# 2 23.7402 88.6661 13.9795 0.0000 -9.8931 0.0000
# 3 8.3693 13.9795 102.6500 0.0000 -0.6111 0.0000
# 4 0.0000 0.0000 0.0000 38.1670 0.0000 -1.5002
# 5 -7.2888 -9.8931 -0.6111 0.0000 27.7020 0.0000
# 6 0.0000 0.0000 0.0000 -1.5002 0.0000 23.4312
#
#
#
# Elastic Compliance Matrix: (Units=1/GPa)
#
#
# Indices 1 2 3 4 5 6 
#
# 1 0.012128 -0.002918 -0.000579 0.000000 0.002136 0.000000
# 2 -0.002918 0.012708 -0.001471 0.000000 0.003738 0.000000
# 3 -0.000579 -0.001471 0.009987 0.000000 -0.000457 0.000000
# 4 0.000000 0.000000 0.000000 0.026267 0.000000 0.001682
# 5 0.002136 0.003738 -0.000457 0.000000 0.037986 0.000000
# 6 0.000000 0.000000 0.000000 0.001682 0.000000 0.042786
#
#
# Mechanical properties :
#
#
# Convention : Reuss Voigt Hill
#
# Bulk Modulus (GPa) = 40.17812 41.48234 40.83023
# Shear Modulus (GPa) = 31.23207 33.53163 32.38185
#
# Velocity S-wave (km/s) = 3.68911 3.82251 3.75640
# Velocity P-wave (km/s) = 5.97109 6.12848 6.05029
#
# Compressibility (1/GPa) = 0.02488917
#
# Stress axis : x y z
#
# Youngs Moduli (GPa) = 82.45238 78.68787 100.13435
#
# Poissons Ratio (x) = 0.22959 0.05796
# Poissons Ratio (y) = 0.24057 0.14725
# Poissons Ratio (z) = 0.04772 0.11572
#
# Static dielectric constant tensor:
#      x y z
#    x 3.991120 0.000000 -0.006860 
#    y 0.000000 4.425830 0.000000 
#    z -0.006860 0.000000 4.400950 
# 
# 
# High freq. dielectric constant tensor:
#      x y z
#    x 1.901550 0.000000 0.000050 
#    y 0.000000 1.919850 0.000000 
#    z 0.000050 0.000000 1.927610 
# 
# From -- ./inp_files/663.got.cif
#   From: 2010.06.25/outbox.cif.g09.slc.cpg/sg9_1_cif.got.tgz:663.got - 2010.06.27 21:40:51.
