data_PCOD8056740
_publ_section_title
;
Structure prediction by ZEFSAII (Michael W. Deem and Ramdas Pophale) SiO2 
 PCOD8056740
Probable space group: C C
;
_chemical_formula_sum "Si O2"
_cell_formula_units_Z 24
_cell_length_a 4.875601
_cell_length_b 12.895034
_cell_length_c 16.883480
_cell_angle_alpha 90.000000
_cell_angle_beta 98.301948
_cell_angle_gamma 90.000000
_cell_volume 1050.358561
_symmetry_space_group_name_H-M "C C"
_symmetry_group_IT_number 9
_symmetry_cell_setting 'monoclinic'
loop_
_space_group_symop_operation_xyz
x,y,z
x,-y,1/2+z
1/2+x,1/2+y,z
1/2+x,1/2-y,1/2+z
loop_
_atom_site_type_symbol
_atom_site_label
_atom_site_fract_x
_atom_site_fract_y
_atom_site_fract_z
Si Si1 0.902900 0.633243 0.202440
Si Si2 0.407296 0.314986 0.085568
Si Si3 0.888136 0.454396 0.082467
Si Si4 0.456656 0.616756 0.309951
Si Si5 0.077924 0.064986 0.926823
Si Si6 0.061865 0.295603 0.429924
O O1 0.832630 0.739348 0.154368
O O2 0.993573 0.544150 0.144888
O O3 0.628993 0.598727 0.237320
O O4 0.147869 0.651272 0.275071
O O5 0.683481 0.377595 0.121082
O O6 0.152102 0.392838 0.059521
O O7 0.467593 0.249944 0.009635
O O8 0.714153 0.499944 0.002756
O O9 0.434458 0.510651 0.358024
O O10 0.604881 0.705849 0.367503
O O11 0.318596 0.127594 0.891309
O O12 0.848779 0.142838 0.952870
#
# Coordination Sequence:
#
# PCOD8056740 Si02
#       6
#     4   4   4   4   4   4
#     4  12  28  46  70 106 147 184 237 302 360 418
#     4  12  26  45  76 104 141 188 243 291 358 434
#     4  12  26  45  76 104 141 188 243 291 358 434
#     4  12  28  46  70 106 147 184 237 302 360 418
#     4  12  26  45  76 104 141 188 243 291 358 434
#     4  12  26  45  76 104 141 188 243 291 358 434
#
# _framework density 22.849340999999999
#
# number of rings (size 3 to 8) (size 9 to 14) (size 15 to 20)
#    0.000    0.000    3.333    6.000    4.667    8.000 
#    0.000    0.000    0.000    0.000    0.000    0.000 
#    0.000    0.000    0.000    0.000    0.000    0.000 
#
# Total GULP energy -148906.708632 kJ/mol
# GULP energy per Si atom -12408.892386 kJ/mol
# Density = 2.279733 g / cm^3
# Si number density = 22.849341 Si / 1000 Ang^3
#
#
#
# Elastic Constant Matrix: (Units=GPa)
#
#
# Indices 1 2 3 4 5 6 
#
# 1 121.5336 30.6458 6.7915 0.0000 -3.4142 0.0000
# 2 30.6458 107.6967 24.9047 0.0000 -0.4878 0.0000
# 3 6.7915 24.9047 67.1886 0.0000 -1.2036 0.0000
# 4 0.0000 0.0000 0.0000 37.3578 0.0000 -1.6144
# 5 -3.4142 -0.4878 -1.2036 0.0000 37.4687 0.0000
# 6 0.0000 0.0000 0.0000 -1.6144 0.0000 56.3574
#
#
#
# Elastic Compliance Matrix: (Units=1/GPa)
#
#
# Indices 1 2 3 4 5 6 
#
# 1 0.008887 -0.002538 0.000057 0.000000 0.000779 0.000000
# 2 -0.002538 0.010881 -0.003780 0.000000 -0.000211 0.000000
# 3 0.000057 -0.003780 0.016288 0.000000 0.000479 0.000000
# 4 0.000000 0.000000 0.000000 0.026801 0.000000 0.000768
# 5 0.000779 -0.000211 0.000479 0.000000 0.026773 0.000000
# 6 0.000000 0.000000 0.000000 0.000768 0.000000 0.017766
#
#
# Mechanical properties :
#
#
# Convention : Reuss Voigt Hill
#
# Bulk Modulus (GPa) = 42.49717 46.78922 44.64319
# Shear Modulus (GPa) = 39.13483 41.84191 40.48837
#
# Velocity S-wave (km/s) = 4.14301 4.28390 4.21405
# Velocity P-wave (km/s) = 6.44401 6.70752 6.57709
#
# Compressibility (1/GPa) = 0.02353098
#
# Stress axis : x y z
#
# Youngs Moduli (GPa) = 112.52434 91.90406 61.39634
#
# Poissons Ratio (x) = 0.23329 -0.00347
# Poissons Ratio (y) = 0.28563 0.23210
# Poissons Ratio (z) = -0.00636 0.34743
#
# Static dielectric constant tensor:
#      x y z
#    x 4.171350 0.000000 -0.019850 
#    y 0.000000 4.534890 0.000000 
#    z -0.019850 0.000000 3.937700 
# 
# 
# High freq. dielectric constant tensor:
#      x y z
#    x 1.916100 0.000000 -0.001680 
#    y 0.000000 1.921740 0.000000 
#    z -0.001680 0.000000 1.896280 
# 
# From -- ./inp_files/21609.got.cif
#   From: 2010.06.25/outbox.cif.g09.slc.cpg/sg9_11_cif.got.tgz:21609.got - 2010.06.27 21:40:51.
