data_PCOD8056346
_publ_section_title
;
Structure prediction by ZEFSAII (Michael W. Deem and Ramdas Pophale) SiO2 
 PCOD8056346
Probable space group: C C
;
_chemical_formula_sum "Si O2"
_cell_formula_units_Z 32
_cell_length_a 13.938868
_cell_length_b 18.764938
_cell_length_c 8.660614
_cell_angle_alpha 90.000000
_cell_angle_beta 140.100776
_cell_angle_gamma 90.000000
_cell_volume 1453.044273
_symmetry_space_group_name_H-M "C C"
_symmetry_group_IT_number 9
_symmetry_cell_setting 'monoclinic'
loop_
_space_group_symop_operation_xyz
x,y,z
x,-y,1/2+z
1/2+x,1/2+y,z
1/2+x,1/2-y,1/2+z
loop_
_atom_site_type_symbol
_atom_site_label
_atom_site_fract_x
_atom_site_fract_y
_atom_site_fract_z
Si Si1 0.025090 0.938000 0.393280
Si Si2 0.114602 0.417599 0.684926
Si Si3 0.583750 0.185949 0.681435
Si Si4 0.736143 0.672540 0.308488
Si Si5 0.545337 0.412855 0.060624
Si Si6 0.786318 0.813031 0.723434
Si Si7 0.702212 0.059543 0.625103
Si Si8 0.311818 0.153092 0.745797
O O1 0.161030 0.888300 0.613460
O O2 0.001507 0.931237 0.181458
O O3 0.872365 0.919738 0.294689
O O4 0.068157 0.018706 0.482071
O O5 0.218457 0.347109 0.796076
O O6 0.191509 0.480363 0.680820
O O7 0.951175 0.400235 0.418450
O O8 0.101591 0.438631 0.847186
O O9 0.642357 0.255307 0.663290
O O10 0.405187 0.186925 0.464664
O O11 0.638163 0.114377 0.668306
O O12 0.649533 0.187915 0.934543
O O13 0.731562 0.647924 0.480661
O O14 0.700675 0.370397 0.244842
O O15 0.419705 0.362972 0.826865
O O16 0.855751 0.734970 0.837370
#
# Coordination Sequence:
#
# PCOD8056346 Si02
#       8
#     4   4   4   4   4   4   4   4
#     4  12  26  47  70 103 139 190 236 290 354 419
#     4  12  25  46  71 105 139 188 236 285 355 411
#     4  11  26  45  75 104 142 188 231 294 348 424
#     4  11  26  47  72 106 142 184 237 286 357 417
#     4  12  27  45  73 103 144 186 234 293 351 416
#     4  11  23  48  72 103 141 187 236 279 354 416
#     4  12  26  45  74  99 145 187 235 294 348 422
#     4  11  27  43  73 105 144 184 229 295 343 425
#
# _framework density 22.022729000000002
#
# number of rings (size 3 to 8) (size 9 to 14) (size 15 to 20)
#    0.000    0.500    3.750    3.000   12.250    2.000 
#    0.000    0.000    0.000    0.000    0.000    0.000 
#    0.000    0.000    0.000    0.000    0.000    0.000 
#
# Total GULP energy -198469.485325 kJ/mol
# GULP energy per Si atom -12404.342833 kJ/mol
# Density = 2.197260 g / cm^3
# Si number density = 22.022729 Si / 1000 Ang^3
#
#
#
# Elastic Constant Matrix: (Units=GPa)
#
#
# Indices 1 2 3 4 5 6 
#
# 1 108.3693 41.1025 28.5394 0.0000 23.5802 0.0000
# 2 41.1025 126.4873 48.2758 0.0000 13.7292 0.0000
# 3 28.5394 48.2758 92.4647 0.0000 19.3198 0.0000
# 4 0.0000 0.0000 0.0000 40.1179 0.0000 4.5419
# 5 23.5802 13.7292 19.3198 0.0000 46.6218 0.0000
# 6 0.0000 0.0000 0.0000 4.5419 0.0000 33.5136
#
#
#
# Elastic Compliance Matrix: (Units=1/GPa)
#
#
# Indices 1 2 3 4 5 6 
#
# 1 0.011597 -0.002836 -0.001147 0.000000 -0.004555 0.000000
# 2 -0.002836 0.010598 -0.004713 0.000000 0.000267 0.000000
# 3 -0.001147 -0.004713 0.014472 0.000000 -0.004029 0.000000
# 4 0.000000 0.000000 0.000000 0.025315 0.000000 -0.003431
# 5 -0.004555 0.000267 -0.004029 0.000000 0.025344 0.000000
# 6 0.000000 0.000000 0.000000 -0.003431 0.000000 0.030304
#
#
# Mechanical properties :
#
#
# Convention : Reuss Voigt Hill
#
# Bulk Modulus (GPa) = 51.88646 62.57297 57.22971
# Shear Modulus (GPa) = 35.34943 38.01090 36.68016
#
# Velocity S-wave (km/s) = 4.01076 4.15900 4.08555
# Velocity P-wave (km/s) = 6.71266 7.17897 6.94973
#
# Compressibility (1/GPa) = 0.01927285
#
# Stress axis : x y z
#
# Youngs Moduli (GPa) = 86.23260 94.36180 69.10124
#
# Poissons Ratio (x) = 0.26763 0.07925
# Poissons Ratio (y) = 0.24458 0.32570
# Poissons Ratio (z) = 0.09889 0.44476
#
# Static dielectric constant tensor:
#      x y z
#    x 3.956200 0.000000 0.097630 
#    y 0.000000 4.179800 0.000000 
#    z 0.097630 0.000000 3.871950 
# 
# 
# High freq. dielectric constant tensor:
#      x y z
#    x 1.872960 0.000000 0.012140 
#    y 0.000000 1.880360 0.000000 
#    z 0.012140 0.000000 1.862040 
# 
# From -- ./inp_files/9958.got.cif
#   From: 2010.06.25/outbox.cif.g09.slc.cpg/sg9_5_cif.got.tgz:9958.got - 2010.06.27 21:40:51.
