data_PCOD8056159
_publ_section_title
;
Structure prediction by ZEFSAII (Michael W. Deem and Ramdas Pophale) SiO2 
 PCOD8056159
Probable space group: C C
;
_chemical_formula_sum "Si O2"
_cell_formula_units_Z 32
_cell_length_a 16.968850
_cell_length_b 9.760974
_cell_length_c 10.636066
_cell_angle_alpha 90.000000
_cell_angle_beta 53.549901
_cell_angle_gamma 90.000000
_cell_volume 1417.049245
_symmetry_space_group_name_H-M "C C"
_symmetry_group_IT_number 9
_symmetry_cell_setting 'monoclinic'
loop_
_space_group_symop_operation_xyz
x,y,z
x,-y,1/2+z
1/2+x,1/2+y,z
1/2+x,1/2-y,1/2+z
loop_
_atom_site_type_symbol
_atom_site_label
_atom_site_fract_x
_atom_site_fract_y
_atom_site_fract_z
Si Si1 0.177550 0.608647 0.989240
Si Si2 0.706549 0.472575 0.480445
Si Si3 0.639348 0.179459 0.477329
Si Si4 0.784892 0.883182 0.630084
Si Si5 0.027311 0.825763 0.167940
Si Si6 0.827159 0.456561 0.613592
Si Si7 0.849543 0.153268 0.649953
Si Si8 0.456218 0.797814 0.996691
O O1 0.147069 0.453449 0.060713
O O2 0.241040 0.631407 0.805955
O O3 0.246859 0.669730 0.032459
O O4 0.079019 0.693521 0.059359
O O5 0.691023 0.309495 0.489409
O O6 0.601772 0.546616 0.591792
O O7 0.763130 0.504173 0.555579
O O8 0.767638 0.523898 0.301111
O O9 0.688646 0.115658 0.306578
O O10 0.528921 0.218913 0.545035
O O11 0.853539 0.770592 0.630854
O O12 0.850214 0.023463 0.553822
O O13 0.932592 0.864650 0.176846
O O14 0.997735 0.782253 0.336486
O O15 0.858488 0.297711 0.570838
O O16 0.928897 0.541412 0.507812
#
# Coordination Sequence:
#
# PCOD8056159 Si02
#       8
#     4   4   4   4   4   4   4   4
#     4  11  22  43  65  93 136 179 227 284 349 413
#     4  12  25  46  70 103 144 186 234 294 354 415
#     4  11  24  41  66  98 134 179 229 286 347 416
#     4  11  22  43  65  93 136 179 227 284 349 413
#     4  12  23  43  70  98 134 186 232 280 354 426
#     4  12  25  46  70 103 144 186 234 294 354 415
#     4  11  24  41  66  98 134 179 229 286 347 416
#     4  12  23  43  70  98 134 186 232 280 354 426
#
# _framework density 22.582135999999998
#
# number of rings (size 3 to 8) (size 9 to 14) (size 15 to 20)
#    0.000    0.500    5.000    4.500    0.000    0.000 
#    0.000    2.500    0.000    0.000    0.000    0.000 
#    0.000    0.000    0.000    0.000    0.000    0.000 
#
# Total GULP energy -198314.016235 kJ/mol
# GULP energy per Si atom -12394.626015 kJ/mol
# Density = 2.253074 g / cm^3
# Si number density = 22.582136 Si / 1000 Ang^3
#
#
#
# Elastic Constant Matrix: (Units=GPa)
#
#
# Indices 1 2 3 4 5 6 
#
# 1 80.5685 -12.4279 14.8688 0.0000 4.4604 0.0000
# 2 -12.4279 106.6481 -0.4019 0.0000 -2.5669 0.0000
# 3 14.8688 -0.4019 63.1672 0.0000 1.2838 0.0000
# 4 0.0000 0.0000 0.0000 31.4804 0.0000 -7.2667
# 5 4.4604 -2.5669 1.2838 0.0000 27.7766 0.0000
# 6 0.0000 0.0000 0.0000 -7.2667 0.0000 42.7055
#
#
#
# Elastic Compliance Matrix: (Units=1/GPa)
#
#
# Indices 1 2 3 4 5 6 
#
# 1 0.013315 0.001495 -0.003087 0.000000 -0.001857 0.000000
# 2 0.001495 0.009566 -0.000304 0.000000 0.000658 0.000000
# 3 -0.003087 -0.000304 0.016562 0.000000 -0.000298 0.000000
# 4 0.000000 0.000000 0.000000 0.033065 0.000000 0.005626
# 5 -0.001857 0.000658 -0.000298 0.000000 0.036374 0.000000
# 6 0.000000 0.000000 0.000000 0.005626 0.000000 0.024374
#
#
# Mechanical properties :
#
#
# Convention : Reuss Voigt Hill
#
# Bulk Modulus (GPa) = 28.05045 28.27352 28.16198
# Shear Modulus (GPa) = 33.57276 36.94881 35.26078
#
# Velocity S-wave (km/s) = 3.85995 4.04938 3.95580
# Velocity P-wave (km/s) = 5.68455 5.86607 5.77602
#
# Compressibility (1/GPa) = 0.03565005
#
# Stress axis : x y z
#
# Youngs Moduli (GPa) = 75.10348 104.54158 60.38011
#
# Poissons Ratio (x) = -0.15632 0.18639
# Poissons Ratio (y) = -0.11230 0.01838
# Poissons Ratio (z) = 0.23184 0.03183
#
# Static dielectric constant tensor:
#      x y z
#    x 4.079440 0.000000 -0.158160 
#    y 0.000000 4.455050 0.000000 
#    z -0.158160 0.000000 3.874260 
# 
# 
# High freq. dielectric constant tensor:
#      x y z
#    x 1.897460 0.000000 -0.010010 
#    y 0.000000 1.912930 0.000000 
#    z -0.010010 0.000000 1.868160 
# 
# From -- ./inp_files/19131.got.cif
#   From: 2010.06.25/outbox.cif.g09.slc.cpg/sg9_10_cif.got.tgz:19131.got - 2010.06.27 21:40:51.
