data_PCOD8056623
_publ_section_title
;
Structure prediction by ZEFSAII (Michael W. Deem and Ramdas Pophale) SiO2 
 PCOD8056623
Probable space group: C C
;
_chemical_formula_sum "Si O2"
_cell_formula_units_Z 32
_cell_length_a 16.332986
_cell_length_b 17.615800
_cell_length_c 9.849512
_cell_angle_alpha 90.000000
_cell_angle_beta 26.630054
_cell_angle_gamma 90.000000
_cell_volume 1270.228061
_symmetry_space_group_name_H-M "C C"
_symmetry_group_IT_number 9
_symmetry_cell_setting 'monoclinic'
loop_
_space_group_symop_operation_xyz
x,y,z
x,-y,1/2+z
1/2+x,1/2+y,z
1/2+x,1/2-y,1/2+z
loop_
_atom_site_type_symbol
_atom_site_label
_atom_site_fract_x
_atom_site_fract_y
_atom_site_fract_z
Si Si1 0.346190 0.406174 0.041070
Si Si2 0.117062 0.034798 0.684721
Si Si3 0.523637 0.965189 0.682645
Si Si4 0.955872 0.687920 0.431894
Si Si5 0.516899 0.271373 0.914476
Si Si6 0.184791 0.187919 0.435560
Si Si7 0.294543 0.593811 0.326255
Si Si8 0.123798 0.728603 0.452924
O O1 0.155280 0.446036 0.361129
O O2 0.517353 0.463304 0.763155
O O3 0.387261 0.345399 0.096573
O O4 0.320365 0.364599 0.933660
O O5 0.320360 0.012770 0.433658
O O6 0.129214 0.102803 0.556781
O O7 0.985442 0.053940 0.006220
O O8 0.511438 0.897193 0.810664
O O9 0.623372 0.036681 0.604173
O O10 0.742246 0.702078 0.712708
O O11 0.968167 0.704957 0.576550
O O12 0.070336 0.750004 0.183733
O O13 0.672516 0.295022 0.790881
O O14 0.570355 0.249975 0.683698
O O15 0.398418 0.202069 0.154760
O O16 0.253471 0.654585 0.270748
#
# Coordination Sequence:
#
# PCOD8056623 Si02
#       8
#     4   4   4   4   4   4   4   4
#     4  11  27  48  73 107 156 192 246 315 373 437
#     4  11  27  47  76 108 145 201 252 301 372 454
#     4  11  27  47  76 108 145 201 252 301 372 454
#     4  12  25  45  77 105 144 195 251 300 368 448
#     4  12  27  48  72 109 149 193 246 313 375 439
#     4  12  25  45  77 105 144 195 251 300 368 448
#     4  11  27  48  73 107 156 192 246 315 373 437
#     4  12  27  48  72 109 149 193 246 313 375 439
#
# _framework density 25.192326000000001
#
# number of rings (size 3 to 8) (size 9 to 14) (size 15 to 20)
#    0.000    0.500    2.500    4.500   10.500    3.000 
#    0.000    0.000    0.000    0.000    0.000    0.000 
#    0.000    0.000    0.000    0.000    0.000    0.000 
#
# Total GULP energy -198313.666164 kJ/mol
# GULP energy per Si atom -12394.604135 kJ/mol
# Density = 2.513499 g / cm^3
# Si number density = 25.192326 Si / 1000 Ang^3
#
#
#
# Elastic Constant Matrix: (Units=GPa)
#
#
# Indices 1 2 3 4 5 6 
#
# 1 115.1845 18.5501 26.6994 0.0093 1.0040 -0.0088
# 2 18.5501 102.7062 24.0092 -0.0091 -8.0425 0.0004
# 3 26.6994 24.0092 113.0733 -0.0046 -23.1814 -0.0046
# 4 0.0093 -0.0091 -0.0046 42.3460 -0.0024 6.3556
# 5 1.0040 -8.0425 -23.1814 -0.0024 44.8755 0.0045
# 6 -0.0088 0.0004 -0.0046 6.3556 0.0045 35.4373
#
#
#
# Elastic Compliance Matrix: (Units=1/GPa)
#
#
# Indices 1 2 3 4 5 6 
#
# 1 0.009434 -0.001297 -0.002285 -0.000003 -0.001624 0.000003
# 2 -0.001297 0.010449 -0.001703 0.000003 0.001022 -0.000001
# 3 -0.002285 -0.001703 0.010841 0.000002 0.005346 0.000000
# 4 -0.000003 0.000003 0.000002 0.024268 0.000003 -0.004352
# 5 -0.001624 0.001022 0.005346 0.000003 0.025265 -0.000003
# 6 0.000003 -0.000001 0.000000 -0.004352 -0.000003 0.028999
#
#
# Mechanical properties :
#
#
# Convention : Reuss Voigt Hill
#
# Bulk Modulus (GPa) = 49.61754 52.16460 50.89107
# Shear Modulus (GPa) = 39.51156 41.97879 40.74518
#
# Velocity S-wave (km/s) = 3.96460 4.08650 4.02601
# Velocity P-wave (km/s) = 6.37931 6.55877 6.46966
#
# Compressibility (1/GPa) = 0.02015416
#
# Stress axis : x y z
#
# Youngs Moduli (GPa) = 105.99430 95.70424 92.24222
#
# Poissons Ratio (x) = 0.12412 0.21080
# Poissons Ratio (y) = 0.13747 0.15708
# Poissons Ratio (z) = 0.24223 0.16297
#
# Static dielectric constant tensor:
#      x y z
#    x 4.641020 0.000010 -0.204960 
#    y 0.000010 4.842810 0.000020 
#    z -0.204960 0.000020 4.594580 
# 
# 
# High freq. dielectric constant tensor:
#      x y z
#    x 2.006280 0.000000 -0.004150 
#    y 0.000000 2.006080 0.000000 
#    z -0.004150 0.000000 2.014950 
# 
# From -- ./inp_files/10092.got.cif
#   From: 2010.06.25/outbox.cif.g09.slc.cpg/sg9_6_cif.got.tgz:10092.got - 2010.06.27 21:40:51.
