data_PCOD8056732
_publ_section_title
;
Structure prediction by ZEFSAII (Michael W. Deem and Ramdas Pophale) SiO2 
 PCOD8056732
Probable space group: C C
;
_chemical_formula_sum "Si O2"
_cell_formula_units_Z 28
_cell_length_a 8.077534
_cell_length_b 16.195749
_cell_length_c 10.317154
_cell_angle_alpha 90.000000
_cell_angle_beta 59.363196
_cell_angle_gamma 90.000000
_cell_volume 1161.308623
_symmetry_space_group_name_H-M "C C"
_symmetry_group_IT_number 9
_symmetry_cell_setting 'monoclinic'
loop_
_space_group_symop_operation_xyz
x,y,z
x,-y,1/2+z
1/2+x,1/2+y,z
1/2+x,1/2-y,1/2+z
loop_
_atom_site_type_symbol
_atom_site_label
_atom_site_fract_x
_atom_site_fract_y
_atom_site_fract_z
Si Si1 0.333500 0.861089 0.214200
Si Si2 0.054912 0.273679 0.894001
Si Si3 0.764127 0.070707 0.330681
Si Si4 0.137971 0.017077 0.602373
Si Si5 0.248213 0.279094 0.305570
Si Si6 0.978922 0.857980 0.978406
Si Si7 0.992554 0.574027 0.898648
O O1 0.195248 0.804350 0.359236
O O2 0.486779 0.906242 0.246853
O O3 0.196543 0.929199 0.203319
O O4 0.453169 0.804910 0.065907
O O5 0.194295 0.346670 0.784549
O O6 0.895867 0.249475 0.854486
O O7 0.829427 0.092521 0.450071
O O8 0.925172 0.019371 0.193239
O O9 0.576093 0.014063 0.406702
O O10 0.272844 0.936536 0.533589
O O11 0.131466 0.078717 0.481936
O O12 0.362824 0.305777 0.132097
O O13 0.101432 0.203649 0.337464
O O14 0.119109 0.354387 0.414935
#
# Coordination Sequence:
#
# PCOD8056732 Si02
#       7
#     4   4   4   4   4   4   4
#     4  12  26  51  77 115 155 202 267 313 396 468
#     4  12  25  50  80 114 154 207 258 322 388 471
#     4  12  27  48  78 112 159 203 257 328 390 461
#     4  12  26  50  78 116 152 206 260 324 390 466
#     4  12  25  50  80 114 154 207 258 322 388 471
#     4  12  26  51  77 115 155 202 267 313 396 468
#     4  12  27  48  78 112 159 203 257 328 390 461
#
# _framework density 24.110731999999999
#
# number of rings (size 3 to 8) (size 9 to 14) (size 15 to 20)
#    0.000    0.000    5.714    2.571    4.000    0.000 
#    5.143    0.000    0.000    0.000    0.000    0.000 
#    0.000    0.000    0.000    0.000    0.000    0.000 
#
# Total GULP energy -173562.458561 kJ/mol
# GULP energy per Si atom -12397.318469 kJ/mol
# Density = 2.405586 g / cm^3
# Si number density = 24.110732 Si / 1000 Ang^3
#
#
#
# Elastic Constant Matrix: (Units=GPa)
#
#
# Indices 1 2 3 4 5 6 
#
# 1 144.0565 69.5605 26.7628 0.0000 16.3601 0.0000
# 2 69.5605 131.1901 38.0214 0.0000 6.3261 0.0000
# 3 26.7628 38.0214 73.9049 0.0000 -5.5110 0.0000
# 4 0.0000 0.0000 0.0000 51.2175 0.0000 -7.9310
# 5 16.3601 6.3261 -5.5110 0.0000 43.2453 0.0000
# 6 0.0000 0.0000 0.0000 -7.9310 0.0000 75.0579
#
#
#
# Elastic Compliance Matrix: (Units=1/GPa)
#
#
# Indices 1 2 3 4 5 6 
#
# 1 0.009807 -0.004638 -0.001405 0.000000 -0.003211 0.000000
# 2 -0.004638 0.011312 -0.004172 0.000000 -0.000432 0.000000
# 3 -0.001405 -0.004172 0.016427 0.000000 0.003235 0.000000
# 4 0.000000 0.000000 0.000000 0.019849 0.000000 0.002097
# 5 -0.003211 -0.000432 0.003235 0.000000 0.024814 0.000000
# 6 0.000000 0.000000 0.000000 0.002097 0.000000 0.013545
#
#
# Mechanical properties :
#
#
# Convention : Reuss Voigt Hill
#
# Bulk Modulus (GPa) = 58.42396 68.64900 63.53648
# Shear Modulus (GPa) = 41.02108 48.22456 44.62282
#
# Velocity S-wave (km/s) = 4.12923 4.47713 4.30670
# Velocity P-wave (km/s) = 6.85698 7.43374 7.15118
#
# Compressibility (1/GPa) = 0.01711627
#
# Stress axis : x y z
#
# Youngs Moduli (GPa) = 101.97005 88.40427 60.87454
#
# Poissons Ratio (x) = 0.41001 0.08551
# Poissons Ratio (y) = 0.47293 0.25398
# Poissons Ratio (z) = 0.14323 0.36884
#
# Static dielectric constant tensor:
#      x y z
#    x 4.651980 0.000000 -0.271330 
#    y 0.000000 4.756140 0.000000 
#    z -0.271330 0.000000 4.156190 
# 
# 
# High freq. dielectric constant tensor:
#      x y z
#    x 1.985240 0.000000 -0.018410 
#    y 0.000000 1.974850 0.000000 
#    z -0.018410 0.000000 1.932410 
# 
# From -- ./inp_files/14518.got.cif
#   From: 2010.06.25/outbox.cif.g09.slc.cpg/sg9_8_cif.got.tgz:14518.got - 2010.06.27 21:40:51.
