data_PCOD8056354
_publ_section_title
;
Structure prediction by ZEFSAII (Michael W. Deem and Ramdas Pophale) SiO2 
 PCOD8056354
Probable space group: C C
;
_chemical_formula_sum "Si O2"
_cell_formula_units_Z 28
_cell_length_a 8.339862
_cell_length_b 11.624968
_cell_length_c 11.358863
_cell_angle_alpha 90.000000
_cell_angle_beta 84.397216
_cell_angle_gamma 90.000000
_cell_volume 1095.987868
_symmetry_space_group_name_H-M "C C"
_symmetry_group_IT_number 9
_symmetry_cell_setting 'monoclinic'
loop_
_space_group_symop_operation_xyz
x,y,z
x,-y,1/2+z
1/2+x,1/2+y,z
1/2+x,1/2-y,1/2+z
loop_
_atom_site_type_symbol
_atom_site_label
_atom_site_fract_x
_atom_site_fract_y
_atom_site_fract_z
Si Si1 0.355550 0.294111 0.281070
Si Si2 0.607532 0.624324 0.934832
Si Si3 0.836031 0.411754 0.937336
Si Si4 0.543830 0.202906 0.065016
Si Si5 0.872862 0.190198 0.384871
Si Si6 0.384670 0.745885 0.123449
Si Si7 0.145126 0.480031 0.378448
O O1 0.516920 0.360661 0.315859
O O2 0.284555 0.211092 0.387313
O O3 0.387267 0.220261 0.161149
O O4 0.212533 0.389061 0.277636
O O5 0.686686 0.498716 0.943950
O O6 0.745591 0.717587 0.941198
O O7 0.477341 0.645419 0.046550
O O8 0.987940 0.451838 0.843776
O O9 0.901379 0.374652 0.064166
O O10 0.694806 0.220749 0.138357
O O11 0.520592 0.302587 0.966848
O O12 0.565954 0.079113 0.001192
O O13 0.940767 0.234128 0.254252
O O14 0.795456 0.063742 0.395050
#
# Coordination Sequence:
#
# PCOD8056354 Si02
#       7
#     4   4   4   4   4   4   4
#     4  11  26  49  75 111 153 197 257 323 383 464
#     4  11  23  49  74 109 150 200 253 321 382 461
#     4  11  24  49  76 107 154 204 252 318 397 452
#     4  12  26  48  77 113 150 206 257 314 398 460
#     4  12  27  49  75 116 150 202 266 310 393 467
#     4  11  25  51  73 110 161 193 257 331 374 467
#     4  12  25  49  76 110 154 200 258 319 387 467
#
# _framework density 25.547727999999999
#
# number of rings (size 3 to 8) (size 9 to 14) (size 15 to 20)
#    0.000    0.571    8.571    0.000    2.000    5.714 
#    2.571    0.000    0.000    0.000    0.000    0.000 
#    0.000    0.000    0.000    0.000    0.000    0.000 
#
# Total GULP energy -173449.578964 kJ/mol
# GULP energy per Si atom -12389.255640 kJ/mol
# Density = 2.548958 g / cm^3
# Si number density = 25.547728 Si / 1000 Ang^3
#
#
#
# Elastic Constant Matrix: (Units=GPa)
#
#
# Indices 1 2 3 4 5 6 
#
# 1 62.0130 32.9728 12.7996 0.0000 -18.0606 0.0000
# 2 32.9728 147.5969 24.1046 0.0000 -18.5735 0.0000
# 3 12.7996 24.1046 117.1929 0.0000 -11.6251 0.0000
# 4 0.0000 0.0000 0.0000 29.6938 0.0000 -12.9629
# 5 -18.0606 -18.5735 -11.6251 0.0000 32.4137 0.0000
# 6 0.0000 0.0000 0.0000 -12.9629 0.0000 54.5556
#
#
#
# Elastic Compliance Matrix: (Units=1/GPa)
#
#
# Indices 1 2 3 4 5 6 
#
# 1 0.020788 -0.003352 -0.000646 0.000000 0.009430 0.000000
# 2 -0.003352 0.007989 -0.001045 0.000000 0.002335 0.000000
# 3 -0.000646 -0.001045 0.009045 0.000000 0.002285 0.000000
# 4 0.000000 0.000000 0.000000 0.037575 0.000000 0.008928
# 5 0.009430 0.002335 0.002285 0.000000 0.038263 0.000000
# 6 0.000000 0.000000 0.000000 0.008928 0.000000 0.020451
#
#
# Mechanical properties :
#
#
# Convention : Reuss Voigt Hill
#
# Bulk Modulus (GPa) = 36.05432 51.83964 43.94698
# Shear Modulus (GPa) = 32.58579 40.46102 36.52340
#
# Velocity S-wave (km/s) = 3.57527 3.98394 3.78513
# Velocity P-wave (km/s) = 5.58449 6.44187 6.02845
#
# Compressibility (1/GPa) = 0.02773593
#
# Stress axis : x y z
#
# Youngs Moduli (GPa) = 48.10573 125.17911 110.55638
#
# Poissons Ratio (x) = 0.41957 0.07137
# Poissons Ratio (y) = 0.16124 0.11558
# Poissons Ratio (z) = 0.03105 0.13086
#
# Static dielectric constant tensor:
#      x y z
#    x 4.835730 0.000000 -0.060530 
#    y 0.000000 4.769250 0.000000 
#    z -0.060530 0.000000 4.339010 
# 
# 
# High freq. dielectric constant tensor:
#      x y z
#    x 2.042960 0.000000 -0.015700 
#    y 0.000000 2.021460 0.000000 
#    z -0.015700 0.000000 1.995060 
# 
# From -- ./inp_files/14217.got.cif
#   From: 2010.06.25/outbox.cif.g09.slc.cpg/sg9_8_cif.got.tgz:14217.got - 2010.06.27 21:40:51.
