data_PCOD8056940
_publ_section_title
;
Structure prediction by ZEFSAII (Michael W. Deem and Ramdas Pophale) SiO2 
 PCOD8056940
Probable space group: P 2/M
;
_chemical_formula_sum "Si O2"
_cell_formula_units_Z 28
_cell_length_a 18.263729
_cell_length_b 8.035137
_cell_length_c 24.061174
_cell_angle_alpha 90.000000
_cell_angle_beta 156.249518
_cell_angle_gamma 90.000000
_cell_volume 1422.131765
_symmetry_space_group_name_H-M "P 2/M"
_symmetry_group_IT_number 10
_symmetry_cell_setting 'monoclinic'
loop_
_space_group_symop_operation_xyz
x,y,z
-x,y,-z
-x,-y,-z
x,-y,z
loop_
_atom_site_type_symbol
_atom_site_label
_atom_site_fract_x
_atom_site_fract_y
_atom_site_fract_z
Si Si1 0.053499 0.311409 0.693306
Si Si2 0.895186 0.692263 0.795904
Si Si3 0.599922 0.809979 0.673671
Si Si4 0.841470 0.680108 0.434603
Si Si5 0.218914 0.000000 0.657235
Si Si6 0.809416 0.809717 0.618036
Si Si7 0.704976 0.000000 0.161395
Si Si8 0.834825 0.316243 0.927402
O O1 0.135447 0.500000 0.745692
O O2 0.207443 0.169590 0.801688
O O3 0.922770 0.273896 0.550746
O O4 0.937659 0.302514 0.669036
O O5 0.916531 0.500000 0.794446
O O6 0.719116 0.706549 0.713024
O O7 0.874912 0.801352 0.726991
O O8 0.078380 0.756261 0.955158
O O9 0.395454 0.740183 0.529722
O O10 0.676425 0.795684 0.790166
O O11 0.603983 0.000000 0.657087
O O12 0.738931 0.500000 0.365707
O O13 0.000000 0.664782 0.500000
O O14 0.708628 0.831858 0.323404
O O15 0.287935 0.000000 0.767438
O O16 0.000000 0.000000 0.500000
O O17 0.819422 0.000000 0.604427
O O18 0.500000 0.000000 0.000000
O O19 0.753416 0.500000 0.881386
O O20 0.000000 0.329006 0.000000
#
# Coordination Sequence:
#
# PCOD8056940 Si02
#       8
#     4   4   4   4   2   4   2   4
#     4  11  22  39  62  88 119 156 192 234 296 353
#     4  10  20  34  53  78 110 154 201 240 286 346
#     4  10  20  33  52  82 111 143 195 250 290 336
#     4   9  16  29  57  88 110 139 187 231 269 328
#     4  10  16  32  62  88 112 148 177 225 272 326
#     4  11  23  36  55  80 115 152 191 243 293 343
#     4  12  24  40  64  94 125 150 188 237 288 343
#     4   8  16  31  51  73 102 139 183 239 289 333
#
# _framework density 19.688752000000001
#
# number of rings (size 3 to 8) (size 9 to 14) (size 15 to 20)
#    0.000    2.000    3.571    2.571    0.000    7.429 
#    0.000    0.000    3.143    0.000    0.000    0.000 
#    0.000    0.000    0.000    0.000    0.000    0.000 
#
# Total GULP energy -347023.789619 kJ/mol
# GULP energy per Si atom -12393.706772 kJ/mol
# Density = 1.964394 g / cm^3
# Si number density = 19.688752 Si / 1000 Ang^3
#
#
#
# Elastic Constant Matrix: (Units=GPa)
#
#
# Indices 1 2 3 4 5 6 
#
# 1 80.2499 28.5246 59.8889 0.0000 -16.5065 0.0000
# 2 28.5246 112.8345 33.2039 0.0000 -1.9832 0.0000
# 3 59.8889 33.2039 97.1889 0.0000 -29.5065 0.0000
# 4 0.0000 0.0000 0.0000 18.5720 0.0000 -12.5219
# 5 -16.5065 -1.9832 -29.5065 0.0000 20.1235 0.0000
# 6 0.0000 0.0000 0.0000 -12.5219 0.0000 19.3029
#
#
#
# Elastic Compliance Matrix: (Units=1/GPa)
#
#
# Indices 1 2 3 4 5 6 
#
# 1 0.023472 -0.001681 -0.014589 0.000000 -0.002303 0.000000
# 2 -0.001681 0.010579 -0.004831 0.000000 -0.007420 0.000000
# 3 -0.014589 -0.004831 0.030913 0.000000 0.032884 0.000000
# 4 0.000000 0.000000 0.000000 0.095703 0.000000 0.062083
# 5 -0.002303 -0.007420 0.032884 0.000000 0.095290 0.000000
# 6 0.000000 0.000000 0.000000 0.062083 0.000000 0.092080
#
#
# Mechanical properties :
#
#
# Convention : Reuss Voigt Hill
#
# Bulk Modulus (GPa) = 43.93215 59.27866 51.60540
# Shear Modulus (GPa) = 12.56833 22.84340 17.70587
#
# Velocity S-wave (km/s) = 2.52930 3.40990 3.00207
# Velocity P-wave (km/s) = 5.55802 6.75844 6.18741
#
# Compressibility (1/GPa) = 0.02276237
#
# Stress axis : x y z
#
# Youngs Moduli (GPa) = 42.60366 94.52965 32.34887
#
# Poissons Ratio (x) = 0.15892 0.47193
# Poissons Ratio (y) = 0.07163 0.15627
# Poissons Ratio (z) = 0.62153 0.45665
#
# Static dielectric constant tensor:
#      x y z
#    x 3.281690 0.000000 -0.342190 
#    y 0.000000 4.559510 0.000000 
#    z -0.342190 0.000000 3.543360 
# 
# 
# High freq. dielectric constant tensor:
#      x y z
#    x 1.745560 0.000000 -0.035140 
#    y 0.000000 1.783250 0.000000 
#    z -0.035140 0.000000 1.735530 
# 
# From -- ./inp_files/85023.got.cif
#   From: 2010.06.25/outbox.cif.g09.slc.cpg/sg10_43_cif.got.tgz:85023.got - 2010.06.27 22:07:45.
