data_PCOD8056545
_publ_section_title
;
Structure prediction by ZEFSAII (Michael W. Deem and Ramdas Pophale) SiO2 
 PCOD8056545
Probable space group: C C
;
_chemical_formula_sum "Si O2"
_cell_formula_units_Z 28
_cell_length_a 19.784203
_cell_length_b 6.594318
_cell_length_c 11.962670
_cell_angle_alpha 90.000000
_cell_angle_beta 53.146209
_cell_angle_gamma 90.000000
_cell_volume 1248.814962
_symmetry_space_group_name_H-M "C C"
_symmetry_group_IT_number 9
_symmetry_cell_setting 'monoclinic'
loop_
_space_group_symop_operation_xyz
x,y,z
x,-y,1/2+z
1/2+x,1/2+y,z
1/2+x,1/2-y,1/2+z
loop_
_atom_site_type_symbol
_atom_site_label
_atom_site_fract_x
_atom_site_fract_y
_atom_site_fract_z
Si Si1 0.496210 0.303522 0.147240
Si Si2 0.298779 0.819284 0.445320
Si Si3 0.647145 0.563317 0.941872
Si Si4 0.405343 0.172634 0.445954
Si Si5 0.055748 0.458638 0.943786
Si Si6 0.716392 0.798988 0.245245
Si Si7 0.855654 0.056335 0.195721
O O1 0.447548 0.317903 0.312370
O O2 0.437891 0.412287 0.111260
O O3 0.584277 0.419537 0.072436
O O4 0.517763 0.072504 0.090308
O O5 0.212088 0.853412 0.466405
O O6 0.274147 0.689331 0.578047
O O7 0.360667 0.693995 0.302482
O O8 0.342453 0.025709 0.441582
O O9 0.593229 0.740260 0.937218
O O10 0.699254 0.433498 0.798172
O O11 0.480099 0.051176 0.431163
O O12 0.353781 0.302911 0.587624
O O13 0.127338 0.592591 0.813399
O O14 0.770253 0.921372 0.285186
#
# Coordination Sequence:
#
# PCOD8056545 Si02
#       7
#     4   4   4   4   4   4   4
#     4  11  26  43  74 100 140 188 236 292 361 421
#     4  12  26  43  75 102 142 189 238 293 366 422
#     4  11  25  48  68 103 144 185 238 296 351 433
#     4  12  26  43  75 102 142 189 238 293 366 422
#     4  11  25  48  68 103 144 185 238 296 351 433
#     4  11  26  43  74 100 140 188 236 292 361 421
#     4  12  24  48  68 106 148 180 242 306 352 434
#
# _framework density 22.421256
#
# number of rings (size 3 to 8) (size 9 to 14) (size 15 to 20)
#    0.000    0.571    2.857    4.286    4.000    0.000 
#    0.000    0.000    0.000    0.000    0.000    0.000 
#    0.000    0.000    0.000    0.000    0.000    0.000 
#
# Total GULP energy -173656.843634 kJ/mol
# GULP energy per Si atom -12404.060260 kJ/mol
# Density = 2.237022 g / cm^3
# Si number density = 22.421256 Si / 1000 Ang^3
#
#
#
# Elastic Constant Matrix: (Units=GPa)
#
#
# Indices 1 2 3 4 5 6 
#
# 1 72.8350 18.6286 3.7448 0.0000 -9.0304 0.0000
# 2 18.6286 113.8572 46.9391 -0.0001 2.0306 0.0000
# 3 3.7448 46.9391 128.9818 -0.0001 4.2491 0.0000
# 4 0.0000 -0.0001 -0.0001 32.6937 0.0000 -0.0692
# 5 -9.0304 2.0306 4.2491 0.0000 31.1424 0.0000
# 6 0.0000 0.0000 0.0000 -0.0692 0.0000 50.4401
#
#
#
# Elastic Compliance Matrix: (Units=1/GPa)
#
#
# Indices 1 2 3 4 5 6 
#
# 1 0.014950 -0.002689 0.000398 0.000000 0.004456 0.000000
# 2 -0.002689 0.010818 -0.003827 0.000000 -0.000963 0.000000
# 3 0.000398 -0.003827 0.009163 0.000000 -0.000885 0.000000
# 4 0.000000 0.000000 0.000000 0.030587 0.000000 0.000042
# 5 0.004456 -0.000963 -0.000885 0.000000 0.033586 0.000000
# 6 0.000000 0.000000 0.000000 0.000042 0.000000 0.019826
#
#
# Mechanical properties :
#
#
# Convention : Reuss Voigt Hill
#
# Bulk Modulus (GPa) = 44.06520 50.47766 47.27143
# Shear Modulus (GPa) = 36.04088 39.27935 37.66012
#
# Velocity S-wave (km/s) = 4.01364 4.19009 4.10281
# Velocity P-wave (km/s) = 6.41678 6.78021 6.60100
#
# Compressibility (1/GPa) = 0.02269364
#
# Stress axis : x y z
#
# Youngs Moduli (GPa) = 66.89162 92.43942 109.13000
#
# Poissons Ratio (x) = 0.24861 -0.04343
# Poissons Ratio (y) = 0.17990 0.41765
# Poissons Ratio (z) = -0.02662 0.35377
#
# Static dielectric constant tensor:
#      x y z
#    x 4.134550 0.000000 -0.131170 
#    y 0.000000 4.147040 0.000000 
#    z -0.131170 0.000000 4.043090 
# 
# 
# High freq. dielectric constant tensor:
#      x y z
#    x 1.893630 0.000000 -0.014600 
#    y 0.000000 1.893110 0.000000 
#    z -0.014600 0.000000 1.883710 
# 
# From -- ./inp_files/19642.got.cif
#   From: 2010.06.25/outbox.cif.g09.slc.cpg/sg9_10_cif.got.tgz:19642.got - 2010.06.27 21:40:51.
