data_PCOD8056244
_publ_section_title
;
Structure prediction by ZEFSAII (Michael W. Deem and Ramdas Pophale) SiO2 
 PCOD8056244
Probable space group: C C
;
_chemical_formula_sum "Si O2"
_cell_formula_units_Z 32
_cell_length_a 22.747255
_cell_length_b 5.320069
_cell_length_c 12.434157
_cell_angle_alpha 90.000000
_cell_angle_beta 105.922144
_cell_angle_gamma 90.000000
_cell_volume 1447.014991
_symmetry_space_group_name_H-M "C C"
_symmetry_group_IT_number 9
_symmetry_cell_setting 'monoclinic'
loop_
_space_group_symop_operation_xyz
x,y,z
x,-y,1/2+z
1/2+x,1/2+y,z
1/2+x,1/2-y,1/2+z
loop_
_atom_site_type_symbol
_atom_site_label
_atom_site_fract_x
_atom_site_fract_y
_atom_site_fract_z
Si Si1 0.466120 0.775811 0.599260
Si Si2 0.052045 0.645558 0.959019
Si Si3 0.240870 0.129636 0.927890
Si Si4 0.783973 0.208855 0.234474
Si Si5 0.853686 0.447015 0.084211
Si Si6 0.495505 0.343823 0.340652
Si Si7 0.693041 0.882122 0.506347
Si Si8 0.381526 0.568212 0.918111
O O1 0.523241 0.891757 0.563626
O O2 0.488196 0.601530 0.708976
O O3 0.419712 0.654385 0.491207
O O4 0.425021 0.990130 0.634346
O O5 0.034434 0.411049 0.874784
O O6 0.030517 0.913568 0.902511
O O7 0.124133 0.649078 0.010613
O O8 0.248095 0.118216 0.802482
O O9 0.199385 0.369721 0.936590
O O10 0.308193 0.165326 0.016524
O O11 0.211264 0.869062 0.951313
O O12 0.831380 0.374214 0.190884
O O13 0.734735 0.078399 0.132352
O O14 0.824200 0.005263 0.316586
O O15 0.849480 0.227721 0.994586
O O16 0.430527 0.290553 0.366291
#
# Coordination Sequence:
#
# PCOD8056244 Si02
#       8
#     4   4   4   4   4   4   4   4
#     4  11  25  42  68 106 138 179 229 284 352 416
#     4  11  26  50  68 102 137 186 236 289 331 416
#     4  11  25  45  67 105 135 184 227 288 336 415
#     4  11  24  42  72 102 140 187 219 290 357 406
#     4  11  24  40  67 104 143 176 226 285 349 427
#     4  11  26  42  74  98 140 185 224 285 355 398
#     4  11  27  48  71  98 141 182 244 279 339 411
#     4  11  23  43  65 107 146 175 223 286 349 427
#
# _framework density 22.114493
#
# number of rings (size 3 to 8) (size 9 to 14) (size 15 to 20)
#    0.000    1.000    2.500    3.000    8.750    5.000 
#    0.000    0.000    0.000    0.000    0.000    0.000 
#    0.000    0.000    0.000    0.000    0.000    0.000 
#
# Total GULP energy -198377.946859 kJ/mol
# GULP energy per Si atom -12398.621679 kJ/mol
# Density = 2.206416 g / cm^3
# Si number density = 22.114493 Si / 1000 Ang^3
#
#
#
# Elastic Constant Matrix: (Units=GPa)
#
#
# Indices 1 2 3 4 5 6 
#
# 1 172.2540 50.5339 62.6389 0.0000 -8.3038 0.0000
# 2 50.5339 114.4284 39.7503 0.0000 -3.8413 0.0000
# 3 62.6389 39.7503 124.1468 0.0000 -14.9232 0.0000
# 4 0.0000 0.0000 0.0000 25.9449 0.0000 0.2381
# 5 -8.3038 -3.8413 -14.9232 0.0000 32.6265 0.0000
# 6 0.0000 0.0000 0.0000 0.2381 0.0000 31.6669
#
#
#
# Elastic Compliance Matrix: (Units=1/GPa)
#
#
# Indices 1 2 3 4 5 6 
#
# 1 0.007606 -0.002282 -0.003076 0.000000 0.000260 0.000000
# 2 -0.002282 0.010520 -0.002262 0.000000 -0.000377 0.000000
# 3 -0.003076 -0.002262 0.010799 0.000000 0.003890 0.000000
# 4 0.000000 0.000000 0.000000 0.038546 0.000000 -0.000290
# 5 0.000260 -0.000377 0.003890 0.000000 0.032451 0.000000
# 6 0.000000 0.000000 0.000000 -0.000290 0.000000 0.031581
#
#
# Mechanical properties :
#
#
# Convention : Reuss Voigt Hill
#
# Bulk Modulus (GPa) = 73.07268 79.63061 76.35164
# Shear Modulus (GPa) = 33.04610 35.24141 34.14375
#
# Velocity S-wave (km/s) = 3.86984 3.99631 3.93358
# Velocity P-wave (km/s) = 7.28575 7.57499 7.43178
#
# Compressibility (1/GPa) = 0.01368501
#
# Stress axis : x y z
#
# Youngs Moduli (GPa) = 131.47960 95.05695 92.60239
#
# Poissons Ratio (x) = 0.21689 0.28481
# Poissons Ratio (y) = 0.29999 0.20951
# Poissons Ratio (z) = 0.40439 0.21506
#
# Static dielectric constant tensor:
#      x y z
#    x 4.341560 0.000000 -0.231340 
#    y 0.000000 3.802180 0.000000 
#    z -0.231340 0.000000 4.169600 
# 
# 
# High freq. dielectric constant tensor:
#      x y z
#    x 1.881460 0.000000 -0.013190 
#    y 0.000000 1.862400 0.000000 
#    z -0.013190 0.000000 1.873300 
# 
# From -- ./inp_files/19800.got.cif
#   From: 2010.06.25/outbox.cif.g09.slc.cpg/sg9_10_cif.got.tgz:19800.got - 2010.06.27 21:40:51.
