data_PCOD8056734
_publ_section_title
;
Structure prediction by ZEFSAII (Michael W. Deem and Ramdas Pophale) SiO2 
 PCOD8056734
Probable space group: C C
;
_chemical_formula_sum "Si O2"
_cell_formula_units_Z 32
_cell_length_a 14.361392
_cell_length_b 8.168940
_cell_length_c 12.700249
_cell_angle_alpha 90.000000
_cell_angle_beta 119.128917
_cell_angle_gamma 90.000000
_cell_volume 1301.519390
_symmetry_space_group_name_H-M "C C"
_symmetry_group_IT_number 9
_symmetry_cell_setting 'monoclinic'
loop_
_space_group_symop_operation_xyz
x,y,z
x,-y,1/2+z
1/2+x,1/2+y,z
1/2+x,1/2-y,1/2+z
loop_
_atom_site_type_symbol
_atom_site_label
_atom_site_fract_x
_atom_site_fract_y
_atom_site_fract_z
Si Si1 0.101300 0.535460 0.191240
Si Si2 0.146071 0.038347 0.998441
Si Si3 0.946373 0.407932 0.258505
Si Si4 0.746281 0.826774 0.141672
Si Si5 0.438557 0.239825 0.367255
Si Si6 0.993271 0.211853 0.492753
Si Si7 0.285500 0.457839 0.938730
Si Si8 0.809731 0.674902 0.494364
O O1 0.145689 0.440845 0.113290
O O2 0.199904 0.616911 0.309554
O O3 0.048989 0.399763 0.238810
O O4 0.014191 0.667352 0.102788
O O5 0.218969 0.970530 0.939159
O O6 0.048286 0.159897 0.913236
O O7 0.104573 0.876171 0.032369
O O8 0.214428 0.134817 0.123932
O O9 0.937905 0.599555 0.279763
O O10 0.956156 0.304999 0.368696
O O11 0.849051 0.336256 0.136834
O O12 0.839328 0.858697 0.279136
O O13 0.779634 0.856937 0.041632
O O14 0.408537 0.157789 0.464881
O O15 0.906896 0.070424 0.468342
O O16 0.259209 0.647620 0.946324
#
# Coordination Sequence:
#
# PCOD8056734 Si02
#       8
#     4   4   4   4   4   4   4   4
#     4  12  25  51  76 110 160 209 259 335 406 484
#     4  12  26  49  76 115 149 211 265 325 411 485
#     4  12  27  49  78 114 157 206 268 339 400 492
#     4  12  26  49  75 110 155 203 267 332 402 483
#     4  12  26  53  75 115 161 207 267 335 405 491
#     4  12  28  48  79 116 156 211 268 328 415 487
#     4  12  28  50  75 116 159 207 267 338 400 491
#     4  12  26  49  80 114 161 206 269 334 407 485
#
# _framework density 24.586646999999999
#
# number of rings (size 3 to 8) (size 9 to 14) (size 15 to 20)
#    0.000    0.000    3.750    6.000    7.000    0.000 
#    4.500    0.000    0.000    0.000    0.000    0.000 
#    0.000    0.000    0.000    0.000    0.000    0.000 
#
# Total GULP energy -198337.992050 kJ/mol
# GULP energy per Si atom -12396.124503 kJ/mol
# Density = 2.453069 g / cm^3
# Si number density = 24.586647 Si / 1000 Ang^3
#
#
#
# Elastic Constant Matrix: (Units=GPa)
#
#
# Indices 1 2 3 4 5 6 
#
# 1 128.1994 42.4112 43.2217 0.0000 7.5457 0.0000
# 2 42.4112 102.7826 49.8051 0.0000 7.1394 0.0000
# 3 43.2217 49.8051 135.7945 0.0000 0.5067 0.0000
# 4 0.0000 0.0000 0.0000 39.1092 0.0000 1.3609
# 5 7.5457 7.1394 0.5067 0.0000 34.5332 0.0000
# 6 0.0000 0.0000 0.0000 1.3609 0.0000 55.5712
#
#
#
# Elastic Compliance Matrix: (Units=1/GPa)
#
#
# Indices 1 2 3 4 5 6 
#
# 1 0.009497 -0.002865 -0.001967 0.000000 -0.001454 0.000000
# 2 -0.002865 0.012896 -0.003810 0.000000 -0.001984 0.000000
# 3 -0.001967 -0.003810 0.009384 0.000000 0.001080 0.000000
# 4 0.000000 0.000000 0.000000 0.025591 0.000000 -0.000627
# 5 -0.001454 -0.001984 0.001080 0.000000 0.029670 0.000000
# 6 0.000000 0.000000 0.000000 -0.000627 0.000000 0.018010
#
#
# Mechanical properties :
#
#
# Convention : Reuss Voigt Hill
#
# Bulk Modulus (GPa) = 69.00216 70.85027 69.92621
# Shear Modulus (GPa) = 39.32016 41.26529 40.29272
#
# Velocity S-wave (km/s) = 4.00340 4.10123 4.05261
# Velocity P-wave (km/s) = 7.03530 7.16281 7.09934
#
# Compressibility (1/GPa) = 0.01449230
#
# Stress axis : x y z
#
# Youngs Moduli (GPa) = 105.30032 77.54598 106.56954
#
# Poissons Ratio (x) = 0.22214 0.20958
# Poissons Ratio (y) = 0.30165 0.40608
# Poissons Ratio (z) = 0.20708 0.29549
#
# Static dielectric constant tensor:
#      x y z
#    x 4.788810 0.000000 0.098550 
#    y 0.000000 4.357420 0.000000 
#    z 0.098550 0.000000 4.323040 
# 
# 
# High freq. dielectric constant tensor:
#      x y z
#    x 1.995960 0.000000 0.003830 
#    y 0.000000 1.974910 0.000000 
#    z 0.003830 0.000000 1.977430 
# 
# From -- ./inp_files/17990.got.cif
#   From: 2010.06.25/outbox.cif.g09.slc.cpg/sg9_9_cif.got.tgz:17990.got - 2010.06.27 21:40:51.
