data_PCOD8056363
_publ_section_title
;
Structure prediction by ZEFSAII (Michael W. Deem and Ramdas Pophale) SiO2 
 PCOD8056363
Probable space group: C C
;
_chemical_formula_sum "Si O2"
_cell_formula_units_Z 28
_cell_length_a 16.323291
_cell_length_b 9.532241
_cell_length_c 9.702584
_cell_angle_alpha 90.000000
_cell_angle_beta 53.530032
_cell_angle_gamma 90.000000
_cell_volume 1214.051814
_symmetry_space_group_name_H-M "C C"
_symmetry_group_IT_number 9
_symmetry_cell_setting 'monoclinic'
loop_
_space_group_symop_operation_xyz
x,y,z
x,-y,1/2+z
1/2+x,1/2+y,z
1/2+x,1/2-y,1/2+z
loop_
_atom_site_type_symbol
_atom_site_label
_atom_site_fract_x
_atom_site_fract_y
_atom_site_fract_z
Si Si1 0.046910 0.596748 0.505750
Si Si2 0.331176 0.060202 0.601464
Si Si3 0.498013 0.464447 0.818507
Si Si4 0.164339 0.464447 0.152181
Si Si5 0.831176 0.759051 0.072180
Si Si6 0.115442 0.096748 0.937218
Si Si7 0.831176 0.183287 0.897272
O O1 0.110233 0.487811 0.351181
O O2 0.073747 0.562826 0.635953
O O3 0.081177 0.750000 0.425765
O O4 0.926943 0.581915 0.605411
O O5 0.235409 0.081913 0.796944
O O6 0.331176 0.167622 0.473985
O O7 0.331177 0.904654 0.538900
O O8 0.552119 0.487812 0.909295
O O9 0.588605 0.437173 0.621096
O O10 0.431207 0.597950 0.840765
O O11 0.429770 0.325576 0.900248
O O12 0.232582 0.325576 0.097435
O O13 0.231145 0.597949 0.040828
O O14 0.831176 0.791791 0.234493
#
# Coordination Sequence:
#
# PCOD8056363 Si02
#       7
#     4   4   4   4   4   4   4
#     4  12  28  48  79 114 159 202 265 323 397 462
#     4  12  30  46  78 119 154 202 259 340 379 477
#     4  11  26  51  78 110 155 214 248 322 391 475
#     4  11  26  51  78 110 155 214 248 322 391 475
#     4  11  27  48  81 116 155 202 268 317 396 471
#     4  12  28  48  79 114 159 202 265 323 397 462
#     4  11  23  52  79 111 151 204 267 311 395 462
#
# _framework density 23.063267
#
# number of rings (size 3 to 8) (size 9 to 14) (size 15 to 20)
#    0.000    0.571    5.714    0.000    8.000    2.286 
#    0.000    0.000    0.000    0.000    0.000    0.000 
#    0.000    0.000    0.000    0.000    0.000    0.000 
#
# Total GULP energy -173707.270499 kJ/mol
# GULP energy per Si atom -12407.662178 kJ/mol
# Density = 2.301077 g / cm^3
# Si number density = 23.063267 Si / 1000 Ang^3
#
#
#
# Elastic Constant Matrix: (Units=GPa)
#
#
# Indices 1 2 3 4 5 6 
#
# 1 116.7538 48.2084 31.4661 0.0000 -6.7867 0.0000
# 2 48.2084 168.5129 45.0354 0.0000 -10.7889 0.0000
# 3 31.4661 45.0354 113.2610 0.0000 -5.0848 0.0000
# 4 0.0000 0.0000 0.0000 27.6349 0.0000 7.3371
# 5 -6.7867 -10.7889 -5.0848 0.0000 47.4325 0.0000
# 6 0.0000 0.0000 0.0000 7.3371 0.0000 25.4785
#
#
#
# Elastic Compliance Matrix: (Units=1/GPa)
#
#
# Indices 1 2 3 4 5 6 
#
# 1 0.010069 -0.002345 -0.001833 0.000000 0.000711 0.000000
# 2 -0.002345 0.007259 -0.002186 0.000000 0.001081 0.000000
# 3 -0.001833 -0.002186 0.010223 0.000000 0.000336 0.000000
# 4 0.000000 0.000000 0.000000 0.039182 0.000000 -0.011283
# 5 0.000711 0.001081 0.000336 0.000000 0.021466 0.000000
# 6 0.000000 0.000000 0.000000 -0.011283 0.000000 0.042498
#
#
# Mechanical properties :
#
#
# Convention : Reuss Voigt Hill
#
# Bulk Modulus (GPa) = 67.46856 71.99416 69.73136
# Shear Modulus (GPa) = 33.70064 38.36370 36.03217
#
# Velocity S-wave (km/s) = 3.82675 4.08292 3.95691
# Velocity P-wave (km/s) = 6.98874 7.31510 7.15378
#
# Compressibility (1/GPa) = 0.01482172
#
# Stress axis : x y z
#
# Youngs Moduli (GPa) = 99.31837 137.76712 97.82109
#
# Poissons Ratio (x) = 0.32308 0.17929
# Poissons Ratio (y) = 0.23291 0.21385
# Poissons Ratio (z) = 0.18204 0.30118
#
# Static dielectric constant tensor:
#      x y z
#    x 4.165580 0.000000 -0.147480 
#    y 0.000000 4.331970 0.000000 
#    z -0.147480 0.000000 4.122230 
# 
# 
# High freq. dielectric constant tensor:
#      x y z
#    x 1.922680 0.000000 -0.003810 
#    y 0.000000 1.922090 0.000000 
#    z -0.003810 0.000000 1.921560 
# 
# From -- ./inp_files/19006.got.cif
#   From: 2010.06.25/outbox.cif.g09.slc.cpg/sg9_10_cif.got.tgz:19006.got - 2010.06.27 21:40:51.
