data_PCOD8056135
_publ_section_title
;
Structure prediction by ZEFSAII (Michael W. Deem and Ramdas Pophale) SiO2 
 PCOD8056135
Probable space group: C C
;
_chemical_formula_sum "Si O2"
_cell_formula_units_Z 28
_cell_length_a 13.007185
_cell_length_b 5.118237
_cell_length_c 21.789908
_cell_angle_alpha 90.000000
_cell_angle_beta 55.407222
_cell_angle_gamma 90.000000
_cell_volume 1194.176870
_symmetry_space_group_name_H-M "C C"
_symmetry_group_IT_number 9
_symmetry_cell_setting 'monoclinic'
loop_
_space_group_symop_operation_xyz
x,y,z
x,-y,1/2+z
1/2+x,1/2+y,z
1/2+x,1/2-y,1/2+z
loop_
_atom_site_type_symbol
_atom_site_label
_atom_site_fract_x
_atom_site_fract_y
_atom_site_fract_z
Si Si1 0.895300 0.620583 0.254790
Si Si2 0.774538 0.178851 0.972661
Si Si3 0.874702 0.693541 0.878669
Si Si4 0.148620 0.230039 0.714299
Si Si5 0.381160 0.647851 0.063413
Si Si6 0.488390 0.873442 0.587642
Si Si7 0.651160 0.231696 0.792631
O O1 0.891859 0.364510 0.299976
O O2 0.928597 0.544785 0.173357
O O3 0.762026 0.773431 0.305952
O O4 0.005902 0.810693 0.240743
O O5 0.800865 0.459922 0.935458
O O6 0.796747 0.959224 0.913065
O O7 0.873081 0.108453 0.993113
O O8 0.634174 0.185878 0.045362
O O9 0.010461 0.720141 0.866288
O O10 0.245749 0.231531 0.625984
O O11 0.172320 0.504261 0.737948
O O12 0.179043 0.005470 0.751070
O O13 0.416247 0.376067 0.084162
O O14 0.479901 0.873765 0.046551
#
# Coordination Sequence:
#
# PCOD8056135 Si02
#       7
#     4   4   4   4   4   4   4
#     4  11  24  45  74 107 137 180 236 300 347 412
#     4  12  27  51  67 102 149 191 233 289 349 437
#     4  11  27  46  72 102 146 195 229 283 364 424
#     4  11  22  41  67 108 136 171 226 293 352 401
#     4  12  24  44  72 105 139 182 234 292 353 414
#     4  12  26  44  77 106 136 183 244 295 356 407
#     4  11  24  43  69 102 141 176 232 286 351 411
#
# _framework density 23.447112000000001
#
# number of rings (size 3 to 8) (size 9 to 14) (size 15 to 20)
#    0.000    0.571    4.286    3.429    0.000   10.286 
#    0.000    2.857    0.000    0.000    0.000    0.000 
#    0.000    0.000    0.000    0.000    0.000    0.000 
#
# Total GULP energy -173573.048577 kJ/mol
# GULP energy per Si atom -12398.074898 kJ/mol
# Density = 2.339375 g / cm^3
# Si number density = 23.447112 Si / 1000 Ang^3
#
#
#
# Elastic Constant Matrix: (Units=GPa)
#
#
# Indices 1 2 3 4 5 6 
#
# 1 142.2739 34.9975 34.1076 0.0078 -10.9585 0.0116
# 2 34.9975 140.5380 26.8369 0.0534 3.0955 0.0404
# 3 34.1076 26.8369 83.9897 0.0086 -4.5463 0.0040
# 4 0.0078 0.0534 0.0086 28.1447 0.0054 -7.8502
# 5 -10.9585 3.0955 -4.5463 0.0054 42.0961 0.0064
# 6 0.0116 0.0404 0.0040 -7.8502 0.0064 30.6047
#
#
#
# Elastic Compliance Matrix: (Units=1/GPa)
#
#
# Indices 1 2 3 4 5 6 
#
# 1 0.008220 -0.001569 -0.002731 0.000001 0.001960 -0.000001
# 2 -0.001569 0.007906 -0.001954 -0.000018 -0.001201 -0.000014
# 3 -0.002731 -0.001954 0.013689 0.000001 0.000911 0.000002
# 4 0.000001 -0.000018 0.000001 0.038269 -0.000005 0.009816
# 5 0.001960 -0.001201 0.000911 -0.000005 0.024452 -0.000006
# 6 -0.000001 -0.000014 0.000002 0.009816 -0.000006 0.035193
#
#
# Mechanical properties :
#
#
# Convention : Reuss Voigt Hill
#
# Bulk Modulus (GPa) = 57.77781 62.07618 59.92700
# Shear Modulus (GPa) = 34.24545 38.22639 36.23592
#
# Velocity S-wave (km/s) = 3.82585 4.04211 3.93546
# Velocity P-wave (km/s) = 6.64917 6.95106 6.80179
#
# Compressibility (1/GPa) = 0.01730768
#
# Stress axis : x y z
#
# Youngs Moduli (GPa) = 121.65087 126.48993 73.05203
#
# Poissons Ratio (x) = 0.19843 0.19949
# Poissons Ratio (y) = 0.19084 0.14275
# Poissons Ratio (z) = 0.33221 0.24717
#
# Static dielectric constant tensor:
#      x y z
#    x 4.499010 -0.000010 -0.120940 
#    y -0.000010 4.034480 -0.000030 
#    z -0.120940 -0.000030 4.093080 
# 
# 
# High freq. dielectric constant tensor:
#      x y z
#    x 1.943540 0.000000 -0.013840 
#    y 0.000000 1.928420 0.000000 
#    z -0.013840 0.000000 1.921720 
# 
# From -- ./inp_files/33007.got.cif
#   From: 2010.06.25/outbox.cif.g09.slc.cpg/sg9_17_cif.got.tgz:33007.got - 2010.06.27 21:40:51.
