data_PCOD8056501
_publ_section_title
;
Structure prediction by ZEFSAII (Michael W. Deem and Ramdas Pophale) SiO2 
 PCOD8056501
Probable space group: C C
;
_chemical_formula_sum "Si O2"
_cell_formula_units_Z 32
_cell_length_a 5.049444
_cell_length_b 22.423905
_cell_length_c 10.697705
_cell_angle_alpha 90.000000
_cell_angle_beta 87.842580
_cell_angle_gamma 90.000000
_cell_volume 1210.423849
_symmetry_space_group_name_H-M "C C"
_symmetry_group_IT_number 9
_symmetry_cell_setting 'monoclinic'
loop_
_space_group_symop_operation_xyz
x,y,z
x,-y,1/2+z
1/2+x,1/2+y,z
1/2+x,1/2-y,1/2+z
loop_
_atom_site_type_symbol
_atom_site_label
_atom_site_fract_x
_atom_site_fract_y
_atom_site_fract_z
Si Si1 0.289910 0.253586 0.366400
Si Si2 0.769285 0.763330 0.001395
Si Si3 0.210356 0.391902 0.362159
Si Si4 0.573849 0.880952 0.103556
Si Si5 0.625176 0.089625 0.145877
Si Si6 0.635803 0.664563 0.166043
Si Si7 0.601965 0.555707 0.512933
Si Si8 0.494601 0.499553 0.257386
O O1 0.582211 0.225787 0.383342
O O2 0.309889 0.324596 0.367243
O O3 0.173760 0.224418 0.244915
O O4 0.082943 0.231800 0.476664
O O5 0.678353 0.813038 0.102362
O O6 0.703683 0.693447 0.031283
O O7 0.001972 0.396436 0.249948
O O8 0.107668 0.418635 0.495456
O O9 0.451222 0.433626 0.312658
O O10 0.312043 0.890667 0.024904
O O11 0.802752 0.922557 0.040162
O O12 0.334817 0.110470 0.197804
O O13 0.838521 0.141018 0.175695
O O14 0.715654 0.030953 0.219877
O O15 0.636354 0.534078 0.369292
O O16 0.663435 0.505799 0.622528
#
# Coordination Sequence:
#
# PCOD8056501 Si02
#       8
#     4   4   4   4   4   4   4   4
#     4  12  26  44  74 110 154 196 248 315 385 461
#     4  12  24  45  71 110 148 194 247 309 383 462
#     4  11  24  51  75 109 149 203 256 314 382 456
#     4  11  27  46  75 110 152 200 252 313 387 459
#     4  12  27  48  76 110 155 200 259 316 389 451
#     4  12  26  47  72 112 147 198 248 314 387 459
#     4  11  27  48  77 108 152 205 256 318 383 448
#     4  11  27  53  76 113 153 208 262 325 376 462
#
# _framework density 26.437023
#
# number of rings (size 3 to 8) (size 9 to 14) (size 15 to 20)
#    0.000    0.500    5.000    1.500    5.250    8.000 
#    0.000    0.000    0.000    0.000    0.000    0.000 
#    0.000    0.000    0.000    0.000    0.000    0.000 
#
# Total GULP energy -198216.318070 kJ/mol
# GULP energy per Si atom -12388.519879 kJ/mol
# Density = 2.637685 g / cm^3
# Si number density = 26.437023 Si / 1000 Ang^3
#
#
#
# Elastic Constant Matrix: (Units=GPa)
#
#
# Indices 1 2 3 4 5 6 
#
# 1 70.3395 21.1670 32.0932 0.0000 9.7884 0.0000
# 2 21.1670 98.2665 48.4009 0.0000 0.5827 0.0000
# 3 32.0932 48.4009 135.7141 0.0000 13.3307 0.0000
# 4 0.0000 0.0000 0.0000 46.9099 0.0000 4.7133
# 5 9.7884 0.5827 13.3307 0.0000 30.0970 0.0000
# 6 0.0000 0.0000 0.0000 4.7133 0.0000 25.6732
#
#
#
# Elastic Compliance Matrix: (Units=1/GPa)
#
#
# Indices 1 2 3 4 5 6 
#
# 1 0.016722 -0.002222 -0.002752 0.000000 -0.004177 0.000000
# 2 -0.002222 0.012733 -0.004247 0.000000 0.002357 0.000000
# 3 -0.002752 -0.004247 0.009867 0.000000 -0.003393 0.000000
# 4 0.000000 0.000000 0.000000 0.021718 0.000000 -0.003987
# 5 -0.004177 0.002357 -0.003393 0.000000 0.036042 0.000000
# 6 0.000000 0.000000 0.000000 -0.003987 0.000000 0.039683
#
#
# Mechanical properties :
#
#
# Convention : Reuss Voigt Hill
#
# Bulk Modulus (GPa) = 47.89125 56.40473 52.14799
# Shear Modulus (GPa) = 30.83246 34.04663 32.43954
#
# Velocity S-wave (km/s) = 3.41876 3.59254 3.50673
# Velocity P-wave (km/s) = 5.80848 6.21211 6.01368
#
# Compressibility (1/GPa) = 0.02088064
#
# Stress axis : x y z
#
# Youngs Moduli (GPa) = 59.80108 78.53625 101.34630
#
# Poissons Ratio (x) = 0.17450 0.27888
# Poissons Ratio (y) = 0.13287 0.43044
# Poissons Ratio (z) = 0.16456 0.33356
#
# Static dielectric constant tensor:
#      x y z
#    x 4.379020 0.000000 0.202820 
#    y 0.000000 4.824610 0.000000 
#    z 0.202820 0.000000 5.066400 
# 
# 
# High freq. dielectric constant tensor:
#      x y z
#    x 2.039880 0.000000 0.016830 
#    y 0.000000 2.073080 0.000000 
#    z 0.016830 0.000000 2.067500 
# 
# From -- ./inp_files/13645.got.cif
#   From: 2010.06.25/outbox.cif.g09.slc.cpg/sg9_7_cif.got.tgz:13645.got - 2010.06.27 21:40:51.
