data_PCOD8056788
_publ_section_title
;
Structure prediction by ZEFSAII (Michael W. Deem and Ramdas Pophale) SiO2 
 PCOD8056788
Probable space group: C C
;
_chemical_formula_sum "Si O2"
_cell_formula_units_Z 20
_cell_length_a 8.580887
_cell_length_b 4.752898
_cell_length_c 17.981554
_cell_angle_alpha 90.000000
_cell_angle_beta 100.066532
_cell_angle_gamma 90.000000
_cell_volume 722.071383
_symmetry_space_group_name_H-M "C C"
_symmetry_group_IT_number 9
_symmetry_cell_setting 'monoclinic'
loop_
_space_group_symop_operation_xyz
x,y,z
x,-y,1/2+z
1/2+x,1/2+y,z
1/2+x,1/2-y,1/2+z
loop_
_atom_site_type_symbol
_atom_site_label
_atom_site_fract_x
_atom_site_fract_y
_atom_site_fract_z
Si Si1 0.340130 0.394597 0.253330
Si Si2 0.140067 0.102641 0.353990
Si Si3 0.531336 0.929213 0.653421
Si Si4 0.956816 0.946516 0.553742
Si Si5 0.643924 0.894620 0.955468
O O1 0.292047 0.215651 0.322041
O O2 0.488871 0.590432 0.286824
O O3 0.386886 0.191614 0.189612
O O4 0.191270 0.580551 0.214895
O O5 0.091381 0.304769 0.418832
O O6 0.195011 0.799132 0.389611
O O7 0.556676 0.729360 0.582203
O O8 0.475333 0.241368 0.626149
O O9 0.003716 0.778574 0.483466
O O10 0.779643 0.060714 0.527978
#
# Coordination Sequence:
#
# PCOD8056788 Si02
#       5
#     4   4   4   4   4
#     4  12  30  52  80 116 156 204 256 318 384 456
#     4  12  29  52  80 115 156 203 257 318 383 457
#     4  12  29  52  80 115 156 203 257 318 383 457
#     4  12  28  50  78 113 154 202 255 316 381 454
#     4  12  28  50  78 113 154 202 255 316 381 454
#
# _framework density 27.698093
#
# number of rings (size 3 to 8) (size 9 to 14) (size 15 to 20)
#    0.000    0.000    0.000    7.200    0.000   27.200 
#    0.000    0.000    0.000    0.000    0.000    0.000 
#    0.000    0.000    0.000    0.000    0.000    0.000 
#
# Total GULP energy -124100.013359 kJ/mol
# GULP energy per Si atom -12410.001336 kJ/mol
# Density = 2.763505 g / cm^3
# Si number density = 27.698093 Si / 1000 Ang^3
#
#
#
# Elastic Constant Matrix: (Units=GPa)
#
#
# Indices 1 2 3 4 5 6 
#
# 1 85.2430 20.4985 17.6429 0.0000 2.3873 0.0000
# 2 20.4985 124.0023 17.8420 0.0000 34.9357 0.0000
# 3 17.6429 17.8420 104.9363 0.0000 30.2157 0.0000
# 4 0.0000 0.0000 0.0000 59.0877 0.0000 17.2379
# 5 2.3873 34.9357 30.2157 0.0000 40.3310 0.0000
# 6 0.0000 0.0000 0.0000 17.2379 0.0000 37.1866
#
#
#
# Elastic Compliance Matrix: (Units=1/GPa)
#
#
# Indices 1 2 3 4 5 6 
#
# 1 0.012866 -0.002775 -0.002759 0.000000 0.003709 0.000000
# 2 -0.002775 0.011363 0.001685 0.000000 -0.010941 0.000000
# 3 -0.002759 0.001685 0.012853 0.000000 -0.010926 0.000000
# 4 0.000000 0.000000 0.000000 0.019571 0.000000 -0.009072
# 5 0.003709 -0.010941 -0.010926 0.000000 0.042238 0.000000
# 6 0.000000 0.000000 0.000000 -0.009072 0.000000 0.031097
#
#
# Mechanical properties :
#
#
# Convention : Reuss Voigt Hill
#
# Bulk Modulus (GPa) = 34.03313 47.34982 40.69148
# Shear Modulus (GPa) = 33.90286 44.53426 39.21856
#
# Velocity S-wave (km/s) = 3.50239 4.01415 3.76697
# Velocity P-wave (km/s) = 5.35439 6.21422 5.80026
#
# Compressibility (1/GPa) = 0.02938313
#
# Stress axis : x y z
#
# Youngs Moduli (GPa) = 77.72626 88.00414 77.80292
#
# Poissons Ratio (x) = 0.24420 0.21469
# Poissons Ratio (y) = 0.21568 -0.13109
# Poissons Ratio (z) = 0.21448 -0.14828
#
# Static dielectric constant tensor:
#      x y z
#    x 4.595580 0.000000 -0.046880 
#    y 0.000000 5.156240 0.000000 
#    z -0.046880 0.000000 5.115270 
# 
# 
# High freq. dielectric constant tensor:
#      x y z
#    x 2.104730 0.000000 0.000560 
#    y 0.000000 2.132360 0.000000 
#    z 0.000560 0.000000 2.142620 
# 
# From -- ./inp_files/28871.got.cif
#   From: 2010.06.25/outbox.cif.g09.slc.cpg/sg9_15_cif.got.tgz:28871.got - 2010.06.27 21:40:51.
