data_PCOD8056222
_publ_section_title
;
Structure prediction by ZEFSAII (Michael W. Deem and Ramdas Pophale) SiO2 
 PCOD8056222
Probable space group: C C
;
_chemical_formula_sum "Si O2"
_cell_formula_units_Z 28
_cell_length_a 16.194419
_cell_length_b 15.585823
_cell_length_c 9.015388
_cell_angle_alpha 90.000000
_cell_angle_beta 146.270996
_cell_angle_gamma 90.000000
_cell_volume 1263.514493
_symmetry_space_group_name_H-M "C C"
_symmetry_group_IT_number 9
_symmetry_cell_setting 'monoclinic'
loop_
_space_group_symop_operation_xyz
x,y,z
x,-y,1/2+z
1/2+x,1/2+y,z
1/2+x,1/2-y,1/2+z
loop_
_atom_site_type_symbol
_atom_site_label
_atom_site_fract_x
_atom_site_fract_y
_atom_site_fract_z
Si Si1 0.878790 0.092356 0.743000
Si Si2 0.032332 0.019191 0.705256
Si Si3 0.553622 0.857279 0.743169
Si Si4 0.280532 0.899699 0.167383
Si Si5 0.512801 0.772870 0.971210
Si Si6 0.342435 0.773350 0.016817
Si Si7 0.068781 0.189933 0.567906
O O1 0.701918 0.089286 0.495489
O O2 0.915828 0.032800 0.660792
O O3 0.943769 0.185353 0.809181
O O4 0.960992 0.059600 0.011868
O O5 0.051006 0.103536 0.635367
O O6 0.188380 0.987882 0.012035
O O7 0.441653 0.917051 0.481227
O O8 0.598592 0.769984 0.721452
O O9 0.473422 0.839624 0.781521
O O10 0.303317 0.862787 0.036725
O O11 0.202477 0.826103 0.151877
O O12 0.444282 0.797513 0.027568
O O13 0.691797 0.771893 0.240124
O O14 0.423361 0.708894 0.251694
#
# Coordination Sequence:
#
# PCOD8056222 Si02
#       7
#     4   4   4   4   4   4   4
#     4  12  25  45  70 106 140 192 232 294 360 434
#     4  12  25  45  72  95 148 191 231 281 375 422
#     4  11  26  43  75 106 138 179 251 293 351 411
#     4  11  24  46  66 107 141 190 232 295 356 432
#     4  12  22  42  75 111 137 183 239 303 340 422
#     4  11  23  40  74 109 140 178 244 292 352 414
#     4  11  23  43  72 102 138 189 233 298 342 431
#
# _framework density 22.160411
#
# number of rings (size 3 to 8) (size 9 to 14) (size 15 to 20)
#    0.000    0.571    7.143    0.857    2.000    0.000 
#    2.571    0.000    6.286    0.000    0.000    0.000 
#    0.000    0.000    0.000    0.000    0.000    0.000 
#
# Total GULP energy -173616.505122 kJ/mol
# GULP energy per Si atom -12401.178937 kJ/mol
# Density = 2.210997 g / cm^3
# Si number density = 22.160411 Si / 1000 Ang^3
#
#
#
# Elastic Constant Matrix: (Units=GPa)
#
#
# Indices 1 2 3 4 5 6 
#
# 1 150.1475 35.1780 36.5844 0.0000 -10.1529 0.0000
# 2 35.1780 59.7464 35.7240 0.0000 0.7659 0.0000
# 3 36.5844 35.7240 125.1979 0.0000 6.5339 0.0000
# 4 0.0000 0.0000 0.0000 18.0277 0.0000 3.3614
# 5 -10.1529 0.7659 6.5339 0.0000 36.9390 0.0000
# 6 0.0000 0.0000 0.0000 3.3614 0.0000 35.0758
#
#
#
# Elastic Compliance Matrix: (Units=1/GPa)
#
#
# Indices 1 2 3 4 5 6 
#
# 1 0.008098 -0.003987 -0.001362 0.000000 0.002549 0.000000
# 2 -0.003987 0.022156 -0.005123 0.000000 -0.000649 0.000000
# 3 -0.001362 -0.005123 0.009953 0.000000 -0.002029 0.000000
# 4 0.000000 0.000000 0.000000 0.056479 0.000000 -0.005413
# 5 0.002549 -0.000649 -0.002029 0.000000 0.028145 0.000000
# 6 0.000000 0.000000 0.000000 -0.005413 0.000000 0.029028
#
#
# Mechanical properties :
#
#
# Convention : Reuss Voigt Hill
#
# Bulk Modulus (GPa) = 51.90994 61.11828 56.51411
# Shear Modulus (GPa) = 27.58998 33.18221 30.38610
#
# Velocity S-wave (km/s) = 3.53230 3.87378 3.70697
# Velocity P-wave (km/s) = 6.33338 6.90275 6.62419
#
# Compressibility (1/GPa) = 0.01926413
#
# Stress axis : x y z
#
# Youngs Moduli (GPa) = 123.48163 45.13384 100.47122
#
# Poissons Ratio (x) = 0.17993 0.13684
# Poissons Ratio (y) = 0.49226 0.51475
# Poissons Ratio (z) = 0.16818 0.23123
#
# Static dielectric constant tensor:
#      x y z
#    x 4.264800 0.000000 -0.113960 
#    y 0.000000 3.644230 0.000000 
#    z -0.113960 0.000000 4.200980 
# 
# 
# High freq. dielectric constant tensor:
#      x y z
#    x 1.888920 0.000000 -0.010040 
#    y 0.000000 1.842630 0.000000 
#    z -0.010040 0.000000 1.890840 
# 
# From -- ./inp_files/9759.got.cif
#   From: 2010.06.25/outbox.cif.g09.slc.cpg/sg9_5_cif.got.tgz:9759.got - 2010.06.27 21:40:51.
