data_PCOD8056281
_publ_section_title
;
Structure prediction by ZEFSAII (Michael W. Deem and Ramdas Pophale) SiO2 
 PCOD8056281
Probable space group: C C
;
_chemical_formula_sum "Si O2"
_cell_formula_units_Z 32
_cell_length_a 13.638692
_cell_length_b 11.712676
_cell_length_c 17.184712
_cell_angle_alpha 90.000000
_cell_angle_beta 28.496401
_cell_angle_gamma 90.000000
_cell_volume 1309.735998
_symmetry_space_group_name_H-M "C C"
_symmetry_group_IT_number 9
_symmetry_cell_setting 'monoclinic'
loop_
_space_group_symop_operation_xyz
x,y,z
x,-y,1/2+z
1/2+x,1/2+y,z
1/2+x,1/2-y,1/2+z
loop_
_atom_site_type_symbol
_atom_site_label
_atom_site_fract_x
_atom_site_fract_y
_atom_site_fract_z
Si Si1 0.252670 0.398465 0.453510
Si Si2 0.679105 0.878812 0.807755
Si Si3 0.160359 0.635467 0.798502
Si Si4 0.399736 0.385616 0.809611
Si Si5 0.961031 0.845970 0.463833
Si Si6 0.335036 0.976409 0.259179
Si Si7 0.624857 0.175698 0.644620
Si Si8 0.596426 0.697750 0.471040
O O1 0.431046 0.476821 0.288251
O O2 0.298910 0.391587 0.513063
O O3 0.245981 0.275721 0.419094
O O4 0.042314 0.467773 0.578959
O O5 0.759629 0.844102 0.836293
O O6 0.861405 0.866805 0.617503
O O7 0.497832 0.787726 0.918122
O O8 0.594586 0.008445 0.870552
O O9 0.161505 0.632667 0.705363
O O10 0.392784 0.668177 0.661191
O O11 0.033620 0.733573 0.934115
O O12 0.609950 0.314443 0.656078
O O13 0.304591 0.355804 0.960541
O O14 0.180818 0.913304 0.305771
O O15 0.211268 0.079644 0.382203
O O16 0.407017 0.881747 0.271549
#
# Coordination Sequence:
#
# PCOD8056281 Si02
#       8
#     4   4   4   4   4   4   4   4
#     4  11  27  46  74 105 148 193 244 301 373 436
#     4  12  25  47  69 108 143 197 239 302 363 432
#     4  12  26  46  75 103 145 186 247 294 368 432
#     4  11  23  45  68 101 142 186 240 290 358 427
#     4  12  28  46  77 106 153 193 247 303 366 438
#     4  11  25  45  72 101 149 189 235 308 365 425
#     4  11  25  43  71 103 138 187 233 302 352 432
#     4  12  25  46  70 103 142 191 233 306 357 436
#
# _framework density 24.432404999999999
#
# number of rings (size 3 to 8) (size 9 to 14) (size 15 to 20)
#    0.000    0.500    5.000    3.000    7.000    0.000 
#    0.000    1.250    0.000    0.000    0.000    0.000 
#    0.000    0.000    0.000    0.000    0.000    0.000 
#
# Total GULP energy -198274.016363 kJ/mol
# GULP energy per Si atom -12392.126023 kJ/mol
# Density = 2.437680 g / cm^3
# Si number density = 24.432405 Si / 1000 Ang^3
#
#
#
# Elastic Constant Matrix: (Units=GPa)
#
#
# Indices 1 2 3 4 5 6 
#
# 1 105.3208 0.1857 7.8143 -0.0019 23.1797 0.0051
# 2 0.1857 137.0397 11.9831 0.0332 -5.7492 -0.0081
# 3 7.8143 11.9831 26.5855 0.0588 7.2680 -0.0199
# 4 -0.0019 0.0332 0.0588 35.1830 -0.0088 4.2179
# 5 23.1797 -5.7492 7.2680 -0.0088 30.3597 -0.0003
# 6 0.0051 -0.0081 -0.0199 4.2179 -0.0003 24.0409
#
#
#
# Elastic Compliance Matrix: (Units=1/GPa)
#
#
# Indices 1 2 3 4 5 6 
#
# 1 0.011451 -0.000299 -0.000883 0.000001 -0.008588 -0.000003
# 2 -0.000299 0.007774 -0.004153 0.000000 0.002694 -0.000001
# 3 -0.000883 -0.004153 0.042562 -0.000075 -0.010301 0.000047
# 4 0.000001 0.000000 -0.000075 0.029034 0.000026 -0.005094
# 5 -0.008588 0.002694 -0.010301 0.000026 0.042471 -0.000010
# 6 -0.000003 -0.000001 0.000047 -0.005094 -0.000010 0.042490
#
#
# Mechanical properties :
#
#
# Convention : Reuss Voigt Hill
#
# Bulk Modulus (GPa) = 19.56277 34.32358 26.94318
# Shear Modulus (GPa) = 24.57122 34.51425 29.54274
#
# Velocity S-wave (km/s) = 3.17469 3.76259 3.48107
# Velocity P-wave (km/s) = 4.63276 5.74065 5.21620
#
# Compressibility (1/GPa) = 0.05111750
#
# Stress axis : x y z
#
# Youngs Moduli (GPa) = 87.32905 128.63866 23.49497
#
# Poissons Ratio (x) = 0.03841 0.02076
# Poissons Ratio (y) = 0.02607 0.09757
# Poissons Ratio (z) = 0.07715 0.53420
#
# Static dielectric constant tensor:
#      x y z
#    x 4.390420 -0.000010 -0.103190 
#    y -0.000010 4.975250 0.000080 
#    z -0.103190 0.000080 4.345630 
# 
# 
# High freq. dielectric constant tensor:
#      x y z
#    x 1.967220 0.000000 0.012120 
#    y 0.000000 1.998950 0.000000 
#    z 0.012120 0.000000 1.947390 
# 
# From -- ./inp_files/30688.got.cif
#   From: 2010.06.25/outbox.cif.g09.slc.cpg/sg9_16_cif.got.tgz:30688.got - 2010.06.27 21:40:51.
