data_PCOD8056195
_publ_section_title
;
Structure prediction by ZEFSAII (Michael W. Deem and Ramdas Pophale) SiO2 
 PCOD8056195
Probable space group: C C
;
_chemical_formula_sum "Si O2"
_cell_formula_units_Z 32
_cell_length_a 14.401043
_cell_length_b 16.631913
_cell_length_c 9.294640
_cell_angle_alpha 90.000000
_cell_angle_beta 39.759211
_cell_angle_gamma 90.000000
_cell_volume 1423.809154
_symmetry_space_group_name_H-M "C C"
_symmetry_group_IT_number 9
_symmetry_cell_setting 'monoclinic'
loop_
_space_group_symop_operation_xyz
x,y,z
x,-y,1/2+z
1/2+x,1/2+y,z
1/2+x,1/2-y,1/2+z
loop_
_atom_site_type_symbol
_atom_site_label
_atom_site_fract_x
_atom_site_fract_y
_atom_site_fract_z
Si Si1 0.781790 0.552418 0.508160
Si Si2 0.580929 0.970831 0.104241
Si Si3 0.662838 0.577547 0.345839
Si Si4 0.907023 0.690982 0.990586
Si Si5 0.524929 0.200533 0.554673
Si Si6 0.668930 0.910187 0.268327
Si Si7 0.798469 0.733273 0.591063
Si Si8 0.380823 0.326434 0.215416
O O1 0.745847 0.543968 0.384426
O O2 0.666166 0.496513 0.730341
O O3 0.758698 0.645936 0.576089
O O4 0.945577 0.520172 0.335681
O O5 0.711467 0.951686 0.065582
O O6 0.525799 0.895378 0.075951
O O7 0.669080 0.027313 0.895142
O O8 0.497822 0.601995 0.584353
O O9 0.742899 0.656658 0.185254
O O10 0.945631 0.734895 0.792818
O O11 0.009637 0.615091 0.899797
O O12 0.952014 0.744980 0.073132
O O13 0.684143 0.238005 0.347493
O O14 0.448416 0.225141 0.497507
O O15 0.768402 0.839985 0.214881
O O16 0.810362 0.803083 0.453595
#
# Coordination Sequence:
#
# PCOD8056195 Si02
#       8
#     4   4   4   4   4   4   4   4
#     4  12  23  45  75 105 134 192 244 289 352 437
#     4  11  22  45  74 101 135 190 250 291 348 438
#     4  12  25  45  73 107 141 188 241 297 361 431
#     4  11  24  45  76  99 141 194 247 287 356 441
#     4  11  27  44  70 106 139 186 238 303 353 420
#     4  11  24  42  71 102 136 191 238 294 354 434
#     4  12  27  46  72 106 147 189 241 299 357 434
#     4  12  28  44  71 106 153 188 231 304 373 429
#
# _framework density 22.474921999999999
#
# number of rings (size 3 to 8) (size 9 to 14) (size 15 to 20)
#    0.000    0.500    5.000    3.000   10.500    1.000 
#    2.250    0.000    0.000    0.000    0.000    0.000 
#    0.000    0.000    0.000    0.000    0.000    0.000 
#
# Total GULP energy -198272.842629 kJ/mol
# GULP energy per Si atom -12392.052664 kJ/mol
# Density = 2.242377 g / cm^3
# Si number density = 22.474922 Si / 1000 Ang^3
#
#
#
# Elastic Constant Matrix: (Units=GPa)
#
#
# Indices 1 2 3 4 5 6 
#
# 1 99.8432 31.9882 47.4412 -0.0002 19.3621 0.0002
# 2 31.9882 76.0580 40.1181 0.0000 3.9818 0.0000
# 3 47.4412 40.1181 101.8119 0.0000 17.3045 0.0000
# 4 -0.0002 0.0000 0.0000 32.4006 0.0000 12.7071
# 5 19.3621 3.9818 17.3045 0.0000 37.9276 -0.0001
# 6 0.0002 0.0000 0.0000 12.7071 -0.0001 44.0231
#
#
#
# Elastic Compliance Matrix: (Units=1/GPa)
#
#
# Indices 1 2 3 4 5 6 
#
# 1 0.014140 -0.003348 -0.004447 0.000000 -0.004838 0.000000
# 2 -0.003348 0.017454 -0.005742 0.000000 0.002496 0.000000
# 3 -0.004447 -0.005742 0.014818 0.000000 -0.003887 0.000000
# 4 0.000000 0.000000 0.000000 0.034803 0.000000 -0.010046
# 5 -0.004838 0.002496 -0.003887 0.000000 0.030347 0.000000
# 6 0.000000 0.000000 0.000000 -0.010046 0.000000 0.025615
#
#
# Mechanical properties :
#
#
# Convention : Reuss Voigt Hill
#
# Bulk Modulus (GPa) = 51.71356 57.42311 54.56833
# Shear Modulus (GPa) = 29.29184 33.41464 31.35324
#
# Velocity S-wave (km/s) = 3.61406 3.86003 3.73906
# Velocity P-wave (km/s) = 6.36197 6.74327 6.55539
#
# Compressibility (1/GPa) = 0.01933729
#
# Stress axis : x y z
#
# Youngs Moduli (GPa) = 70.72363 57.29411 67.48763
#
# Poissons Ratio (x) = 0.19181 0.30013
# Poissons Ratio (y) = 0.23676 0.38750
# Poissons Ratio (z) = 0.31452 0.32898
#
# Static dielectric constant tensor:
#      x y z
#    x 4.000500 0.000000 0.351070 
#    y 0.000000 4.056020 0.000000 
#    z 0.351070 0.000000 4.180350 
# 
# 
# High freq. dielectric constant tensor:
#      x y z
#    x 1.884970 0.000000 0.022420 
#    y 0.000000 1.890080 0.000000 
#    z 0.022420 0.000000 1.882060 
# 
# From -- ./inp_files/9936.got.cif
#   From: 2010.06.25/outbox.cif.g09.slc.cpg/sg9_5_cif.got.tgz:9936.got - 2010.06.27 21:40:51.
