data_PCOD8056519
_publ_section_title
;
Structure prediction by ZEFSAII (Michael W. Deem and Ramdas Pophale) SiO2 
 PCOD8056519
Probable space group: C C
;
_chemical_formula_sum "Si O2"
_cell_formula_units_Z 32
_cell_length_a 11.933634
_cell_length_b 20.257638
_cell_length_c 5.332926
_cell_angle_alpha 90.000000
_cell_angle_beta 72.349000
_cell_angle_gamma 90.000000
_cell_volume 1228.525122
_symmetry_space_group_name_H-M "C C"
_symmetry_group_IT_number 9
_symmetry_cell_setting 'monoclinic'
loop_
_space_group_symop_operation_xyz
x,y,z
x,-y,1/2+z
1/2+x,1/2+y,z
1/2+x,1/2-y,1/2+z
loop_
_atom_site_type_symbol
_atom_site_label
_atom_site_fract_x
_atom_site_fract_y
_atom_site_fract_z
Si Si1 0.994460 0.662133 0.319250
Si Si2 0.038330 0.518033 0.233680
Si Si3 0.852075 0.684075 0.919827
Si Si4 0.866024 0.183445 0.187121
Si Si5 0.614153 0.658676 0.192217
Si Si6 0.196507 0.290906 0.402631
Si Si7 0.000569 0.960334 0.024680
Si Si8 0.247897 0.581289 0.572201
O O1 0.937466 0.676228 0.625634
O O2 0.059451 0.592059 0.304876
O O3 0.904404 0.661482 0.148798
O O4 0.101222 0.711815 0.194735
O O5 0.968889 0.482917 0.512762
O O6 0.160669 0.479999 0.076966
O O7 0.834386 0.765064 0.936180
O O8 0.732929 0.640206 0.955238
O O9 0.799781 0.114019 0.281756
O O10 0.005776 0.170990 0.078473
O O11 0.825700 0.213399 0.946499
O O12 0.666122 0.725845 0.272370
O O13 0.576199 0.606550 0.431622
O O14 0.179873 0.360441 0.267677
O O15 0.035076 0.007604 0.767000
O O16 0.861822 0.945300 0.143945
#
# Coordination Sequence:
#
# PCOD8056519 Si02
#       8
#     4   4   4   4   4   4   4   4
#     4  12  28  47  77 115 172 208 269 323 413 491
#     4  12  24  43  73 111 158 207 252 322 407 477
#     4  12  27  52  74 119 161 219 265 332 400 497
#     4  11  26  46  80 121 162 210 268 348 417 477
#     4  11  27  54  82 115 166 217 279 334 409 491
#     4  12  25  48  82 125 163 206 266 356 417 487
#     4  11  28  51  79 115 159 217 275 335 399 488
#     4  11  25  45  77 125 161 196 268 348 420 472
#
# _framework density 26.047491000000001
#
# number of rings (size 3 to 8) (size 9 to 14) (size 15 to 20)
#    0.000    0.500    3.750    3.000    7.000    2.000 
#    2.250    3.750    0.000    0.000    0.000    0.000 
#    0.000    0.000    0.000    0.000    0.000    0.000 
#
# Total GULP energy -198261.005206 kJ/mol
# GULP energy per Si atom -12391.312825 kJ/mol
# Density = 2.598821 g / cm^3
# Si number density = 26.047491 Si / 1000 Ang^3
#
#
#
# Elastic Constant Matrix: (Units=GPa)
#
#
# Indices 1 2 3 4 5 6 
#
# 1 115.3994 24.9272 26.2684 0.0000 -4.8849 0.0000
# 2 24.9272 97.3349 9.7321 0.0000 -15.8521 0.0000
# 3 26.2684 9.7321 122.1459 0.0000 1.1303 0.0000
# 4 0.0000 0.0000 0.0000 28.6206 0.0000 -3.9289
# 5 -4.8849 -15.8521 1.1303 0.0000 34.7036 0.0000
# 6 0.0000 0.0000 0.0000 -3.9289 0.0000 40.3633
#
#
#
# Elastic Compliance Matrix: (Units=1/GPa)
#
#
# Indices 1 2 3 4 5 6 
#
# 1 0.009588 -0.002200 -0.001890 0.000000 0.000406 0.000000
# 2 -0.002200 0.011711 -0.000507 0.000000 0.005056 0.000000
# 3 -0.001890 -0.000507 0.008641 0.000000 -0.000779 0.000000
# 4 0.000000 0.000000 0.000000 0.035413 0.000000 0.003447
# 5 0.000406 0.005056 -0.000779 0.000000 0.031208 0.000000
# 6 0.000000 0.000000 0.000000 0.003447 0.000000 0.025111
#
#
# Mechanical properties :
#
#
# Convention : Reuss Voigt Hill
#
# Bulk Modulus (GPa) = 48.20264 50.74840 49.47552
# Shear Modulus (GPa) = 36.28906 39.00100 37.64503
#
# Velocity S-wave (km/s) = 3.73659 3.87370 3.80576
# Velocity P-wave (km/s) = 6.09607 6.28750 6.19252
#
# Compressibility (1/GPa) = 0.02074575
#
# Stress axis : x y z
#
# Youngs Moduli (GPa) = 104.29283 85.38638 115.72632
#
# Poissons Ratio (x) = 0.18788 0.21878
# Poissons Ratio (y) = 0.22949 0.05864
# Poissons Ratio (z) = 0.19716 0.04327
#
# Static dielectric constant tensor:
#      x y z
#    x 4.766370 0.000000 -0.194340 
#    y 0.000000 4.982520 0.000000 
#    z -0.194340 0.000000 5.200410 
# 
# 
# High freq. dielectric constant tensor:
#      x y z
#    x 2.027380 0.000000 -0.002540 
#    y 0.000000 2.049920 0.000000 
#    z -0.002540 0.000000 2.059240 
# 
# From -- ./inp_files/1859.got.cif
#   From: 2010.06.25/outbox.cif.g09.slc.cpg/sg9_1_cif.got.tgz:1859.got - 2010.06.27 21:40:51.
