data_PCOD8056571
_publ_section_title
;
Structure prediction by ZEFSAII (Michael W. Deem and Ramdas Pophale) SiO2 
 PCOD8056571
Probable space group: C C
;
_chemical_formula_sum "Si O2"
_cell_formula_units_Z 20
_cell_length_a 11.473346
_cell_length_b 9.251926
_cell_length_c 9.672707
_cell_angle_alpha 90.000000
_cell_angle_beta 126.555315
_cell_angle_gamma 90.000000
_cell_volume 824.780590
_symmetry_space_group_name_H-M "C C"
_symmetry_group_IT_number 9
_symmetry_cell_setting 'monoclinic'
loop_
_space_group_symop_operation_xyz
x,y,z
x,-y,1/2+z
1/2+x,1/2+y,z
1/2+x,1/2-y,1/2+z
loop_
_atom_site_type_symbol
_atom_site_label
_atom_site_fract_x
_atom_site_fract_y
_atom_site_fract_z
Si Si1 0.791510 0.316398 0.110370
Si Si2 0.993389 0.430997 0.671459
Si Si3 0.876957 0.148499 0.912729
Si Si4 0.127326 0.364131 0.044709
Si Si5 0.965795 0.170435 0.472516
O O1 0.860120 0.474358 0.133439
O O2 0.893343 0.222849 0.280650
O O3 0.778091 0.226151 0.959031
O O4 0.637375 0.341899 0.070355
O O5 0.930238 0.278625 0.573541
O O6 0.114932 0.407941 0.875674
O O7 0.072875 0.501988 0.597888
O O8 0.792608 0.166711 0.706967
O O9 0.031926 0.223400 0.007741
O O10 0.903128 0.983535 0.973129
#
# Coordination Sequence:
#
# PCOD8056571 Si02
#       5
#     4   4   4   4   4
#     4  11  26  50  72 113 152 195 247 314 365 444
#     4  11  25  50  75 108 154 194 249 312 369 441
#     4  11  28  47  76 111 149 195 252 308 369 448
#     4  11  26  49  74 108 155 192 246 315 371 437
#     4  12  27  46  81 108 148 202 248 303 378 440
#
# _framework density 24.248871000000001
#
# number of rings (size 3 to 8) (size 9 to 14) (size 15 to 20)
#    0.000    0.800    2.000    3.600    8.400    3.200 
#    0.000    0.000    0.000    0.000    0.000    0.000 
#    0.000    0.000    0.000    0.000    0.000    0.000 
#
# Total GULP energy -124073.676492 kJ/mol
# GULP energy per Si atom -12407.367649 kJ/mol
# Density = 2.419368 g / cm^3
# Si number density = 24.248871 Si / 1000 Ang^3
#
#
#
# Elastic Constant Matrix: (Units=GPa)
#
#
# Indices 1 2 3 4 5 6 
#
# 1 64.5010 37.2835 0.5769 0.0000 18.6530 0.0000
# 2 37.2835 177.6108 66.2254 0.0000 9.8628 0.0000
# 3 0.5769 66.2254 152.9879 0.0000 11.3954 0.0000
# 4 0.0000 0.0000 0.0000 46.7651 0.0000 1.3119
# 5 18.6530 9.8628 11.3954 0.0000 40.2962 0.0000
# 6 0.0000 0.0000 0.0000 1.3119 0.0000 16.8989
#
#
#
# Elastic Compliance Matrix: (Units=1/GPa)
#
#
# Indices 1 2 3 4 5 6 
#
# 1 0.021009 -0.004916 0.002741 0.000000 -0.009297 0.000000
# 2 -0.004916 0.007892 -0.003497 0.000000 0.001333 0.000000
# 3 0.002741 -0.003497 0.008244 0.000000 -0.002744 0.000000
# 4 0.000000 0.000000 0.000000 0.021430 0.000000 -0.001664
# 5 -0.009297 0.001333 -0.002744 0.000000 0.029570 0.000000
# 6 0.000000 0.000000 0.000000 -0.001664 0.000000 0.059305
#
#
# Mechanical properties :
#
#
# Convention : Reuss Voigt Hill
#
# Bulk Modulus (GPa) = 38.75629 67.03014 52.89321
# Shear Modulus (GPa) = 29.86949 40.19299 35.03124
#
# Velocity S-wave (km/s) = 3.51349 4.07568 3.80498
# Velocity P-wave (km/s) = 5.69885 7.06051 6.41591
#
# Compressibility (1/GPa) = 0.02580226
#
# Stress axis : x y z
#
# Youngs Moduli (GPa) = 47.59767 126.70721 121.29468
#
# Poissons Ratio (x) = 0.62291 -0.33251
# Poissons Ratio (y) = 0.23400 0.42418
# Poissons Ratio (z) = -0.13048 0.44311
#
# Static dielectric constant tensor:
#      x y z
#    x 4.188010 0.000000 0.188550 
#    y 0.000000 4.548840 0.000000 
#    z 0.188550 0.000000 4.587050 
# 
# 
# High freq. dielectric constant tensor:
#      x y z
#    x 1.958530 0.000000 0.003630 
#    y 0.000000 1.978420 0.000000 
#    z 0.003630 0.000000 1.976010 
# 
# From -- ./inp_files/6671.got.cif
#   From: 2010.06.25/outbox.cif.g09.slc.cpg/sg9_4_cif.got.tgz:6671.got - 2010.06.27 21:40:51.
