data_PCOD8056183
_publ_section_title
;
Structure prediction by ZEFSAII (Michael W. Deem and Ramdas Pophale) SiO2 
 PCOD8056183
Probable space group: C C
;
_chemical_formula_sum "Si O2"
_cell_formula_units_Z 24
_cell_length_a 8.949927
_cell_length_b 16.801125
_cell_length_c 11.900764
_cell_angle_alpha 90.000000
_cell_angle_beta 142.060771
_cell_angle_gamma 90.000000
_cell_volume 1100.232438
_symmetry_space_group_name_H-M "C C"
_symmetry_group_IT_number 9
_symmetry_cell_setting 'monoclinic'
loop_
_space_group_symop_operation_xyz
x,y,z
x,-y,1/2+z
1/2+x,1/2+y,z
1/2+x,1/2-y,1/2+z
loop_
_atom_site_type_symbol
_atom_site_label
_atom_site_fract_x
_atom_site_fract_y
_atom_site_fract_z
Si Si1 0.196010 0.350515 0.365900
Si Si2 0.487193 0.859438 0.652961
Si Si3 0.350616 0.908135 0.345774
Si Si4 0.680372 0.577343 0.170533
Si Si5 0.955484 0.317021 0.996890
Si Si6 0.363797 0.316238 0.051852
O O1 0.386653 0.424315 0.488154
O O2 0.352546 0.270023 0.461805
O O3 0.011483 0.353225 0.360204
O O4 0.038472 0.358939 0.160347
O O5 0.492250 0.919400 0.549087
O O6 0.276038 0.884148 0.612781
O O7 0.433056 0.773923 0.565067
O O8 0.742559 0.856952 0.870494
O O9 0.096467 0.866736 0.224057
O O10 0.301044 0.991622 0.256636
O O11 0.744248 0.630874 0.316456
O O12 0.185694 0.313509 0.052008
#
# Coordination Sequence:
#
# PCOD8056183 Si02
#       6
#     4   4   4   4   4   4
#     4  12  25  45  72 106 138 187 240 296 347 426
#     4  11  23  46  72 100 137 189 239 287 357 433
#     4  12  30  42  70 112 146 182 237 310 359 408
#     4  11  27  47  69 103 144 192 237 293 366 424
#     4  11  23  46  75  98 140 193 239 283 359 437
#     4  11  22  44  76 101 135 191 240 287 350 436
#
# _framework density 21.813573000000002
#
# number of rings (size 3 to 8) (size 9 to 14) (size 15 to 20)
#    0.000    0.667    5.000    2.000    9.333    1.333 
#    0.000    0.000    0.000    0.000    0.000    0.000 
#    0.000    0.000    0.000    0.000    0.000    0.000 
#
# Total GULP energy -148840.856777 kJ/mol
# GULP energy per Si atom -12403.404731 kJ/mol
# Density = 2.176392 g / cm^3
# Si number density = 21.813573 Si / 1000 Ang^3
#
#
#
# Elastic Constant Matrix: (Units=GPa)
#
#
# Indices 1 2 3 4 5 6 
#
# 1 95.9658 32.4255 72.7565 0.0000 -9.7057 0.0007
# 2 32.4255 83.9280 28.1265 0.0001 -1.8429 0.0000
# 3 72.7565 28.1265 126.3281 0.0001 -30.2633 0.0013
# 4 0.0000 0.0001 0.0001 33.4256 0.0001 2.3657
# 5 -9.7057 -1.8429 -30.2633 0.0001 37.2318 0.0008
# 6 0.0007 0.0000 0.0013 2.3657 0.0008 19.2938
#
#
#
# Elastic Compliance Matrix: (Units=1/GPa)
#
#
# Indices 1 2 3 4 5 6 
#
# 1 0.020342 -0.003960 -0.011934 0.000000 -0.004594 0.000000
# 2 -0.003960 0.013781 -0.001082 0.000000 -0.001230 0.000000
# 3 -0.011934 -0.001082 0.017723 0.000000 0.011241 -0.000001
# 4 0.000000 0.000000 0.000000 0.030179 0.000000 -0.003700
# 5 -0.004594 -0.001230 0.011241 0.000000 0.034738 -0.000002
# 6 0.000000 0.000000 -0.000001 -0.003700 -0.000002 0.052284
#
#
# Mechanical properties :
#
#
# Convention : Reuss Voigt Hill
#
# Bulk Modulus (GPa) = 55.88939 63.64876 59.76907
# Shear Modulus (GPa) = 23.92758 29.51780 26.72269
#
# Velocity S-wave (km/s) = 3.31556 3.68256 3.50387
# Velocity P-wave (km/s) = 6.35093 6.87921 6.62034
#
# Compressibility (1/GPa) = 0.01789248
#
# Stress axis : x y z
#
# Youngs Moduli (GPa) = 49.15942 72.56558 56.42342
#
# Poissons Ratio (x) = 0.28739 0.67338
# Poissons Ratio (y) = 0.19469 0.06104
# Poissons Ratio (z) = 0.58669 0.07850
#
# Static dielectric constant tensor:
#      x y z
#    x 3.744030 0.000000 -0.043660 
#    y 0.000000 4.097390 0.000000 
#    z -0.043660 0.000000 4.272200 
# 
# 
# High freq. dielectric constant tensor:
#      x y z
#    x 1.851310 0.000000 -0.005050 
#    y 0.000000 1.846200 0.000000 
#    z -0.005050 0.000000 1.879640 
# 
# From -- ./inp_files/5221.got.cif
#   From: 2010.06.25/outbox.cif.g09.slc.cpg/sg9_3_cif.got.tgz:5221.got - 2010.06.27 21:40:51.
