data_PCOD8056863
_publ_section_title
;
Structure prediction by ZEFSAII (Michael W. Deem and Ramdas Pophale) SiO2 
 PCOD8056863
Probable space group: P 2/M
;
_chemical_formula_sum "Si O2"
_cell_formula_units_Z 32
_cell_length_a 14.949332
_cell_length_b 13.112224
_cell_length_c 12.766519
_cell_angle_alpha 90.000000
_cell_angle_beta 105.180733
_cell_angle_gamma 90.000000
_cell_volume 2415.155129
_symmetry_space_group_name_H-M "P 2/M"
_symmetry_group_IT_number 10
_symmetry_cell_setting 'monoclinic'
loop_
_space_group_symop_operation_xyz
x,y,z
-x,y,-z
-x,-y,-z
x,-y,z
loop_
_atom_site_type_symbol
_atom_site_label
_atom_site_fract_x
_atom_site_fract_y
_atom_site_fract_z
Si Si1 0.911662 0.119598 0.756386
Si Si2 0.108406 0.796418 0.863859
Si Si3 0.218299 0.120277 0.703834
Si Si4 0.593270 0.880198 0.147672
Si Si5 0.610801 0.878677 0.916601
Si Si6 0.894959 0.614953 0.007063
Si Si7 0.094435 0.879252 0.479028
Si Si8 0.204861 0.202401 0.099130
O O1 0.891594 0.164326 0.633736
O O2 0.826434 0.146334 0.805031
O O3 0.003432 0.167137 0.832880
O O4 0.925966 0.000000 0.753448
O O5 0.157928 0.822176 0.771424
O O6 0.108899 0.673241 0.881723
O O7 0.159209 0.848772 0.980242
O O8 0.326178 0.153236 0.746500
O O9 0.181755 0.152984 0.578229
O O10 0.205444 0.000000 0.719588
O O11 0.491718 0.843510 0.154621
O O12 0.585932 0.000000 0.135849
O O13 0.619681 0.841863 0.039803
O O14 0.684556 0.813667 0.872478
O O15 0.627845 0.000000 0.907874
O O16 0.857530 0.500000 0.007098
O O17 0.826967 0.678060 0.906755
O O18 0.000000 0.616319 0.000000
O O19 0.000000 0.834219 0.500000
O O20 0.086721 0.000000 0.472426
#
# Coordination Sequence:
#
# PCOD8056863 Si02
#       8
#     4   4   4   4   4   4   4   4
#     4  11  19  26  35  56  89 110 131 160 192 234
#     4  10  17  26  39  62  77 105 133 153 205 235
#     4  10  16  25  41  59  83 109 141 167 183 225
#     4   8  14  23  36  54  78 110 136 160 191 222
#     4   9  15  23  36  58  85 104 126 162 199 235
#     4   9  17  30  40  54  80 106 133 159 191 249
#     4   9  17  26  36  51  78 118 143 159 185 214
#     4  10  18  27  38  61  79 105 132 153 211 241
#
# _framework density 13.249667000000001
#
# number of rings (size 3 to 8) (size 9 to 14) (size 15 to 20)
#    0.750    1.750    3.750    1.875    0.000    2.000 
#    0.000    0.000    0.000    0.750    0.000   14.000 
#    0.000    0.000    0.000    1.125    0.000    0.125 
#
# Total GULP energy -396441.736367 kJ/mol
# GULP energy per Si atom -12388.804261 kJ/mol
# Density = 1.321951 g / cm^3
# Si number density = 13.249667 Si / 1000 Ang^3
#
#
#
# Elastic Constant Matrix: (Units=GPa)
#
#
# Indices 1 2 3 4 5 6 
#
# 1 95.1945 8.9044 33.3073 0.0000 8.9328 0.0000
# 2 8.9044 35.0450 8.5551 0.0000 4.6500 0.0000
# 3 33.3073 8.5551 72.0372 0.0000 1.9789 0.0000
# 4 0.0000 0.0000 0.0000 4.2282 0.0000 -1.5334
# 5 8.9328 4.6500 1.9789 0.0000 18.4972 0.0000
# 6 0.0000 0.0000 0.0000 -1.5334 0.0000 9.6836
#
#
#
# Elastic Compliance Matrix: (Units=1/GPa)
#
#
# Indices 1 2 3 4 5 6 
#
# 1 0.013153 -0.001208 -0.005789 0.000000 -0.005429 0.000000
# 2 -0.001208 0.030440 -0.002871 0.000000 -0.006762 0.000000
# 3 -0.005789 -0.002871 0.016852 0.000000 0.001714 0.000000
# 4 0.000000 0.000000 0.000000 0.250917 0.000000 0.039733
# 5 -0.005429 -0.006762 0.001714 0.000000 0.058200 0.000000
# 6 0.000000 0.000000 0.000000 0.039733 0.000000 0.109560
#
#
# Mechanical properties :
#
#
# Convention : Reuss Voigt Hill
#
# Bulk Modulus (GPa) = 24.56454 33.75671 29.16062
# Shear Modulus (GPa) = 9.75750 16.58246 13.16998
#
# Velocity S-wave (km/s) = 2.71667 3.54155 3.15617
# Velocity P-wave (km/s) = 5.33108 6.50047 5.94460
#
# Compressibility (1/GPa) = 0.04070909
#
# Stress axis : x y z
#
# Youngs Moduli (GPa) = 76.03039 32.85180 59.34020
#
# Poissons Ratio (x) = 0.03970 0.34350
# Poissons Ratio (y) = 0.09188 0.17034
# Poissons Ratio (z) = 0.44011 0.09430
#
# Static dielectric constant tensor:
#      x y z
#    x 2.849040 0.000000 0.138910 
#    y 0.000000 2.337500 0.000000 
#    z 0.138910 0.000000 2.686410 
# 
# 
# High freq. dielectric constant tensor:
#      x y z
#    x 1.507250 0.000000 0.002960 
#    y 0.000000 1.453540 0.000000 
#    z 0.002960 0.000000 1.489430 
# 
# From -- ./inp_files/51231.got.cif
#   From: 2010.06.25/outbox.cif.g09.slc.cpg/sg10_26_cif.got.tgz:51231.got - 2010.06.27 22:07:45.
