data_PCOD8056484
_publ_section_title
;
Structure prediction by ZEFSAII (Michael W. Deem and Ramdas Pophale) SiO2 
 PCOD8056484
Probable space group: C C
;
_chemical_formula_sum "Si O2"
_cell_formula_units_Z 32
_cell_length_a 11.080080
_cell_length_b 15.936831
_cell_length_c 9.073393
_cell_angle_alpha 90.000000
_cell_angle_beta 65.187768
_cell_angle_gamma 90.000000
_cell_volume 1454.290396
_symmetry_space_group_name_H-M "C C"
_symmetry_group_IT_number 9
_symmetry_cell_setting 'monoclinic'
loop_
_space_group_symop_operation_xyz
x,y,z
x,-y,1/2+z
1/2+x,1/2+y,z
1/2+x,1/2-y,1/2+z
loop_
_atom_site_type_symbol
_atom_site_label
_atom_site_fract_x
_atom_site_fract_y
_atom_site_fract_z
Si Si1 0.381090 0.752813 0.145290
Si Si2 0.330689 0.708608 0.489119
Si Si3 0.402866 0.805584 0.711182
Si Si4 0.883746 0.912954 0.482988
Si Si5 0.587546 0.949391 0.712017
Si Si6 0.170935 0.198927 0.559404
Si Si7 0.079268 0.608535 0.536498
Si Si8 0.475236 0.570689 0.605941
O O1 0.409390 0.730136 0.299600
O O2 0.225932 0.776673 0.193137
O O3 0.447919 0.840227 0.066787
O O4 0.432514 0.677663 0.014165
O O5 0.328139 0.792954 0.591986
O O6 0.184314 0.680679 0.518913
O O7 0.396496 0.629595 0.534033
O O8 0.459536 0.897692 0.717355
O O9 0.530295 0.745774 0.623838
O O10 0.292149 0.775115 0.886869
O O11 0.724379 0.916121 0.574200
O O12 0.910949 0.928594 0.299235
O O13 0.964425 0.978363 0.543529
O O14 0.562921 0.045993 0.682449
O O15 0.609793 0.945988 0.875909
O O16 0.129478 0.101830 0.546618
#
# Coordination Sequence:
#
# PCOD8056484 Si02
#       8
#     4   4   4   4   4   4   4   4
#     4  12  25  45  70 104 147 195 250 303 371 448
#     4  11  25  41  71 109 139 190 247 307 361 446
#     4  11  25  45  76 103 150 194 248 309 370 441
#     4  12  23  46  74 102 146 197 247 304 360 456
#     4  12  25  46  73 106 148 194 255 301 370 450
#     4  11  24  48  71 108 144 197 249 306 375 434
#     4  12  27  45  71 110 147 195 249 307 381 440
#     4  11  26  44  72 108 145 194 249 307 372 437
#
# _framework density 22.00386
#
# number of rings (size 3 to 8) (size 9 to 14) (size 15 to 20)
#    0.000    0.500    5.000    3.000    7.000    0.000 
#    2.250    0.000    0.000    0.000    0.000    0.000 
#    0.000    0.000    0.000    0.000    0.000    0.000 
#
# Total GULP energy -198273.155254 kJ/mol
# GULP energy per Si atom -12392.072203 kJ/mol
# Density = 2.195378 g / cm^3
# Si number density = 22.003860 Si / 1000 Ang^3
#
#
#
# Elastic Constant Matrix: (Units=GPa)
#
#
# Indices 1 2 3 4 5 6 
#
# 1 90.4931 49.9546 55.2340 0.0000 10.4964 0.0000
# 2 49.9546 90.0932 41.9237 0.0000 3.9834 0.0000
# 3 55.2340 41.9237 138.9320 0.0000 10.1761 0.0000
# 4 0.0000 0.0000 0.0000 32.3352 0.0000 14.2021
# 5 10.4964 3.9834 10.1761 0.0000 44.0527 0.0000
# 6 0.0000 0.0000 0.0000 14.2021 0.0000 52.3489
#
#
#
# Elastic Compliance Matrix: (Units=1/GPa)
#
#
# Indices 1 2 3 4 5 6 
#
# 1 0.018734 -0.008022 -0.004835 0.000000 -0.002621 0.000000
# 2 -0.008022 0.016351 -0.001807 0.000000 0.000850 0.000000
# 3 -0.004835 -0.001807 0.009734 0.000000 -0.000933 0.000000
# 4 0.000000 0.000000 0.000000 0.035110 0.000000 -0.009525
# 5 -0.002621 0.000850 -0.000933 0.000000 0.023463 0.000000
# 6 0.000000 0.000000 0.000000 -0.009525 0.000000 0.021687
#
#
# Mechanical properties :
#
#
# Convention : Reuss Voigt Hill
#
# Bulk Modulus (GPa) = 64.55628 68.19365 66.37496
# Shear Modulus (GPa) = 31.33419 37.24111 34.28765
#
# Velocity S-wave (km/s) = 3.77773 4.11844 3.95176
# Velocity P-wave (km/s) = 6.95921 7.32628 7.14510
#
# Compressibility (1/GPa) = 0.01549036
#
# Stress axis : x y z
#
# Youngs Moduli (GPa) = 53.37847 61.15921 102.73504
#
# Poissons Ratio (x) = 0.49060 0.49676
# Poissons Ratio (y) = 0.42818 0.18566
# Poissons Ratio (z) = 0.25810 0.11052
#
# Static dielectric constant tensor:
#      x y z
#    x 4.334400 0.000000 0.146280 
#    y 0.000000 4.190360 0.000000 
#    z 0.146280 0.000000 4.075950 
# 
# 
# High freq. dielectric constant tensor:
#      x y z
#    x 1.872220 0.000000 0.015530 
#    y 0.000000 1.860810 0.000000 
#    z 0.015530 0.000000 1.867850 
# 
# From -- ./inp_files/7566.got.cif
#   From: 2010.06.25/outbox.cif.g09.slc.cpg/sg9_4_cif.got.tgz:7566.got - 2010.06.27 21:40:51.
