data_PCOD8056671
_publ_section_title
;
Structure prediction by ZEFSAII (Michael W. Deem and Ramdas Pophale) SiO2 
 PCOD8056671
Probable space group: C C
;
_chemical_formula_sum "Si O2"
_cell_formula_units_Z 28
_cell_length_a 14.747994
_cell_length_b 10.392879
_cell_length_c 15.279279
_cell_angle_alpha 90.000000
_cell_angle_beta 149.459032
_cell_angle_gamma 90.000000
_cell_volume 1190.055750
_symmetry_space_group_name_H-M "C C"
_symmetry_group_IT_number 9
_symmetry_cell_setting 'monoclinic'
loop_
_space_group_symop_operation_xyz
x,y,z
x,-y,1/2+z
1/2+x,1/2+y,z
1/2+x,1/2-y,1/2+z
loop_
_atom_site_type_symbol
_atom_site_label
_atom_site_fract_x
_atom_site_fract_y
_atom_site_fract_z
Si Si1 0.415440 0.031642 0.318390
Si Si2 0.484645 0.587983 0.132549
Si Si3 0.888830 0.178906 0.496075
Si Si4 0.372062 0.150220 0.466539
Si Si5 0.767860 0.115162 0.113729
Si Si6 0.592004 0.362063 0.005091
Si Si7 0.498237 0.084486 0.186706
O O1 0.397248 0.131247 0.383120
O O2 0.465549 0.084783 0.263805
O O3 0.580866 0.944912 0.488071
O O4 0.217825 0.971903 0.149599
O O5 0.514364 0.444664 0.120771
O O6 0.430663 0.701685 0.021728
O O7 0.668558 0.632775 0.329231
O O8 0.320069 0.566963 0.061622
O O9 0.692505 0.127473 0.318621
O O10 0.981035 0.224475 0.482711
O O11 0.873237 0.299346 0.548487
O O12 0.473079 0.051944 0.616392
O O13 0.735402 0.268229 0.078067
O O14 0.938627 0.078527 0.315527
#
# Coordination Sequence:
#
# PCOD8056671 Si02
#       7
#     4   4   4   4   4   4   4
#     4  12  26  48  72 110 150 196 250 308 378 440
#     4  12  25  48  72 106 147 192 242 305 374 438
#     4  12  25  48  72 106 147 192 242 305 374 438
#     4  12  27  48  76 109 152 193 250 311 373 450
#     4  12  24  43  75 109 145 193 254 306 364 449
#     4  12  24  43  75 109 145 193 254 306 364 449
#     4  12  27  48  76 109 152 193 250 311 373 450
#
# _framework density 23.528307999999999
#
# number of rings (size 3 to 8) (size 9 to 14) (size 15 to 20)
#    0.000    0.000    4.286    6.857    0.000    1.143 
#    2.571    0.000    0.000    0.000    0.000    0.000 
#    0.000    0.000    0.000    0.000    0.000    0.000 
#
# Total GULP energy -173450.974420 kJ/mol
# GULP energy per Si atom -12389.355316 kJ/mol
# Density = 2.347476 g / cm^3
# Si number density = 23.528308 Si / 1000 Ang^3
#
#
#
# Elastic Constant Matrix: (Units=GPa)
#
#
# Indices 1 2 3 4 5 6 
#
# 1 115.5431 11.1018 21.0647 0.0003 -2.2011 0.0001
# 2 11.1018 75.7239 0.8070 0.0003 -16.1329 0.0002
# 3 21.0647 0.8070 114.7596 0.0005 9.5067 0.0004
# 4 0.0003 0.0003 0.0005 43.7460 0.0002 -3.7658
# 5 -2.2011 -16.1329 9.5067 0.0002 42.2791 0.0001
# 6 0.0001 0.0002 0.0004 -3.7658 0.0001 30.2676
#
#
#
# Elastic Compliance Matrix: (Units=1/GPa)
#
#
# Indices 1 2 3 4 5 6 
#
# 1 0.009089 -0.001233 -0.001691 0.000000 0.000383 0.000000
# 2 -0.001233 0.014578 -0.000338 0.000000 0.005574 0.000000
# 3 -0.001691 -0.000338 0.009216 0.000000 -0.002289 0.000000
# 4 0.000000 0.000000 0.000000 0.023107 0.000000 0.002875
# 5 0.000383 0.005574 -0.002289 0.000000 0.026314 0.000000
# 6 0.000000 0.000000 0.000000 0.002875 0.000000 0.033396
#
#
# Mechanical properties :
#
#
# Convention : Reuss Voigt Hill
#
# Bulk Modulus (GPa) = 37.93827 41.33038 39.63433
# Shear Modulus (GPa) = 38.16476 41.46209 39.81343
#
# Velocity S-wave (km/s) = 4.03187 4.20244 4.11804
# Velocity P-wave (km/s) = 6.15095 6.41496 6.28434
#
# Compressibility (1/GPa) = 0.02635861
#
# Stress axis : x y z
#
# Youngs Moduli (GPa) = 110.02440 68.59725 108.50277
#
# Poissons Ratio (x) = 0.08457 0.18352
# Poissons Ratio (y) = 0.13565 0.03667
# Poissons Ratio (z) = 0.18609 0.02319
#
# Static dielectric constant tensor:
#      x y z
#    x 4.261390 0.000000 0.101510 
#    y 0.000000 4.539240 0.000000 
#    z 0.101510 0.000000 4.384430 
# 
# 
# High freq. dielectric constant tensor:
#      x y z
#    x 1.947240 0.000000 0.012350 
#    y 0.000000 1.920060 0.000000 
#    z 0.012350 0.000000 1.946480 
# 
# From -- ./inp_files/25942.got.cif
#   From: 2010.06.25/outbox.cif.g09.slc.cpg/sg9_13_cif.got.tgz:25942.got - 2010.06.27 21:40:51.
