data_PCOD8056257
_publ_section_title
;
Structure prediction by ZEFSAII (Michael W. Deem and Ramdas Pophale) SiO2 
 PCOD8056257
Probable space group: C C
;
_chemical_formula_sum "Si O2"
_cell_formula_units_Z 28
_cell_length_a 8.795172
_cell_length_b 15.145920
_cell_length_c 19.011487
_cell_angle_alpha 90.000000
_cell_angle_beta 148.558969
_cell_angle_gamma 90.000000
_cell_volume 1321.024707
_symmetry_space_group_name_H-M "C C"
_symmetry_group_IT_number 9
_symmetry_cell_setting 'monoclinic'
loop_
_space_group_symop_operation_xyz
x,y,z
x,-y,1/2+z
1/2+x,1/2+y,z
1/2+x,1/2-y,1/2+z
loop_
_atom_site_type_symbol
_atom_site_label
_atom_site_fract_x
_atom_site_fract_y
_atom_site_fract_z
Si Si1 0.745320 0.853555 0.044700
Si Si2 0.054297 0.480149 0.087892
Si Si3 0.140292 0.505906 0.398920
Si Si4 0.133584 0.268859 0.776782
Si Si5 0.613049 0.864998 0.502431
Si Si6 0.269023 0.163314 0.256260
Si Si7 0.889607 0.958670 0.852646
O O1 0.673602 0.898454 0.090566
O O2 0.001780 0.782743 0.157532
O O3 0.845714 0.928377 0.027569
O O4 0.455159 0.805662 0.898455
O O5 0.042379 0.568879 0.037512
O O6 0.274329 0.489721 0.239440
O O7 0.736263 0.456757 0.990297
O O8 0.090159 0.413367 0.417811
O O9 0.289616 0.489065 0.382987
O O10 0.830565 0.557803 0.268006
O O11 0.265661 0.359939 0.801872
O O12 0.871218 0.283308 0.728097
O O13 0.384359 0.214012 0.914697
O O14 0.930517 0.821692 0.637152
#
# Coordination Sequence:
#
# PCOD8056257 Si02
#       7
#     4   4   4   4   4   4   4
#     4   9  21  44  65  90 136 173 215 264 331 400
#     4  11  24  42  70  97 127 174 229 272 317 400
#     4   8  22  40  69  91 130 176 219 256 330 402
#     4  11  25  41  65 102 134 167 220 280 333 379
#     4  11  23  43  74  92 129 183 219 267 338 397
#     4   9  22  43  63  97 128 172 217 267 321 407
#     4  11  25  41  64 101 134 161 225 284 326 383
#
# _framework density 21.195668000000001
#
# number of rings (size 3 to 8) (size 9 to 14) (size 15 to 20)
#    0.857    1.143    0.000    1.714   12.000    0.000 
#    0.000    0.000    0.000    0.000    0.000    0.000 
#    0.000    0.000    0.000    0.000    0.000    0.000 
#
# Total GULP energy -173569.279280 kJ/mol
# GULP energy per Si atom -12397.805663 kJ/mol
# Density = 2.114743 g / cm^3
# Si number density = 21.195668 Si / 1000 Ang^3
#
#
#
# Elastic Constant Matrix: (Units=GPa)
#
#
# Indices 1 2 3 4 5 6 
#
# 1 75.3658 11.3816 9.5599 0.0010 -6.9192 -0.0004
# 2 11.3816 44.7207 15.9854 0.0013 2.5691 0.0000
# 3 9.5599 15.9854 81.6480 0.0026 5.8083 -0.0009
# 4 0.0010 0.0013 0.0026 34.5265 0.0007 4.2131
# 5 -6.9192 2.5691 5.8083 0.0007 43.2599 0.0004
# 6 -0.0004 0.0000 -0.0009 4.2131 0.0004 15.1208
#
#
#
# Elastic Compliance Matrix: (Units=1/GPa)
#
#
# Indices 1 2 3 4 5 6 
#
# 1 0.014164 -0.003329 -0.001193 0.000000 0.002623 0.000000
# 2 -0.003329 0.024854 -0.004375 0.000000 -0.001421 0.000000
# 3 -0.001193 -0.004375 0.013367 -0.000001 -0.001726 0.000001
# 4 0.000000 0.000000 -0.000001 0.029983 0.000000 -0.008354
# 5 0.002623 -0.001421 -0.001726 0.000000 0.023852 -0.000001
# 6 0.000000 0.000000 0.000001 -0.008354 -0.000001 0.068462
#
#
# Mechanical properties :
#
#
# Convention : Reuss Voigt Hill
#
# Bulk Modulus (GPa) = 28.91042 30.62092 29.76567
# Shear Modulus (GPa) = 24.50925 29.56861 27.03893
#
# Velocity S-wave (km/s) = 3.40418 3.73906 3.57554
# Velocity P-wave (km/s) = 5.39635 5.75491 5.57851
#
# Compressibility (1/GPa) = 0.03458960
#
# Stress axis : x y z
#
# Youngs Moduli (GPa) = 70.60383 40.23535 74.81245
#
# Poissons Ratio (x) = 0.13394 0.08927
# Poissons Ratio (y) = 0.23503 0.32731
# Poissons Ratio (z) = 0.08425 0.17603
#
# Static dielectric constant tensor:
#      x y z
#    x 3.698700 0.000000 -0.120250 
#    y 0.000000 3.628210 0.000000 
#    z -0.120250 0.000000 3.806140 
# 
# 
# High freq. dielectric constant tensor:
#      x y z
#    x 1.826020 0.000000 -0.006550 
#    y 0.000000 1.814840 0.000000 
#    z -0.006550 0.000000 1.836440 
# 
# From -- ./inp_files/29526.got.cif
#   From: 2010.06.25/outbox.cif.g09.slc.cpg/sg9_15_cif.got.tgz:29526.got - 2010.06.27 21:40:51.
