data_PCOD8056276
_publ_section_title
;
Structure prediction by ZEFSAII (Michael W. Deem and Ramdas Pophale) SiO2 
 PCOD8056276
Probable space group: C C
;
_chemical_formula_sum "Si O2"
_cell_formula_units_Z 32
_cell_length_a 18.070943
_cell_length_b 13.446357
_cell_length_c 12.170208
_cell_angle_alpha 90.000000
_cell_angle_beta 152.030158
_cell_angle_gamma 90.000000
_cell_volume 1386.955573
_symmetry_space_group_name_H-M "C C"
_symmetry_group_IT_number 9
_symmetry_cell_setting 'monoclinic'
loop_
_space_group_symop_operation_xyz
x,y,z
x,-y,1/2+z
1/2+x,1/2+y,z
1/2+x,1/2-y,1/2+z
loop_
_atom_site_type_symbol
_atom_site_label
_atom_site_fract_x
_atom_site_fract_y
_atom_site_fract_z
Si Si1 0.452860 0.368507 0.160640
Si Si2 0.512240 0.083665 0.531878
Si Si3 0.769536 0.988664 0.750835
Si Si4 0.850577 0.751706 0.723108
Si Si5 0.550073 0.144208 0.823627
Si Si6 0.356573 0.102341 0.907335
Si Si7 0.510545 0.535811 0.404146
Si Si8 0.309225 0.179623 0.077076
O O1 0.487827 0.475108 0.262520
O O2 0.618974 0.322747 0.335604
O O3 0.330093 0.394130 0.902077
O O4 0.367188 0.292363 0.131731
O O5 0.498933 0.135474 0.631115
O O6 0.689729 0.080601 0.712892
O O7 0.485685 0.967134 0.520436
O O8 0.386521 0.137207 0.288946
O O9 0.638951 0.951234 0.490933
O O10 0.923393 0.027937 0.886467
O O11 0.662485 0.759476 0.473111
O O12 0.896733 0.667985 0.695053
O O13 0.886904 0.711092 0.893945
O O14 0.928524 0.856387 0.795769
O O15 0.370204 0.111405 0.056218
O O16 0.192914 0.048792 0.665568
#
# Coordination Sequence:
#
# PCOD8056276 Si02
#       8
#     4   4   4   4   4   4   4   4
#     4  12  28  48  74 109 154 192 249 306 376 438
#     4  12  27  47  71 108 152 191 239 303 377 434
#     4  11  23  45  75 105 140 193 244 300 357 436
#     4  11  23  44  75 104 137 181 247 298 358 423
#     4  11  24  43  70 104 139 187 240 293 355 435
#     4  12  24  46  78 103 145 190 251 297 359 444
#     4  11  24  46  71 109 141 188 242 307 355 433
#     4  12  29  47  72 112 150 200 242 308 373 443
#
# _framework density 23.072116000000001
#
# number of rings (size 3 to 8) (size 9 to 14) (size 15 to 20)
#    0.000    0.500    5.000    3.750    3.500    1.000 
#    2.250    0.000    0.000    0.000    0.000    0.000 
#    0.000    0.000    0.000    0.000    0.000    0.000 
#
# Total GULP energy -198335.551153 kJ/mol
# GULP energy per Si atom -12395.971947 kJ/mol
# Density = 2.301960 g / cm^3
# Si number density = 23.072116 Si / 1000 Ang^3
#
#
#
# Elastic Constant Matrix: (Units=GPa)
#
#
# Indices 1 2 3 4 5 6 
#
# 1 114.2114 14.5161 23.7421 0.0000 -7.9817 0.0000
# 2 14.5161 51.2253 13.4798 0.0000 -8.3525 0.0000
# 3 23.7421 13.4798 79.5581 0.0000 -19.6168 0.0000
# 4 0.0000 0.0000 0.0000 28.9928 0.0000 1.3863
# 5 -7.9817 -8.3525 -19.6168 0.0000 49.9559 0.0000
# 6 0.0000 0.0000 0.0000 1.3863 0.0000 36.6900
#
#
#
# Elastic Compliance Matrix: (Units=1/GPa)
#
#
# Indices 1 2 3 4 5 6 
#
# 1 0.009537 -0.002022 -0.002448 0.000000 0.000224 0.000000
# 2 -0.002022 0.021098 -0.002415 0.000000 0.002256 0.000000
# 3 -0.002448 -0.002415 0.014962 0.000000 0.005080 0.000000
# 4 0.000000 0.000000 0.000000 0.034554 0.000000 -0.001306
# 5 0.000224 0.002256 0.005080 0.000000 0.022426 0.000000
# 6 0.000000 0.000000 0.000000 -0.001306 0.000000 0.027305
#
#
# Mechanical properties :
#
#
# Convention : Reuss Voigt Hill
#
# Bulk Modulus (GPa) = 31.41998 38.71898 35.06948
# Shear Modulus (GPa) = 32.41272 36.01154 34.21213
#
# Velocity S-wave (km/s) = 3.75219 3.95501 3.85494
# Velocity P-wave (km/s) = 5.69382 6.13794 5.92005
#
# Compressibility (1/GPa) = 0.03182688
#
# Stress axis : x y z
#
# Youngs Moduli (GPa) = 104.85167 47.39802 66.83636
#
# Poissons Ratio (x) = 0.09583 0.16363
# Poissons Ratio (y) = 0.21199 0.16141
# Poissons Ratio (z) = 0.25671 0.11447
#
# Static dielectric constant tensor:
#      x y z
#    x 4.645780 0.000000 0.241460 
#    y 0.000000 4.042840 0.000000 
#    z 0.241460 0.000000 4.119170 
# 
# 
# High freq. dielectric constant tensor:
#      x y z
#    x 1.937840 0.000000 0.007460 
#    y 0.000000 1.893610 0.000000 
#    z 0.007460 0.000000 1.904590 
# 
# From -- ./inp_files/19411.got.cif
#   From: 2010.06.25/outbox.cif.g09.slc.cpg/sg9_10_cif.got.tgz:19411.got - 2010.06.27 21:40:51.
