data_PCOD8056334
_publ_section_title
;
Structure prediction by ZEFSAII (Michael W. Deem and Ramdas Pophale) SiO2 
 PCOD8056334
Probable space group: C C
;
_chemical_formula_sum "Si O2"
_cell_formula_units_Z 32
_cell_length_a 19.140865
_cell_length_b 8.646687
_cell_length_c 9.074034
_cell_angle_alpha 90.000000
_cell_angle_beta 104.281485
_cell_angle_gamma 90.000000
_cell_volume 1455.386281
_symmetry_space_group_name_H-M "C C"
_symmetry_group_IT_number 9
_symmetry_cell_setting 'monoclinic'
loop_
_space_group_symop_operation_xyz
x,y,z
x,-y,1/2+z
1/2+x,1/2+y,z
1/2+x,1/2-y,1/2+z
loop_
_atom_site_type_symbol
_atom_site_label
_atom_site_fract_x
_atom_site_fract_y
_atom_site_fract_z
Si Si1 0.461430 0.841019 0.736130
Si Si2 0.810784 0.184174 0.197685
Si Si3 0.741366 0.324068 0.892685
Si Si4 0.824449 0.168346 0.685549
Si Si5 0.577552 0.662402 0.294678
Si Si6 0.737332 0.324015 0.407150
Si Si7 0.081760 0.838560 0.446794
Si Si8 0.451977 0.158271 0.880934
O O1 0.408068 0.703199 0.760696
O O2 0.538386 0.799819 0.847219
O O3 0.467611 0.856812 0.562981
O O4 0.431641 0.995097 0.797779
O O5 0.743307 0.204468 0.274647
O O6 0.885948 0.225683 0.316011
O O7 0.814475 0.010558 0.137936
O O8 0.793194 0.302597 0.058685
O O9 0.770876 0.205447 0.789399
O O10 0.657955 0.282727 0.879863
O O11 0.745886 0.503242 0.846222
O O12 0.805377 0.284279 0.543653
O O13 0.559681 0.497465 0.357004
O O14 0.523574 0.785633 0.335211
O O15 0.567108 0.651175 0.113202
O O16 0.665403 0.300721 0.463498
#
# Coordination Sequence:
#
# PCOD8056334 Si02
#       8
#     4   4   4   4   4   4   4   4
#     4  12  27  46  72  99 141 187 236 296 353 427
#     4  12  27  42  72 104 141 185 232 294 347 415
#     4  11  25  43  75 101 141 187 228 289 344 425
#     4  12  25  46  68 104 142 178 238 289 351 415
#     4  11  25  46  71 104 139 185 236 286 356 418
#     4  11  23  47  69 103 140 182 236 279 354 417
#     4  11  25  45  74 101 140 185 232 293 350 425
#     4  12  27  47  69 102 140 187 240 290 357 422
#
# _framework density 21.987290000000002
#
# number of rings (size 3 to 8) (size 9 to 14) (size 15 to 20)
#    0.000    0.500    2.500    5.250   10.500    2.000 
#    0.000    0.000    0.000    0.000    0.000    0.000 
#    0.000    0.000    0.000    0.000    0.000    0.000 
#
# Total GULP energy -198431.810715 kJ/mol
# GULP energy per Si atom -12401.988170 kJ/mol
# Density = 2.193725 g / cm^3
# Si number density = 21.987290 Si / 1000 Ang^3
#
#
#
# Elastic Constant Matrix: (Units=GPa)
#
#
# Indices 1 2 3 4 5 6 
#
# 1 94.7143 52.4399 29.0614 0.0000 -4.0353 0.0000
# 2 52.4399 82.3946 52.5121 0.0000 -7.8758 0.0000
# 3 29.0614 52.5121 100.0323 0.0000 5.0668 0.0000
# 4 0.0000 0.0000 0.0000 40.9728 0.0000 0.7871
# 5 -4.0353 -7.8758 5.0668 0.0000 36.9670 0.0000
# 6 0.0000 0.0000 0.0000 0.7871 0.0000 40.7218
#
#
#
# Elastic Compliance Matrix: (Units=1/GPa)
#
#
# Indices 1 2 3 4 5 6 
#
# 1 0.016400 -0.011271 0.001191 0.000000 -0.000774 0.000000
# 2 -0.011271 0.027049 -0.011233 0.000000 0.006072 0.000000
# 3 0.001191 -0.011233 0.015771 0.000000 -0.004425 0.000000
# 4 0.000000 0.000000 0.000000 0.024416 0.000000 -0.000472
# 5 -0.000774 0.006072 -0.004425 0.000000 0.028867 0.000000
# 6 0.000000 0.000000 0.000000 -0.000472 0.000000 0.024566
#
#
# Mechanical properties :
#
#
# Convention : Reuss Voigt Hill
#
# Bulk Modulus (GPa) = 60.25514 60.57422 60.41468
# Shear Modulus (GPa) = 26.99410 33.27417 30.13414
#
# Velocity S-wave (km/s) = 3.50768 3.89438 3.70608
# Velocity P-wave (km/s) = 6.62337 6.91600 6.77127
#
# Compressibility (1/GPa) = 0.01659610
#
# Stress axis : x y z
#
# Youngs Moduli (GPa) = 60.97618 36.96929 63.40587
#
# Poissons Ratio (x) = 0.41668 -0.07555
# Poissons Ratio (y) = 0.68726 0.71222
# Poissons Ratio (z) = -0.07265 0.41527
#
# Static dielectric constant tensor:
#      x y z
#    x 4.023210 0.000000 -0.059210 
#    y 0.000000 3.752490 0.000000 
#    z -0.059210 0.000000 4.401930 
# 
# 
# High freq. dielectric constant tensor:
#      x y z
#    x 1.876760 0.000000 -0.003640 
#    y 0.000000 1.861620 0.000000 
#    z -0.003640 0.000000 1.876990 
# 
# From -- ./inp_files/11359.got.cif
#   From: 2010.06.25/outbox.cif.g09.slc.cpg/sg9_6_cif.got.tgz:11359.got - 2010.06.27 21:40:51.
