data_PCOD8056886
_publ_section_title
;
Structure prediction by ZEFSAII (Michael W. Deem and Ramdas Pophale) SiO2 
 PCOD8056886
Probable space group: P 2/M
;
_chemical_formula_sum "Si O2"
_cell_formula_units_Z 24
_cell_length_a 16.647913
_cell_length_b 13.948847
_cell_length_c 9.832037
_cell_angle_alpha 90.000000
_cell_angle_beta 144.388604
_cell_angle_gamma 90.000000
_cell_volume 1329.465214
_symmetry_space_group_name_H-M "P 2/M"
_symmetry_group_IT_number 10
_symmetry_cell_setting 'monoclinic'
loop_
_space_group_symop_operation_xyz
x,y,z
-x,y,-z
-x,-y,-z
x,-y,z
loop_
_atom_site_type_symbol
_atom_site_label
_atom_site_fract_x
_atom_site_fract_y
_atom_site_fract_z
Si Si1 0.704585 0.218918 0.550277
Si Si2 0.942151 0.106832 0.768352
Si Si3 0.055130 0.391800 0.723052
Si Si4 0.191666 0.209366 0.003983
Si Si5 0.450952 0.890636 0.277514
Si Si6 0.124468 0.391738 0.267420
O O1 0.794615 0.158146 0.567369
O O2 0.547536 0.181345 0.320964
O O3 0.734650 0.330768 0.556980
O O4 0.747752 0.202102 0.763434
O O5 0.041061 0.160716 0.797482
O O6 0.922672 0.000000 0.686744
O O7 0.000000 0.107521 0.000000
O O8 0.116320 0.500000 0.808403
O O9 0.177117 0.319191 0.933692
O O10 0.000000 0.362723 0.500000
O O11 0.925808 0.385338 0.647208
O O12 0.295836 0.150769 0.049912
O O13 0.500000 0.890773 0.500000
O O14 0.456759 0.000000 0.229104
O O15 0.159360 0.500000 0.270515
O O16 0.000000 0.350550 0.000000
#
# Coordination Sequence:
#
# PCOD8056886 Si02
#       6
#     4   4   4   4   4   4
#     4  10  16  27  45  74 101 130 163 198 249 296
#     4   9  15  23  41  68  95 121 160 205 239 281
#     4  10  20  33  51  75 101 131 167 208 255 302
#     4  10  17  29  46  70 100 132 166 200 247 296
#     4   9  18  29  44  70 107 139 162 199 250 299
#     4  10  17  29  50  75 101 127 161 209 258 295
#
# _framework density 18.052371000000001
#
# number of rings (size 3 to 8) (size 9 to 14) (size 15 to 20)
#    0.000    2.333    3.333    1.500    0.000    4.000 
#    0.000    0.833    0.000    6.000    0.000    4.667 
#    0.000    0.000    0.000    0.000    0.000    0.000 
#
# Total GULP energy -297442.951541 kJ/mol
# GULP energy per Si atom -12393.456314 kJ/mol
# Density = 1.801128 g / cm^3
# Si number density = 18.052371 Si / 1000 Ang^3
#
#
#
# Elastic Constant Matrix: (Units=GPa)
#
#
# Indices 1 2 3 4 5 6 
#
# 1 98.4361 49.1301 38.8050 0.0000 27.2919 0.0000
# 2 49.1301 140.3089 28.0416 0.0000 28.0226 0.0000
# 3 38.8050 28.0416 27.5842 0.0000 15.0073 0.0000
# 4 0.0000 0.0000 0.0000 12.4045 0.0000 10.0097
# 5 27.2919 28.0226 15.0073 0.0000 28.5671 0.0000
# 6 0.0000 0.0000 0.0000 10.0097 0.0000 30.2765
#
#
#
# Elastic Compliance Matrix: (Units=1/GPa)
#
#
# Indices 1 2 3 4 5 6 
#
# 1 0.024011 -0.001345 -0.028912 0.000000 -0.006431 0.000000
# 2 -0.001345 0.009708 -0.004894 0.000000 -0.005667 0.000000
# 3 -0.028912 -0.004894 0.089977 0.000000 -0.014847 0.000000
# 4 0.000000 0.000000 0.000000 0.109948 0.000000 -0.036350
# 5 -0.006431 -0.005667 -0.014847 0.000000 0.054508 0.000000
# 6 0.000000 0.000000 0.000000 -0.036350 0.000000 0.045047
#
#
# Mechanical properties :
#
#
# Convention : Reuss Voigt Hill
#
# Bulk Modulus (GPa) = 18.72817 55.36474 37.04645
# Shear Modulus (GPa) = 11.86810 24.27313 18.07061
#
# Velocity S-wave (km/s) = 2.56681 3.67085 3.16731
# Velocity P-wave (km/s) = 4.37968 6.97871 5.82598
#
# Compressibility (1/GPa) = 0.05339551
#
# Stress axis : x y z
#
# Youngs Moduli (GPa) = 41.64831 103.00837 11.11391
#
# Poissons Ratio (x) = 0.13853 0.32132
# Poissons Ratio (y) = 0.05601 0.05439
# Poissons Ratio (z) = 1.20412 0.50409
#
# Static dielectric constant tensor:
#      x y z
#    x 3.491290 0.000000 0.280990 
#    y 0.000000 3.603020 0.000000 
#    z 0.280990 0.000000 2.825160 
# 
# 
# High freq. dielectric constant tensor:
#      x y z
#    x 1.691450 0.000000 0.014760 
#    y 0.000000 1.717520 0.000000 
#    z 0.014760 0.000000 1.626570 
# 
# From -- ./inp_files/29660.got.cif
#   From: 2010.06.25/outbox.cif.g09.slc.cpg/sg10_15_cif.got.tgz:29660.got - 2010.06.27 22:07:45.
