data_PCOD8056544
_publ_section_title
;
Structure prediction by ZEFSAII (Michael W. Deem and Ramdas Pophale) SiO2 
 PCOD8056544
Probable space group: C C
;
_chemical_formula_sum "Si O2"
_cell_formula_units_Z 28
_cell_length_a 13.000513
_cell_length_b 9.279498
_cell_length_c 14.474612
_cell_angle_alpha 90.000000
_cell_angle_beta 41.902089
_cell_angle_gamma 90.000000
_cell_volume 1166.211009
_symmetry_space_group_name_H-M "C C"
_symmetry_group_IT_number 9
_symmetry_cell_setting 'monoclinic'
loop_
_space_group_symop_operation_xyz
x,y,z
x,-y,1/2+z
1/2+x,1/2+y,z
1/2+x,1/2-y,1/2+z
loop_
_atom_site_type_symbol
_atom_site_label
_atom_site_fract_x
_atom_site_fract_y
_atom_site_fract_z
Si Si1 0.242280 0.558278 0.443580
Si Si2 0.070043 0.858818 0.797639
Si Si3 0.110387 0.714876 0.102455
Si Si4 0.902766 0.612457 0.388730
Si Si5 0.659847 0.944787 0.301889
Si Si6 0.496673 0.572604 0.537046
Si Si7 0.684529 0.627485 0.027063
O O1 0.417942 0.590278 0.347604
O O2 0.160111 0.453033 0.572172
O O3 0.221102 0.468463 0.363907
O O4 0.162838 0.714011 0.499920
O O5 0.060171 0.697771 0.846332
O O6 0.089667 0.954686 0.877958
O O7 0.197178 0.873233 0.631840
O O8 0.964940 0.723605 0.269337
O O9 0.258578 0.809732 0.036513
O O10 0.047911 0.772255 0.045586
O O11 0.835081 0.461709 0.391693
O O12 0.049346 0.580888 0.355469
O O13 0.814483 0.933112 0.135827
O O14 0.534052 0.451821 0.587963
#
# Coordination Sequence:
#
# PCOD8056544 Si02
#       7
#     4   4   4   4   4   4   4
#     4  12  25  47  76 109 154 202 266 327 391 484
#     4  12  24  47  76 109 156 203 255 334 400 463
#     4  11  25  48  77 113 156 200 264 334 393 483
#     4  11  26  48  73 114 158 205 263 333 400 469
#     4  12  25  47  76 113 153 211 263 321 411 469
#     4  11  25  47  80 111 153 209 266 330 408 477
#     4  11  26  48  76 113 156 208 271 331 399 481
#
# _framework density 24.009377000000001
#
# number of rings (size 3 to 8) (size 9 to 14) (size 15 to 20)
#    0.000    0.571    4.286    3.429    4.000    2.286 
#    0.000    0.000    3.143    0.000    0.000    0.000 
#    0.000    0.000    0.000    0.000    0.000    0.000 
#
# Total GULP energy -173460.713613 kJ/mol
# GULP energy per Si atom -12390.050972 kJ/mol
# Density = 2.395473 g / cm^3
# Si number density = 24.009377 Si / 1000 Ang^3
#
#
#
# Elastic Constant Matrix: (Units=GPa)
#
#
# Indices 1 2 3 4 5 6 
#
# 1 118.3263 39.9644 33.4063 0.0000 -5.5770 0.0000
# 2 39.9644 136.6222 27.7389 0.0000 -4.3875 0.0000
# 3 33.4063 27.7389 94.7832 0.0000 3.6295 0.0000
# 4 0.0000 0.0000 0.0000 31.6700 0.0000 -4.1644
# 5 -5.5770 -4.3875 3.6295 0.0000 48.4417 0.0000
# 6 0.0000 0.0000 0.0000 -4.1644 0.0000 41.9282
#
#
#
# Elastic Compliance Matrix: (Units=1/GPa)
#
#
# Indices 1 2 3 4 5 6 
#
# 1 0.010120 -0.002328 -0.002931 0.000000 0.001174 0.000000
# 2 -0.002328 0.008355 -0.001648 0.000000 0.000612 0.000000
# 3 -0.002931 -0.001648 0.012119 0.000000 -0.001395 0.000000
# 4 0.000000 0.000000 0.000000 0.031993 0.000000 0.003178
# 5 0.001174 0.000612 -0.001395 0.000000 0.020938 0.000000
# 6 0.000000 0.000000 0.000000 0.003178 0.000000 0.024166
#
#
# Mechanical properties :
#
#
# Convention : Reuss Voigt Hill
#
# Bulk Modulus (GPa) = 59.59085 61.32790 60.45937
# Shear Modulus (GPa) = 39.33981 40.98279 40.16130
#
# Velocity S-wave (km/s) = 4.05225 4.13601 4.09434
# Velocity P-wave (km/s) = 6.83872 6.95755 6.89839
#
# Compressibility (1/GPa) = 0.01678110
#
# Stress axis : x y z
#
# Youngs Moduli (GPa) = 98.81378 119.69458 82.51493
#
# Poissons Ratio (x) = 0.27860 0.24182
# Poissons Ratio (y) = 0.23000 0.13599
# Poissons Ratio (z) = 0.28958 0.19727
#
# Static dielectric constant tensor:
#      x y z
#    x 4.203590 0.000000 -0.016890 
#    y 0.000000 4.410470 0.000000 
#    z -0.016890 0.000000 4.327870 
# 
# 
# High freq. dielectric constant tensor:
#      x y z
#    x 1.947710 0.000000 -0.007050 
#    y 0.000000 1.951910 0.000000 
#    z -0.007050 0.000000 1.948210 
# 
# From -- ./inp_files/25645.got.cif
#   From: 2010.06.25/outbox.cif.g09.slc.cpg/sg9_13_cif.got.tgz:25645.got - 2010.06.27 21:40:51.
