data_PCOD8056885
_publ_section_title
;
Structure prediction by ZEFSAII (Michael W. Deem and Ramdas Pophale) SiO2 
 PCOD8056885
Probable space group: P 2/M
;
_chemical_formula_sum "Si O2"
_cell_formula_units_Z 28
_cell_length_a 15.430635
_cell_length_b 10.892375
_cell_length_c 15.734225
_cell_angle_alpha 90.000000
_cell_angle_beta 142.447105
_cell_angle_gamma 90.000000
_cell_volume 1611.836105
_symmetry_space_group_name_H-M "P 2/M"
_symmetry_group_IT_number 10
_symmetry_cell_setting 'monoclinic'
loop_
_space_group_symop_operation_xyz
x,y,z
-x,y,-z
-x,-y,-z
x,-y,z
loop_
_atom_site_type_symbol
_atom_site_label
_atom_site_fract_x
_atom_site_fract_y
_atom_site_fract_z
Si Si1 0.784896 0.500000 0.779367
Si Si2 0.937856 0.716663 0.189971
Si Si3 0.133029 0.864381 0.715801
Si Si4 0.343038 0.270251 0.394825
Si Si5 0.091685 0.500000 0.940685
Si Si6 0.064354 0.141209 0.136651
Si Si7 0.237172 0.356807 0.489033
Si Si8 0.801060 0.139865 0.419458
O O1 0.686041 0.383675 0.689414
O O2 0.918972 0.500000 0.818190
O O3 0.833861 0.500000 0.912705
O O4 0.832365 0.772262 0.179528
O O5 0.854171 0.616154 0.070485
O O6 0.983845 0.820256 0.159197
O O7 0.071235 0.650896 0.338152
O O8 0.212417 0.825961 0.690875
O O9 0.964412 0.864420 0.572680
O O10 0.184246 0.000000 0.781779
O O11 0.500000 0.217419 0.500000
O O12 0.230794 0.166353 0.280594
O O13 0.331331 0.317098 0.482114
O O14 0.038335 0.000000 0.104840
O O15 0.000000 0.206251 0.000000
O O16 0.270535 0.500000 0.541919
O O17 0.275251 0.252730 0.590249
O O18 0.739011 0.000000 0.388620
#
# Coordination Sequence:
#
# PCOD8056885 Si02
#       8
#     2   4   4   4   2   4   4   4
#     4  11  19  32  48  65  91 130 163 200 237 288
#     4  10  16  27  42  66  90 123 158 195 237 286
#     4   8  14  25  40  59  86 120 157 192 230 291
#     4  11  21  33  50  70  96 128 168 202 239 288
#     4  11  18  28  48  68  94 123 164 202 237 287
#     4  10  20  33  49  70  98 131 163 199 245 290
#     4  10  17  28  42  64  92 122 161 202 242 288
#     4   8  15  27  41  58  85 126 162 189 236 298
#
# _framework density 17.371492
#
# number of rings (size 3 to 8) (size 9 to 14) (size 15 to 20)
#    0.000    2.286    4.286    2.357    0.000    3.714 
#    1.286    1.429    0.000    0.000    0.000    0.000 
#    0.000    5.714    0.000   16.000    0.000   10.000 
#
# Total GULP energy -346893.433483 kJ/mol
# GULP energy per Si atom -12389.051196 kJ/mol
# Density = 1.733195 g / cm^3
# Si number density = 17.371492 Si / 1000 Ang^3
#
#
#
# Elastic Constant Matrix: (Units=GPa)
#
#
# Indices 1 2 3 4 5 6 
#
# 1 80.5010 55.7331 38.8351 0.0000 -23.5403 0.0000
# 2 55.7331 109.1558 31.7346 0.0000 -23.2918 0.0000
# 3 38.8351 31.7346 46.6196 0.0000 -14.5509 0.0000
# 4 0.0000 0.0000 0.0000 -1.8140 0.0000 -9.9997
# 5 -23.5403 -23.2918 -14.5509 0.0000 23.8818 0.0000
# 6 0.0000 0.0000 0.0000 -9.9997 0.0000 26.6611
#
#
#
# Elastic Compliance Matrix: (Units=1/GPa)
#
#
# Indices 1 2 3 4 5 6 
#
# 1 0.028120 -0.007684 -0.014672 0.000000 0.011284 0.000000
# 2 -0.007684 0.014873 -0.001926 0.000000 0.005758 0.000000
# 3 -0.014672 -0.001926 0.036900 0.000000 0.006143 0.000000
# 4 0.000000 0.000000 0.000000 -0.179706 0.000000 -0.067402
# 5 0.011284 0.005758 0.006143 0.000000 0.062354 0.000000
# 6 0.000000 0.000000 0.000000 -0.067402 0.000000 0.012227
#
#
# Mechanical properties :
#
#
# Convention : Reuss Voigt Hill
#
# Bulk Modulus (GPa) = 31.91892 54.32023 43.11958
# Shear Modulus (GPa) = 148.03761 17.07733 82.55747
#
# Velocity S-wave (km/s) = 9.24141 3.13879 6.90129
# Velocity P-wave (km/s) = 11.50156 6.66886 9.40105
#
# Compressibility (1/GPa) = 0.03132938
#
# Stress axis : x y z
#
# Youngs Moduli (GPa) = 35.56226 67.23474 27.10004
#
# Poissons Ratio (x) = 0.51665 0.39760
# Poissons Ratio (y) = 0.27327 0.05220
# Poissons Ratio (z) = 0.52175 0.12950
#
# Static dielectric constant tensor:
#      x y z
#    x 3.267800 0.000000 -0.441700 
#    y 0.000000 3.464380 0.000000 
#    z -0.441700 0.000000 2.957540 
# 
# 
# High freq. dielectric constant tensor:
#      x y z
#    x 1.648180 0.000000 -0.042900 
#    y 0.000000 1.680970 0.000000 
#    z -0.042900 0.000000 1.625320 
# 
# From -- ./inp_files/55525.got.cif
#   From: 2010.06.25/outbox.cif.g09.slc.cpg/sg10_28_cif.got.tgz:55525.got - 2010.06.27 22:07:45.
