data_PCOD8056437
_publ_section_title
;
Structure prediction by ZEFSAII (Michael W. Deem and Ramdas Pophale) SiO2 
 PCOD8056437
Probable space group: C C
;
_chemical_formula_sum "Si O2"
_cell_formula_units_Z 32
_cell_length_a 14.067066
_cell_length_b 14.479191
_cell_length_c 9.029723
_cell_angle_alpha 90.000000
_cell_angle_beta 44.198434
_cell_angle_gamma 90.000000
_cell_volume 1282.170214
_symmetry_space_group_name_H-M "C C"
_symmetry_group_IT_number 9
_symmetry_cell_setting 'monoclinic'
loop_
_space_group_symop_operation_xyz
x,y,z
x,-y,1/2+z
1/2+x,1/2+y,z
1/2+x,1/2-y,1/2+z
loop_
_atom_site_type_symbol
_atom_site_label
_atom_site_fract_x
_atom_site_fract_y
_atom_site_fract_z
Si Si1 0.353140 0.312097 0.398410
Si Si2 0.308887 0.936685 0.717728
Si Si3 0.305469 0.223741 0.765546
Si Si4 0.590290 0.418945 0.521868
Si Si5 0.132073 0.756668 0.949869
Si Si6 0.928287 0.002865 0.945112
Si Si7 0.717724 0.862750 0.092680
Si Si8 0.457698 0.935086 0.246338
O O1 0.345182 0.258374 0.560455
O O2 0.206613 0.309275 0.483590
O O3 0.384953 0.419641 0.377336
O O4 0.472833 0.268077 0.163628
O O5 0.216086 0.851762 0.872197
O O6 0.367913 0.918370 0.491449
O O7 0.216800 0.026547 0.814171
O O8 0.429177 0.964115 0.702158
O O9 0.146912 0.186312 0.949325
O O10 0.417359 0.146881 0.679876
O O11 0.317588 0.308945 0.867693
O O12 0.556613 0.447332 0.729216
O O13 0.462212 0.444708 0.560240
O O14 0.136689 0.711800 0.781953
O O15 0.807546 0.928353 0.099636
O O16 0.616168 0.926689 0.110390
#
# Coordination Sequence:
#
# PCOD8056437 Si02
#       8
#     4   4   4   4   4   4   4   4
#     4  12  28  47  77 113 154 201 264 323 389 457
#     4  11  24  47  76 108 146 202 254 315 382 466
#     4  11  27  47  78 110 149 203 258 322 382 467
#     4  11  24  45  76 105 142 193 255 306 376 459
#     4  12  27  49  78 112 154 205 258 323 387 470
#     4  12  26  46  75 109 147 194 248 318 383 453
#     4  12  29  48  76 110 158 200 249 324 400 460
#     4  11  27  47  74 111 154 200 256 319 397 468
#
# _framework density 24.957684
#
# number of rings (size 3 to 8) (size 9 to 14) (size 15 to 20)
#    0.000    0.500    2.500    4.500    8.750    4.000 
#    0.000    0.000    0.000    0.000    0.000    0.000 
#    0.000    0.000    0.000    0.000    0.000    0.000 
#
# Total GULP energy -198428.321929 kJ/mol
# GULP energy per Si atom -12401.770121 kJ/mol
# Density = 2.490088 g / cm^3
# Si number density = 24.957684 Si / 1000 Ang^3
#
#
#
# Elastic Constant Matrix: (Units=GPa)
#
#
# Indices 1 2 3 4 5 6 
#
# 1 79.2292 17.8065 -14.4624 0.0000 3.4414 0.0000
# 2 17.8065 74.9350 13.8438 0.0000 -2.7278 0.0000
# 3 -14.4624 13.8438 87.3721 0.0000 13.5770 0.0000
# 4 0.0000 0.0000 0.0000 35.8845 0.0000 -2.4399
# 5 3.4414 -2.7278 13.5770 0.0000 34.5493 0.0000
# 6 0.0000 0.0000 0.0000 -2.4399 0.0000 43.4908
#
#
#
# Elastic Compliance Matrix: (Units=1/GPa)
#
#
# Indices 1 2 3 4 5 6 
#
# 1 0.014339 -0.004173 0.003523 0.000000 -0.003142 0.000000
# 2 -0.004173 0.015102 -0.003550 0.000000 0.003003 0.000000
# 3 0.003523 -0.003550 0.013514 0.000000 -0.005942 0.000000
# 4 0.000000 0.000000 0.000000 0.027974 0.000000 0.001569
# 5 -0.003142 0.003003 -0.005942 0.000000 0.031829 0.000000
# 6 0.000000 0.000000 0.000000 0.001569 0.000000 0.023081
#
#
# Mechanical properties :
#
#
# Convention : Reuss Voigt Hill
#
# Bulk Modulus (GPa) = 28.93920 30.65692 29.79806
# Shear Modulus (GPa) = 34.30362 37.74148 36.02255
#
# Velocity S-wave (km/s) = 3.71141 3.89294 3.80326
# Velocity P-wave (km/s) = 5.47600 5.70236 5.59032
#
# Compressibility (1/GPa) = 0.03455520
#
# Stress axis : x y z
#
# Youngs Moduli (GPa) = 69.74033 66.21824 73.99592
#
# Poissons Ratio (x) = 0.27630 -0.26068
# Poissons Ratio (y) = 0.29099 0.26269
# Poissons Ratio (z) = -0.24568 0.23508
#
# Static dielectric constant tensor:
#      x y z
#    x 4.675440 0.000000 0.026710 
#    y 0.000000 4.722890 0.000000 
#    z 0.026710 0.000000 4.220490 
# 
# 
# High freq. dielectric constant tensor:
#      x y z
#    x 1.998630 0.000000 0.002230 
#    y 0.000000 2.003610 0.000000 
#    z 0.002230 0.000000 1.991290 
# 
# From -- ./inp_files/9658.got.cif
#   From: 2010.06.25/outbox.cif.g09.slc.cpg/sg9_5_cif.got.tgz:9658.got - 2010.06.27 21:40:51.
