data_PCOD8056039
_publ_section_title
;
Structure prediction by ZEFSAII (Michael W. Deem and Ramdas Pophale) SiO2 
 PCOD8056039
Probable space group: C C
;
_chemical_formula_sum "Si O2"
_cell_formula_units_Z 32
_cell_length_a 14.149286
_cell_length_b 12.145254
_cell_length_c 9.076697
_cell_angle_alpha 90.000000
_cell_angle_beta 108.566345
_cell_angle_gamma 90.000000
_cell_volume 1478.621312
_symmetry_space_group_name_H-M "C C"
_symmetry_group_IT_number 9
_symmetry_cell_setting 'monoclinic'
loop_
_space_group_symop_operation_xyz
x,y,z
x,-y,1/2+z
1/2+x,1/2+y,z
1/2+x,1/2-y,1/2+z
loop_
_atom_site_type_symbol
_atom_site_label
_atom_site_fract_x
_atom_site_fract_y
_atom_site_fract_z
Si Si1 0.311280 0.872290 0.173140
Si Si2 0.359990 0.265532 0.245016
Si Si3 0.022273 0.733839 0.762628
Si Si4 0.841755 0.014930 0.617838
Si Si5 0.772101 0.599277 0.997113
Si Si6 0.235273 0.688515 0.948556
Si Si7 0.972049 0.074702 0.424846
Si Si8 0.058305 0.848010 0.472510
O O1 0.429032 0.848868 0.203228
O O2 0.293961 0.900730 0.335185
O O3 0.245047 0.764088 0.100214
O O4 0.273312 0.974378 0.056014
O O5 0.295082 0.372886 0.159233
O O6 0.305595 0.240553 0.372715
O O7 0.477563 0.289411 0.327384
O O8 0.357138 0.165190 0.129111
O O9 0.017128 0.806881 0.909056
O O10 0.124515 0.667753 0.833028
O O11 0.031807 0.813630 0.626109
O O12 0.932821 0.066845 0.570366
O O13 0.770705 0.937646 0.486376
O O14 0.879848 0.938535 0.767778
O O15 0.672323 0.671620 0.982342
O O16 0.052871 0.979235 0.447596
#
# Coordination Sequence:
#
# PCOD8056039 Si02
#       8
#     4   4   4   4   4   4   4   4
#     4  12  27  49  69 103 149 183 235 297 355 427
#     4  11  23  43  71 100 139 178 239 295 341 418
#     4  12  24  44  73 102 142 188 231 288 365 414
#     4  11  21  39  68  97 134 173 224 290 344 396
#     4  12  28  45  72 103 142 192 233 290 358 430
#     4  12  23  45  70 102 140 182 232 292 354 421
#     4  11  19  38  68  98 131 171 227 283 336 402
#     4  11  23  41  75 103 131 185 237 291 343 412
#
# _framework density 21.641783
#
# number of rings (size 3 to 8) (size 9 to 14) (size 15 to 20)
#    0.000    0.500    7.500    2.250    1.750    3.000 
#    4.500    0.000    0.000    0.000    0.000    0.000 
#    0.000    0.000    0.000    0.000    0.000    0.000 
#
# Total GULP energy -198301.532983 kJ/mol
# GULP energy per Si atom -12393.845811 kJ/mol
# Density = 2.159253 g / cm^3
# Si number density = 21.641783 Si / 1000 Ang^3
#
#
#
# Elastic Constant Matrix: (Units=GPa)
#
#
# Indices 1 2 3 4 5 6 
#
# 1 106.7564 27.8089 33.6457 0.0000 13.0300 0.0000
# 2 27.8089 83.6457 34.1742 0.0000 2.7749 0.0000
# 3 33.6457 34.1742 94.7340 0.0000 -4.6736 0.0000
# 4 0.0000 0.0000 0.0000 43.7193 0.0000 5.3156
# 5 13.0300 2.7749 -4.6736 0.0000 37.5515 0.0000
# 6 0.0000 0.0000 0.0000 5.3156 0.0000 26.7573
#
#
#
# Elastic Compliance Matrix: (Units=1/GPa)
#
#
# Indices 1 2 3 4 5 6 
#
# 1 0.011589 -0.002278 -0.003506 0.000000 -0.004289 0.000000
# 2 -0.002278 0.014575 -0.004490 0.000000 -0.000845 0.000000
# 3 -0.003506 -0.004490 0.013581 0.000000 0.003238 0.000000
# 4 0.000000 0.000000 0.000000 0.023439 0.000000 -0.004656
# 5 -0.004289 -0.000845 0.003238 0.000000 0.028584 0.000000
# 6 0.000000 0.000000 0.000000 -0.004656 0.000000 0.038298
#
#
# Mechanical properties :
#
#
# Convention : Reuss Voigt Hill
#
# Bulk Modulus (GPa) = 52.09406 52.93265 52.51336
# Shear Modulus (GPa) = 31.84439 34.23944 33.04192
#
# Velocity S-wave (km/s) = 3.84009 3.98188 3.91162
# Velocity P-wave (km/s) = 6.61702 6.75663 6.68719
#
# Compressibility (1/GPa) = 0.01919605
#
# Stress axis : x y z
#
# Youngs Moduli (GPa) = 86.28906 68.60937 73.63464
#
# Poissons Ratio (x) = 0.15631 0.25814
# Poissons Ratio (y) = 0.19659 0.33065
# Poissons Ratio (z) = 0.30250 0.30808
#
# Static dielectric constant tensor:
#      x y z
#    x 3.792780 0.000000 -0.040010 
#    y 0.000000 3.841320 0.000000 
#    z -0.040010 0.000000 4.039690 
# 
# 
# High freq. dielectric constant tensor:
#      x y z
#    x 1.833940 0.000000 -0.003440 
#    y 0.000000 1.840010 0.000000 
#    z -0.003440 0.000000 1.866380 
# 
# From -- ./inp_files/9105.got.cif
#   From: 2010.06.25/outbox.cif.g09.slc.cpg/sg9_5_cif.got.tgz:9105.got - 2010.06.27 21:40:51.
