data_PCOD8056311
_publ_section_title
;
Structure prediction by ZEFSAII (Michael W. Deem and Ramdas Pophale) SiO2 
 PCOD8056311
Probable space group: C C
;
_chemical_formula_sum "Si O2"
_cell_formula_units_Z 32
_cell_length_a 8.512631
_cell_length_b 18.464588
_cell_length_c 13.484642
_cell_angle_alpha 90.000000
_cell_angle_beta 136.640839
_cell_angle_gamma 90.000000
_cell_volume 1455.215551
_symmetry_space_group_name_H-M "C C"
_symmetry_group_IT_number 9
_symmetry_cell_setting 'monoclinic'
loop_
_space_group_symop_operation_xyz
x,y,z
x,-y,1/2+z
1/2+x,1/2+y,z
1/2+x,1/2-y,1/2+z
loop_
_atom_site_type_symbol
_atom_site_label
_atom_site_fract_x
_atom_site_fract_y
_atom_site_fract_z
Si Si1 0.921740 0.487221 0.689670
Si Si2 0.594747 0.733251 0.913931
Si Si3 0.608822 0.532410 0.711033
Si Si4 0.381423 0.885004 0.031276
Si Si5 0.916483 0.611692 0.004331
Si Si6 0.664484 0.102906 0.463183
Si Si7 0.950379 0.113766 0.221597
Si Si8 0.600911 0.739213 0.142666
O O1 0.692799 0.507432 0.642424
O O2 0.992117 0.560668 0.663260
O O3 0.864197 0.425259 0.584877
O O4 0.110412 0.457096 0.853607
O O5 0.644502 0.816670 0.911405
O O6 0.339068 0.718076 0.761222
O O7 0.776579 0.686382 0.935759
O O8 0.594006 0.710174 0.028229
O O9 0.426294 0.596710 0.617860
O O10 0.461962 0.466684 0.685919
O O11 0.825168 0.558683 0.875861
O O12 0.418333 0.802127 0.080228
O O13 0.488733 0.906064 0.973779
O O14 0.104342 0.888965 0.892560
O O15 0.184542 0.630783 0.117770
O O16 0.063028 0.172756 0.199589
#
# Coordination Sequence:
#
# PCOD8056311 Si02
#       8
#     4   4   4   4   4   4   4   4
#     4  12  24  44  70 102 136 190 228 281 363 407
#     4  11  23  46  71 103 138 187 232 289 353 428
#     4  12  25  44  71 103 139 183 234 294 346 422
#     4  11  24  47  70 106 142 182 237 294 350 420
#     4  12  27  43  73 106 138 189 236 287 357 414
#     4  11  24  46  71 101 144 175 238 295 344 423
#     4  12  24  48  68 102 150 175 234 301 338 423
#     4  11  23  46  76  95 141 189 229 287 361 413
#
# _framework density 21.989868999999999
#
# number of rings (size 3 to 8) (size 9 to 14) (size 15 to 20)
#    0.000    0.500    5.000    4.500    1.750    5.000 
#    4.500    0.000    0.000    0.000    0.000    0.000 
#    0.000    0.000    0.000    0.000    0.000    0.000 
#
# Total GULP energy -198372.014816 kJ/mol
# GULP energy per Si atom -12398.250926 kJ/mol
# Density = 2.193982 g / cm^3
# Si number density = 21.989869 Si / 1000 Ang^3
#
#
#
# Elastic Constant Matrix: (Units=GPa)
#
#
# Indices 1 2 3 4 5 6 
#
# 1 94.1764 34.4068 53.6545 0.0001 15.3495 0.0000
# 2 34.4068 99.0461 20.0927 0.0000 5.1537 0.0000
# 3 53.6545 20.0927 118.6864 0.0004 10.9804 0.0002
# 4 0.0001 0.0000 0.0004 39.6177 0.0001 -0.9130
# 5 15.3495 5.1537 10.9804 0.0001 41.7330 0.0000
# 6 0.0000 0.0000 0.0002 -0.9130 0.0000 36.9900
#
#
#
# Elastic Compliance Matrix: (Units=1/GPa)
#
#
# Indices 1 2 3 4 5 6 
#
# 1 0.016397 -0.004209 -0.006345 0.000000 -0.003842 0.000000
# 2 -0.004209 0.011565 -0.000068 0.000000 0.000138 0.000000
# 3 -0.006345 -0.000068 0.011365 0.000000 -0.000648 0.000000
# 4 0.000000 0.000000 0.000000 0.025256 0.000000 0.000623
# 5 -0.003842 0.000138 -0.000648 0.000000 0.025528 0.000000
# 6 0.000000 0.000000 0.000000 0.000623 0.000000 0.027050
#
#
# Mechanical properties :
#
#
# Convention : Reuss Voigt Hill
#
# Bulk Modulus (GPa) = 55.29654 58.69076 56.99365
# Shear Modulus (GPa) = 34.61840 37.25181 35.93511
#
# Velocity S-wave (km/s) = 3.97204 4.12034 4.04687
# Velocity P-wave (km/s) = 6.79978 7.02739 6.91452
#
# Compressibility (1/GPa) = 0.01808431
#
# Stress axis : x y z
#
# Youngs Moduli (GPa) = 60.98712 86.46750 87.98774
#
# Poissons Ratio (x) = 0.36394 0.55824
# Poissons Ratio (y) = 0.25670 0.00597
# Poissons Ratio (z) = 0.38694 0.00587
#
# Static dielectric constant tensor:
#      x y z
#    x 3.787920 0.000000 -0.061600 
#    y 0.000000 4.001120 0.000000 
#    z -0.061600 0.000000 4.102050 
# 
# 
# High freq. dielectric constant tensor:
#      x y z
#    x 1.848890 0.000000 0.001680 
#    y 0.000000 1.877620 0.000000 
#    z 0.001680 0.000000 1.878000 
# 
# From -- ./inp_files/5630.got.cif
#   From: 2010.06.25/outbox.cif.g09.slc.cpg/sg9_3_cif.got.tgz:5630.got - 2010.06.27 21:40:51.
