data_PCOD8056285
_publ_section_title
;
Structure prediction by ZEFSAII (Michael W. Deem and Ramdas Pophale) SiO2 
 PCOD8056285
Probable space group: C C
;
_chemical_formula_sum "Si O2"
_cell_formula_units_Z 32
_cell_length_a 14.869160
_cell_length_b 11.807247
_cell_length_c 8.920201
_cell_angle_alpha 90.000000
_cell_angle_beta 69.203947
_cell_angle_gamma 90.000000
_cell_volume 1464.035878
_symmetry_space_group_name_H-M "C C"
_symmetry_group_IT_number 9
_symmetry_cell_setting 'monoclinic'
loop_
_space_group_symop_operation_xyz
x,y,z
x,-y,1/2+z
1/2+x,1/2+y,z
1/2+x,1/2-y,1/2+z
loop_
_atom_site_type_symbol
_atom_site_label
_atom_site_fract_x
_atom_site_fract_y
_atom_site_fract_z
Si Si1 0.083560 0.258541 0.989110
Si Si2 0.236247 0.091620 0.790382
Si Si3 0.495008 0.913460 0.811246
Si Si4 0.401072 0.250824 0.801626
Si Si5 0.747747 0.913678 0.011134
Si Si6 0.524934 0.134067 0.956040
Si Si7 0.235814 0.644654 0.852551
Si Si8 0.782555 0.380106 0.938764
O O1 0.146806 0.146603 0.930696
O O2 0.146118 0.352746 0.039249
O O3 0.052872 0.307475 0.845500
O O4 0.988814 0.223969 0.137549
O O5 0.336961 0.148297 0.778030
O O6 0.216187 0.107602 0.625477
O O7 0.240407 0.959283 0.831815
O O8 0.488943 0.909159 0.636689
O O9 0.386546 0.919671 0.935557
O O10 0.546282 0.028429 0.833058
O O11 0.334226 0.360773 0.861383
O O12 0.444674 0.217489 0.937368
O O13 0.740109 0.045782 0.974516
O O14 0.773514 0.901618 0.171230
O O15 0.627748 0.195142 0.908364
O O16 0.296901 0.751832 0.872064
#
# Coordination Sequence:
#
# PCOD8056285 Si02
#       8
#     4   4   4   4   4   4   4   4
#     4  11  23  45  69 100 136 185 228 287 343 404
#     4  11  26  43  71 101 142 177 231 286 346 407
#     4  12  22  38  65  99 133 174 235 281 334 403
#     4  11  23  45  69 100 136 185 228 287 343 404
#     4  11  26  43  71 101 142 177 231 286 346 407
#     4  12  22  38  65  99 133 174 235 281 334 403
#     4  12  26  44  69 104 142 180 228 285 348 411
#     4  12  26  44  69 104 142 180 228 285 348 411
#
# _framework density 21.857386999999999
#
# number of rings (size 3 to 8) (size 9 to 14) (size 15 to 20)
#    0.000    0.500    5.000    3.750    7.000    0.000 
#    0.000    6.250    0.000    0.000    0.000    0.000 
#    0.000    0.000    0.000    0.000    0.000    0.000 
#
# Total GULP energy -198480.670456 kJ/mol
# GULP energy per Si atom -12405.041904 kJ/mol
# Density = 2.180764 g / cm^3
# Si number density = 21.857387 Si / 1000 Ang^3
#
#
#
# Elastic Constant Matrix: (Units=GPa)
#
#
# Indices 1 2 3 4 5 6 
#
# 1 78.4542 25.4021 31.3571 0.0000 -7.8074 0.0000
# 2 25.4021 111.6425 31.5555 0.0000 5.3196 0.0000
# 3 31.3571 31.5555 121.7557 0.0000 8.3998 0.0000
# 4 0.0000 0.0000 0.0000 31.0240 0.0000 4.9807
# 5 -7.8074 5.3196 8.3998 0.0000 45.7194 0.0000
# 6 0.0000 0.0000 0.0000 4.9807 0.0000 24.1666
#
#
#
# Elastic Compliance Matrix: (Units=1/GPa)
#
#
# Indices 1 2 3 4 5 6 
#
# 1 0.015373 -0.002676 -0.003513 0.000000 0.003582 0.000000
# 2 -0.002676 0.010151 -0.001852 0.000000 -0.001298 0.000000
# 3 -0.003513 -0.001852 0.009748 0.000000 -0.002175 0.000000
# 4 0.000000 0.000000 0.000000 0.033336 0.000000 -0.006871
# 5 0.003582 -0.001298 -0.002175 0.000000 0.023035 0.000000
# 6 0.000000 0.000000 0.000000 -0.006871 0.000000 0.042795
#
#
# Mechanical properties :
#
#
# Convention : Reuss Voigt Hill
#
# Bulk Modulus (GPa) = 52.10822 54.27577 53.19200
# Shear Modulus (GPa) = 31.86386 35.08451 33.47418
#
# Velocity S-wave (km/s) = 3.82227 4.01079 3.91766
# Velocity P-wave (km/s) = 6.58570 6.80692 6.69723
#
# Compressibility (1/GPa) = 0.01919083
#
# Stress axis : x y z
#
# Youngs Moduli (GPa) = 65.04857 98.50914 102.58499
#
# Poissons Ratio (x) = 0.26357 0.36037
# Poissons Ratio (y) = 0.17405 0.19002
# Poissons Ratio (z) = 0.22851 0.18247
#
# Static dielectric constant tensor:
#      x y z
#    x 3.946850 0.000000 0.028760 
#    y 0.000000 3.682300 0.000000 
#    z 0.028760 0.000000 3.912540 
# 
# 
# High freq. dielectric constant tensor:
#      x y z
#    x 1.859240 0.000000 0.001790 
#    y 0.000000 1.840500 0.000000 
#    z 0.001790 0.000000 1.873080 
# 
# From -- ./inp_files/9088.got.cif
#   From: 2010.06.25/outbox.cif.g09.slc.cpg/sg9_5_cif.got.tgz:9088.got - 2010.06.27 21:40:51.
