data_PCOD8056810
_publ_section_title
;
Structure prediction by ZEFSAII (Michael W. Deem and Ramdas Pophale) SiO2 
 PCOD8056810
Probable space group: P 2/M
;
_chemical_formula_sum "Si O2"
_cell_formula_units_Z 24
_cell_length_a 13.424495
_cell_length_b 22.141632
_cell_length_c 5.210133
_cell_angle_alpha 90.000000
_cell_angle_beta 101.655224
_cell_angle_gamma 90.000000
_cell_volume 1516.729258
_symmetry_space_group_name_H-M "P 2/M"
_symmetry_group_IT_number 10
_symmetry_cell_setting 'monoclinic'
loop_
_space_group_symop_operation_xyz
x,y,z
-x,y,-z
-x,-y,-z
x,-y,z
loop_
_atom_site_type_symbol
_atom_site_label
_atom_site_fract_x
_atom_site_fract_y
_atom_site_fract_z
Si Si1 0.392975 0.570706 0.206396
Si Si2 0.713939 0.070023 0.033783
Si Si3 0.380970 0.622369 0.701490
Si Si4 0.434091 0.752710 0.712781
Si Si5 0.384403 0.880008 0.521662
Si Si6 0.943848 0.071749 0.221222
O O1 0.413462 0.500000 0.240647
O O2 0.329440 0.596076 0.416493
O O3 0.499571 0.605940 0.247469
O O4 0.330347 0.587959 0.917542
O O5 0.681912 0.107419 0.765491
O O6 0.711047 0.000000 0.953926
O O7 0.643633 0.078752 0.248426
O O8 0.826779 0.092155 0.164629
O O9 0.363983 0.694226 0.727988
O O10 0.500000 0.735267 0.500000
O O11 0.366952 0.811041 0.605031
O O12 0.500000 0.768275 0.000000
O O13 0.500000 0.892517 0.500000
O O14 0.000000 0.098795 0.500000
O O15 0.951639 0.000000 0.227293
O O16 0.000000 0.098115 0.000000
#
# Coordination Sequence:
#
# PCOD8056810 Si02
#       6
#     4   4   4   4   4   4
#     4  10  16  22  33  53  74  90 117 166 234 272
#     4  11  22  36  51  69  91 112 139 180 230 276
#     4  10  15  24  35  49  66  97 125 166 215 260
#     4  11  18  31  43  53  73 102 150 186 211 244
#     4  11  23  34  47  65  86 121 156 188 215 253
#     4   9  17  31  52  74  91 107 128 161 215 282
#
# _framework density 15.823521
#
# number of rings (size 3 to 8) (size 9 to 14) (size 15 to 20)
#    0.000    1.667    3.333    6.500    0.000    4.667 
#    0.000    0.000    0.000    0.000    0.000    0.000 
#    0.000    0.000    0.000    0.000    0.000    0.000 
#
# Total GULP energy -297428.622050 kJ/mol
# GULP energy per Si atom -12392.859252 kJ/mol
# Density = 1.578751 g / cm^3
# Si number density = 15.823521 Si / 1000 Ang^3
#
#
#
# Elastic Constant Matrix: (Units=GPa)
#
#
# Indices 1 2 3 4 5 6 
#
# 1 45.4548 28.7270 32.0161 0.0000 2.6459 0.0000
# 2 28.7270 83.9599 42.6870 0.0000 8.3026 0.0000
# 3 32.0161 42.6870 171.6806 0.0000 1.2912 0.0000
# 4 0.0000 0.0000 0.0000 29.0503 0.0000 -0.9374
# 5 2.6459 8.3026 1.2912 0.0000 20.5697 0.0000
# 6 0.0000 0.0000 0.0000 -0.9374 0.0000 0.2206
#
#
#
# Elastic Compliance Matrix: (Units=1/GPa)
#
#
# Indices 1 2 3 4 5 6 
#
# 1 0.029759 -0.008402 -0.003459 0.000000 -0.000220 0.000000
# 2 -0.008402 0.016607 -0.002521 0.000000 -0.005464 0.000000
# 3 -0.003459 -0.002521 0.007089 0.000000 0.001018 0.000000
# 4 0.000000 0.000000 0.000000 0.039891 0.000000 0.169468
# 5 -0.000220 -0.005464 0.001018 0.000000 0.050785 0.000000
# 6 0.000000 0.000000 0.000000 0.169468 0.000000 5.252018
#
#
# Mechanical properties :
#
#
# Convention : Reuss Voigt Hill
#
# Bulk Modulus (GPa) = 40.50032 56.43953 48.46993
# Shear Modulus (GPa) = 0.92028 23.14579 12.03303
#
# Velocity S-wave (km/s) = 0.76345 3.82874 2.76062
# Velocity P-wave (km/s) = 5.14079 7.43580 6.39214
#
# Compressibility (1/GPa) = 0.02469116
#
# Stress axis : x y z
#
# Youngs Moduli (GPa) = 33.60354 60.21414 141.06183
#
# Poissons Ratio (x) = 0.50590 0.48793
# Poissons Ratio (y) = 0.28233 0.35567
# Poissons Ratio (z) = 0.11623 0.15182
#
# Static dielectric constant tensor:
#      x y z
#    x 2.555060 0.000000 -0.351390 
#    y 0.000000 2.967450 0.000000 
#    z -0.351390 0.000000 5.363570 
# 
# 
# High freq. dielectric constant tensor:
#      x y z
#    x 1.524140 0.000000 -0.011850 
#    y 0.000000 1.598620 0.000000 
#    z -0.011850 0.000000 1.649480 
# 
# From -- ./inp_files/7424.got.cif
#   From: 2010.06.25/outbox.cif.g09.slc.cpg/sg10_4_cif.got.tgz:7424.got - 2010.06.27 22:07:45.
