data_PCOD8056027
_publ_section_title
;
Structure prediction by ZEFSAII (Michael W. Deem and Ramdas Pophale) SiO2 
 PCOD8056027
Probable space group: C C
;
_chemical_formula_sum "Si O2"
_cell_formula_units_Z 28
_cell_length_a 20.456776
_cell_length_b 5.161950
_cell_length_c 9.866508
_cell_angle_alpha 90.000000
_cell_angle_beta 83.904581
_cell_angle_gamma 90.000000
_cell_volume 1035.981923
_symmetry_space_group_name_H-M "C C"
_symmetry_group_IT_number 9
_symmetry_cell_setting 'monoclinic'
loop_
_space_group_symop_operation_xyz
x,y,z
x,-y,1/2+z
1/2+x,1/2+y,z
1/2+x,1/2-y,1/2+z
loop_
_atom_site_type_symbol
_atom_site_label
_atom_site_fract_x
_atom_site_fract_y
_atom_site_fract_z
Si Si1 0.718120 0.949518 0.884820
Si Si2 0.898936 0.959317 0.778882
Si Si3 0.762438 0.271124 0.120802
Si Si4 0.026888 0.224567 0.831500
Si Si5 0.368931 0.200365 0.050858
Si Si6 0.492600 0.063579 0.608490
Si Si7 0.656104 0.531570 0.297616
O O1 0.674742 0.686033 0.909407
O O2 0.671255 0.179116 0.840579
O O3 0.855113 0.830499 0.907763
O O4 0.751986 0.041208 0.015037
O O5 0.774458 0.878298 0.760917
O O6 0.941122 0.755941 0.686552
O O7 0.950039 0.153368 0.839961
O O8 0.851935 0.111738 0.681599
O O9 0.825633 0.439130 0.067267
O O10 0.698029 0.455792 0.152772
O O11 0.039909 0.441553 0.713006
O O12 0.039675 0.317105 0.982864
O O13 0.077702 0.990790 0.787701
O O14 0.447343 0.149497 0.042034
#
# Coordination Sequence:
#
# PCOD8056027 Si02
#       7
#     4   4   4   4   4   4   4
#     4  10  26  52  77 120 156 215 271 328 418 477
#     4  11  24  47  76 118 161 220 268 344 413 483
#     4  10  27  52  80 116 163 216 281 334 421 492
#     4  11  25  44  79 114 164 208 280 331 415 489
#     4  11  25  51  77 117 165 216 284 340 415 495
#     4  11  24  45  72 121 157 218 264 339 405 491
#     4  10  27  47  83 118 162 215 270 338 401 495
#
# _framework density 27.027498000000001
#
# number of rings (size 3 to 8) (size 9 to 14) (size 15 to 20)
#    0.857    0.571    2.857    0.000    6.000    3.429 
#    5.143    1.429    0.000    0.000    0.000    0.000 
#    0.000    0.000    0.000    0.000    0.000    0.000 
#
# Total GULP energy -173520.040393 kJ/mol
# GULP energy per Si atom -12394.288599 kJ/mol
# Density = 2.696598 g / cm^3
# Si number density = 27.027498 Si / 1000 Ang^3
#
#
#
# Elastic Constant Matrix: (Units=GPa)
#
#
# Indices 1 2 3 4 5 6 
#
# 1 80.2874 -2.1648 26.4184 0.0000 -8.8139 0.0000
# 2 -2.1648 93.5607 34.8387 0.0000 3.3435 0.0000
# 3 26.4184 34.8387 163.1733 0.0000 -3.0474 0.0000
# 4 0.0000 0.0000 0.0000 44.4464 0.0000 -6.4805
# 5 -8.8139 3.3435 -3.0474 0.0000 26.2234 0.0000
# 6 0.0000 0.0000 0.0000 -6.4805 0.0000 37.4343
#
#
#
# Elastic Compliance Matrix: (Units=1/GPa)
#
#
# Indices 1 2 3 4 5 6 
#
# 1 0.013724 0.001049 -0.002367 0.000000 0.004204 0.000000
# 2 0.001049 0.011774 -0.002711 0.000000 -0.001464 0.000000
# 3 -0.002367 -0.002711 0.007098 0.000000 0.000375 0.000000
# 4 0.000000 0.000000 0.000000 0.023082 0.000000 0.003996
# 5 0.004204 -0.001464 0.000375 0.000000 0.039777 0.000000
# 6 0.000000 0.000000 0.000000 0.003996 0.000000 0.027405
#
#
# Mechanical properties :
#
#
# Convention : Reuss Voigt Hill
#
# Bulk Modulus (GPa) = 40.75524 50.57843 45.66684
# Shear Modulus (GPa) = 35.94589 40.14942 38.04766
#
# Velocity S-wave (km/s) = 3.65084 3.85840 3.75605
# Velocity P-wave (km/s) = 5.73441 6.21321 5.97860
#
# Compressibility (1/GPa) = 0.02453672
#
# Stress axis : x y z
#
# Youngs Moduli (GPa) = 72.86493 84.93048 140.89315
#
# Poissons Ratio (x) = -0.08908 0.33355
# Poissons Ratio (y) = -0.07642 0.38197
# Poissons Ratio (z) = 0.17250 0.23025
#
# Static dielectric constant tensor:
#      x y z
#    x 4.861720 0.000000 0.209680 
#    y 0.000000 4.975820 0.000000 
#    z 0.209680 0.000000 4.977920 
# 
# 
# High freq. dielectric constant tensor:
#      x y z
#    x 2.087550 0.000000 0.001460 
#    y 0.000000 2.090180 0.000000 
#    z 0.001460 0.000000 2.091720 
# 
# From -- ./inp_files/19602.got.cif
#   From: 2010.06.25/outbox.cif.g09.slc.cpg/sg9_10_cif.got.tgz:19602.got - 2010.06.27 21:40:51.
