data_PCOD8056151
_publ_section_title
;
Structure prediction by ZEFSAII (Michael W. Deem and Ramdas Pophale) SiO2 
 PCOD8056151
Probable space group: C C
;
_chemical_formula_sum "Si O2"
_cell_formula_units_Z 32
_cell_length_a 8.120175
_cell_length_b 22.222939
_cell_length_c 14.348304
_cell_angle_alpha 90.000000
_cell_angle_beta 33.412123
_cell_angle_gamma 90.000000
_cell_volume 1425.768150
_symmetry_space_group_name_H-M "C C"
_symmetry_group_IT_number 9
_symmetry_cell_setting 'monoclinic'
loop_
_space_group_symop_operation_xyz
x,y,z
x,-y,1/2+z
1/2+x,1/2+y,z
1/2+x,1/2-y,1/2+z
loop_
_atom_site_type_symbol
_atom_site_label
_atom_site_fract_x
_atom_site_fract_y
_atom_site_fract_z
Si Si1 0.777990 0.062059 0.936270
Si Si2 0.548940 0.381667 0.982114
Si Si3 0.684978 0.681056 0.073948
Si Si4 0.098197 0.215997 0.318247
Si Si5 0.096180 0.305385 0.770463
Si Si6 0.060502 0.425637 0.339485
Si Si7 0.797473 0.500581 0.792474
Si Si8 0.246723 0.303527 0.511653
O O1 0.717005 0.043203 0.856644
O O2 0.113419 0.047445 0.814354
O O3 0.723446 0.133569 0.968486
O O4 0.555511 0.026419 0.107456
O O5 0.437273 0.337765 0.951411
O O6 0.863466 0.360611 0.877693
O O7 0.572134 0.448395 0.930281
O O8 0.301979 0.380866 0.179331
O O9 0.751134 0.697133 0.148759
O O10 0.324443 0.686818 0.247777
O O11 0.880324 0.727175 0.918365
O O12 0.778728 0.613139 0.007162
O O13 0.429193 0.225207 0.206189
O O14 0.361379 0.311511 0.563748
O O15 0.925927 0.241992 0.863542
O O16 0.939347 0.472037 0.319690
#
# Coordination Sequence:
#
# PCOD8056151 Si02
#       8
#     4   4   4   4   4   4   4   4
#     4  12  27  49  75 106 143 193 244 300 362 427
#     4  11  25  47  70  99 140 194 227 302 362 422
#     4  12  23  42  67 111 137 189 236 294 363 434
#     4  11  22  42  71  94 150 180 233 291 360 431
#     4  11  24  40  69 101 146 179 233 290 357 428
#     4  12  27  46  77 103 143 192 245 299 365 423
#     4  12  26  52  71 105 145 190 247 303 352 435
#     4  11  22  44  66 101 142 187 227 293 359 426
#
# _framework density 22.444042
#
# number of rings (size 3 to 8) (size 9 to 14) (size 15 to 20)
#    0.000    0.500    5.000    4.500    3.500    1.000 
#    4.500    0.000    0.000    0.000    0.000    0.000 
#    0.000    0.000    0.000    0.000    0.000    0.000 
#
# Total GULP energy -198231.181308 kJ/mol
# GULP energy per Si atom -12389.448832 kJ/mol
# Density = 2.239296 g / cm^3
# Si number density = 22.444042 Si / 1000 Ang^3
#
#
#
# Elastic Constant Matrix: (Units=GPa)
#
#
# Indices 1 2 3 4 5 6 
#
# 1 94.8811 48.8603 35.0267 -0.0005 4.9663 0.0004
# 2 48.8603 84.5155 28.8630 0.0002 -0.4387 -0.0001
# 3 35.0267 28.8630 90.6325 -0.0001 14.3859 0.0005
# 4 -0.0005 0.0002 -0.0001 38.0749 0.0004 11.5126
# 5 4.9663 -0.4387 14.3859 0.0004 42.6446 -0.0003
# 6 0.0004 -0.0001 0.0005 11.5126 -0.0003 27.7887
#
#
#
# Elastic Compliance Matrix: (Units=1/GPa)
#
#
# Indices 1 2 3 4 5 6 
#
# 1 0.016031 -0.008076 -0.003502 0.000000 -0.000769 0.000000
# 2 -0.008076 0.017456 -0.002763 0.000000 0.002052 0.000000
# 3 -0.003502 -0.002763 0.013954 0.000000 -0.004328 0.000000
# 4 0.000000 0.000000 0.000000 0.030025 0.000000 -0.012439
# 5 -0.000769 0.002052 -0.004328 0.000000 0.025020 0.000001
# 6 0.000000 0.000000 0.000000 -0.012439 0.000001 0.041139
#
#
# Mechanical properties :
#
#
# Convention : Reuss Voigt Hill
#
# Bulk Modulus (GPa) = 53.31023 55.05881 54.18452
# Shear Modulus (GPa) = 28.00162 32.18693 30.09427
#
# Velocity S-wave (km/s) = 3.53600 3.79106 3.66575
# Velocity P-wave (km/s) = 6.36201 6.61420 6.48933
#
# Compressibility (1/GPa) = 0.01875813
#
# Stress axis : x y z
#
# Youngs Moduli (GPa) = 62.37754 57.28811 71.66472
#
# Poissons Ratio (x) = 0.46267 0.25094
# Poissons Ratio (y) = 0.50378 0.19804
# Poissons Ratio (z) = 0.21842 0.15832
#
# Static dielectric constant tensor:
#      x y z
#    x 4.319690 0.000000 0.128430 
#    y 0.000000 3.843550 0.000000 
#    z 0.128430 0.000000 3.963180 
# 
# 
# High freq. dielectric constant tensor:
#      x y z
#    x 1.904940 0.000000 0.010420 
#    y 0.000000 1.871310 0.000000 
#    z 0.010420 0.000000 1.892870 
# 
# From -- ./inp_files/6151.got.cif
#   From: 2010.06.25/outbox.cif.g09.slc.cpg/sg9_4_cif.got.tgz:6151.got - 2010.06.27 21:40:51.
