data_PCOD8056342
_publ_section_title
;
Structure prediction by ZEFSAII (Michael W. Deem and Ramdas Pophale) SiO2 
 PCOD8056342
Probable space group: C C
;
_chemical_formula_sum "Si O2"
_cell_formula_units_Z 28
_cell_length_a 13.795091
_cell_length_b 14.407420
_cell_length_c 9.169002
_cell_angle_alpha 90.000000
_cell_angle_beta 139.253535
_cell_angle_gamma 90.000000
_cell_volume 1189.474467
_symmetry_space_group_name_H-M "C C"
_symmetry_group_IT_number 9
_symmetry_cell_setting 'monoclinic'
loop_
_space_group_symop_operation_xyz
x,y,z
x,-y,1/2+z
1/2+x,1/2+y,z
1/2+x,1/2-y,1/2+z
loop_
_atom_site_type_symbol
_atom_site_label
_atom_site_fract_x
_atom_site_fract_y
_atom_site_fract_z
Si Si1 0.207070 0.093318 0.585320
Si Si2 0.892265 0.320355 0.050257
Si Si3 0.438507 0.611050 0.079233
Si Si4 0.657653 0.604563 0.084768
Si Si5 0.118336 0.448185 0.161824
Si Si6 0.566289 0.122791 0.280385
Si Si7 0.738079 0.300126 0.401223
O O1 0.340999 0.123241 0.633971
O O2 0.182577 0.173770 0.676168
O O3 0.058020 0.067442 0.325666
O O4 0.242658 0.994515 0.701650
O O5 0.918323 0.214114 0.118520
O O6 0.043064 0.363986 0.162444
O O7 0.764280 0.320313 0.782521
O O8 0.498425 0.608871 0.981391
O O9 0.289209 0.551600 0.908291
O O10 0.643563 0.633616 0.900848
O O11 0.050714 0.547692 0.132145
O O12 0.100745 0.431792 0.969209
O O13 0.699880 0.193138 0.392193
O O14 0.413826 0.180934 0.118985
#
# Coordination Sequence:
#
# PCOD8056342 Si02
#       7
#     4   4   4   4   4   4   4
#     4  11  26  45  74 108 151 197 249 307 379 452
#     4  11  23  47  74 105 143 202 246 304 372 455
#     4  11  26  45  74 108 151 197 249 307 379 452
#     4  11  23  47  74 105 143 202 246 304 372 455
#     4  12  27  48  77 114 152 202 260 322 390 454
#     4  12  30  50  80 108 162 200 264 328 388 468
#     4  12  27  48  77 114 152 202 260 322 390 454
#
# _framework density 23.539809999999999
#
# number of rings (size 3 to 8) (size 9 to 14) (size 15 to 20)
#    0.000    0.571    1.429    6.857    8.000    2.286 
#    0.000    0.000    0.000    0.000    0.000    0.000 
#    0.000    0.000    0.000    0.000    0.000    0.000 
#
# Total GULP energy -173667.457185 kJ/mol
# GULP energy per Si atom -12404.818370 kJ/mol
# Density = 2.348623 g / cm^3
# Si number density = 23.539810 Si / 1000 Ang^3
#
#
#
# Elastic Constant Matrix: (Units=GPa)
#
#
# Indices 1 2 3 4 5 6 
#
# 1 115.9744 19.1841 43.5531 0.0000 -7.0517 0.0000
# 2 19.1841 110.5964 7.1699 0.0000 -8.5242 0.0000
# 3 43.5531 7.1699 82.4924 0.0000 -13.8613 0.0000
# 4 0.0000 0.0000 0.0000 30.0820 0.0000 -3.2794
# 5 -7.0517 -8.5242 -13.8613 0.0000 37.6749 0.0000
# 6 0.0000 0.0000 0.0000 -3.2794 0.0000 46.0711
#
#
#
# Elastic Compliance Matrix: (Units=1/GPa)
#
#
# Indices 1 2 3 4 5 6 
#
# 1 0.011016 -0.001570 -0.005748 0.000000 -0.000408 0.000000
# 2 -0.001570 0.009444 0.000339 0.000000 0.001967 0.000000
# 3 -0.005748 0.000339 0.015946 0.000000 0.004867 0.000000
# 4 0.000000 0.000000 0.000000 0.033502 0.000000 0.002385
# 5 -0.000408 0.001967 0.004867 0.000000 0.028702 0.000000
# 6 0.000000 0.000000 0.000000 0.002385 0.000000 0.021875
#
#
# Mechanical properties :
#
#
# Convention : Reuss Voigt Hill
#
# Bulk Modulus (GPa) = 44.54983 49.87528 47.21256
# Shear Modulus (GPa) = 35.22936 38.70933 36.96935
#
# Velocity S-wave (km/s) = 3.87277 4.05954 3.96726
# Velocity P-wave (km/s) = 6.24213 6.57319 6.40980
#
# Compressibility (1/GPa) = 0.02244677
#
# Stress axis : x y z
#
# Youngs Moduli (GPa) = 90.77586 105.88892 62.71294
#
# Poissons Ratio (x) = 0.16621 0.36049
# Poissons Ratio (y) = 0.14249 -0.02123
# Poissons Ratio (z) = 0.52181 -0.03584
#
# Static dielectric constant tensor:
#      x y z
#    x 4.427020 0.000000 -0.058690 
#    y 0.000000 4.099270 0.000000 
#    z -0.058690 0.000000 4.061720 
# 
# 
# High freq. dielectric constant tensor:
#      x y z
#    x 1.945700 0.000000 -0.002260 
#    y 0.000000 1.933320 0.000000 
#    z -0.002260 0.000000 1.926680 
# 
# From -- ./inp_files/9634.got.cif
#   From: 2010.06.25/outbox.cif.g09.slc.cpg/sg9_5_cif.got.tgz:9634.got - 2010.06.27 21:40:51.
