data_PCOD8056368
_publ_section_title
;
Structure prediction by ZEFSAII (Michael W. Deem and Ramdas Pophale) SiO2 
 PCOD8056368
Probable space group: C C
;
_chemical_formula_sum "Si O2"
_cell_formula_units_Z 24
_cell_length_a 4.983030
_cell_length_b 26.244224
_cell_length_c 8.363661
_cell_angle_alpha 90.000000
_cell_angle_beta 90.636080
_cell_angle_gamma 90.000000
_cell_volume 1093.696685
_symmetry_space_group_name_H-M "C C"
_symmetry_group_IT_number 9
_symmetry_cell_setting 'monoclinic'
loop_
_space_group_symop_operation_xyz
x,y,z
x,-y,1/2+z
1/2+x,1/2+y,z
1/2+x,1/2-y,1/2+z
loop_
_atom_site_type_symbol
_atom_site_label
_atom_site_fract_x
_atom_site_fract_y
_atom_site_fract_z
Si Si1 0.767120 0.383589 0.489660
Si Si2 0.345594 0.783669 0.904235
Si Si3 0.263386 0.548007 0.490585
Si Si4 0.260477 0.101710 0.360600
Si Si5 0.849366 0.731028 0.035759
Si Si6 0.265147 0.436967 0.361229
O O1 0.820907 0.397204 0.673612
O O2 0.820136 0.324334 0.456077
O O3 0.463167 0.394994 0.436982
O O4 0.962683 0.417701 0.382931
O O5 0.303862 0.843153 0.939762
O O6 0.277152 0.771071 0.721182
O O7 0.651343 0.770237 0.947005
O O8 0.151774 0.750572 0.015375
O O9 0.456828 0.584053 0.388068
O O10 0.317036 0.489393 0.453136
O O11 0.324383 0.556378 0.675913
O O12 0.958340 0.561495 0.444977
#
# Coordination Sequence:
#
# PCOD8056368 Si02
#       6
#     4   4   4   4   4   4
#     4  11  24  43  64  91 126 164 205 254 307 362
#     4  11  24  41  64  92 126 164 205 254 307 362
#     4  12  25  42  65  93 124 162 205 254 307 366
#     4  11  24  43  64  91 126 164 205 254 307 362
#     4  11  24  41  64  92 126 164 205 254 307 362
#     4  12  25  42  65  93 124 162 205 254 307 366
#
# _framework density 21.943929000000001
#
# number of rings (size 3 to 8) (size 9 to 14) (size 15 to 20)
#    0.000    0.667    0.000    8.000    0.000   13.333 
#    0.000    0.000    0.000    0.000    0.000    0.000 
#    0.000    0.000    0.000    0.000    0.000    0.000 
#
# Total GULP energy -148944.356116 kJ/mol
# GULP energy per Si atom -12412.029676 kJ/mol
# Density = 2.189398 g / cm^3
# Si number density = 21.943929 Si / 1000 Ang^3
#
#
#
# Elastic Constant Matrix: (Units=GPa)
#
#
# Indices 1 2 3 4 5 6 
#
# 1 81.0373 13.6815 19.5015 0.0000 -0.1073 0.0000
# 2 13.6815 63.1604 12.8255 0.0000 -19.9220 0.0000
# 3 19.5015 12.8255 33.9493 0.0000 -17.9683 0.0000
# 4 0.0000 0.0000 0.0000 29.6974 0.0000 0.8942
# 5 -0.1073 -19.9220 -17.9683 0.0000 36.2064 0.0000
# 6 0.0000 0.0000 0.0000 0.8942 0.0000 32.6249
#
#
#
# Elastic Compliance Matrix: (Units=1/GPa)
#
#
# Indices 1 2 3 4 5 6 
#
# 1 0.015761 -0.003447 -0.011841 0.000000 -0.007726 0.000000
# 2 -0.003447 0.020039 0.000325 0.000000 0.011177 0.000000
# 3 -0.011841 0.000325 0.049110 0.000000 0.024516 0.000000
# 4 0.000000 0.000000 0.000000 0.033701 0.000000 -0.000924
# 5 -0.007726 0.011177 0.024516 0.000000 0.045913 0.000000
# 6 0.000000 0.000000 0.000000 -0.000924 0.000000 0.030677
#
#
# Mechanical properties :
#
#
# Convention : Reuss Voigt Hill
#
# Bulk Modulus (GPa) = 18.18651 30.01822 24.10236
# Shear Modulus (GPa) = 20.53779 28.51496 24.52638
#
# Velocity S-wave (km/s) = 3.06260 3.60869 3.34680
# Velocity P-wave (km/s) = 4.56199 5.57430 5.09335
#
# Compressibility (1/GPa) = 0.05498582
#
# Stress axis : x y z
#
# Youngs Moduli (GPa) = 63.44729 49.90327 20.36241
#
# Poissons Ratio (x) = 0.17200 0.24111
# Poissons Ratio (y) = 0.21868 -0.00662
# Poissons Ratio (z) = 0.75126 -0.01623
#
# Static dielectric constant tensor:
#      x y z
#    x 3.842060 0.000000 -0.073760 
#    y 0.000000 4.040030 0.000000 
#    z -0.073760 0.000000 3.881530 
# 
# 
# High freq. dielectric constant tensor:
#      x y z
#    x 1.872580 0.000000 -0.002180 
#    y 0.000000 1.875230 0.000000 
#    z -0.002180 0.000000 1.870030 
# 
# From -- ./inp_files/3828.got.cif
#   From: 2010.06.25/outbox.cif.g09.slc.cpg/sg9_2_cif.got.tgz:3828.got - 2010.06.27 21:40:51.
