data_PCOD8056413
_publ_section_title
;
Structure prediction by ZEFSAII (Michael W. Deem and Ramdas Pophale) SiO2 
 PCOD8056413
Probable space group: C C
;
_chemical_formula_sum "Si O2"
_cell_formula_units_Z 32
_cell_length_a 16.480708
_cell_length_b 6.407770
_cell_length_c 13.187064
_cell_angle_alpha 90.000000
_cell_angle_beta 89.954438
_cell_angle_gamma 90.000000
_cell_volume 1392.613998
_symmetry_space_group_name_H-M "C C"
_symmetry_group_IT_number 9
_symmetry_cell_setting 'monoclinic'
loop_
_space_group_symop_operation_xyz
x,y,z
x,-y,1/2+z
1/2+x,1/2+y,z
1/2+x,1/2-y,1/2+z
loop_
_atom_site_type_symbol
_atom_site_label
_atom_site_fract_x
_atom_site_fract_y
_atom_site_fract_z
Si Si1 0.432890 0.491293 0.736410
Si Si2 0.031131 0.940392 0.544330
Si Si3 0.809303 0.481634 0.995910
Si Si4 0.699560 0.565318 0.803696
Si Si5 0.773158 0.127264 0.142845
Si Si6 0.193379 0.782116 0.627038
Si Si7 0.969153 0.305876 0.418912
Si Si8 0.031986 0.291409 0.852722
O O1 0.488413 0.387700 0.649982
O O2 0.343441 0.517715 0.690942
O O3 0.431137 0.347154 0.835743
O O4 0.470024 0.717871 0.764394
O O5 0.125965 0.887347 0.555484
O O6 0.995073 0.789207 0.459064
O O7 0.017159 0.179614 0.506723
O O8 0.753217 0.496236 0.897466
O O9 0.900030 0.550048 0.968474
O O10 0.803915 0.244567 0.040695
O O11 0.778993 0.638904 0.082653
O O12 0.749500 0.706532 0.726703
O O13 0.676929 0.354101 0.742825
O O14 0.619701 0.689762 0.836859
O O15 0.697371 0.971118 0.120343
O O16 0.033117 0.457522 0.360208
#
# Coordination Sequence:
#
# PCOD8056413 Si02
#       8
#     4   4   4   4   4   4   4   4
#     4  11  24  46  68 105 141 184 248 297 362 441
#     4  11  24  45  67 105 147 182 247 299 361 439
#     4  11  24  48  68 107 145 185 248 299 368 444
#     4  11  24  46  67 105 143 182 247 298 361 442
#     4  11  26  43  75 104 138 196 240 304 373 431
#     4  11  25  45  72 102 143 190 237 312 361 437
#     4  11  26  45  75 102 144 195 236 309 363 438
#     4  11  25  42  70 102 139 192 235 300 367 430
#
# _framework density 22.978370999999999
#
# number of rings (size 3 to 8) (size 9 to 14) (size 15 to 20)
#    0.000    1.000    3.750    1.500    3.500    6.000 
#    0.000    0.000    0.000    0.000    0.000    0.000 
#    0.000    0.000    0.000    0.000    0.000    0.000 
#
# Total GULP energy -198353.295461 kJ/mol
# GULP energy per Si atom -12397.080966 kJ/mol
# Density = 2.292607 g / cm^3
# Si number density = 22.978371 Si / 1000 Ang^3
#
#
#
# Elastic Constant Matrix: (Units=GPa)
#
#
# Indices 1 2 3 4 5 6 
#
# 1 104.0341 54.6120 43.4133 0.0000 13.0433 0.0000
# 2 54.6120 101.1037 38.7110 0.0000 18.7443 0.0000
# 3 43.4133 38.7110 114.8344 0.0000 9.4675 0.0000
# 4 0.0000 0.0000 0.0000 34.2128 0.0000 -5.2424
# 5 13.0433 18.7443 9.4675 0.0000 39.3544 0.0000
# 6 0.0000 0.0000 0.0000 -5.2424 0.0000 36.5757
#
#
#
# Elastic Compliance Matrix: (Units=1/GPa)
#
#
# Indices 1 2 3 4 5 6 
#
# 1 0.014428 -0.006379 -0.003224 0.000000 -0.000968 0.000000
# 2 -0.006379 0.015048 -0.002290 0.000000 -0.004502 0.000000
# 3 -0.003224 -0.002290 0.010734 0.000000 -0.000423 0.000000
# 4 0.000000 0.000000 0.000000 0.029885 0.000000 0.004283
# 5 -0.000968 -0.004502 -0.000423 0.000000 0.027977 0.000000
# 6 0.000000 0.000000 0.000000 0.004283 0.000000 0.027955
#
#
# Mechanical properties :
#
#
# Convention : Reuss Voigt Hill
#
# Bulk Modulus (GPa) = 60.89014 65.93830 63.41422
# Shear Modulus (GPa) = 32.19830 34.24431 33.22131
#
# Velocity S-wave (km/s) = 3.74738 3.86461 3.80645
# Velocity P-wave (km/s) = 6.72906 6.97651 6.85390
#
# Compressibility (1/GPa) = 0.01642302
#
# Stress axis : x y z
#
# Youngs Moduli (GPa) = 69.31055 66.45331 93.16296
#
# Poissons Ratio (x) = 0.42393 0.30037
# Poissons Ratio (y) = 0.44216 0.21333
# Poissons Ratio (z) = 0.22347 0.15217
#
# Static dielectric constant tensor:
#      x y z
#    x 4.045280 0.000000 -0.050180 
#    y 0.000000 4.109870 0.000000 
#    z -0.050180 0.000000 4.387570 
# 
# 
# High freq. dielectric constant tensor:
#      x y z
#    x 1.904450 0.000000 -0.003790 
#    y 0.000000 1.899940 0.000000 
#    z -0.003790 0.000000 1.923550 
# 
# From -- ./inp_files/26377.got.cif
#   From: 2010.06.25/outbox.cif.g09.slc.cpg/sg9_14_cif.got.tgz:26377.got - 2010.06.27 21:40:51.
