data_PCOD8056113
_publ_section_title
;
Structure prediction by ZEFSAII (Michael W. Deem and Ramdas Pophale) SiO2 
 PCOD8056113
Probable space group: C C
;
_chemical_formula_sum "Si O2"
_cell_formula_units_Z 32
_cell_length_a 14.658886
_cell_length_b 6.084022
_cell_length_c 15.808537
_cell_angle_alpha 90.000000
_cell_angle_beta 114.649052
_cell_angle_gamma 90.000000
_cell_volume 1281.414632
_symmetry_space_group_name_H-M "C C"
_symmetry_group_IT_number 9
_symmetry_cell_setting 'monoclinic'
loop_
_space_group_symop_operation_xyz
x,y,z
x,-y,1/2+z
1/2+x,1/2+y,z
1/2+x,1/2-y,1/2+z
loop_
_atom_site_type_symbol
_atom_site_label
_atom_site_fract_x
_atom_site_fract_y
_atom_site_fract_z
Si Si1 0.413370 0.534992 0.887290
Si Si2 0.076095 0.606189 0.431001
Si Si3 0.137040 0.041558 0.743872
Si Si4 0.768725 0.211896 0.709002
Si Si5 0.651932 0.816689 0.598781
Si Si6 0.279508 0.762799 0.435664
Si Si7 0.826142 0.460912 0.100453
Si Si8 0.986670 0.264072 0.274930
O O1 0.515775 0.675478 0.938400
O O2 0.335135 0.706851 0.819017
O O3 0.363123 0.428537 0.951952
O O4 0.423272 0.327577 0.828334
O O5 0.070493 0.430378 0.505830
O O6 0.192499 0.669468 0.463718
O O7 0.039721 0.489121 0.329363
O O8 0.093636 0.218281 0.658789
O O9 0.229687 0.152922 0.829535
O O10 0.170466 0.845200 0.696144
O O11 0.059083 0.941001 0.780059
O O12 0.835110 0.324157 0.662485
O O13 0.737608 0.975055 0.666241
O O14 0.715303 0.640147 0.569892
O O15 0.334712 0.964879 0.505695
O O16 0.918826 0.307582 0.165631
#
# Coordination Sequence:
#
# PCOD8056113 Si02
#       8
#     4   4   4   4   4   4   4   4
#     4  12  25  47  78 112 153 199 257 322 387 466
#     4  12  27  48  78 111 156 200 263 324 389 469
#     4  11  25  44  79 110 154 202 253 318 397 460
#     4  11  21  48  75  99 144 205 246 311 390 459
#     4  11  24  48  75 107 151 206 252 318 391 467
#     4  12  25  49  77 111 156 207 253 321 397 471
#     4  11  24  46  76 108 152 203 258 313 388 469
#     4  12  25  48  76 112 154 198 256 327 381 467
#
# _framework density 24.972403
#
# number of rings (size 3 to 8) (size 9 to 14) (size 15 to 20)
#    0.000    0.500    6.250    2.250    0.000    0.000 
#    2.250    5.000    2.750    0.000    0.000    0.000 
#    0.000    0.000    0.000    0.000    0.000    0.000 
#
# Total GULP energy -198346.536182 kJ/mol
# GULP energy per Si atom -12396.658511 kJ/mol
# Density = 2.491556 g / cm^3
# Si number density = 24.972403 Si / 1000 Ang^3
#
#
#
# Elastic Constant Matrix: (Units=GPa)
#
#
# Indices 1 2 3 4 5 6 
#
# 1 103.7457 44.5324 33.3698 0.0000 -5.3038 0.0000
# 2 44.5324 103.0267 43.4070 0.0000 -4.2920 0.0000
# 3 33.3698 43.4070 133.9155 0.0000 -0.0826 0.0000
# 4 0.0000 0.0000 0.0000 59.9074 0.0000 -7.1012
# 5 -5.3038 -4.2920 -0.0826 0.0000 28.7413 0.0000
# 6 0.0000 0.0000 0.0000 -7.1012 0.0000 45.8672
#
#
#
# Elastic Compliance Matrix: (Units=1/GPa)
#
#
# Indices 1 2 3 4 5 6 
#
# 1 0.012168 -0.004537 -0.001561 0.000000 0.001563 0.000000
# 2 -0.004537 0.013014 -0.003087 0.000000 0.001097 0.000000
# 3 -0.001561 -0.003087 0.008856 0.000000 -0.000724 0.000000
# 4 0.000000 0.000000 0.000000 0.017004 0.000000 0.002633
# 5 0.001563 0.001097 -0.000724 0.000000 0.035243 0.000000
# 6 0.000000 0.000000 0.000000 0.002633 0.000000 0.022210
#
#
# Mechanical properties :
#
#
# Convention : Reuss Voigt Hill
#
# Bulk Modulus (GPa) = 63.81934 64.81181 64.31557
# Shear Modulus (GPa) = 37.85352 41.52844 39.69098
#
# Velocity S-wave (km/s) = 3.89757 4.08238 3.99105
# Velocity P-wave (km/s) = 6.77246 6.94484 6.85919
#
# Compressibility (1/GPa) = 0.01566923
#
# Stress axis : x y z
#
# Youngs Moduli (GPa) = 82.18045 76.84259 112.91235
#
# Poissons Ratio (x) = 0.34864 0.17621
# Poissons Ratio (y) = 0.37285 0.34856
# Poissons Ratio (z) = 0.12825 0.23721
#
# Static dielectric constant tensor:
#      x y z
#    x 4.200630 0.000000 -0.048170 
#    y 0.000000 4.590420 0.000000 
#    z -0.048170 0.000000 4.448500 
# 
# 
# High freq. dielectric constant tensor:
#      x y z
#    x 1.977080 0.000000 -0.002970 
#    y 0.000000 2.007040 0.000000 
#    z -0.002970 0.000000 1.994510 
# 
# From -- ./inp_files/30430.got.cif
#   From: 2010.06.25/outbox.cif.g09.slc.cpg/sg9_16_cif.got.tgz:30430.got - 2010.06.27 21:40:51.
