data_PCOD8056794
_publ_section_title
;
Structure prediction by ZEFSAII (Michael W. Deem and Ramdas Pophale) SiO2 
 PCOD8056794
Probable space group: C C
;
_chemical_formula_sum "Si O2"
_cell_formula_units_Z 32
_cell_length_a 8.089370
_cell_length_b 14.224190
_cell_length_c 24.505402
_cell_angle_alpha 90.000000
_cell_angle_beta 33.300123
_cell_angle_gamma 90.000000
_cell_volume 1548.088876
_symmetry_space_group_name_H-M "C C"
_symmetry_group_IT_number 9
_symmetry_cell_setting 'monoclinic'
loop_
_space_group_symop_operation_xyz
x,y,z
x,-y,1/2+z
1/2+x,1/2+y,z
1/2+x,1/2-y,1/2+z
loop_
_atom_site_type_symbol
_atom_site_label
_atom_site_fract_x
_atom_site_fract_y
_atom_site_fract_z
Si Si1 0.691360 0.463940 0.345610
Si Si2 0.177456 0.094694 0.731869
Si Si3 0.202598 0.536191 0.063351
Si Si4 0.859075 0.778203 0.242636
Si Si5 0.278210 0.749693 0.349041
Si Si6 0.616966 0.749547 0.559460
Si Si7 0.036060 0.221958 0.165842
Si Si8 0.716954 0.094805 0.176926
O O1 0.566783 0.459318 0.317325
O O2 0.446816 0.507596 0.454512
O O3 0.766699 0.359309 0.341122
O O4 0.992863 0.524659 0.269942
O O5 0.356746 0.189162 0.694351
O O6 0.899951 0.129405 0.770132
O O7 0.400556 0.024226 0.639146
O O8 0.128253 0.640905 0.067631
O O9 0.327169 0.540551 0.091646
O O10 0.510303 0.743653 0.335980
O O11 0.982422 0.806699 0.148314
O O12 0.039060 0.689468 0.213935
O O13 0.412462 0.693569 0.260224
O O14 0.947636 0.708454 0.454227
O O15 0.384985 0.743662 0.572462
O O16 0.994721 0.129473 0.138557
#
# Coordination Sequence:
#
# PCOD8056794 Si02
#       8
#     4   4   4   4   4   4   4   4
#     4   9  18  33  50  72 105 138 169 210 260 310
#     4   9  18  33  53  75 102 135 172 216 260 308
#     4   9  18  33  50  72 105 138 169 210 260 310
#     4   9  18  33  53  76 102 134 171 214 260 307
#     4   9  18  33  51  73 105 137 168 212 262 310
#     4   9  18  33  51  73 105 137 168 212 262 310
#     4   9  18  33  53  76 102 134 171 214 260 307
#     4   9  18  33  53  75 102 135 172 216 260 308
#
# _framework density 20.670648
#
# number of rings (size 3 to 8) (size 9 to 14) (size 15 to 20)
#    0.000    3.000    0.000    0.000    0.000    3.000 
#    0.000   18.750    0.000    0.000    0.000    0.000 
#    0.000    0.000    0.000    0.000    0.000    0.000 
#
# Total GULP energy -198229.563902 kJ/mol
# GULP energy per Si atom -12389.347744 kJ/mol
# Density = 2.062360 g / cm^3
# Si number density = 20.670648 Si / 1000 Ang^3
#
#
#
# Elastic Constant Matrix: (Units=GPa)
#
#
# Indices 1 2 3 4 5 6 
#
# 1 115.1644 13.7651 51.4151 -0.0209 -15.2078 0.0041
# 2 13.7651 18.0765 13.5771 -0.0154 8.7763 0.0129
# 3 51.4151 13.5771 127.1707 -0.0481 -2.3087 0.1431
# 4 -0.0209 -0.0154 -0.0481 24.9179 0.0123 1.5498
# 5 -15.2078 8.7763 -2.3087 0.0123 27.6893 -0.0110
# 6 0.0041 0.0129 0.1431 1.5498 -0.0110 4.6554
#
#
#
# Elastic Compliance Matrix: (Units=1/GPa)
#
#
# Indices 1 2 3 4 5 6 
#
# 1 0.013373 -0.012642 -0.003857 -0.000020 0.011030 0.000175
# 2 -0.012642 0.085037 -0.004590 0.000062 -0.034279 -0.000185
# 3 -0.003857 -0.004590 0.009916 0.000032 0.000163 -0.000299
# 4 -0.000020 0.000062 0.000032 0.040981 -0.000052 -0.013644
# 5 0.011030 -0.034279 0.000163 -0.000052 0.053052 0.000222
# 6 0.000175 -0.000185 -0.000299 -0.013644 0.000222 0.219355
#
#
# Mechanical properties :
#
#
# Convention : Reuss Voigt Hill
#
# Bulk Modulus (GPa) = 15.11736 46.43625 30.77680
# Shear Modulus (GPa) = 10.28935 23.56280 16.92608
#
# Velocity S-wave (km/s) = 2.23351 3.37993 2.86465
# Velocity P-wave (km/s) = 3.73908 6.14373 5.08558
#
# Compressibility (1/GPa) = 0.06614913
#
# Stress axis : x y z
#
# Youngs Moduli (GPa) = 74.77940 11.75959 100.84581
#
# Poissons Ratio (x) = 0.14866 0.38895
# Poissons Ratio (y) = 0.94533 0.46287
# Poissons Ratio (z) = 0.28842 0.05398
#
# Static dielectric constant tensor:
#      x y z
#    x 4.265760 -0.000040 0.186980 
#    y -0.000040 3.581730 0.000080 
#    z 0.186980 0.000080 3.999920 
# 
# 
# High freq. dielectric constant tensor:
#      x y z
#    x 1.806810 0.000000 0.002790 
#    y 0.000000 1.790040 0.000000 
#    z 0.002790 0.000000 1.790180 
# 
# From -- ./inp_files/23120.got.cif
#   From: 2010.06.25/outbox.cif.g09.slc.cpg/sg9_12_cif.got.tgz:23120.got - 2010.06.27 21:40:51.
