data_PCOD8056500
_publ_section_title
;
Structure prediction by ZEFSAII (Michael W. Deem and Ramdas Pophale) SiO2 
 PCOD8056500
Probable space group: C C
;
_chemical_formula_sum "Si O2"
_cell_formula_units_Z 28
_cell_length_a 20.307549
_cell_length_b 8.077437
_cell_length_c 9.745476
_cell_angle_alpha 90.000000
_cell_angle_beta 130.477301
_cell_angle_gamma 90.000000
_cell_volume 1215.980334
_symmetry_space_group_name_H-M "C C"
_symmetry_group_IT_number 9
_symmetry_cell_setting 'monoclinic'
loop_
_space_group_symop_operation_xyz
x,y,z
x,-y,1/2+z
1/2+x,1/2+y,z
1/2+x,1/2-y,1/2+z
loop_
_atom_site_type_symbol
_atom_site_label
_atom_site_fract_x
_atom_site_fract_y
_atom_site_fract_z
Si Si1 0.128480 0.085635 0.615550
Si Si2 0.752792 0.932809 0.560562
Si Si3 0.893327 0.155244 0.612897
Si Si4 0.812181 0.382409 0.275828
Si Si5 0.143190 0.544420 0.175836
Si Si6 0.467627 0.124207 0.433677
Si Si7 0.023652 0.898014 0.694799
O O1 0.222514 0.024195 0.691060
O O2 0.139476 0.261159 0.708021
O O3 0.065764 0.113733 0.401076
O O4 0.092897 0.951215 0.673107
O O5 0.794130 0.749286 0.628746
O O6 0.713494 0.986912 0.652783
O O7 0.824706 0.063857 0.615955
O O8 0.674252 0.933472 0.345876
O O9 0.846274 0.288287 0.455444
O O10 0.962041 0.243838 0.803955
O O11 0.944900 0.028157 0.586399
O O12 0.880111 0.518484 0.319445
O O13 0.047435 0.492317 0.002910
O O14 0.484615 0.219350 0.600298
#
# Coordination Sequence:
#
# PCOD8056500 Si02
#       7
#     4   4   4   4   4   4   4
#     4  11  26  50  74 106 149 194 246 297 369 443
#     4  11  24  51  72 101 150 196 241 298 370 438
#     4  12  26  47  71 110 145 194 242 304 370 433
#     4  11  27  47  73 111 146 188 251 308 364 443
#     4  11  26  47  76 106 146 194 241 299 367 442
#     4  12  28  44  76 109 143 192 245 310 365 433
#     4  12  27  50  72 105 151 198 242 304 367 438
#
# _framework density 23.026689000000001
#
# number of rings (size 3 to 8) (size 9 to 14) (size 15 to 20)
#    0.000    0.571    4.286    3.429   10.000    1.143 
#    2.571    0.000    0.000    0.000    0.000    0.000 
#    0.000    0.000    0.000    0.000    0.000    0.000 
#
# Total GULP energy -173685.837025 kJ/mol
# GULP energy per Si atom -12406.131216 kJ/mol
# Density = 2.297428 g / cm^3
# Si number density = 23.026689 Si / 1000 Ang^3
#
#
#
# Elastic Constant Matrix: (Units=GPa)
#
#
# Indices 1 2 3 4 5 6 
#
# 1 64.9787 38.7420 4.1172 0.0000 13.6394 0.0000
# 2 38.7420 89.2094 21.3358 0.0000 4.6541 0.0000
# 3 4.1172 21.3358 93.5053 0.0000 2.0240 0.0000
# 4 0.0000 0.0000 0.0000 39.0310 0.0000 9.6772
# 5 13.6394 4.6541 2.0240 0.0000 40.9751 0.0000
# 6 0.0000 0.0000 0.0000 9.6772 0.0000 37.2814
#
#
#
# Elastic Compliance Matrix: (Units=1/GPa)
#
#
# Indices 1 2 3 4 5 6 
#
# 1 0.022467 -0.009750 0.001375 0.000000 -0.006439 0.000000
# 2 -0.009750 0.016148 -0.003289 0.000000 0.001574 0.000000
# 3 0.001375 -0.003289 0.011399 0.000000 -0.000647 0.000000
# 4 0.000000 0.000000 0.000000 0.027383 0.000000 -0.007108
# 5 -0.006439 0.001574 -0.000647 0.000000 0.026402 0.000000
# 6 0.000000 0.000000 0.000000 -0.007108 0.000000 0.028668
#
#
# Mechanical properties :
#
#
# Convention : Reuss Voigt Hill
#
# Bulk Modulus (GPa) = 37.47405 41.78706 39.63055
# Shear Modulus (GPa) = 30.35979 35.69075 33.02527
#
# Velocity S-wave (km/s) = 3.63500 3.94124 3.79121
# Velocity P-wave (km/s) = 5.82470 6.23681 6.03427
#
# Compressibility (1/GPa) = 0.02668513
#
# Stress axis : x y z
#
# Youngs Moduli (GPa) = 44.50892 61.92535 87.72986
#
# Poissons Ratio (x) = 0.60378 -0.12061
# Poissons Ratio (y) = 0.43396 0.28858
# Poissons Ratio (z) = -0.06119 0.20370
#
# Static dielectric constant tensor:
#      x y z
#    x 4.187840 0.000000 0.205740 
#    y 0.000000 4.187270 0.000000 
#    z 0.205740 0.000000 4.307400 
# 
# 
# High freq. dielectric constant tensor:
#      x y z
#    x 1.915210 0.000000 0.013810 
#    y 0.000000 1.907940 0.000000 
#    z 0.013810 0.000000 1.924740 
# 
# From -- ./inp_files/11381.got.cif
#   From: 2010.06.25/outbox.cif.g09.slc.cpg/sg9_6_cif.got.tgz:11381.got - 2010.06.27 21:40:51.
