data_PCOD8056660
_publ_section_title
;
Structure prediction by ZEFSAII (Michael W. Deem and Ramdas Pophale) SiO2 
 PCOD8056660
Probable space group: C C
;
_chemical_formula_sum "Si O2"
_cell_formula_units_Z 32
_cell_length_a 14.287893
_cell_length_b 8.758832
_cell_length_c 23.121014
_cell_angle_alpha 90.000000
_cell_angle_beta 29.944750
_cell_angle_gamma 90.000000
_cell_volume 1444.325558
_symmetry_space_group_name_H-M "C C"
_symmetry_group_IT_number 9
_symmetry_cell_setting 'monoclinic'
loop_
_space_group_symop_operation_xyz
x,y,z
x,-y,1/2+z
1/2+x,1/2+y,z
1/2+x,1/2-y,1/2+z
loop_
_atom_site_type_symbol
_atom_site_label
_atom_site_fract_x
_atom_site_fract_y
_atom_site_fract_z
Si Si1 0.296560 0.662569 0.433600
Si Si2 0.395197 0.365284 0.006662
Si Si3 0.549616 0.624075 0.620264
Si Si4 0.879159 0.603556 0.642294
Si Si5 0.819309 0.590499 0.280036
Si Si6 0.867326 0.495349 0.883702
Si Si7 0.654139 0.421359 0.670897
Si Si8 0.784746 0.050900 0.176210
O O1 0.349085 0.580582 0.466138
O O2 0.268838 0.845210 0.453624
O O3 0.457687 0.634942 0.300972
O O4 0.102697 0.593152 0.514581
O O5 0.266622 0.218337 0.083872
O O6 0.350855 0.494737 0.077603
O O7 0.616445 0.328781 0.892555
O O8 0.469626 0.791511 0.674005
O O9 0.737061 0.637631 0.480669
O O10 0.606822 0.549958 0.650054
O O11 0.398923 0.523437 0.666942
O O12 0.817124 0.558536 0.740394
O O13 0.788571 0.482511 0.648338
O O14 0.801076 0.768518 0.668881
O O15 0.888289 0.529998 0.304492
O O16 0.071168 0.494357 0.802952
#
# Coordination Sequence:
#
# PCOD8056660 Si02
#       8
#     4   4   4   4   4   4   4   4
#     4  12  25  48  75 105 148 194 240 302 373 438
#     4  12  23  49  76 102 146 197 240 299 373 438
#     4  12  27  48  71 110 144 195 243 298 373 436
#     4  12  27  47  71 113 143 193 248 302 367 439
#     4  12  27  46  75 106 150 192 243 310 366 436
#     4  12  25  49  74 107 147 193 244 307 365 440
#     4  12  27  45  73 110 146 194 246 302 374 435
#     4  12  25  48  75 105 146 190 248 298 365 444
#
# _framework density 22.155670000000001
#
# number of rings (size 3 to 8) (size 9 to 14) (size 15 to 20)
#    0.000    0.000    6.250    3.000    3.500    1.000 
#    4.500    0.000    0.000    0.000    0.000    0.000 
#    0.000    0.000    0.000    0.000    0.000    0.000 
#
# Total GULP energy -198494.762518 kJ/mol
# GULP energy per Si atom -12405.922657 kJ/mol
# Density = 2.210524 g / cm^3
# Si number density = 22.155670 Si / 1000 Ang^3
#
#
#
# Elastic Constant Matrix: (Units=GPa)
#
#
# Indices 1 2 3 4 5 6 
#
# 1 79.0070 1.0922 37.1813 -0.0004 -3.1388 -0.0002
# 2 1.0922 71.2130 29.3222 0.0000 12.7286 -0.0004
# 3 37.1813 29.3222 133.2909 -0.0020 -14.3805 -0.0008
# 4 -0.0004 0.0000 -0.0020 25.7775 -0.0002 -4.7499
# 5 -3.1388 12.7286 -14.3805 -0.0002 44.3725 0.0009
# 6 -0.0002 -0.0004 -0.0008 -4.7499 0.0009 23.8136
#
#
#
# Elastic Compliance Matrix: (Units=1/GPa)
#
#
# Indices 1 2 3 4 5 6 
#
# 1 0.014774 0.001860 -0.004637 0.000000 -0.000991 0.000000
# 2 0.001860 0.017222 -0.005001 0.000000 -0.006430 0.000000
# 3 -0.004637 -0.005001 0.010378 0.000001 0.004470 0.000000
# 4 0.000000 0.000000 0.000001 0.040274 0.000000 0.008033
# 5 -0.000991 -0.006430 0.004470 0.000000 0.025759 -0.000001
# 6 0.000000 0.000000 0.000000 0.008033 -0.000001 0.043595
#
#
# Mechanical properties :
#
#
# Convention : Reuss Voigt Hill
#
# Bulk Modulus (GPa) = 37.28830 46.52248 41.90539
# Shear Modulus (GPa) = 28.32859 33.18705 30.75782
#
# Velocity S-wave (km/s) = 3.57965 3.87447 3.72998
# Velocity P-wave (km/s) = 5.82683 6.40773 6.12417
#
# Compressibility (1/GPa) = 0.02681806
#
# Stress axis : x y z
#
# Youngs Moduli (GPa) = 67.68446 58.06403 96.35313
#
# Poissons Ratio (x) = -0.10800 0.44684
# Poissons Ratio (y) = -0.12590 0.48189
# Poissons Ratio (z) = 0.31388 0.29039
#
# Static dielectric constant tensor:
#      x y z
#    x 4.254730 0.000000 -0.036190 
#    y 0.000000 3.914340 0.000000 
#    z -0.036190 0.000000 4.233080 
# 
# 
# High freq. dielectric constant tensor:
#      x y z
#    x 1.892770 0.000000 -0.005920 
#    y 0.000000 1.862720 0.000000 
#    z -0.005920 0.000000 1.890640 
# 
# From -- ./inp_files/17741.got.cif
#   From: 2010.06.25/outbox.cif.g09.slc.cpg/sg9_9_cif.got.tgz:17741.got - 2010.06.27 21:40:51.
