data_PCOD8056979
_publ_section_title
;
Structure prediction by ZEFSAII (Michael W. Deem and Ramdas Pophale) SiO2 
 PCOD8056979
Probable space group: P 2/M
;
_chemical_formula_sum "Si O2"
_cell_formula_units_Z 32
_cell_length_a 19.430238
_cell_length_b 9.215424
_cell_length_c 13.630269
_cell_angle_alpha 90.000000
_cell_angle_beta 59.501807
_cell_angle_gamma 90.000000
_cell_volume 2102.937305
_symmetry_space_group_name_H-M "P 2/M"
_symmetry_group_IT_number 10
_symmetry_cell_setting 'monoclinic'
loop_
_space_group_symop_operation_xyz
x,y,z
-x,y,-z
-x,-y,-z
x,-y,z
loop_
_atom_site_type_symbol
_atom_site_label
_atom_site_fract_x
_atom_site_fract_y
_atom_site_fract_z
Si Si1 0.560065 0.827888 0.156117
Si Si2 0.321220 0.664748 0.047180
Si Si3 0.156324 0.166223 0.480012
Si Si4 0.165624 0.328834 0.270324
Si Si5 0.415796 0.333629 0.176321
Si Si6 0.328593 0.833603 0.400169
Si Si7 0.523368 0.829917 0.587014
Si Si8 0.991558 0.660441 0.389380
O O1 0.495557 0.761233 0.127959
O O2 0.536158 0.777275 0.283474
O O3 0.560648 0.000000 0.144718
O O4 0.647207 0.764595 0.065033
O O5 0.314843 0.500000 0.014032
O O6 0.234040 0.720660 0.144848
O O7 0.384305 0.676707 0.089231
O O8 0.175789 0.244188 0.364140
O O9 0.234490 0.182269 0.493380
O O10 0.079697 0.232935 0.592033
O O11 0.136671 0.000000 0.471305
O O12 0.173470 0.500000 0.288738
O O13 0.078777 0.294051 0.284316
O O14 0.434555 0.500000 0.191100
O O15 0.347207 0.271443 0.296349
O O16 0.384604 0.790535 0.452164
O O17 0.348421 0.000000 0.354902
O O18 0.500000 0.754798 0.500000
O O19 0.512906 0.000000 0.583262
O O20 0.968437 0.500000 0.369274
O O21 0.000000 0.663361 0.500000
#
# Coordination Sequence:
#
# PCOD8056979 Si02
#       8
#     4   4   4   4   4   4   4   4
#     4  10  20  30  42  61  81 102 132 169 208 242
#     4  10  19  29  41  57  80 110 142 168 194 234
#     4  10  17  24  37  58  84 106 132 170 207 238
#     4   9  17  29  40  53  76 111 147 170 191 227
#     4  10  18  28  42  57  78 110 142 167 195 234
#     4   9  17  27  41  63  84 105 135 171 208 241
#     4   8  15  30  48  61  77 103 134 166 202 248
#     4   8  15  26  39  52  73 107 144 172 193 227
#
# _framework density 15.216811999999999
#
# number of rings (size 3 to 8) (size 9 to 14) (size 15 to 20)
#    0.000    2.750    1.250    3.000    0.000    5.750 
#    0.000    0.000    0.000    9.375    0.000    0.000 
#    0.000    1.000    0.000   12.500    0.000    1.000 
#
# Total GULP energy -396550.677693 kJ/mol
# GULP energy per Si atom -12392.208678 kJ/mol
# Density = 1.518218 g / cm^3
# Si number density = 15.216812 Si / 1000 Ang^3
#
#
#
# Elastic Constant Matrix: (Units=GPa)
#
#
# Indices 1 2 3 4 5 6 
#
# 1 86.6356 38.1747 57.4110 0.0000 -22.0822 0.0000
# 2 38.1747 64.7611 34.2473 0.0000 -11.2945 0.0000
# 3 57.4110 34.2473 75.6200 0.0000 -20.3158 0.0000
# 4 0.0000 0.0000 0.0000 16.8312 0.0000 -10.9892
# 5 -22.0822 -11.2945 -20.3158 0.0000 26.9379 0.0000
# 6 0.0000 0.0000 0.0000 -10.9892 0.0000 15.8502
#
#
#
# Elastic Compliance Matrix: (Units=1/GPa)
#
#
# Indices 1 2 3 4 5 6 
#
# 1 0.026125 -0.006139 -0.015039 0.000000 0.007500 0.000000
# 2 -0.006139 0.021831 -0.005166 0.000000 0.000225 0.000000
# 3 -0.015039 -0.005166 0.028954 0.000000 0.007342 0.000000
# 4 0.000000 0.000000 0.000000 0.108551 0.000000 0.075260
# 5 0.007500 0.000225 0.007342 0.000000 0.048902 0.000000
# 6 0.000000 0.000000 0.000000 0.075260 0.000000 0.115269
#
#
# Mechanical properties :
#
#
# Convention : Reuss Voigt Hill
#
# Bulk Modulus (GPa) = 41.28445 54.07587 47.68016
# Shear Modulus (GPa) = 12.18337 18.40277 15.29307
#
# Velocity S-wave (km/s) = 2.83265 3.48137 3.17363
# Velocity P-wave (km/s) = 6.15534 7.19542 6.69561
#
# Compressibility (1/GPa) = 0.02422219
#
# Stress axis : x y z
#
# Youngs Moduli (GPa) = 38.27681 45.80595 34.53759
#
# Poissons Ratio (x) = 0.28120 0.51942
# Poissons Ratio (y) = 0.23498 0.17842
# Poissons Ratio (z) = 0.57566 0.23663
#
# Static dielectric constant tensor:
#      x y z
#    x 3.088090 0.000000 -0.332370 
#    y 0.000000 2.943760 0.000000 
#    z -0.332370 0.000000 2.874980 
# 
# 
# High freq. dielectric constant tensor:
#      x y z
#    x 1.566610 0.000000 -0.037600 
#    y 0.000000 1.581970 0.000000 
#    z -0.037600 0.000000 1.546010 
# 
# From -- ./inp_files/56433.got.cif
#   From: 2010.06.25/outbox.cif.g09.slc.cpg/sg10_29_cif.got.tgz:56433.got - 2010.06.27 22:07:45.
