data_PCOD8056182
_publ_section_title
;
Structure prediction by ZEFSAII (Michael W. Deem and Ramdas Pophale) SiO2 
 PCOD8056182
Probable space group: C C
;
_chemical_formula_sum "Si O2"
_cell_formula_units_Z 32
_cell_length_a 11.751636
_cell_length_b 14.044144
_cell_length_c 9.016626
_cell_angle_alpha 90.000000
_cell_angle_beta 109.675620
_cell_angle_gamma 90.000000
_cell_volume 1401.233528
_symmetry_space_group_name_H-M "C C"
_symmetry_group_IT_number 9
_symmetry_cell_setting 'monoclinic'
loop_
_space_group_symop_operation_xyz
x,y,z
x,-y,1/2+z
1/2+x,1/2+y,z
1/2+x,1/2-y,1/2+z
loop_
_atom_site_type_symbol
_atom_site_label
_atom_site_fract_x
_atom_site_fract_y
_atom_site_fract_z
Si Si1 0.050650 0.198267 0.334010
Si Si2 0.750259 0.302542 0.686694
Si Si3 0.368587 0.460380 0.809083
Si Si4 0.464854 0.921065 0.901027
Si Si5 0.662666 0.610349 0.636292
Si Si6 0.599790 0.436001 0.430931
Si Si7 0.924827 0.610044 0.718612
Si Si8 0.241228 0.397062 0.048208
O O1 0.177642 0.181803 0.306954
O O2 0.080205 0.191844 0.523700
O O3 0.948598 0.118172 0.252880
O O4 0.014843 0.302720 0.270584
O O5 0.876420 0.359126 0.757408
O O6 0.658087 0.340110 0.519697
O O7 0.787323 0.195270 0.659070
O O8 0.459399 0.542854 0.911125
O O9 0.268498 0.508644 0.658839
O O10 0.305489 0.406775 0.917817
O O11 0.474078 0.027371 0.844213
O O12 0.414888 0.923689 0.045450
O O13 0.599738 0.880175 0.958656
O O14 0.678481 0.524110 0.525228
O O15 0.599429 0.569806 0.753462
O O16 0.797082 0.647276 0.726997
#
# Coordination Sequence:
#
# PCOD8056182 Si02
#       8
#     4   4   4   4   4   4   4   4
#     4  11  25  47  75 109 144 197 249 303 374 440
#     4  12  26  47  75 110 144 196 253 301 371 444
#     4  11  26  49  74 106 150 193 247 304 371 444
#     4  12  27  48  73 105 154 192 242 310 371 436
#     4  11  22  44  75 111 140 191 247 307 364 437
#     4  11  23  46  76 105 145 190 250 307 361 440
#     4  12  25  45  71 108 148 192 241 305 371 437
#     4  12  28  48  73 110 149 199 241 305 379 440
#
# _framework density 22.837019000000002
#
# number of rings (size 3 to 8) (size 9 to 14) (size 15 to 20)
#    0.000    0.500    3.750    5.250    3.500    2.000 
#    2.250    0.000    0.000    0.000    0.000    0.000 
#    0.000    0.000    0.000    0.000    0.000    0.000 
#
# Total GULP energy -198384.808589 kJ/mol
# GULP energy per Si atom -12399.050537 kJ/mol
# Density = 2.278504 g / cm^3
# Si number density = 22.837019 Si / 1000 Ang^3
#
#
#
# Elastic Constant Matrix: (Units=GPa)
#
#
# Indices 1 2 3 4 5 6 
#
# 1 122.9789 27.3309 27.1603 0.0000 6.5272 0.0000
# 2 27.3309 111.8075 47.3203 0.0000 2.9446 0.0000
# 3 27.1603 47.3203 104.2112 0.0000 -4.3347 0.0000
# 4 0.0000 0.0000 0.0000 36.3706 0.0000 0.2739
# 5 6.5272 2.9446 -4.3347 0.0000 41.8382 0.0000
# 6 0.0000 0.0000 0.0000 0.2739 0.0000 32.3154
#
#
#
# Elastic Compliance Matrix: (Units=1/GPa)
#
#
# Indices 1 2 3 4 5 6 
#
# 1 0.008906 -0.001399 -0.001747 0.000000 -0.001472 0.000000
# 2 -0.001399 0.011363 -0.004840 0.000000 -0.001083 0.000000
# 3 -0.001747 -0.004840 0.012328 0.000000 0.001890 0.000000
# 4 0.000000 0.000000 0.000000 0.027497 0.000000 -0.000233
# 5 -0.001472 -0.001083 0.001890 0.000000 0.024403 0.000000
# 6 0.000000 0.000000 0.000000 -0.000233 0.000000 0.030947
#
#
# Mechanical properties :
#
#
# Convention : Reuss Voigt Hill
#
# Bulk Modulus (GPa) = 60.15233 60.29117 60.22175
# Shear Modulus (GPa) = 36.50756 37.91723 37.21239
#
# Velocity S-wave (km/s) = 4.00260 4.07915 4.04106
# Velocity P-wave (km/s) = 6.91073 6.97452 6.94269
#
# Compressibility (1/GPa) = 0.01662446
#
# Stress axis : x y z
#
# Youngs Moduli (GPa) = 112.27898 88.00572 81.11786
#
# Poissons Ratio (x) = 0.12311 0.14174
# Poissons Ratio (y) = 0.15706 0.39262
# Poissons Ratio (z) = 0.19618 0.42596
#
# Static dielectric constant tensor:
#      x y z
#    x 4.117480 0.000000 0.062010 
#    y 0.000000 3.943780 0.000000 
#    z 0.062010 0.000000 4.198920 
# 
# 
# High freq. dielectric constant tensor:
#      x y z
#    x 1.910620 0.000000 0.004570 
#    y 0.000000 1.892780 0.000000 
#    z 0.004570 0.000000 1.905020 
# 
# From -- ./inp_files/7388.got.cif
#   From: 2010.06.25/outbox.cif.g09.slc.cpg/sg9_4_cif.got.tgz:7388.got - 2010.06.27 21:40:51.
