data_PCOD8056074
_publ_section_title
;
Structure prediction by ZEFSAII (Michael W. Deem and Ramdas Pophale) SiO2 
 PCOD8056074
Probable space group: C C
;
_chemical_formula_sum "Si O2"
_cell_formula_units_Z 32
_cell_length_a 15.797671
_cell_length_b 10.859312
_cell_length_c 9.592405
_cell_angle_alpha 90.000000
_cell_angle_beta 119.127780
_cell_angle_gamma 90.000000
_cell_volume 1437.486747
_symmetry_space_group_name_H-M "C C"
_symmetry_group_IT_number 9
_symmetry_cell_setting 'monoclinic'
loop_
_space_group_symop_operation_xyz
x,y,z
x,-y,1/2+z
1/2+x,1/2+y,z
1/2+x,1/2-y,1/2+z
loop_
_atom_site_type_symbol
_atom_site_label
_atom_site_fract_x
_atom_site_fract_y
_atom_site_fract_z
Si Si1 0.853780 0.938908 0.359950
Si Si2 0.063929 0.528941 0.283439
Si Si3 0.609925 0.372588 0.660639
Si Si4 0.760132 0.749257 0.475035
Si Si5 0.472994 0.236402 0.745855
Si Si6 0.018531 0.113688 0.554960
Si Si7 0.681428 0.929996 0.602698
Si Si8 0.506518 0.728881 0.834213
O O1 0.778886 0.872227 0.401532
O O2 0.909624 0.836688 0.311728
O O3 0.791638 0.033113 0.218992
O O4 0.925515 0.027092 0.500237
O O5 0.149063 0.530949 0.464532
O O6 0.106122 0.572816 0.169542
O O7 0.985387 0.627388 0.280778
O O8 0.023418 0.391490 0.247960
O O9 0.707671 0.349028 0.829637
O O10 0.514131 0.342541 0.677822
O O11 0.606481 0.514359 0.600674
O O12 0.596938 0.285137 0.514874
O O13 0.860554 0.704802 0.623660
O O14 0.685491 0.790966 0.538131
O O15 0.496445 0.282498 0.920820
O O16 0.044485 0.173365 0.721244
#
# Coordination Sequence:
#
# PCOD8056074 Si02
#       8
#     4   4   4   4   4   4   4   4
#     4  11  21  40  70 105 133 183 253 303 344 441
#     4  12  26  43  68 102 149 190 233 306 377 441
#     4  11  23  44  69 101 144 189 238 307 364 432
#     4  12  23  41  72 105 140 192 242 300 375 434
#     4  12  23  45  72 102 146 194 243 302 372 441
#     4  11  23  41  73 102 137 184 252 297 357 431
#     4  12  23  42  71 103 139 186 252 299 357 441
#     4  11  24  42  69 100 142 190 233 300 370 437
#
# _framework density 22.261075000000002
#
# number of rings (size 3 to 8) (size 9 to 14) (size 15 to 20)
#    0.000    0.500    6.250    4.500    0.000    0.000 
#    0.000    3.750    2.750    0.000    0.000    0.000 
#    0.000    0.000    0.000    0.000    0.000    0.000 
#
# Total GULP energy -198217.031607 kJ/mol
# GULP energy per Si atom -12388.564475 kJ/mol
# Density = 2.221041 g / cm^3
# Si number density = 22.261075 Si / 1000 Ang^3
#
#
#
# Elastic Constant Matrix: (Units=GPa)
#
#
# Indices 1 2 3 4 5 6 
#
# 1 76.0541 28.4751 48.4725 0.0000 4.3267 0.0000
# 2 28.4751 90.1705 38.5944 0.0000 5.4531 0.0000
# 3 48.4725 38.5944 156.0500 0.0000 -1.1824 0.0000
# 4 0.0000 0.0000 0.0000 35.0716 0.0000 -3.2816
# 5 4.3267 5.4531 -1.1824 0.0000 39.0741 0.0000
# 6 0.0000 0.0000 0.0000 -3.2816 0.0000 32.0990
#
#
#
# Elastic Compliance Matrix: (Units=1/GPa)
#
#
# Indices 1 2 3 4 5 6 
#
# 1 0.017450 -0.003455 -0.004578 0.000000 -0.001589 0.000000
# 2 -0.003455 0.013219 -0.002208 0.000000 -0.001529 0.000000
# 3 -0.004578 -0.002208 0.008384 0.000000 0.001069 0.000000
# 4 0.000000 0.000000 0.000000 0.028788 0.000000 0.002943
# 5 -0.001589 -0.001529 0.001069 0.000000 0.026014 0.000000
# 6 0.000000 0.000000 0.000000 0.002943 0.000000 0.031455
#
#
# Mechanical properties :
#
#
# Convention : Reuss Voigt Hill
#
# Bulk Modulus (GPa) = 53.84509 61.48430 57.66470
# Shear Modulus (GPa) = 32.89865 35.03113 33.96489
#
# Velocity S-wave (km/s) = 3.84846 3.97123 3.91033
# Velocity P-wave (km/s) = 6.63235 6.97905 6.80791
#
# Compressibility (1/GPa) = 0.01857179
#
# Stress axis : x y z
#
# Youngs Moduli (GPa) = 57.30577 75.65128 119.27082
#
# Poissons Ratio (x) = 0.26139 0.54601
# Poissons Ratio (y) = 0.19800 0.26330
# Poissons Ratio (z) = 0.26234 0.16701
#
# Static dielectric constant tensor:
#      x y z
#    x 3.798850 0.000000 0.045860 
#    y 0.000000 4.047270 0.000000 
#    z 0.045860 0.000000 4.478900 
# 
# 
# High freq. dielectric constant tensor:
#      x y z
#    x 1.852070 0.000000 -0.000800 
#    y 0.000000 1.874990 0.000000 
#    z -0.000800 0.000000 1.900170 
# 
# From -- ./inp_files/9293.got.cif
#   From: 2010.06.25/outbox.cif.g09.slc.cpg/sg9_5_cif.got.tgz:9293.got - 2010.06.27 21:40:51.
