data_PCOD8056142
_publ_section_title
;
Structure prediction by ZEFSAII (Michael W. Deem and Ramdas Pophale) SiO2 
 PCOD8056142
Probable space group: C C
;
_chemical_formula_sum "Si O2"
_cell_formula_units_Z 28
_cell_length_a 6.490404
_cell_length_b 17.733152
_cell_length_c 10.583072
_cell_angle_alpha 90.000000
_cell_angle_beta 97.888812
_cell_angle_gamma 90.000000
_cell_volume 1206.534671
_symmetry_space_group_name_H-M "C C"
_symmetry_group_IT_number 9
_symmetry_cell_setting 'monoclinic'
loop_
_space_group_symop_operation_xyz
x,y,z
x,-y,1/2+z
1/2+x,1/2+y,z
1/2+x,1/2-y,1/2+z
loop_
_atom_site_type_symbol
_atom_site_label
_atom_site_fract_x
_atom_site_fract_y
_atom_site_fract_z
Si Si1 0.409140 0.110461 0.961540
Si Si2 0.066890 0.510010 0.770157
Si Si3 0.328796 0.355711 0.616007
Si Si4 0.362728 0.608358 0.640615
Si Si5 0.712605 0.850973 0.868191
Si Si6 0.653855 0.516244 0.109839
Si Si7 0.518574 0.294139 0.385494
O O1 0.549208 0.083154 0.857506
O O2 0.262673 0.181861 0.918096
O O3 0.578815 0.128032 0.085548
O O4 0.250498 0.042121 0.984051
O O5 0.191723 0.543525 0.659898
O O6 0.182193 0.440830 0.848381
O O7 0.840625 0.476798 0.723839
O O8 0.355948 0.322625 0.761198
O O9 0.460485 0.431541 0.626301
O O10 0.401653 0.300837 0.510456
O O11 0.301335 0.660576 0.517079
O O12 0.574545 0.569272 0.608376
O O13 0.404520 0.658661 0.767289
O O14 0.513202 0.794664 0.849680
#
# Coordination Sequence:
#
# PCOD8056142 Si02
#       7
#     4   4   4   4   4   4   4
#     4  11  23  45  73 100 143 196 246 294 368 439
#     4  12  23  45  75 111 144 188 251 306 363 448
#     4  11  24  48  73 101 148 192 243 309 364 437
#     4  12  26  47  75 109 153 194 254 307 368 446
#     4  12  28  47  72 113 148 193 246 310 371 445
#     4  11  22  41  74 108 138 191 248 306 363 428
#     4  11  28  49  72 102 154 200 242 308 383 435
#
# _framework density 23.206958
#
# number of rings (size 3 to 8) (size 9 to 14) (size 15 to 20)
#    0.000    0.571    5.714    1.714    6.000    1.143 
#    5.143    0.000    0.000    0.000    0.000    0.000 
#    0.000    0.000    0.000    0.000    0.000    0.000 
#
# Total GULP energy -173448.696232 kJ/mol
# GULP energy per Si atom -12389.192588 kJ/mol
# Density = 2.315414 g / cm^3
# Si number density = 23.206958 Si / 1000 Ang^3
#
#
#
# Elastic Constant Matrix: (Units=GPa)
#
#
# Indices 1 2 3 4 5 6 
#
# 1 99.8169 30.9935 50.0202 0.0000 -3.6345 0.0000
# 2 30.9935 86.1934 45.0606 0.0000 -18.4917 0.0000
# 3 50.0202 45.0606 155.6959 0.0000 -19.7753 0.0000
# 4 0.0000 0.0000 0.0000 21.8159 0.0000 -2.0584
# 5 -3.6345 -18.4917 -19.7753 0.0000 42.1473 0.0000
# 6 0.0000 0.0000 0.0000 -2.0584 0.0000 25.2485
#
#
#
# Elastic Compliance Matrix: (Units=1/GPa)
#
#
# Indices 1 2 3 4 5 6 
#
# 1 0.012630 -0.003182 -0.003377 0.000000 -0.001891 0.000000
# 2 -0.003182 0.015286 -0.002749 0.000000 0.005143 0.000000
# 3 -0.003377 -0.002749 0.008627 0.000000 0.002551 0.000000
# 4 0.000000 0.000000 0.000000 0.046193 0.000000 0.003766
# 5 -0.001891 0.005143 0.002551 0.000000 0.027016 0.000000
# 6 0.000000 0.000000 0.000000 0.003766 0.000000 0.039913
#
#
# Mechanical properties :
#
#
# Convention : Reuss Voigt Hill
#
# Bulk Modulus (GPa) = 55.77759 65.98388 60.88074
# Shear Modulus (GPa) = 28.69331 32.21779 30.45555
#
# Velocity S-wave (km/s) = 3.52008 3.73001 3.62656
# Velocity P-wave (km/s) = 6.37246 6.85895 6.62017
#
# Compressibility (1/GPa) = 0.01792835
#
# Stress axis : x y z
#
# Youngs Moduli (GPa) = 79.17879 65.41864 115.91348
#
# Poissons Ratio (x) = 0.20815 0.39143
# Poissons Ratio (y) = 0.25193 0.31861
# Poissons Ratio (z) = 0.26738 0.17981
#
# Static dielectric constant tensor:
#      x y z
#    x 4.234730 0.000000 -0.184360 
#    y 0.000000 4.004880 0.000000 
#    z -0.184360 0.000000 4.359880 
# 
# 
# High freq. dielectric constant tensor:
#      x y z
#    x 1.913040 0.000000 -0.009930 
#    y 0.000000 1.903130 0.000000 
#    z -0.009930 0.000000 1.929100 
# 
# From -- ./inp_files/13099.got.cif
#   From: 2010.06.25/outbox.cif.g09.slc.cpg/sg9_7_cif.got.tgz:13099.got - 2010.06.27 21:40:51.
