data_PCOD8056486
_publ_section_title
;
Structure prediction by ZEFSAII (Michael W. Deem and Ramdas Pophale) SiO2 
 PCOD8056486
Probable space group: C C
;
_chemical_formula_sum "Si O2"
_cell_formula_units_Z 32
_cell_length_a 11.115406
_cell_length_b 17.557214
_cell_length_c 8.782488
_cell_angle_alpha 90.000000
_cell_angle_beta 55.446700
_cell_angle_gamma 90.000000
_cell_volume 1411.608517
_symmetry_space_group_name_H-M "C C"
_symmetry_group_IT_number 9
_symmetry_cell_setting 'monoclinic'
loop_
_space_group_symop_operation_xyz
x,y,z
x,-y,1/2+z
1/2+x,1/2+y,z
1/2+x,1/2-y,1/2+z
loop_
_atom_site_type_symbol
_atom_site_label
_atom_site_fract_x
_atom_site_fract_y
_atom_site_fract_z
Si Si1 0.395930 0.712575 0.685820
Si Si2 0.629621 0.916077 0.737535
Si Si3 0.451459 0.439874 0.581773
Si Si4 0.956450 0.498729 0.098343
Si Si5 0.683799 0.755337 0.605041
Si Si6 0.741483 0.637107 0.804432
Si Si7 0.988236 0.093113 0.401754
Si Si8 0.305032 0.858574 0.589523
O O1 0.559661 0.699972 0.628725
O O2 0.372521 0.650089 0.568675
O O3 0.391849 0.797422 0.624121
O O4 0.279206 0.704699 0.904736
O O5 0.802208 0.930114 0.594400
O O6 0.605489 0.824959 0.750381
O O7 0.526762 0.960061 0.692718
O O8 0.583936 0.947999 0.934122
O O9 0.567186 0.377320 0.439746
O O10 0.512517 0.522930 0.498565
O O11 0.426511 0.431942 0.781421
O O12 0.820140 0.443630 0.226773
O O13 0.894509 0.562789 0.028978
O O14 0.777482 0.700435 0.649817
O O15 0.797819 0.671793 0.922495
O O16 0.143719 0.133626 0.273454
#
# Coordination Sequence:
#
# PCOD8056486 Si02
#       8
#     4   4   4   4   4   4   4   4
#     4  12  26  47  72 104 149 189 241 302 378 438
#     4  12  27  46  68 114 150 184 238 311 375 420
#     4  11  26  46  73 107 144 191 249 297 371 439
#     4  12  24  47  76 106 147 193 245 302 366 438
#     4  12  27  46  74 107 146 194 241 301 373 439
#     4  11  26  47  79 103 141 200 252 294 355 462
#     4  11  26  45  74 102 144 194 244 305 360 447
#     4  11  24  48  72 109 139 193 250 300 366 441
#
# _framework density 22.669173000000001
#
# number of rings (size 3 to 8) (size 9 to 14) (size 15 to 20)
#    0.000    0.500    5.000    2.250    7.000    0.000 
#    4.500    0.000    0.000    0.000    0.000    0.000 
#    0.000    0.000    0.000    0.000    0.000    0.000 
#
# Total GULP energy -198412.341533 kJ/mol
# GULP energy per Si atom -12400.771346 kJ/mol
# Density = 2.261758 g / cm^3
# Si number density = 22.669173 Si / 1000 Ang^3
#
#
#
# Elastic Constant Matrix: (Units=GPa)
#
#
# Indices 1 2 3 4 5 6 
#
# 1 98.9516 25.0125 29.2777 0.0000 5.3990 0.0000
# 2 25.0125 115.0637 45.1115 0.0000 25.0260 0.0000
# 3 29.2777 45.1115 102.5438 0.0000 9.9347 0.0000
# 4 0.0000 0.0000 0.0000 45.3343 0.0000 6.1116
# 5 5.3990 25.0260 9.9347 0.0000 30.2689 0.0000
# 6 0.0000 0.0000 0.0000 6.1116 0.0000 36.6260
#
#
#
# Elastic Compliance Matrix: (Units=1/GPa)
#
#
# Indices 1 2 3 4 5 6 
#
# 1 0.011230 -0.001438 -0.002577 0.000000 0.000031 0.000000
# 2 -0.001438 0.012582 -0.004278 0.000000 -0.008742 0.000000
# 3 -0.002577 -0.004278 0.012376 0.000000 -0.000066 0.000000
# 4 0.000000 0.000000 0.000000 0.022566 0.000000 -0.003765
# 5 0.000031 -0.008742 -0.000066 0.000000 0.040281 0.000000
# 6 0.000000 0.000000 0.000000 -0.003765 0.000000 0.027931
#
#
# Mechanical properties :
#
#
# Convention : Reuss Voigt Hill
#
# Bulk Modulus (GPa) = 51.01176 57.26249 54.13712
# Shear Modulus (GPa) = 33.31445 36.92300 35.11873
#
# Velocity S-wave (km/s) = 3.83769 4.04019 3.94024
# Velocity P-wave (km/s) = 6.49528 6.86142 6.68086
#
# Compressibility (1/GPa) = 0.01960332
#
# Stress axis : x y z
#
# Youngs Moduli (GPa) = 89.04636 79.47988 80.80261
#
# Poissons Ratio (x) = 0.11427 0.20822
# Poissons Ratio (y) = 0.12802 0.34564
# Poissons Ratio (z) = 0.22946 0.33998
#
# Static dielectric constant tensor:
#      x y z
#    x 3.946550 0.000000 0.061530 
#    y 0.000000 3.948840 0.000000 
#    z 0.061530 0.000000 4.067200 
# 
# 
# High freq. dielectric constant tensor:
#      x y z
#    x 1.895540 0.000000 0.004280 
#    y 0.000000 1.897210 0.000000 
#    z 0.004280 0.000000 1.897690 
# 
# From -- ./inp_files/8013.got.cif
#   From: 2010.06.25/outbox.cif.g09.slc.cpg/sg9_5_cif.got.tgz:8013.got - 2010.06.27 21:40:51.
