data_PCOD8056496
_publ_section_title
;
Structure prediction by ZEFSAII (Michael W. Deem and Ramdas Pophale) SiO2 
 PCOD8056496
Probable space group: C C
;
_chemical_formula_sum "Si O2"
_cell_formula_units_Z 28
_cell_length_a 8.875122
_cell_length_b 14.170111
_cell_length_c 14.561100
_cell_angle_alpha 90.000000
_cell_angle_beta 38.638403
_cell_angle_gamma 90.000000
_cell_volume 1143.423049
_symmetry_space_group_name_H-M "C C"
_symmetry_group_IT_number 9
_symmetry_cell_setting 'monoclinic'
loop_
_space_group_symop_operation_xyz
x,y,z
x,-y,1/2+z
1/2+x,1/2+y,z
1/2+x,1/2-y,1/2+z
loop_
_atom_site_type_symbol
_atom_site_label
_atom_site_fract_x
_atom_site_fract_y
_atom_site_fract_z
Si Si1 0.240160 0.698692 0.881140
Si Si2 0.779355 0.488433 0.988410
Si Si3 0.873730 0.842326 0.130911
Si Si4 0.121971 0.835622 0.457161
Si Si5 0.567122 0.868743 0.720261
Si Si6 0.037997 0.663827 0.626544
Si Si7 0.503130 0.966239 0.567632
O O1 0.184551 0.687647 0.799432
O O2 0.483250 0.760163 0.776240
O O3 0.243809 0.592920 0.922880
O O4 0.021993 0.749502 0.035414
O O5 0.542074 0.423482 0.093661
O O6 0.755324 0.573834 0.931046
O O7 0.809505 0.534254 0.075717
O O8 0.010275 0.427872 0.840570
O O9 0.723231 0.873818 0.115263
O O10 0.273717 0.809328 0.293176
O O11 0.847995 0.862590 0.562041
O O12 0.135048 0.752944 0.525227
O O13 0.420679 0.919728 0.704957
O O14 0.043328 0.577284 0.554451
#
# Coordination Sequence:
#
# PCOD8056496 Si02
#       7
#     4   4   4   4   4   4   4
#     4  11  25  46  81 108 153 200 256 312 398 457
#     4  11  27  50  76 113 151 203 265 322 390 469
#     4  11  24  49  76 111 156 199 257 324 384 467
#     4  12  29  49  76 111 164 199 263 325 384 474
#     4  11  27  52  76 116 154 205 261 332 389 465
#     4  12  28  48  77 116 154 209 260 321 391 458
#     4  12  26  48  78 111 152 203 260 312 402 458
#
# _framework density 24.487877000000001
#
# number of rings (size 3 to 8) (size 9 to 14) (size 15 to 20)
#    0.000    0.571    2.857    3.429    8.000    0.000 
#    5.143    0.000    0.000    0.000    0.000    0.000 
#    0.000    0.000    0.000    0.000    0.000    0.000 
#
# Total GULP energy -173485.800132 kJ/mol
# GULP energy per Si atom -12391.842867 kJ/mol
# Density = 2.443214 g / cm^3
# Si number density = 24.487877 Si / 1000 Ang^3
#
#
#
# Elastic Constant Matrix: (Units=GPa)
#
#
# Indices 1 2 3 4 5 6 
#
# 1 99.9348 27.4546 32.2154 0.0097 4.1390 0.0101
# 2 27.4546 137.6643 61.5972 0.0630 2.7124 -0.0038
# 3 32.2154 61.5972 122.9505 0.1128 6.0894 -0.0052
# 4 0.0097 0.0630 0.1128 41.8744 -0.0271 11.2397
# 5 4.1390 2.7124 6.0894 -0.0271 39.3075 -0.0051
# 6 0.0101 -0.0038 -0.0052 11.2397 -0.0051 25.2198
#
#
#
# Elastic Compliance Matrix: (Units=1/GPa)
#
#
# Indices 1 2 3 4 5 6 
#
# 1 0.011096 -0.001178 -0.002281 0.000007 -0.000734 -0.000008
# 2 -0.001178 0.009488 -0.004453 -0.000002 0.000159 0.000002
# 3 -0.002281 -0.004453 0.011019 -0.000027 -0.001160 0.000014
# 4 0.000007 -0.000002 -0.000027 0.027126 0.000021 -0.012089
# 5 -0.000734 0.000159 -0.001160 0.000021 0.025686 -0.000004
# 6 -0.000008 0.000002 0.000014 -0.012089 -0.000004 0.045039
#
#
# Mechanical properties :
#
#
# Convention : Reuss Voigt Hill
#
# Bulk Modulus (GPa) = 63.37042 67.00936 65.18989
# Shear Modulus (GPa) = 33.21425 37.23250 35.22338
#
# Velocity S-wave (km/s) = 3.68687 3.90352 3.79674
# Velocity P-wave (km/s) = 6.63765 6.90944 6.77491
#
# Compressibility (1/GPa) = 0.01578023
#
# Stress axis : x y z
#
# Youngs Moduli (GPa) = 90.12447 105.39432 90.75027
#
# Poissons Ratio (x) = 0.12414 0.20699
# Poissons Ratio (y) = 0.10615 0.40409
# Poissons Ratio (z) = 0.20556 0.46930
#
# Static dielectric constant tensor:
#      x y z
#    x 4.391290 -0.000010 0.177080 
#    y -0.000010 4.614460 0.000020 
#    z 0.177080 0.000020 4.430630 
# 
# 
# High freq. dielectric constant tensor:
#      x y z
#    x 1.965250 0.000000 0.024220 
#    y 0.000000 1.992040 0.000000 
#    z 0.024220 0.000000 1.974010 
# 
# From -- ./inp_files/23328.got.cif
#   From: 2010.06.25/outbox.cif.g09.slc.cpg/sg9_12_cif.got.tgz:23328.got - 2010.06.27 21:40:51.
