data_PCOD8056015
_publ_section_title
;
Structure prediction by ZEFSAII (Michael W. Deem and Ramdas Pophale) SiO2 
 PCOD8056015
Probable space group: C C
;
_chemical_formula_sum "Si O2"
_cell_formula_units_Z 32
_cell_length_a 16.958332
_cell_length_b 7.653694
_cell_length_c 21.893684
_cell_angle_alpha 90.000000
_cell_angle_beta 153.347783
_cell_angle_gamma 90.000000
_cell_volume 1274.697032
_symmetry_space_group_name_H-M "C C"
_symmetry_group_IT_number 9
_symmetry_cell_setting 'monoclinic'
loop_
_space_group_symop_operation_xyz
x,y,z
x,-y,1/2+z
1/2+x,1/2+y,z
1/2+x,1/2-y,1/2+z
loop_
_atom_site_type_symbol
_atom_site_label
_atom_site_fract_x
_atom_site_fract_y
_atom_site_fract_z
Si Si1 0.809640 0.573391 0.968910
Si Si2 0.034913 0.777441 0.773189
Si Si3 0.186797 0.534205 0.709079
Si Si4 0.359920 0.586860 0.048344
Si Si5 0.766258 0.698962 0.688461
Si Si6 0.783036 0.763873 0.072108
Si Si7 0.395593 0.402549 0.957270
Si Si8 0.888753 0.679098 0.280070
O O1 0.632100 0.463636 0.843907
O O2 0.846330 0.633004 0.063314
O O3 0.784963 0.736072 0.905347
O O4 0.975914 0.459558 0.062102
O O5 0.967988 0.753593 0.655630
O O6 0.860600 0.773491 0.693858
O O7 0.168353 0.629993 0.888394
O O8 0.264733 0.350764 0.737747
O O9 0.268698 0.536127 0.833651
O O10 0.238766 0.702656 0.706400
O O11 0.333203 0.459427 0.087655
O O12 0.470278 0.502790 0.069453
O O13 0.563555 0.650847 0.532467
O O14 0.862519 0.524033 0.779611
O O15 0.572639 0.753327 0.934034
O O16 0.879555 0.702861 0.200449
#
# Coordination Sequence:
#
# PCOD8056015 Si02
#       8
#     4   4   4   4   4   4   4   4
#     4  10  26  44  78 104 152 206 258 320 389 462
#     4  12  27  47  77 113 150 202 266 324 382 472
#     4  11  26  48  75 111 156 203 254 323 398 462
#     4  11  27  46  73 111 151 200 261 319 391 460
#     4  11  26  46  73 112 151 206 260 318 388 468
#     4  11  24  47  73 109 148 199 256 314 383 462
#     4  10  26  48  72 109 158 203 254 327 392 467
#     4  12  26  46  77 109 154 201 253 319 387 465
#
# _framework density 25.104005000000001
#
# number of rings (size 3 to 8) (size 9 to 14) (size 15 to 20)
#    0.000    1.000    1.250    3.000   15.750    2.000 
#    0.000    0.000    0.000    0.000    0.000    0.000 
#    0.000    0.000    0.000    0.000    0.000    0.000 
#
# Total GULP energy -198419.239055 kJ/mol
# GULP energy per Si atom -12401.202441 kJ/mol
# Density = 2.504687 g / cm^3
# Si number density = 25.104005 Si / 1000 Ang^3
#
#
#
# Elastic Constant Matrix: (Units=GPa)
#
#
# Indices 1 2 3 4 5 6 
#
# 1 114.3243 48.5841 40.8142 0.0016 8.4602 0.0003
# 2 48.5841 96.3357 17.6985 0.0001 4.1678 0.0000
# 3 40.8142 17.6985 102.7151 -0.0018 -0.9585 0.0001
# 4 0.0016 0.0001 -0.0018 32.5705 -0.0013 5.8235
# 5 8.4602 4.1678 -0.9585 -0.0013 39.0155 0.0001
# 6 0.0003 0.0000 0.0001 5.8235 0.0001 36.7160
#
#
#
# Elastic Compliance Matrix: (Units=1/GPa)
#
#
# Indices 1 2 3 4 5 6 
#
# 1 0.012760 -0.005578 -0.004130 -0.000001 -0.002273 0.000000
# 2 -0.005578 0.013214 -0.000062 0.000000 -0.000204 0.000000
# 3 -0.004130 -0.000062 0.011399 0.000001 0.001182 0.000000
# 4 -0.000001 0.000000 0.000001 0.031599 0.000001 -0.005012
# 5 -0.002273 -0.000204 0.001182 0.000001 0.026174 0.000000
# 6 0.000000 0.000000 0.000000 -0.005012 0.000000 0.028031
#
#
# Mechanical properties :
#
#
# Convention : Reuss Voigt Hill
#
# Bulk Modulus (GPa) = 56.08154 58.61875 57.35014
# Shear Modulus (GPa) = 33.63331 35.41230 34.52280
#
# Velocity S-wave (km/s) = 3.66424 3.75990 3.71238
# Velocity P-wave (km/s) = 6.34747 6.50001 6.42420
#
# Compressibility (1/GPa) = 0.01783118
#
# Stress axis : x y z
#
# Youngs Moduli (GPa) = 78.36793 75.67858 87.72965
#
# Poissons Ratio (x) = 0.42215 0.36236
# Poissons Ratio (y) = 0.43715 0.00546
# Poissons Ratio (z) = 0.32369 0.00471
#
# Static dielectric constant tensor:
#      x y z
#    x 4.622810 0.000000 0.053740 
#    y 0.000000 4.529330 0.000000 
#    z 0.053740 0.000000 4.323720 
# 
# 
# High freq. dielectric constant tensor:
#      x y z
#    x 2.008570 0.000000 0.007160 
#    y 0.000000 2.008710 0.000000 
#    z 0.007160 0.000000 1.997910 
# 
# From -- ./inp_files/34067.got.cif
#   From: 2010.06.25/outbox.cif.g09.slc.cpg/sg9_18_cif.got.tgz:34067.got - 2010.06.27 21:40:51.
