data_PCOD8056854
_publ_section_title
;
Structure prediction by ZEFSAII (Michael W. Deem and Ramdas Pophale) SiO2 
 PCOD8056854
Probable space group: P 2/M
;
_chemical_formula_sum "Si O2"
_cell_formula_units_Z 24
_cell_length_a 12.287374
_cell_length_b 9.350175
_cell_length_c 14.221898
_cell_angle_alpha 90.000000
_cell_angle_beta 69.279232
_cell_angle_gamma 90.000000
_cell_volume 1528.250928
_symmetry_space_group_name_H-M "P 2/M"
_symmetry_group_IT_number 10
_symmetry_cell_setting 'monoclinic'
loop_
_space_group_symop_operation_xyz
x,y,z
-x,y,-z
-x,-y,-z
x,-y,z
loop_
_atom_site_type_symbol
_atom_site_label
_atom_site_fract_x
_atom_site_fract_y
_atom_site_fract_z
Si Si1 0.672579 0.330632 0.011956
Si Si2 0.096210 0.166846 0.044638
Si Si3 0.768972 0.332135 0.657371
Si Si4 0.051797 0.166439 0.270806
Si Si5 0.429357 0.666898 0.150942
Si Si6 0.883551 0.158041 0.474231
O O1 0.695469 0.500000 0.008558
O O2 0.786592 0.251807 0.014321
O O3 0.642700 0.272202 0.916278
O O4 0.563671 0.281981 0.111819
O O5 0.046469 0.204031 0.162919
O O6 0.123768 0.000000 0.025837
O O7 0.000000 0.217751 0.000000
O O8 0.793333 0.500000 0.645144
O O9 0.852684 0.264906 0.709534
O O10 0.636827 0.297212 0.731290
O O11 0.789310 0.266845 0.547110
O O12 0.924096 0.198989 0.355814
O O13 0.084175 0.000000 0.278897
O O14 0.432584 0.500000 0.130237
O O15 0.000000 0.163058 0.500000
O O16 0.827648 0.000000 0.493693
#
# Coordination Sequence:
#
# PCOD8056854 Si02
#       6
#     4   4   4   4   4   4
#     4   9  16  30  46  61  84 115 146 172 208 261
#     4  10  20  32  45  63  87 114 146 184 218 244
#     4  10  16  24  41  65  87 109 137 171 210 250
#     4   9  17  29  41  55  83 118 143 168 209 256
#     4   8  15  26  43  64  88 114 137 170 215 257
#     4   8  15  26  38  55  82 114 141 165 204 258
#
# _framework density 15.704226999999999
#
# number of rings (size 3 to 8) (size 9 to 14) (size 15 to 20)
#    0.000    3.000    1.667    2.500    0.000    3.333 
#    0.000    3.333    0.000    0.000    0.000    1.167 
#    0.000    9.333    0.000    0.000    0.000    0.000 
#
# Total GULP energy -297380.330987 kJ/mol
# GULP energy per Si atom -12390.847124 kJ/mol
# Density = 1.566848 g / cm^3
# Si number density = 15.704227 Si / 1000 Ang^3
#
#
#
# Elastic Constant Matrix: (Units=GPa)
#
#
# Indices 1 2 3 4 5 6 
#
# 1 88.9275 38.8874 53.4861 0.0000 -16.2179 0.0000
# 2 38.8874 60.8948 48.0145 0.0000 -14.4668 0.0000
# 3 53.4861 48.0145 117.6815 0.0000 -27.3872 0.0000
# 4 0.0000 0.0000 0.0000 15.9587 0.0000 4.4637
# 5 -16.2179 -14.4668 -27.3872 0.0000 23.5299 0.0000
# 6 0.0000 0.0000 0.0000 4.4637 0.0000 2.6068
#
#
#
# Elastic Compliance Matrix: (Units=1/GPa)
#
#
# Indices 1 2 3 4 5 6 
#
# 1 0.017475 -0.007021 -0.004498 0.000000 0.002493 0.000000
# 2 -0.007021 0.027407 -0.007126 0.000000 0.003717 0.000000
# 3 -0.004498 -0.007126 0.016058 0.000000 0.011209 0.000000
# 4 0.000000 0.000000 0.000000 0.120261 0.000000 -0.205929
# 5 0.002493 0.003717 0.011209 0.000000 0.059549 0.000000
# 6 0.000000 0.000000 0.000000 -0.205929 0.000000 0.736235
#
#
# Mechanical properties :
#
#
# Convention : Reuss Voigt Hill
#
# Bulk Modulus (GPa) = 42.28244 60.91998 51.60121
# Shear Modulus (GPa) = 4.89161 16.89346 10.89254
#
# Velocity S-wave (km/s) = 1.76680 3.28339 2.63650
# Velocity P-wave (km/s) = 5.58075 7.29729 6.49597
#
# Compressibility (1/GPa) = 0.02365048
#
# Stress axis : x y z
#
# Youngs Moduli (GPa) = 57.22407 36.48655 62.27522
#
# Poissons Ratio (x) = 0.25617 0.28009
# Poissons Ratio (y) = 0.40177 0.44379
# Poissons Ratio (z) = 0.25737 0.26001
#
# Static dielectric constant tensor:
#      x y z
#    x 2.698410 0.000000 -0.327710 
#    y 0.000000 2.886450 0.000000 
#    z -0.327710 0.000000 3.429530 
# 
# 
# High freq. dielectric constant tensor:
#      x y z
#    x 1.552400 0.000000 -0.030910 
#    y 0.000000 1.592870 0.000000 
#    z -0.030910 0.000000 1.610540 
# 
# From -- ./inp_files/48652.got.cif
#   From: 2010.06.25/outbox.cif.g09.slc.cpg/sg10_25_cif.got.tgz:48652.got - 2010.06.27 22:07:45.
