data_PCOD8056925
_publ_section_title
;
Structure prediction by ZEFSAII (Michael W. Deem and Ramdas Pophale) SiO2 
 PCOD8056925
Probable space group: P 2/M
;
_chemical_formula_sum "Si O2"
_cell_formula_units_Z 28
_cell_length_a 9.669052
_cell_length_b 14.887062
_cell_length_c 21.050770
_cell_angle_alpha 90.000000
_cell_angle_beta 152.954694
_cell_angle_gamma 90.000000
_cell_volume 1377.783479
_symmetry_space_group_name_H-M "P 2/M"
_symmetry_group_IT_number 10
_symmetry_cell_setting 'monoclinic'
loop_
_space_group_symop_operation_xyz
x,y,z
-x,y,-z
-x,-y,-z
x,-y,z
loop_
_atom_site_type_symbol
_atom_site_label
_atom_site_fract_x
_atom_site_fract_y
_atom_site_fract_z
Si Si1 0.076977 0.403326 0.172193
Si Si2 0.743652 0.260348 0.262759
Si Si3 0.809431 0.348373 0.650111
Si Si4 0.867850 0.098917 0.580683
Si Si5 0.708766 0.766557 0.025675
Si Si6 0.330954 0.601966 0.662485
Si Si7 0.791501 0.153933 0.690705
O O1 0.962882 0.500000 0.098322
O O2 0.051688 0.410402 0.238359
O O3 0.425115 0.386682 0.293690
O O4 0.870005 0.322307 0.063535
O O5 0.587249 0.322777 0.251458
O O6 0.947545 0.329709 0.305407
O O7 0.941769 0.179180 0.374583
O O8 0.500651 0.205847 0.119365
O O9 0.500000 0.395545 0.500000
O O10 0.705835 0.256169 0.641407
O O11 0.906726 0.107526 0.673075
O O12 0.517075 0.105258 0.413613
O O13 0.987372 0.000000 0.609487
O O14 0.947114 0.844320 0.146735
O O15 0.500000 0.739715 0.000000
O O16 0.339782 0.500000 0.694004
O O17 0.000000 0.624104 0.500000
#
# Coordination Sequence:
#
# PCOD8056925 Si02
#       7
#     4   4   4   4   4   4   4
#     4  10  22  36  53  80 116 156 199 246 294 354
#     4  11  21  36  59  89 119 159 196 249 297 357
#     4  10  16  30  55  81 109 149 194 239 294 346
#     4  10  18  32  58  90 120 155 201 247 297 355
#     4  11  20  36  55  85 124 160 199 236 298 362
#     4  10  23  41  61  88 119 155 207 258 301 355
#     4   9  16  30  52  81 119 150 186 237 290 347
#
# _framework density 20.322496000000001
#
# number of rings (size 3 to 8) (size 9 to 14) (size 15 to 20)
#    0.000    1.857    7.143    1.714    2.000    2.286 
#    0.000    3.571    0.000    0.429    0.000    1.000 
#    0.000    0.000    0.000    0.000    0.000    0.000 
#
# Total GULP energy -346904.944224 kJ/mol
# GULP energy per Si atom -12389.462294 kJ/mol
# Density = 2.027624 g / cm^3
# Si number density = 20.322496 Si / 1000 Ang^3
#
#
#
# Elastic Constant Matrix: (Units=GPa)
#
#
# Indices 1 2 3 4 5 6 
#
# 1 50.0281 30.7586 11.5451 0.0000 3.9124 0.0000
# 2 30.7586 95.8005 16.8166 0.0000 7.6426 0.0000
# 3 11.5451 16.8166 95.9266 0.0000 -1.2982 0.0000
# 4 0.0000 0.0000 0.0000 18.2591 0.0000 1.8939
# 5 3.9124 7.6426 -1.2982 0.0000 23.3838 0.0000
# 6 0.0000 0.0000 0.0000 1.8939 0.0000 16.2625
#
#
#
# Elastic Compliance Matrix: (Units=1/GPa)
#
#
# Indices 1 2 3 4 5 6 
#
# 1 0.025234 -0.007655 -0.001720 0.000000 -0.001815 0.000000
# 2 -0.007655 0.013409 -0.001472 0.000000 -0.003183 0.000000
# 3 -0.001720 -0.001472 0.010908 0.000000 0.001375 0.000000
# 4 0.000000 0.000000 0.000000 0.055437 0.000000 -0.006456
# 5 -0.001815 -0.003183 0.001375 0.000000 0.044185 0.000000
# 6 0.000000 0.000000 0.000000 -0.006456 0.000000 0.062243
#
#
# Mechanical properties :
#
#
# Convention : Reuss Voigt Hill
#
# Bulk Modulus (GPa) = 35.89791 39.99954 37.94872
# Shear Modulus (GPa) = 20.62736 23.75672 22.19204
#
# Velocity S-wave (km/s) = 3.18936 3.42275 3.30812
# Velocity P-wave (km/s) = 5.59153 5.94520 5.77108
#
# Compressibility (1/GPa) = 0.02785678
#
# Stress axis : x y z
#
# Youngs Moduli (GPa) = 39.62867 74.57876 91.67320
#
# Poissons Ratio (x) = 0.57092 0.15764
# Poissons Ratio (y) = 0.30337 0.13498
# Poissons Ratio (z) = 0.06814 0.10981
#
# Static dielectric constant tensor:
#      x y z
#    x 3.349950 0.000000 -0.010770 
#    y 0.000000 3.619600 0.000000 
#    z -0.010770 0.000000 3.939340 
# 
# 
# High freq. dielectric constant tensor:
#      x y z
#    x 1.750870 0.000000 0.009820 
#    y 0.000000 1.774520 0.000000 
#    z 0.009820 0.000000 1.795140 
# 
# From -- ./inp_files/82942.got.cif
#   From: 2010.06.25/outbox.cif.g09.slc.cpg/sg10_42_cif.got.tgz:82942.got - 2010.06.27 22:07:45.
