data_PCOD8056131
_publ_section_title
;
Structure prediction by ZEFSAII (Michael W. Deem and Ramdas Pophale) SiO2 
 PCOD8056131
Probable space group: C C
;
_chemical_formula_sum "Si O2"
_cell_formula_units_Z 20
_cell_length_a 8.895576
_cell_length_b 18.841055
_cell_length_c 5.028676
_cell_angle_alpha 90.000000
_cell_angle_beta 69.309022
_cell_angle_gamma 90.000000
_cell_volume 788.454415
_symmetry_space_group_name_H-M "C C"
_symmetry_group_IT_number 9
_symmetry_cell_setting 'monoclinic'
loop_
_space_group_symop_operation_xyz
x,y,z
x,-y,1/2+z
1/2+x,1/2+y,z
1/2+x,1/2-y,1/2+z
loop_
_atom_site_type_symbol
_atom_site_label
_atom_site_fract_x
_atom_site_fract_y
_atom_site_fract_z
Si Si1 0.807780 0.453719 0.343730
Si Si2 0.654940 0.895603 0.143710
Si Si3 0.600473 0.339155 0.207993
Si Si4 0.741505 0.811214 0.589159
Si Si5 0.489222 0.543887 0.401627
O O1 0.765304 0.479632 0.672850
O O2 0.715504 0.380921 0.338525
O O3 0.995241 0.439825 0.190905
O O4 0.650209 0.861161 0.437231
O O5 0.797387 0.952559 0.029866
O O6 0.679008 0.832239 0.918653
O O7 0.695167 0.269510 0.057371
O O8 0.433506 0.320801 0.458472
O O9 0.564211 0.382829 0.959944
O O10 0.537506 0.524016 0.063267
#
# Coordination Sequence:
#
# PCOD8056131 Si02
#       5
#     4   4   4   4   4
#     4  12  26  44  70 103 139 177 221 279 337 402
#     4  11  24  45  71 101 135 176 224 275 338 402
#     4  11  26  46  69  99 137 178 230 278 336 396
#     4  11  26  45  71  98 134 181 226 280 331 399
#     4  11  22  40  67  97 131 170 213 268 330 397
#
# _framework density 25.366083
#
# number of rings (size 3 to 8) (size 9 to 14) (size 15 to 20)
#    0.000    0.800    0.000    7.200    0.000   12.800 
#    0.000    0.000    0.000    0.000    0.000    0.000 
#    0.000    0.000    0.000    0.000    0.000    0.000 
#
# Total GULP energy -124100.885626 kJ/mol
# GULP energy per Si atom -12410.088563 kJ/mol
# Density = 2.530835 g / cm^3
# Si number density = 25.366083 Si / 1000 Ang^3
#
#
#
# Elastic Constant Matrix: (Units=GPa)
#
#
# Indices 1 2 3 4 5 6 
#
# 1 164.6271 45.8453 47.2073 0.0000 -4.3300 0.0000
# 2 45.8453 104.2099 38.4905 0.0000 -3.2706 0.0000
# 3 47.2073 38.4905 136.5563 0.0000 -7.1508 0.0000
# 4 0.0000 0.0000 0.0000 44.9591 0.0000 -15.8225
# 5 -4.3300 -3.2706 -7.1508 0.0000 37.1426 0.0000
# 6 0.0000 0.0000 0.0000 -15.8225 0.0000 40.4397
#
#
#
# Elastic Compliance Matrix: (Units=1/GPa)
#
#
# Indices 1 2 3 4 5 6 
#
# 1 0.007304 -0.002542 -0.001794 0.000000 0.000282 0.000000
# 2 -0.002542 0.011601 -0.002377 0.000000 0.000268 0.000000
# 3 -0.001794 -0.002377 0.008679 0.000000 0.001252 0.000000
# 4 0.000000 0.000000 0.000000 0.025794 0.000000 0.010092
# 5 0.000282 0.000268 0.001252 0.000000 0.027221 0.000000
# 6 0.000000 0.000000 0.000000 0.010092 0.000000 0.028677
#
#
# Mechanical properties :
#
#
# Convention : Reuss Voigt Hill
#
# Bulk Modulus (GPa) = 70.63178 74.27549 72.45364
# Shear Modulus (GPa) = 39.24033 42.76496 41.00264
#
# Velocity S-wave (km/s) = 3.93741 4.11044 4.02485
# Velocity P-wave (km/s) = 6.96967 7.20226 7.08692
#
# Compressibility (1/GPa) = 0.01415793
#
# Stress axis : x y z
#
# Youngs Moduli (GPa) = 136.91180 86.20198 115.22494
#
# Poissons Ratio (x) = 0.21911 0.20668
# Poissons Ratio (y) = 0.34801 0.27390
# Poissons Ratio (z) = 0.24558 0.20491
#
# Static dielectric constant tensor:
#      x y z
#    x 5.185310 0.000000 -0.024350 
#    y 0.000000 4.464990 0.000000 
#    z -0.024350 0.000000 4.594050 
# 
# 
# High freq. dielectric constant tensor:
#      x y z
#    x 2.058350 0.000000 -0.008760 
#    y 0.000000 2.008910 0.000000 
#    z -0.008760 0.000000 2.027020 
# 
# From -- ./inp_files/477.got.cif
#   From: 2010.06.25/outbox.cif.g09.slc.cpg/sg9_1_cif.got.tgz:477.got - 2010.06.27 21:40:51.
