data_PCOD8056903
_publ_section_title
;
Structure prediction by ZEFSAII (Michael W. Deem and Ramdas Pophale) SiO2 
 PCOD8056903
Probable space group: P 2/M
;
_chemical_formula_sum "Si O2"
_cell_formula_units_Z 28
_cell_length_a 26.023649
_cell_length_b 11.665191
_cell_length_c 18.506600
_cell_angle_alpha 90.000000
_cell_angle_beta 17.395998
_cell_angle_gamma 90.000000
_cell_volume 1679.655862
_symmetry_space_group_name_H-M "P 2/M"
_symmetry_group_IT_number 10
_symmetry_cell_setting 'monoclinic'
loop_
_space_group_symop_operation_xyz
x,y,z
-x,y,-z
-x,-y,-z
x,-y,z
loop_
_atom_site_type_symbol
_atom_site_label
_atom_site_fract_x
_atom_site_fract_y
_atom_site_fract_z
Si Si1 0.039449 0.131048 0.030402
Si Si2 0.726957 0.207105 0.525701
Si Si3 0.326447 0.000000 0.314033
Si Si4 0.806717 0.228168 0.749321
Si Si5 0.484974 0.635290 0.936439
Si Si6 0.576084 0.863600 0.472292
Si Si7 0.715794 0.000000 0.798043
Si Si8 0.567585 0.133861 0.184626
O O1 0.913936 0.222843 0.238625
O O2 0.018313 0.000000 0.089097
O O3 0.000000 0.129308 0.000000
O O4 0.229575 0.180960 0.785599
O O5 0.645551 0.318736 0.673215
O O6 0.605974 0.154638 0.626550
O O7 0.762796 0.114866 0.539816
O O8 0.303728 0.000000 0.260276
O O9 0.519650 0.000000 0.088868
O O10 0.815861 0.110783 0.691838
O O11 0.000000 0.276059 0.500000
O O12 0.694238 0.319045 0.855251
O O13 0.723152 0.205695 0.940258
O O14 0.487586 0.500000 0.926569
O O15 0.500000 0.675361 0.000000
O O16 0.500000 0.814614 0.500000
O O17 0.463812 0.820702 0.691489
O O18 0.576736 0.000000 0.473409
O O19 0.616757 0.000000 0.117730
#
# Coordination Sequence:
#
# PCOD8056903 Si02
#       8
#     4   4   2   4   4   4   2   4
#     4  10  17  27  48  74 101 133 170 203 242 308
#     4  11  17  30  51  79 101 130 175 212 257 309
#     4  11  18  28  49  76 108 139 167 210 254 319
#     4  11  21  34  52  79 107 139 174 209 260 321
#     4  10  22  40  58  74 101 138 177 226 272 307
#     4   9  18  30  41  63 103 143 171 198 239 295
#     4  11  19  30  48  74 113 142 163 204 263 318
#     4  10  16  29  47  66 103 144 169 195 248 303
#
# _framework density 16.670082000000001
#
# number of rings (size 3 to 8) (size 9 to 14) (size 15 to 20)
#    0.000    1.714    6.429    1.071    0.000    0.286 
#    5.143    0.000    0.000    0.429    0.000    0.000 
#    0.000    9.714    0.000    0.000    0.000    0.000 
#
# Total GULP energy -347054.523819 kJ/mol
# GULP energy per Si atom -12394.804422 kJ/mol
# Density = 1.663214 g / cm^3
# Si number density = 16.670082 Si / 1000 Ang^3
#
#
#
# Elastic Constant Matrix: (Units=GPa)
#
#
# Indices 1 2 3 4 5 6 
#
# 1 103.8852 28.9478 58.1623 0.0000 4.2591 0.0000
# 2 28.9478 53.3013 25.7479 0.0000 5.5939 0.0000
# 3 58.1623 25.7479 131.0063 0.0000 3.3591 0.0000
# 4 0.0000 0.0000 0.0000 11.7543 0.0000 4.8309
# 5 4.2591 5.5939 3.3591 0.0000 22.4192 0.0000
# 6 0.0000 0.0000 0.0000 4.8309 0.0000 17.2359
#
#
#
# Elastic Compliance Matrix: (Units=1/GPa)
#
#
# Indices 1 2 3 4 5 6 
#
# 1 0.013955 -0.005003 -0.005196 0.000000 -0.000624 0.000000
# 2 -0.005003 0.023002 -0.002185 0.000000 -0.004462 0.000000
# 3 -0.005196 -0.002185 0.010370 0.000000 -0.000021 0.000000
# 4 0.000000 0.000000 0.000000 0.096151 0.000000 -0.026949
# 5 -0.000624 -0.004462 -0.000021 0.000000 0.045840 0.000000
# 6 0.000000 0.000000 0.000000 -0.026949 0.000000 0.065572
#
#
# Mechanical properties :
#
#
# Convention : Reuss Voigt Hill
#
# Bulk Modulus (GPa) = 44.32982 57.10095 50.71538
# Shear Modulus (GPa) = 17.41076 21.97086 19.69081
#
# Velocity S-wave (km/s) = 3.23527 3.63434 3.44060
# Velocity P-wave (km/s) = 6.37230 7.20688 6.80240
#
# Compressibility (1/GPa) = 0.02255818
#
# Stress axis : x y z
#
# Youngs Moduli (GPa) = 71.65901 43.47375 96.43049
#
# Poissons Ratio (x) = 0.21751 0.50107
# Poissons Ratio (y) = 0.35853 0.21072
# Poissons Ratio (z) = 0.37235 0.09500
#
# Static dielectric constant tensor:
#      x y z
#    x 3.265950 0.000000 0.192460 
#    y 0.000000 2.684320 0.000000 
#    z 0.192460 0.000000 3.020450 
# 
# 
# High freq. dielectric constant tensor:
#      x y z
#    x 1.652560 0.000000 0.012320 
#    y 0.000000 1.583890 0.000000 
#    z 0.012320 0.000000 1.642540 
# 
# From -- ./inp_files/80227.got.cif
#   From: 2010.06.25/outbox.cif.g09.slc.cpg/sg10_41_cif.got.tgz:80227.got - 2010.06.27 22:07:45.
