data_PCOD8056895
_publ_section_title
;
Structure prediction by ZEFSAII (Michael W. Deem and Ramdas Pophale) SiO2 
 PCOD8056895
Probable space group: P 2/M
;
_chemical_formula_sum "Si O2"
_cell_formula_units_Z 26
_cell_length_a 9.661877
_cell_length_b 11.870464
_cell_length_c 16.181452
_cell_angle_alpha 90.000000
_cell_angle_beta 128.098776
_cell_angle_gamma 90.000000
_cell_volume 1460.470662
_symmetry_space_group_name_H-M "P 2/M"
_symmetry_group_IT_number 10
_symmetry_cell_setting 'monoclinic'
loop_
_space_group_symop_operation_xyz
x,y,z
-x,y,-z
-x,-y,-z
x,-y,z
loop_
_atom_site_type_symbol
_atom_site_label
_atom_site_fract_x
_atom_site_fract_y
_atom_site_fract_z
Si Si1 0.813950 0.376098 0.476107
Si Si2 0.721019 0.000000 0.247575
Si Si3 0.274181 0.236217 0.098628
Si Si4 0.329813 0.245602 0.719984
Si Si5 0.026939 0.632855 0.705217
Si Si6 0.071820 0.000000 0.834647
Si Si7 0.661643 0.000000 0.931076
Si Si8 0.994348 0.244550 0.861503
O O1 0.724866 0.500000 0.442777
O O2 0.688697 0.289979 0.380969
O O3 0.000000 0.382862 0.500000
O O4 0.856490 0.336510 0.585504
O O5 0.716633 0.112631 0.301824
O O6 0.890334 0.000000 0.249804
O O7 0.545641 0.000000 0.127738
O O8 0.475456 0.277626 0.175797
O O9 0.167019 0.278466 0.138657
O O10 0.272117 0.101695 0.100960
O O11 0.177352 0.270528 0.977271
O O12 0.200936 0.305277 0.736940
O O13 0.063188 0.500000 0.715560
O O14 0.984171 0.671703 0.781217
O O15 0.971176 0.885359 0.823151
O O16 0.258993 0.000000 0.948612
#
# Coordination Sequence:
#
# PCOD8056895 Si02
#       8
#     4   2   4   4   4   2   2   4
#     4   8  16  33  55  73  93 128 169 208 249 295
#     4  10  17  26  46  83 106 123 157 211 251 291
#     4   9  19  32  51  75 104 139 165 202 243 302
#     4  10  18  33  52  77 105 129 165 206 252 295
#     4  10  20  36  55  73  98 131 170 213 250 293
#     4  10  16  28  50  75 101 134 167 203 239 297
#     4   8  16  28  47  71 105 137 166 196 240 292
#     4  10  19  34  51  75 105 135 171 199 248 295
#
# _framework density 17.802479999999999
#
# number of rings (size 3 to 8) (size 9 to 14) (size 15 to 20)
#    0.000    2.615    1.538    2.077    0.000    2.462 
#    0.000   10.385    0.000    1.846    0.000    4.308 
#    0.000    0.000    0.000    0.000    0.000    0.000 
#
# Total GULP energy -322198.515151 kJ/mol
# GULP energy per Si atom -12392.250583 kJ/mol
# Density = 1.776196 g / cm^3
# Si number density = 17.802480 Si / 1000 Ang^3
#
#
#
# Elastic Constant Matrix: (Units=GPa)
#
#
# Indices 1 2 3 4 5 6 
#
# 1 56.1942 22.4082 35.9204 0.0000 -12.1443 0.0000
# 2 22.4082 82.7762 47.0916 0.0000 -6.1651 0.0000
# 3 35.9204 47.0916 108.7100 0.0000 -17.7969 0.0000
# 4 0.0000 0.0000 0.0000 31.7956 0.0000 -3.1942
# 5 -12.1443 -6.1651 -17.7969 0.0000 21.4915 0.0000
# 6 0.0000 0.0000 0.0000 -3.1942 0.0000 3.2287
#
#
#
# Elastic Compliance Matrix: (Units=1/GPa)
#
#
# Indices 1 2 3 4 5 6 
#
# 1 0.024189 -0.002863 -0.005378 0.000000 0.008394 0.000000
# 2 -0.002863 0.016404 -0.006541 0.000000 -0.002329 0.000000
# 3 -0.005378 -0.006541 0.015044 0.000000 0.007542 0.000000
# 4 0.000000 0.000000 0.000000 0.034922 0.000000 0.034548
# 5 0.008394 -0.002329 0.007542 0.000000 0.056851 0.000000
# 6 0.000000 0.000000 0.000000 0.034548 0.000000 0.343901
#
#
# Mechanical properties :
#
#
# Convention : Reuss Voigt Hill
#
# Bulk Modulus (GPa) = 38.35568 50.94676 44.65122
# Shear Modulus (GPa) = 9.44170 20.78716 15.11443
#
# Velocity S-wave (km/s) = 2.30545 3.42080 2.91693
# Velocity P-wave (km/s) = 5.35525 6.65451 6.03992
#
# Compressibility (1/GPa) = 0.02607176
#
# Stress axis : x y z
#
# Youngs Moduli (GPa) = 41.34110 60.96218 66.47145
#
# Poissons Ratio (x) = 0.17456 0.35749
# Poissons Ratio (y) = 0.11838 0.43479
# Poissons Ratio (z) = 0.22234 0.39875
#
# Static dielectric constant tensor:
#      x y z
#    x 3.008440 0.000000 -0.023240 
#    y 0.000000 3.309520 0.000000 
#    z -0.023240 0.000000 3.549200 
# 
# 
# High freq. dielectric constant tensor:
#      x y z
#    x 1.664680 0.000000 -0.006940 
#    y 0.000000 1.682180 0.000000 
#    z -0.006940 0.000000 1.683540 
# 
# From -- ./inp_files/61090.got.cif
#   From: 2010.06.25/outbox.cif.g09.slc.cpg/sg10_31_cif.got.tgz:61090.got - 2010.06.27 22:07:45.
