data_PCOD8056879
_publ_section_title
;
Structure prediction by ZEFSAII (Michael W. Deem and Ramdas Pophale) SiO2 
 PCOD8056879
Probable space group: P 2/M
;
_chemical_formula_sum "Si O2"
_cell_formula_units_Z 18
_cell_length_a 6.625298
_cell_length_b 19.667447
_cell_length_c 5.287879
_cell_angle_alpha 90.000000
_cell_angle_beta 105.546844
_cell_angle_gamma 90.000000
_cell_volume 663.814607
_symmetry_space_group_name_H-M "P 2/M"
_symmetry_group_IT_number 10
_symmetry_cell_setting 'monoclinic'
loop_
_space_group_symop_operation_xyz
x,y,z
-x,y,-z
-x,-y,-z
x,-y,z
loop_
_atom_site_type_symbol
_atom_site_label
_atom_site_fract_x
_atom_site_fract_y
_atom_site_fract_z
Si Si1 0.755155 0.351537 0.933987
Si Si2 0.750045 0.577530 0.430830
Si Si3 0.730159 0.195443 0.013786
Si Si4 0.641036 0.000000 0.303884
Si Si5 0.258845 0.859375 0.486582
O O1 0.656638 0.391047 0.660323
O O2 0.657371 0.379542 0.163563
O O3 0.712989 0.271571 0.905208
O O4 0.000000 0.366900 0.000000
O O5 0.675590 0.500000 0.385148
O O6 0.000000 0.582806 0.500000
O O7 0.841124 0.190116 0.328629
O O8 0.500000 0.164076 0.000000
O O9 0.847549 0.152870 0.826359
O O10 0.500000 0.000000 0.500000
O O11 0.780968 0.067563 0.389830
O O12 0.500000 0.000000 0.000000
O O13 0.500000 0.842792 0.500000
#
# Coordination Sequence:
#
# PCOD8056879 Si02
#       5
#     4   4   4   2   4
#     4  10  19  31  49  71  92 119 155 190 227 273
#     4   9  17  30  49  71  92 115 150 196 236 268
#     4  10  19  31  46  67  96 125 151 183 230 278
#     4  10  16  26  44  68  95 120 153 196 233 264
#     4   9  17  28  44  67  93 122 152 188 230 271
#
# _framework density 27.116005000000001
#
# number of rings (size 3 to 8) (size 9 to 14) (size 15 to 20)
#    0.000    2.444    0.000    5.333    0.000    2.667 
#    0.000    0.000    0.000    4.000    0.000    4.667 
#    0.000    0.000    0.000    0.000    0.000    0.000 
#
# Total GULP energy -223012.810790 kJ/mol
# GULP energy per Si atom -12389.600599 kJ/mol
# Density = 2.705429 g / cm^3
# Si number density = 27.116005 Si / 1000 Ang^3
#
#
#
# Elastic Constant Matrix: (Units=GPa)
#
#
# Indices 1 2 3 4 5 6 
#
# 1 47.6572 -20.6271 46.9628 0.0000 -23.9199 0.0000
# 2 -20.6271 188.2833 108.8162 0.0000 -1.7289 0.0000
# 3 46.9628 108.8162 292.1205 0.0000 -28.8471 0.0000
# 4 0.0000 0.0000 0.0000 62.0190 0.0000 -1.7326
# 5 -23.9199 -1.7289 -28.8471 0.0000 53.1230 0.0000
# 6 0.0000 0.0000 0.0000 -1.7326 0.0000 28.3286
#
#
#
# Elastic Compliance Matrix: (Units=1/GPa)
#
#
# Indices 1 2 3 4 5 6 
#
# 1 0.040834 0.009686 -0.008798 0.000000 0.013924 0.000000
# 2 0.009686 0.009141 -0.004757 0.000000 0.002076 0.000000
# 3 -0.008798 -0.004757 0.006555 0.000000 -0.000557 0.000000
# 4 0.000000 0.000000 0.000000 0.016152 0.000000 0.000988
# 5 0.013924 0.002076 -0.000557 0.000000 0.024859 0.000000
# 6 0.000000 0.000000 0.000000 0.000988 0.000000 0.035360
#
#
# Mechanical properties :
#
#
# Convention : Reuss Voigt Hill
#
# Bulk Modulus (GPa) = 20.49557 88.70721 54.60139
# Shear Modulus (GPa) = 31.86709 54.88804 43.37757
#
# Velocity S-wave (km/s) = 3.43186 4.50398 4.00397
# Velocity P-wave (km/s) = 4.82477 7.73517 6.44636
#
# Compressibility (1/GPa) = 0.04879104
#
# Stress axis : x y z
#
# Youngs Moduli (GPa) = 24.48965 109.40157 152.56333
#
# Poissons Ratio (x) = -1.05964 1.34219
# Poissons Ratio (y) = -0.23720 0.72576
# Poissons Ratio (z) = 0.21545 0.52044
#
# Static dielectric constant tensor:
#      x y z
#    x 4.690080 0.000000 -0.118550 
#    y 0.000000 6.251800 0.000000 
#    z -0.118550 0.000000 5.905780 
# 
# 
# High freq. dielectric constant tensor:
#      x y z
#    x 2.115960 0.000000 -0.011670 
#    y 0.000000 2.066830 0.000000 
#    z -0.011670 0.000000 2.129790 
# 
# From -- ./inp_files/4112.got.cif
#   From: 2010.06.25/outbox.cif.g09.slc.cpg/sg10_3_cif.got.tgz:4112.got - 2010.06.27 22:07:45.
