data_PCOD8056677
_publ_section_title
;
Structure prediction by ZEFSAII (Michael W. Deem and Ramdas Pophale) SiO2 
 PCOD8056677
Probable space group: C C
;
_chemical_formula_sum "Si O2"
_cell_formula_units_Z 32
_cell_length_a 10.875337
_cell_length_b 15.265506
_cell_length_c 8.662257
_cell_angle_alpha 90.000000
_cell_angle_beta 101.325261
_cell_angle_gamma 90.000000
_cell_volume 1410.084274
_symmetry_space_group_name_H-M "C C"
_symmetry_group_IT_number 9
_symmetry_cell_setting 'monoclinic'
loop_
_space_group_symop_operation_xyz
x,y,z
x,-y,1/2+z
1/2+x,1/2+y,z
1/2+x,1/2-y,1/2+z
loop_
_atom_site_type_symbol
_atom_site_label
_atom_site_fract_x
_atom_site_fract_y
_atom_site_fract_z
Si Si1 0.668400 0.564360 0.754260
Si Si2 0.301208 0.478848 0.539701
Si Si3 0.964880 0.936127 0.849056
Si Si4 0.407694 0.184780 0.260970
Si Si5 0.565795 0.899097 0.052114
Si Si6 0.831109 0.521718 0.064659
Si Si7 0.708152 0.184520 0.854474
Si Si8 0.057612 0.217416 0.555995
O O1 0.568775 0.497427 0.799313
O O2 0.714974 0.537164 0.594777
O O3 0.613706 0.661005 0.712196
O O4 0.789183 0.569259 0.896534
O O5 0.341612 0.433313 0.709925
O O6 0.422506 0.531477 0.508210
O O7 0.183713 0.542915 0.529774
O O8 0.276987 0.407033 0.401955
O O9 0.013321 0.838295 0.895351
O O10 0.524150 0.165716 0.403903
O O11 0.348728 0.091204 0.206115
O O12 0.304932 0.243613 0.318951
O O13 0.447033 0.228254 0.109001
O O14 0.600567 0.834706 0.201817
O O15 0.455092 0.964530 0.072696
O O16 0.654473 0.213881 0.006915
#
# Coordination Sequence:
#
# PCOD8056677 Si02
#       8
#     4   4   4   4   4   4   4   4
#     4  12  24  46  73 103 138 189 247 288 349 431
#     4  12  25  47  76  99 142 192 242 292 351 436
#     4  12  24  46  73 103 138 189 247 288 349 431
#     4  12  28  47  69 109 147 183 234 303 363 419
#     4  12  27  50  73 106 144 192 242 292 361 436
#     4  12  25  47  76  99 142 192 242 292 351 436
#     4  12  28  47  69 109 147 183 234 303 363 419
#     4  12  27  44  71 108 140 186 234 294 367 412
#
# _framework density 22.693680000000001
#
# number of rings (size 3 to 8) (size 9 to 14) (size 15 to 20)
#    0.000    0.000    5.000    4.500    7.000    1.000 
#    0.000    0.000    0.000    0.000    0.000    0.000 
#    0.000    0.000    0.000    0.000    0.000    0.000 
#
# Total GULP energy -198457.117036 kJ/mol
# GULP energy per Si atom -12403.569815 kJ/mol
# Density = 2.264203 g / cm^3
# Si number density = 22.693680 Si / 1000 Ang^3
#
#
#
# Elastic Constant Matrix: (Units=GPa)
#
#
# Indices 1 2 3 4 5 6 
#
# 1 89.2072 17.4887 19.9830 0.0000 -7.9537 0.0000
# 2 17.4887 77.5691 23.7996 0.0000 7.2852 0.0000
# 3 19.9830 23.7996 116.6050 0.0000 17.6837 0.0000
# 4 0.0000 0.0000 0.0000 55.0178 0.0000 -12.6098
# 5 -7.9537 7.2852 17.6837 0.0000 43.8240 0.0000
# 6 0.0000 0.0000 0.0000 -12.6098 0.0000 33.5703
#
#
#
# Elastic Compliance Matrix: (Units=1/GPa)
#
#
# Indices 1 2 3 4 5 6 
#
# 1 0.012502 -0.002486 -0.002175 0.000000 0.003560 0.000000
# 2 -0.002486 0.014310 -0.002200 0.000000 -0.001942 0.000000
# 3 -0.002175 -0.002200 0.010015 0.000000 -0.004070 0.000000
# 4 0.000000 0.000000 0.000000 0.019888 0.000000 0.007470
# 5 0.003560 -0.001942 -0.004070 0.000000 0.025430 0.000000
# 6 0.000000 0.000000 0.000000 0.007470 0.000000 0.032594
#
#
# Mechanical properties :
#
#
# Convention : Reuss Voigt Hill
#
# Bulk Modulus (GPa) = 43.28106 45.10266 44.19186
# Shear Modulus (GPa) = 36.72098 41.28974 39.00536
#
# Velocity S-wave (km/s) = 4.02694 4.27011 4.15031
# Velocity P-wave (km/s) = 6.38239 6.65053 6.51784
#
# Compressibility (1/GPa) = 0.02310479
#
# Stress axis : x y z
#
# Youngs Moduli (GPa) = 79.98871 69.88315 99.84991
#
# Poissons Ratio (x) = 0.17371 0.21717
# Poissons Ratio (y) = 0.19882 0.21968
# Poissons Ratio (z) = 0.17398 0.15375
#
# Static dielectric constant tensor:
#      x y z
#    x 4.058990 0.000000 0.103380 
#    y 0.000000 4.023090 0.000000 
#    z 0.103380 0.000000 4.416340 
# 
# 
# High freq. dielectric constant tensor:
#      x y z
#    x 1.902220 0.000000 -0.000980 
#    y 0.000000 1.897000 0.000000 
#    z -0.000980 0.000000 1.913810 
# 
# From -- ./inp_files/7621.got.cif
#   From: 2010.06.25/outbox.cif.g09.slc.cpg/sg9_4_cif.got.tgz:7621.got - 2010.06.27 21:40:51.
