data_PCOD8056060
_publ_section_title
;
Structure prediction by ZEFSAII (Michael W. Deem and Ramdas Pophale) SiO2 
 PCOD8056060
Probable space group: C C
;
_chemical_formula_sum "Si O2"
_cell_formula_units_Z 24
_cell_length_a 7.358464
_cell_length_b 28.788870
_cell_length_c 9.111139
_cell_angle_alpha 90.000000
_cell_angle_beta 33.737673
_cell_angle_gamma 90.000000
_cell_volume 1071.972287
_symmetry_space_group_name_H-M "C C"
_symmetry_group_IT_number 9
_symmetry_cell_setting 'monoclinic'
loop_
_space_group_symop_operation_xyz
x,y,z
x,-y,1/2+z
1/2+x,1/2+y,z
1/2+x,1/2-y,1/2+z
loop_
_atom_site_type_symbol
_atom_site_label
_atom_site_fract_x
_atom_site_fract_y
_atom_site_fract_z
Si Si1 0.376980 0.372354 0.298420
Si Si2 0.906649 0.043343 0.264235
Si Si3 0.837365 0.227656 0.510303
Si Si4 0.606060 0.372259 0.827419
Si Si5 0.648410 0.542703 0.782152
Si Si6 0.145831 0.772419 0.115962
O O1 0.461625 0.410607 0.361915
O O2 0.582596 0.326071 0.196216
O O3 0.991842 0.361161 0.564948
O O4 0.487441 0.391386 0.064945
O O5 0.524814 0.045102 0.480911
O O6 0.020464 0.090652 0.262425
O O7 0.971319 0.000567 0.327213
O O8 0.121404 0.036998 0.974532
O O9 0.902444 0.174163 0.428050
O O10 0.455735 0.239142 0.796398
O O11 0.991016 0.242644 0.563699
O O12 0.027026 0.739383 0.330443
#
# Coordination Sequence:
#
# PCOD8056060 Si02
#       6
#     4   4   4   4   4   4
#     4  11  21  36  60  89 119 152 194 240 287 337
#     4  12  25  43  64  87 117 151 192 239 293 351
#     4   9  16  28  50  82 115 148 190 236 275 322
#     4  11  21  36  60  89 119 152 194 240 287 337
#     4  12  25  43  64  87 117 151 192 239 293 351
#     4   9  16  28  50  82 115 148 190 236 275 322
#
# _framework density 22.388639000000001
#
# number of rings (size 3 to 8) (size 9 to 14) (size 15 to 20)
#    0.000    1.333    0.000   10.000    0.000    0.000 
#    0.000    0.000    0.000    6.000    0.000    0.000 
#    0.000    0.000    0.000    0.000    0.000    0.000 
#
# Total GULP energy -148780.968872 kJ/mol
# GULP energy per Si atom -12398.414073 kJ/mol
# Density = 2.233768 g / cm^3
# Si number density = 22.388639 Si / 1000 Ang^3
#
#
#
# Elastic Constant Matrix: (Units=GPa)
#
#
# Indices 1 2 3 4 5 6 
#
# 1 48.7291 40.7569 12.8017 0.0000 4.5901 0.0000
# 2 40.7569 167.7705 52.2235 0.0000 9.3052 0.0000
# 3 12.8017 52.2235 142.5888 0.0000 13.0297 0.0000
# 4 0.0000 0.0000 0.0000 37.4116 0.0000 5.3786
# 5 4.5901 9.3052 13.0297 0.0000 24.7766 0.0000
# 6 0.0000 0.0000 0.0000 5.3786 0.0000 17.8425
#
#
#
# Elastic Compliance Matrix: (Units=1/GPa)
#
#
# Indices 1 2 3 4 5 6 
#
# 1 0.025908 -0.006208 0.000182 0.000000 -0.002564 0.000000
# 2 -0.006208 0.008255 -0.002403 0.000000 -0.000686 0.000000
# 3 0.000182 -0.002403 0.008191 0.000000 -0.003439 0.000000
# 4 0.000000 0.000000 0.000000 0.027941 0.000000 -0.008423
# 5 -0.002564 -0.000686 -0.003439 0.000000 0.042902 0.000000
# 6 0.000000 0.000000 0.000000 -0.008423 0.000000 0.058585
#
#
# Mechanical properties :
#
#
# Convention : Reuss Voigt Hill
#
# Bulk Modulus (GPa) = 39.22338 63.40584 51.31461
# Shear Modulus (GPa) = 25.36283 32.89322 29.12802
#
# Velocity S-wave (km/s) = 3.36943 3.83716 3.61088
# Velocity P-wave (km/s) = 5.71793 6.92920 6.35250
#
# Compressibility (1/GPa) = 0.02549500
#
# Stress axis : x y z
#
# Youngs Moduli (GPa) = 38.59817 121.14033 122.08117
#
# Poissons Ratio (x) = 0.75208 -0.02223
# Poissons Ratio (y) = 0.23963 0.29339
# Poissons Ratio (z) = -0.00703 0.29113
#
# Static dielectric constant tensor:
#      x y z
#    x 3.577120 0.000000 -0.071850 
#    y 0.000000 3.914440 0.000000 
#    z -0.071850 0.000000 4.682900 
# 
# 
# High freq. dielectric constant tensor:
#      x y z
#    x 1.842370 0.000000 0.001300 
#    y 0.000000 1.888430 0.000000 
#    z 0.001300 0.000000 1.916550 
# 
# From -- ./inp_files/6539.got.cif
#   From: 2010.06.25/outbox.cif.g09.slc.cpg/sg9_4_cif.got.tgz:6539.got - 2010.06.27 21:40:51.
