data_PCOD8056290
_publ_section_title
;
Structure prediction by ZEFSAII (Michael W. Deem and Ramdas Pophale) SiO2 
 PCOD8056290
Probable space group: C C
;
_chemical_formula_sum "Si O2"
_cell_formula_units_Z 32
_cell_length_a 12.266573
_cell_length_b 14.473943
_cell_length_c 10.171173
_cell_angle_alpha 90.000000
_cell_angle_beta 46.169870
_cell_angle_gamma 90.000000
_cell_volume 1302.731663
_symmetry_space_group_name_H-M "C C"
_symmetry_group_IT_number 9
_symmetry_cell_setting 'monoclinic'
loop_
_space_group_symop_operation_xyz
x,y,z
x,-y,1/2+z
1/2+x,1/2+y,z
1/2+x,1/2-y,1/2+z
loop_
_atom_site_type_symbol
_atom_site_label
_atom_site_fract_x
_atom_site_fract_y
_atom_site_fract_z
Si Si1 0.005890 0.807975 0.245670
Si Si2 0.059504 0.310294 0.326413
Si Si3 0.383642 0.981775 0.529499
Si Si4 0.454339 0.534313 0.990047
Si Si5 0.672526 0.162374 0.999438
Si Si6 0.178902 0.539940 0.394072
Si Si7 0.358587 0.354737 0.944348
Si Si8 0.694016 0.448301 0.945206
O O1 0.089484 0.707680 0.198646
O O2 0.834989 0.791275 0.345040
O O3 0.100061 0.854884 0.047325
O O4 0.002682 0.872059 0.377365
O O5 0.054662 0.301720 0.487640
O O6 0.967797 0.404182 0.371300
O O7 0.980067 0.226330 0.315682
O O8 0.239345 0.320794 0.152553
O O9 0.507457 0.053257 0.486829
O O10 0.276711 0.032327 0.514575
O O11 0.296697 0.939442 0.728777
O O12 0.462840 0.443694 0.889998
O O13 0.568455 0.527233 0.018427
O O14 0.280704 0.532185 0.179328
O O15 0.688059 0.050996 0.982090
O O16 0.246705 0.627296 0.414444
#
# Coordination Sequence:
#
# PCOD8056290 Si02
#       8
#     4   4   4   4   4   4   4   4
#     4  12  26  44  74 111 154 200 259 336 390 466
#     4  11  25  41  72 112 144 195 260 334 374 468
#     4  11  26  44  75 114 151 200 268 330 394 476
#     4  12  23  48  73 108 153 211 249 320 411 476
#     4  11  23  45  70 113 144 196 265 321 385 469
#     4  11  25  47  79 104 155 206 256 321 411 480
#     4  12  24  46  75 110 151 198 262 323 395 461
#     4  12  24  45  74 110 152 200 265 323 400 474
#
# _framework density 24.563769000000001
#
# number of rings (size 3 to 8) (size 9 to 14) (size 15 to 20)
#    0.000    0.500    6.250    2.250    7.000    0.000 
#    0.000    2.500    0.000    0.000    0.000    0.000 
#    0.000    0.000    0.000    0.000    0.000    0.000 
#
# Total GULP energy -198240.034716 kJ/mol
# GULP energy per Si atom -12390.002170 kJ/mol
# Density = 2.450786 g / cm^3
# Si number density = 24.563769 Si / 1000 Ang^3
#
#
#
# Elastic Constant Matrix: (Units=GPa)
#
#
# Indices 1 2 3 4 5 6 
#
# 1 133.3813 36.7468 27.9230 -0.0001 -17.9037 0.0001
# 2 36.7468 90.0170 21.0565 0.0000 -0.8801 0.0000
# 3 27.9230 21.0565 80.4108 -0.0001 -14.7806 0.0001
# 4 -0.0001 0.0000 -0.0001 44.2197 0.0001 -8.2568
# 5 -17.9037 -0.8801 -14.7806 0.0001 40.6331 -0.0001
# 6 0.0001 0.0000 0.0001 -8.2568 -0.0001 38.5603
#
#
#
# Elastic Compliance Matrix: (Units=1/GPa)
#
#
# Indices 1 2 3 4 5 6 
#
# 1 0.009226 -0.003333 -0.001712 0.000000 0.003371 0.000000
# 2 -0.003333 0.013071 -0.002661 0.000000 -0.002154 0.000000
# 3 -0.001712 -0.002661 0.014551 0.000000 0.004481 0.000000
# 4 0.000000 0.000000 0.000000 0.023556 0.000000 0.005044
# 5 0.003371 -0.002154 0.004481 0.000000 0.027679 0.000000
# 6 0.000000 0.000000 0.000000 0.005044 0.000000 0.027013
#
#
# Mechanical properties :
#
#
# Convention : Reuss Voigt Hill
#
# Bulk Modulus (GPa) = 46.64876 52.80686 49.72781
# Shear Modulus (GPa) = 36.32284 39.22148 37.77216
#
# Velocity S-wave (km/s) = 3.84958 4.00023 3.92563
# Velocity P-wave (km/s) = 6.22825 6.54831 6.39029
#
# Compressibility (1/GPa) = 0.02143680
#
# Stress axis : x y z
#
# Youngs Moduli (GPa) = 108.38595 76.50465 68.72344
#
# Poissons Ratio (x) = 0.25499 0.11762
# Poissons Ratio (y) = 0.36126 0.18289
# Poissons Ratio (z) = 0.18550 0.20360
#
# Static dielectric constant tensor:
#      x y z
#    x 4.432090 0.000000 -0.309190 
#    y 0.000000 4.275950 0.000000 
#    z -0.309190 0.000000 4.460840 
# 
# 
# High freq. dielectric constant tensor:
#      x y z
#    x 1.981260 0.000000 -0.023650 
#    y 0.000000 1.956260 0.000000 
#    z -0.023650 0.000000 1.979730 
# 
# From -- ./inp_files/18450.got.cif
#   From: 2010.06.25/outbox.cif.g09.slc.cpg/sg9_10_cif.got.tgz:18450.got - 2010.06.27 21:40:51.
