data_PCOD8056202
_publ_section_title
;
Structure prediction by ZEFSAII (Michael W. Deem and Ramdas Pophale) SiO2 
 PCOD8056202
Probable space group: C C
;
_chemical_formula_sum "Si O2"
_cell_formula_units_Z 32
_cell_length_a 12.593586
_cell_length_b 8.765770
_cell_length_c 13.978570
_cell_angle_alpha 90.000000
_cell_angle_beta 112.606246
_cell_angle_gamma 90.000000
_cell_volume 1424.567791
_symmetry_space_group_name_H-M "C C"
_symmetry_group_IT_number 9
_symmetry_cell_setting 'monoclinic'
loop_
_space_group_symop_operation_xyz
x,y,z
x,-y,1/2+z
1/2+x,1/2+y,z
1/2+x,1/2-y,1/2+z
loop_
_atom_site_type_symbol
_atom_site_label
_atom_site_fract_x
_atom_site_fract_y
_atom_site_fract_z
Si Si1 0.626900 0.920750 0.918170
Si Si2 0.985141 0.143525 0.173145
Si Si3 0.787630 0.064832 0.826190
Si Si4 0.235999 0.922564 0.044385
Si Si5 0.728432 0.588186 0.318945
Si Si6 0.034606 0.865851 0.479136
Si Si7 0.907904 0.555678 0.747727
Si Si8 0.744577 0.082472 0.117114
O O1 0.612919 0.742859 0.938730
O O2 0.516437 0.959173 0.817172
O O3 0.740796 0.977180 0.903345
O O4 0.639046 0.004290 0.024602
O O5 0.095661 0.049068 0.249040
O O6 0.955109 0.274417 0.241640
O O7 0.874221 0.031371 0.129121
O O8 0.001733 0.209920 0.070412
O O9 0.744269 0.236560 0.791931
O O10 0.925178 0.073662 0.882334
O O11 0.736439 0.960927 0.724804
O O12 0.235271 0.761923 0.097916
O O13 0.344430 0.011977 0.130606
O O14 0.257443 0.914968 0.940183
O O15 0.114100 0.991366 0.030352
O O16 0.812119 0.463941 0.298803
#
# Coordination Sequence:
#
# PCOD8056202 Si02
#       8
#     4   4   4   4   4   4   4   4
#     4  12  25  42  70 107 140 195 244 303 370 438
#     4  11  22  46  73 101 145 191 237 311 359 438
#     4  12  24  46  73 104 147 190 244 311 367 443
#     4  11  25  46  71 108 143 196 248 305 370 447
#     4  12  22  46  73 102 148 191 244 307 369 438
#     4  12  25  46  77 105 149 193 247 309 376 439
#     4  11  24  39  71 104 136 191 248 287 371 433
#     4  11  25  45  74 103 146 193 242 303 378 434
#
# _framework density 22.462955000000001
#
# number of rings (size 3 to 8) (size 9 to 14) (size 15 to 20)
#    0.000    0.500    6.250    2.250    0.000    3.000 
#    2.250    1.250    0.000    0.000    0.000    0.000 
#    0.000    0.000    0.000    0.000    0.000    0.000 
#
# Total GULP energy -198241.587073 kJ/mol
# GULP energy per Si atom -12390.099192 kJ/mol
# Density = 2.241183 g / cm^3
# Si number density = 22.462955 Si / 1000 Ang^3
#
#
#
# Elastic Constant Matrix: (Units=GPa)
#
#
# Indices 1 2 3 4 5 6 
#
# 1 97.1952 39.2125 31.3400 0.0000 13.6058 0.0000
# 2 39.2125 58.8337 48.0427 0.0000 -4.5719 0.0000
# 3 31.3400 48.0427 159.3507 0.0000 11.1115 0.0000
# 4 0.0000 0.0000 0.0000 31.0654 0.0000 -3.4869
# 5 13.6058 -4.5719 11.1115 0.0000 51.0491 0.0000
# 6 0.0000 0.0000 0.0000 -3.4869 0.0000 34.6438
#
#
#
# Elastic Compliance Matrix: (Units=1/GPa)
#
#
# Indices 1 2 3 4 5 6 
#
# 1 0.015309 -0.011211 0.000735 0.000000 -0.005244 0.000000
# 2 -0.011211 0.031411 -0.007788 0.000000 0.007496 0.000000
# 3 0.000735 -0.007788 0.008673 0.000000 -0.002781 0.000000
# 4 0.000000 0.000000 0.000000 0.032558 0.000000 0.003277
# 5 -0.005244 0.007496 -0.002781 0.000000 0.022263 0.000000
# 6 0.000000 0.000000 0.000000 0.003277 0.000000 0.029195
#
#
# Mechanical properties :
#
#
# Convention : Reuss Voigt Hill
#
# Bulk Modulus (GPa) = 53.00888 61.39663 57.20275
# Shear Modulus (GPa) = 27.43864 36.47061 31.95463
#
# Velocity S-wave (km/s) = 3.49880 4.03375 3.77576
# Velocity P-wave (km/s) = 6.32232 7.00618 6.67302
#
# Compressibility (1/GPa) = 0.01886476
#
# Stress axis : x y z
#
# Youngs Moduli (GPa) = 65.32296 31.83598 115.30189
#
# Poissons Ratio (x) = 0.35690 -0.08472
# Poissons Ratio (y) = 0.73231 0.89797
# Poissons Ratio (z) = -0.04800 0.24794
#
# Static dielectric constant tensor:
#      x y z
#    x 4.351560 0.000000 0.263890 
#    y 0.000000 3.881590 0.000000 
#    z 0.263890 0.000000 4.471390 
# 
# 
# High freq. dielectric constant tensor:
#      x y z
#    x 1.890010 0.000000 0.015840 
#    y 0.000000 1.851850 0.000000 
#    z 0.015840 0.000000 1.916030 
# 
# From -- ./inp_files/24298.got.cif
#   From: 2010.06.25/outbox.cif.g09.slc.cpg/sg9_13_cif.got.tgz:24298.got - 2010.06.27 21:40:51.
