data_PCOD8056959
_publ_section_title
;
Structure prediction by ZEFSAII (Michael W. Deem and Ramdas Pophale) SiO2 
 PCOD8056959
Probable space group: P 2/M
;
_chemical_formula_sum "Si O2"
_cell_formula_units_Z 32
_cell_length_a 23.284337
_cell_length_b 9.066039
_cell_length_c 11.461527
_cell_angle_alpha 90.000000
_cell_angle_beta 125.845897
_cell_angle_gamma 90.000000
_cell_volume 1961.226934
_symmetry_space_group_name_H-M "P 2/M"
_symmetry_group_IT_number 10
_symmetry_cell_setting 'monoclinic'
loop_
_space_group_symop_operation_xyz
x,y,z
-x,y,-z
-x,-y,-z
x,-y,z
loop_
_atom_site_type_symbol
_atom_site_label
_atom_site_fract_x
_atom_site_fract_y
_atom_site_fract_z
Si Si1 0.608643 0.674556 0.191187
Si Si2 0.695252 0.167182 0.689688
Si Si3 0.732726 0.827250 0.468182
Si Si4 0.150211 0.169654 0.106829
Si Si5 0.536356 0.674406 0.871411
Si Si6 0.129462 0.672783 0.319456
Si Si7 0.566728 0.675001 0.652373
Si Si8 0.004807 0.163608 0.865910
O O1 0.620907 0.500000 0.218354
O O2 0.678315 0.760562 0.311266
O O3 0.542909 0.729159 0.192707
O O4 0.591877 0.720454 0.037647
O O5 0.706457 0.208837 0.567694
O O6 0.770136 0.188739 0.847979
O O7 0.639024 0.275203 0.679234
O O8 0.667898 0.000000 0.669315
O O9 0.809013 0.753037 0.533473
O O10 0.740117 0.000000 0.456037
O O11 0.139981 0.286195 0.197546
O O12 0.142600 0.000000 0.146188
O O13 0.088276 0.199437 0.936573
O O14 0.532931 0.500000 0.861325
O O15 0.560982 0.740435 0.776598
O O16 0.135427 0.500000 0.346945
O O17 0.050253 0.726218 0.262920
O O18 0.500000 0.735441 0.500000
O O19 0.566675 0.500000 0.654308
O O20 0.985405 0.000000 0.799260
O O21 0.000000 0.174583 0.000000
#
# Coordination Sequence:
#
# PCOD8056959 Si02
#       8
#     4   4   4   4   4   4   4   4
#     4   9  16  30  50  65  81 109 143 176 213 257
#     4   9  18  30  42  59  84 114 146 178 211 248
#     4  10  19  30  42  59  86 115 144 179 217 253
#     4   8  15  27  39  52  77 112 144 174 211 251
#     4   8  16  30  47  67  88 109 136 175 219 256
#     4  10  17  23  35  57  82 108 141 176 208 249
#     4  10  19  30  45  65  88 113 142 174 209 252
#     4   8  13  23  37  51  74 110 142 169 208 251
#
# _framework density 16.316317000000002
#
# number of rings (size 3 to 8) (size 9 to 14) (size 15 to 20)
#    0.000    3.000    0.000    4.500    0.000    6.000 
#    0.000    2.500    0.000    0.000    0.000    0.000 
#    0.000    1.000    0.000   11.500    0.000    6.000 
#
# Total GULP energy -396513.618848 kJ/mol
# GULP energy per Si atom -12391.050589 kJ/mol
# Density = 1.627918 g / cm^3
# Si number density = 16.316317 Si / 1000 Ang^3
#
#
#
# Elastic Constant Matrix: (Units=GPa)
#
#
# Indices 1 2 3 4 5 6 
#
# 1 67.0181 26.2810 58.6072 0.0000 21.4510 0.0000
# 2 26.2810 66.6163 47.7229 0.0000 15.4002 0.0000
# 3 58.6072 47.7229 118.7498 0.0000 30.7368 0.0000
# 4 0.0000 0.0000 0.0000 21.7881 0.0000 10.3373
# 5 21.4510 15.4002 30.7368 0.0000 32.5886 0.0000
# 6 0.0000 0.0000 0.0000 10.3373 0.0000 20.0097
#
#
#
# Elastic Compliance Matrix: (Units=1/GPa)
#
#
# Indices 1 2 3 4 5 6 
#
# 1 0.027464 -0.001139 -0.011321 0.000000 -0.006863 0.000000
# 2 -0.001139 0.021296 -0.007390 0.000000 -0.002345 0.000000
# 3 -0.011321 -0.007390 0.018714 0.000000 -0.006707 0.000000
# 4 0.000000 0.000000 0.000000 0.060799 0.000000 -0.031410
# 5 -0.006863 -0.002345 -0.006707 0.000000 0.042636 0.000000
# 6 0.000000 0.000000 0.000000 -0.031410 0.000000 0.066203
#
#
# Mechanical properties :
#
#
# Convention : Reuss Voigt Hill
#
# Bulk Modulus (GPa) = 36.00152 57.51183 46.75668
# Shear Modulus (GPa) = 17.47824 22.86214 20.17019
#
# Velocity S-wave (km/s) = 3.27649 3.74730 3.51977
# Velocity P-wave (km/s) = 6.03544 7.35170 6.72585
#
# Compressibility (1/GPa) = 0.02777660
#
# Stress axis : x y z
#
# Youngs Moduli (GPa) = 36.41071 46.95610 53.43586
#
# Poissons Ratio (x) = 0.05346 0.60494
# Poissons Ratio (y) = 0.04146 0.39488
# Poissons Ratio (z) = 0.41220 0.34700
#
# Static dielectric constant tensor:
#      x y z
#    x 3.090490 0.000000 0.374230 
#    y 0.000000 2.879530 0.000000 
#    z 0.374230 0.000000 3.263240 
# 
# 
# High freq. dielectric constant tensor:
#      x y z
#    x 1.595090 0.000000 0.044600 
#    y 0.000000 1.615400 0.000000 
#    z 0.044600 0.000000 1.616310 
# 
# From -- ./inp_files/56446.got.cif
#   From: 2010.06.25/outbox.cif.g09.slc.cpg/sg10_29_cif.got.tgz:56446.got - 2010.06.27 22:07:45.
