data_PCOD8056518
_publ_section_title
;
Structure prediction by ZEFSAII (Michael W. Deem and Ramdas Pophale) SiO2 
 PCOD8056518
Probable space group: C C
;
_chemical_formula_sum "Si O2"
_cell_formula_units_Z 24
_cell_length_a 20.603912
_cell_length_b 6.991433
_cell_length_c 7.282361
_cell_angle_alpha 90.000000
_cell_angle_beta 57.115694
_cell_angle_gamma 90.000000
_cell_volume 880.942840
_symmetry_space_group_name_H-M "C C"
_symmetry_group_IT_number 9
_symmetry_cell_setting 'monoclinic'
loop_
_space_group_symop_operation_xyz
x,y,z
x,-y,1/2+z
1/2+x,1/2+y,z
1/2+x,1/2-y,1/2+z
loop_
_atom_site_type_symbol
_atom_site_label
_atom_site_fract_x
_atom_site_fract_y
_atom_site_fract_z
Si Si1 0.538410 0.526997 0.410830
Si Si2 0.277667 0.771252 0.509759
Si Si3 0.762882 0.292835 0.073339
Si Si4 0.857379 0.037913 0.699912
Si Si5 0.615776 0.770432 0.987122
Si Si6 0.637458 0.796143 0.459154
O O1 0.447689 0.502669 0.565001
O O2 0.561015 0.675071 0.220454
O O3 0.580522 0.317478 0.347753
O O4 0.571173 0.631267 0.549934
O O5 0.187291 0.721274 0.688844
O O6 0.332265 0.689042 0.586721
O O7 0.294126 0.997357 0.481316
O O8 0.312526 0.670007 0.268841
O O9 0.831764 0.135110 0.939155
O O10 0.708601 0.289316 0.345980
O O11 0.699437 0.226261 0.022928
O O12 0.600162 0.994812 0.016089
#
# Coordination Sequence:
#
# PCOD8056518 Si02
#       6
#     4   4   4   4   4   4
#     4  12  27  44  74 111 154 191 244 316 372 437
#     4  11  25  45  77 106 148 200 249 300 367 448
#     4  11  25  46  77 109 143 198 258 302 363 452
#     4  11  27  47  70 113 154 194 242 310 378 436
#     4  12  25  45  75 109 146 196 248 302 369 442
#     4  11  25  45  77 110 139 197 255 310 365 439
#
# _framework density 27.243539999999999
#
# number of rings (size 3 to 8) (size 9 to 14) (size 15 to 20)
#    0.000    0.667    3.333    3.000    4.667    5.333 
#    0.000    0.000    0.000    0.000    0.000    0.000 
#    0.000    0.000    0.000    0.000    0.000    0.000 
#
# Total GULP energy -148809.193779 kJ/mol
# GULP energy per Si atom -12400.766148 kJ/mol
# Density = 2.718153 g / cm^3
# Si number density = 27.243540 Si / 1000 Ang^3
#
#
#
# Elastic Constant Matrix: (Units=GPa)
#
#
# Indices 1 2 3 4 5 6 
#
# 1 101.1797 41.8790 31.2230 0.0000 -55.5832 0.0000
# 2 41.8790 223.6904 22.4564 0.0000 -40.3230 0.0000
# 3 31.2230 22.4564 114.3055 0.0000 -33.7318 0.0000
# 4 0.0000 0.0000 0.0000 37.1744 0.0000 -3.0678
# 5 -55.5832 -40.3230 -33.7318 0.0000 62.0762 0.0000
# 6 0.0000 0.0000 0.0000 -3.0678 0.0000 45.3209
#
#
#
# Elastic Compliance Matrix: (Units=1/GPa)
#
#
# Indices 1 2 3 4 5 6 
#
# 1 0.019519 -0.000570 -0.000204 0.000000 0.016997 0.000000
# 2 -0.000570 0.005080 -0.000023 0.000000 0.002777 0.000000
# 3 -0.000204 -0.000023 0.010422 0.000000 0.005465 0.000000
# 4 0.000000 0.000000 0.000000 0.027051 0.000000 0.001831
# 5 0.016997 0.002777 0.005465 0.000000 0.036102 0.000000
# 6 0.000000 0.000000 0.000000 0.001831 0.000000 0.022189
#
#
# Mechanical properties :
#
#
# Convention : Reuss Voigt Hill
#
# Bulk Modulus (GPa) = 29.91581 70.03249 49.97415
# Shear Modulus (GPa) = 37.56594 51.82211 44.69403
#
# Velocity S-wave (km/s) = 3.71737 4.36613 4.05475
# Velocity P-wave (km/s) = 5.42493 7.15397 6.34859
#
# Compressibility (1/GPa) = 0.03342714
#
# Stress axis : x y z
#
# Youngs Moduli (GPa) = 51.23107 196.84741 95.95470
#
# Poissons Ratio (x) = 0.11222 0.01958
# Poissons Ratio (y) = 0.02921 0.00219
# Poissons Ratio (z) = 0.01046 0.00449
#
# Static dielectric constant tensor:
#      x y z
#    x 5.444460 0.000000 1.051910 
#    y 0.000000 5.235290 0.000000 
#    z 1.051910 0.000000 6.832050 
# 
# 
# High freq. dielectric constant tensor:
#      x y z
#    x 2.115470 0.000000 0.053750 
#    y 0.000000 2.109070 0.000000 
#    z 0.053750 0.000000 2.140520 
# 
# From -- ./inp_files/11993.got.cif
#   From: 2010.06.25/outbox.cif.g09.slc.cpg/sg9_6_cif.got.tgz:11993.got - 2010.06.27 21:40:51.
