data_PCOD8056773
_publ_section_title
;
Structure prediction by ZEFSAII (Michael W. Deem and Ramdas Pophale) SiO2 
 PCOD8056773
Probable space group: C C
;
_chemical_formula_sum "Si O2"
_cell_formula_units_Z 24
_cell_length_a 16.843406
_cell_length_b 7.062532
_cell_length_c 11.062077
_cell_angle_alpha 90.000000
_cell_angle_beta 128.601413
_cell_angle_gamma 90.000000
_cell_volume 1028.392337
_symmetry_space_group_name_H-M "C C"
_symmetry_group_IT_number 9
_symmetry_cell_setting 'monoclinic'
loop_
_space_group_symop_operation_xyz
x,y,z
x,-y,1/2+z
1/2+x,1/2+y,z
1/2+x,1/2-y,1/2+z
loop_
_atom_site_type_symbol
_atom_site_label
_atom_site_fract_x
_atom_site_fract_y
_atom_site_fract_z
Si Si1 0.838030 0.069138 0.529300
Si Si2 0.509627 0.960827 0.404438
Si Si3 0.720896 0.285364 0.842160
Si Si4 0.041719 0.910984 0.825615
Si Si5 0.675639 0.750714 0.040999
Si Si6 0.400956 0.956672 0.546168
O O1 0.777070 0.195677 0.567533
O O2 0.884464 0.236542 0.491875
O O3 0.762267 0.930278 0.386960
O O4 0.928615 0.944589 0.669752
O O5 0.526948 0.732585 0.424668
O O6 0.451515 0.036133 0.469995
O O7 0.619759 0.054364 0.518904
O O8 0.463535 0.024362 0.230527
O O9 0.609310 0.293914 0.794134
O O10 0.712946 0.352021 0.697136
O O11 0.797075 0.431977 0.978105
O O12 0.096788 0.108397 0.902868
#
# Coordination Sequence:
#
# PCOD8056773 Si02
#       6
#     4   4   4   4   4   4
#     4  12  27  48  75 110 151 197 251 310 378 444
#     4  12  27  48  78 113 151 199 255 309 376 452
#     4  12  28  46  75 110 151 195 253 310 375 445
#     4  12  27  48  75 110 151 197 251 310 378 444
#     4  12  28  46  75 110 151 195 253 310 375 445
#     4  12  27  48  78 113 151 199 255 309 376 452
#
# _framework density 23.337395999999998
#
# number of rings (size 3 to 8) (size 9 to 14) (size 15 to 20)
#    0.000    0.000    6.667    2.000    4.667    1.333 
#    0.000    0.000    0.000    0.000    0.000    0.000 
#    0.000    0.000    0.000    0.000    0.000    0.000 
#
# Total GULP energy -148743.791730 kJ/mol
# GULP energy per Si atom -12395.315978 kJ/mol
# Density = 2.328428 g / cm^3
# Si number density = 23.337396 Si / 1000 Ang^3
#
#
#
# Elastic Constant Matrix: (Units=GPa)
#
#
# Indices 1 2 3 4 5 6 
#
# 1 105.4810 13.1839 42.5061 0.0000 1.4116 0.0000
# 2 13.1839 108.9451 16.1352 0.0000 12.5734 0.0000
# 3 42.5061 16.1352 99.4551 0.0000 -2.5305 0.0000
# 4 0.0000 0.0000 0.0000 36.7080 0.0000 10.4903
# 5 1.4116 12.5734 -2.5305 0.0000 40.5659 0.0000
# 6 0.0000 0.0000 0.0000 10.4903 0.0000 39.2138
#
#
#
# Elastic Compliance Matrix: (Units=1/GPa)
#
#
# Indices 1 2 3 4 5 6 
#
# 1 0.011512 -0.000618 -0.004833 0.000000 -0.000510 0.000000
# 2 -0.000618 0.009821 -0.001408 0.000000 -0.003110 0.000000
# 3 -0.004833 -0.001408 0.012384 0.000000 0.001377 0.000000
# 4 0.000000 0.000000 0.000000 0.029497 0.000000 -0.007891
# 5 -0.000510 -0.003110 0.001377 0.000000 0.025719 0.000000
# 6 0.000000 0.000000 0.000000 -0.007891 0.000000 0.027612
#
#
# Mechanical properties :
#
#
# Convention : Reuss Voigt Hill
#
# Bulk Modulus (GPa) = 50.00438 50.83684 50.42061
# Shear Modulus (GPa) = 36.51496 39.43460 37.97478
#
# Velocity S-wave (km/s) = 3.95986 4.11513 4.03824
# Velocity P-wave (km/s) = 6.51004 6.66406 6.58750
#
# Compressibility (1/GPa) = 0.01999825
#
# Stress axis : x y z
#
# Youngs Moduli (GPa) = 86.86592 101.81945 80.75088
#
# Poissons Ratio (x) = 0.06297 0.39025
# Poissons Ratio (y) = 0.05372 0.11371
# Poissons Ratio (z) = 0.41980 0.14338
#
# Static dielectric constant tensor:
#      x y z
#    x 4.225010 0.000000 0.136850 
#    y 0.000000 4.300030 0.000000 
#    z 0.136850 0.000000 3.950110 
# 
# 
# High freq. dielectric constant tensor:
#      x y z
#    x 1.935560 0.000000 0.015340 
#    y 0.000000 1.939920 0.000000 
#    z 0.015340 0.000000 1.912900 
# 
# From -- ./inp_files/18869.got.cif
#   From: 2010.06.25/outbox.cif.g09.slc.cpg/sg9_10_cif.got.tgz:18869.got - 2010.06.27 21:40:51.
