data_PCOD8056930
_publ_section_title
;
Structure prediction by ZEFSAII (Michael W. Deem and Ramdas Pophale) SiO2 
 PCOD8056930
Probable space group: P 2/M
;
_chemical_formula_sum "Si O2"
_cell_formula_units_Z 32
_cell_length_a 13.784402
_cell_length_b 14.704223
_cell_length_c 20.123294
_cell_angle_alpha 90.000000
_cell_angle_beta 24.297053
_cell_angle_gamma 90.000000
_cell_volume 1678.280698
_symmetry_space_group_name_H-M "P 2/M"
_symmetry_group_IT_number 10
_symmetry_cell_setting 'monoclinic'
loop_
_space_group_symop_operation_xyz
x,y,z
-x,y,-z
-x,-y,-z
x,-y,z
loop_
_atom_site_type_symbol
_atom_site_label
_atom_site_fract_x
_atom_site_fract_y
_atom_site_fract_z
Si Si1 0.494266 0.607143 0.425033
Si Si2 0.600337 0.898299 0.368006
Si Si3 0.907847 0.732852 0.131212
Si Si4 0.366106 0.398781 0.153207
Si Si5 0.885395 0.902699 0.399873
Si Si6 0.657526 0.901286 0.964517
Si Si7 0.963339 0.294843 0.344575
Si Si8 0.734328 0.273733 0.977603
O O1 0.500000 0.626725 0.500000
O O2 0.480774 0.500000 0.418694
O O3 0.729198 0.648763 0.246857
O O4 0.280537 0.657415 0.521851
O O5 0.500000 0.860906 0.500000
O O6 0.798751 0.829573 0.219685
O O7 0.384804 0.901389 0.452261
O O8 0.709617 0.000000 0.307716
O O9 0.125648 0.709404 0.042698
O O10 0.000000 0.742254 0.000000
O O11 0.334450 0.500000 0.200586
O O12 0.107030 0.356236 0.306489
O O13 0.500000 0.397990 0.000000
O O14 0.519356 0.344615 0.111567
O O15 0.930211 0.802890 0.403935
O O16 0.065357 0.907849 0.225683
O O17 0.924536 0.000000 0.416125
O O18 0.623886 0.828220 0.044272
O O19 0.565431 0.000000 0.046460
O O20 0.500000 0.868785 0.000000
O O21 0.102983 0.283819 0.188711
#
# Coordination Sequence:
#
# PCOD8056930 Si02
#       8
#     4   4   4   4   4   4   4   4
#     4  11  22  37  59  84 109 145 194 248 299 343
#     4  10  19  34  58  85 113 148 192 240 287 334
#     4  12  25  39  55  80 119 161 198 234 287 351
#     4   9  18  30  49  81 111 140 176 231 302 349
#     4   9  16  25  45  76 110 143 172 212 270 333
#     4   9  16  27  47  82 118 143 177 231 294 343
#     4  10  16  31  57  83 114 137 180 241 290 345
#     4  10  19  32  51  76 113 150 185 232 283 344
#
# _framework density 19.067132999999998
#
# number of rings (size 3 to 8) (size 9 to 14) (size 15 to 20)
#    0.000    2.000    2.500    4.125    0.000    3.000 
#    0.000    0.000    0.000    0.750    0.000    1.750 
#    0.000    6.000    0.000    0.000    0.000    0.000 
#
# Total GULP energy -396477.297884 kJ/mol
# GULP energy per Si atom -12389.915559 kJ/mol
# Density = 1.902374 g / cm^3
# Si number density = 19.067133 Si / 1000 Ang^3
#
#
#
# Elastic Constant Matrix: (Units=GPa)
#
#
# Indices 1 2 3 4 5 6 
#
# 1 89.3693 54.7066 48.9818 0.0000 -29.0646 0.0000
# 2 54.7066 182.2511 50.2685 0.0000 -22.1166 0.0000
# 3 48.9818 50.2685 60.4263 0.0000 -9.4331 0.0000
# 4 0.0000 0.0000 0.0000 18.9910 0.0000 -9.7287
# 5 -29.0646 -22.1166 -9.4331 0.0000 33.2753 0.0000
# 6 0.0000 0.0000 0.0000 -9.7287 0.0000 16.8980
#
#
#
# Elastic Compliance Matrix: (Units=1/GPa)
#
#
# Indices 1 2 3 4 5 6 
#
# 1 0.028491 -0.000924 -0.019395 0.000000 0.018773 0.000000
# 2 -0.000924 0.007491 -0.005055 0.000000 0.002738 0.000000
# 3 -0.019395 -0.005055 0.034849 0.000000 -0.010421 0.000000
# 4 0.000000 0.000000 0.000000 0.074683 0.000000 0.042998
# 5 0.018773 0.002738 -0.010421 0.000000 0.045316 0.000000
# 6 0.000000 0.000000 0.000000 0.042998 0.000000 0.083934
#
#
# Mechanical properties :
#
#
# Convention : Reuss Voigt Hill
#
# Bulk Modulus (GPa) = 49.79566 71.10672 60.45119
# Shear Modulus (GPa) = 15.05086 25.70551 20.37818
#
# Velocity S-wave (km/s) = 2.81261 3.67571 3.27274
# Velocity P-wave (km/s) = 6.05973 7.44233 6.78633
#
# Compressibility (1/GPa) = 0.02008207
#
# Stress axis : x y z
#
# Youngs Moduli (GPa) = 35.09894 133.49395 28.69515
#
# Poissons Ratio (x) = 0.12341 0.55655
# Poissons Ratio (y) = 0.03245 0.14505
# Poissons Ratio (z) = 0.68075 0.67479
#
# Static dielectric constant tensor:
#      x y z
#    x 3.217450 0.000000 -0.471260 
#    y 0.000000 4.114560 0.000000 
#    z -0.471260 0.000000 3.180420 
# 
# 
# High freq. dielectric constant tensor:
#      x y z
#    x 1.704230 0.000000 -0.054990 
#    y 0.000000 1.772710 0.000000 
#    z -0.054990 0.000000 1.702450 
# 
# From -- ./inp_files/76995.got.cif
#   From: 2010.06.25/outbox.cif.g09.slc.cpg/sg10_39_cif.got.tgz:76995.got - 2010.06.27 22:07:45.
