data_PCOD8056024
_publ_section_title
;
Structure prediction by ZEFSAII (Michael W. Deem and Ramdas Pophale) SiO2 
 PCOD8056024
Probable space group: C C
;
_chemical_formula_sum "Si O2"
_cell_formula_units_Z 24
_cell_length_a 5.251178
_cell_length_b 14.030607
_cell_length_c 12.826026
_cell_angle_alpha 90.000000
_cell_angle_beta 95.047478
_cell_angle_gamma 90.000000
_cell_volume 941.321345
_symmetry_space_group_name_H-M "C C"
_symmetry_group_IT_number 9
_symmetry_cell_setting 'monoclinic'
loop_
_space_group_symop_operation_xyz
x,y,z
x,-y,1/2+z
1/2+x,1/2+y,z
1/2+x,1/2-y,1/2+z
loop_
_atom_site_type_symbol
_atom_site_label
_atom_site_fract_x
_atom_site_fract_y
_atom_site_fract_z
Si Si1 0.360380 0.673441 0.023940
Si Si2 0.938759 0.971070 0.973834
Si Si3 0.963223 0.670649 0.826152
Si Si4 0.736723 0.178841 0.617236
Si Si5 0.611589 0.183198 0.217267
Si Si6 0.895126 0.461892 0.852089
O O1 0.527352 0.770533 0.034055
O O2 0.297316 0.635180 0.139297
O O3 0.519689 0.581501 0.991074
O O4 0.123057 0.689546 0.936914
O O5 0.693512 0.963937 0.891171
O O6 0.190605 0.922944 0.930096
O O7 0.847547 0.919714 0.076182
O O8 0.138717 0.665225 0.730604
O O9 0.812397 0.569581 0.820548
O O10 0.760180 0.757675 0.812822
O O11 0.980187 0.245461 0.631565
O O12 0.396665 0.111951 0.255601
#
# Coordination Sequence:
#
# PCOD8056024 Si02
#       6
#     4   4   4   4   4   4
#     4  10  26  50  74 110 152 202 252 316 379 452
#     4  11  28  48  76 111 155 202 251 313 381 458
#     4  10  26  50  74 110 152 202 252 316 379 452
#     4  11  27  44  79 110 151 196 256 315 377 458
#     4  11  27  44  79 110 151 196 256 315 377 458
#     4  11  28  48  76 111 155 202 251 313 381 458
#
# _framework density 25.496075999999999
#
# number of rings (size 3 to 8) (size 9 to 14) (size 15 to 20)
#    0.000    1.333    0.000    1.000   23.333    1.333 
#    0.000    0.000    0.000    0.000    0.000    0.000 
#    0.000    0.000    0.000    0.000    0.000    0.000 
#
# Total GULP energy -148716.412461 kJ/mol
# GULP energy per Si atom -12393.034372 kJ/mol
# Density = 2.543805 g / cm^3
# Si number density = 25.496076 Si / 1000 Ang^3
#
#
#
# Elastic Constant Matrix: (Units=GPa)
#
#
# Indices 1 2 3 4 5 6 
#
# 1 106.7016 41.5041 39.2677 0.0000 -11.3131 0.0000
# 2 41.5041 113.6966 54.3461 0.0000 -0.2783 0.0000
# 3 39.2677 54.3461 119.3408 0.0000 -3.9009 0.0000
# 4 0.0000 0.0000 0.0000 37.3493 0.0000 -2.4080
# 5 -11.3131 -0.2783 -3.9009 0.0000 47.7193 0.0000
# 6 0.0000 0.0000 0.0000 -2.4080 0.0000 5.5941
#
#
#
# Elastic Compliance Matrix: (Units=1/GPa)
#
#
# Indices 1 2 3 4 5 6 
#
# 1 0.011734 -0.003160 -0.002338 0.000000 0.002572 0.000000
# 2 -0.003160 0.012099 -0.004504 0.000000 -0.001047 0.000000
# 3 -0.002338 -0.004504 0.011211 0.000000 0.000336 0.000000
# 4 0.000000 0.000000 0.000000 0.027538 0.000000 0.011854
# 5 0.002572 -0.001047 0.000336 0.000000 0.021587 0.000000
# 6 0.000000 0.000000 0.000000 0.011854 0.000000 0.183862
#
#
# Mechanical properties :
#
#
# Convention : Reuss Voigt Hill
#
# Bulk Modulus (GPa) = 66.48876 67.77497 67.13186
# Shear Modulus (GPa) = 17.06196 31.77395 24.41795
#
# Velocity S-wave (km/s) = 2.58970 3.53403 3.09805
# Velocity P-wave (km/s) = 5.92256 6.57972 6.25977
#
# Compressibility (1/GPa) = 0.01504014
#
# Stress axis : x y z
#
# Youngs Moduli (GPa) = 85.22178 82.64997 89.19888
#
# Poissons Ratio (x) = 0.26114 0.20855
# Poissons Ratio (y) = 0.26926 0.40179
# Poissons Ratio (z) = 0.19925 0.37229
#
# Static dielectric constant tensor:
#      x y z
#    x 4.522170 0.000000 -0.096450 
#    y 0.000000 4.873720 0.000000 
#    z -0.096450 0.000000 4.444790 
# 
# 
# High freq. dielectric constant tensor:
#      x y z
#    x 2.015700 0.000000 -0.013620 
#    y 0.000000 2.025320 0.000000 
#    z -0.013620 0.000000 2.022200 
# 
# From -- ./inp_files/12947.got.cif
#   From: 2010.06.25/outbox.cif.g09.slc.cpg/sg9_7_cif.got.tgz:12947.got - 2010.06.27 21:40:51.
