data_PCOD8056458
_publ_section_title
;
Structure prediction by ZEFSAII (Michael W. Deem and Ramdas Pophale) SiO2 
 PCOD8056458
Probable space group: C C
;
_chemical_formula_sum "Si O2"
_cell_formula_units_Z 28
_cell_length_a 9.720678
_cell_length_b 7.769038
_cell_length_c 19.308642
_cell_angle_alpha 90.000000
_cell_angle_beta 127.670766
_cell_angle_gamma 90.000000
_cell_volume 1154.212844
_symmetry_space_group_name_H-M "C C"
_symmetry_group_IT_number 9
_symmetry_cell_setting 'monoclinic'
loop_
_space_group_symop_operation_xyz
x,y,z
x,-y,1/2+z
1/2+x,1/2+y,z
1/2+x,1/2-y,1/2+z
loop_
_atom_site_type_symbol
_atom_site_label
_atom_site_fract_x
_atom_site_fract_y
_atom_site_fract_z
Si Si1 0.209270 0.497388 0.738060
Si Si2 0.825643 0.995386 0.061456
Si Si3 0.773211 0.852338 0.899517
Si Si4 0.880429 0.343246 0.801723
Si Si5 0.180952 0.855892 0.167724
Si Si6 0.932080 0.512161 0.463674
Si Si7 0.354926 0.118844 0.588696
O O1 0.303118 0.460690 0.839496
O O2 0.277365 0.683862 0.736355
O O3 0.252782 0.339306 0.699534
O O4 0.001392 0.514708 0.675765
O O5 0.904224 0.181745 0.099609
O O6 0.640008 0.959862 0.041705
O O7 0.980522 0.865944 0.132813
O O8 0.802306 0.978852 0.972221
O O9 0.573576 0.795541 0.838131
O O10 0.899613 0.687452 0.936343
O O11 0.808007 0.521063 0.749409
O O12 0.868184 0.364156 0.881951
O O13 0.185653 0.901229 0.086417
O O14 0.826114 0.549236 0.501981
#
# Coordination Sequence:
#
# PCOD8056458 Si02
#       7
#     4   4   4   4   4   4   4
#     4  12  25  44  76 109 147 195 240 310 372 437
#     4  11  25  46  74 106 151 196 248 307 367 446
#     4  11  24  46  73 110 148 192 255 306 366 443
#     4  11  25  48  75 108 147 197 246 304 370 442
#     4  12  26  48  76 109 150 190 250 306 370 445
#     4  11  26  49  75 109 149 201 248 306 372 441
#     4  12  25  45  73 113 146 193 247 305 375 438
#
# _framework density 24.258956999999999
#
# number of rings (size 3 to 8) (size 9 to 14) (size 15 to 20)
#    0.000    0.571    4.286    3.429    0.000    9.143 
#    2.571    0.000    0.000    0.000    0.000    0.000 
#    0.000    0.000    0.000    0.000    0.000    0.000 
#
# Total GULP energy -173533.389374 kJ/mol
# GULP energy per Si atom -12395.242098 kJ/mol
# Density = 2.420374 g / cm^3
# Si number density = 24.258957 Si / 1000 Ang^3
#
#
#
# Elastic Constant Matrix: (Units=GPa)
#
#
# Indices 1 2 3 4 5 6 
#
# 1 102.8249 27.9675 37.2510 0.0000 0.8919 0.0000
# 2 27.9675 134.8221 35.4124 0.0000 3.4284 0.0000
# 3 37.2510 35.4124 80.1635 0.0000 -2.4526 0.0000
# 4 0.0000 0.0000 0.0000 52.7699 0.0000 -0.1467
# 5 0.8919 3.4284 -2.4526 0.0000 39.2800 0.0000
# 6 0.0000 0.0000 0.0000 -0.1467 0.0000 21.4422
#
#
#
# Elastic Compliance Matrix: (Units=1/GPa)
#
#
# Indices 1 2 3 4 5 6 
#
# 1 0.011857 -0.001127 -0.005027 0.000000 -0.000485 0.000000
# 2 -0.001127 0.008535 -0.003275 0.000000 -0.000924 0.000000
# 3 -0.005027 -0.003275 0.016300 0.000000 0.001418 0.000000
# 4 0.000000 0.000000 0.000000 0.018951 0.000000 0.000130
# 5 -0.000485 -0.000924 0.001418 0.000000 0.025638 0.000000
# 6 0.000000 0.000000 0.000000 0.000130 0.000000 0.046638
#
#
# Mechanical properties :
#
#
# Convention : Reuss Voigt Hill
#
# Bulk Modulus (GPa) = 56.06951 57.67469 56.87210
# Shear Modulus (GPa) = 32.73942 37.17705 34.95823
#
# Velocity S-wave (km/s) = 3.67765 3.91897 3.80023
# Velocity P-wave (km/s) = 6.41845 6.65613 6.53837
#
# Compressibility (1/GPa) = 0.01783501
#
# Stress axis : x y z
#
# Youngs Moduli (GPa) = 84.33762 117.17012 61.34812
#
# Poissons Ratio (x) = 0.13205 0.30839
# Poissons Ratio (y) = 0.09505 0.20090
# Poissons Ratio (z) = 0.42395 0.38370
#
# Static dielectric constant tensor:
#      x y z
#    x 4.341890 0.000000 -0.040210 
#    y 0.000000 4.245290 0.000000 
#    z -0.040210 0.000000 4.453190 
# 
# 
# High freq. dielectric constant tensor:
#      x y z
#    x 1.954570 0.000000 -0.006020 
#    y 0.000000 1.966740 0.000000 
#    z -0.006020 0.000000 1.971440 
# 
# From -- ./inp_files/24318.got.cif
#   From: 2010.06.25/outbox.cif.g09.slc.cpg/sg9_13_cif.got.tgz:24318.got - 2010.06.27 21:40:51.
