data_PCOD8056630
_publ_section_title
;
Structure prediction by ZEFSAII (Michael W. Deem and Ramdas Pophale) SiO2 
 PCOD8056630
Probable space group: C C
;
_chemical_formula_sum "Si O2"
_cell_formula_units_Z 20
_cell_length_a 7.544964
_cell_length_b 6.484280
_cell_length_c 18.477181
_cell_angle_alpha 90.000000
_cell_angle_beta 132.161873
_cell_angle_gamma 90.000000
_cell_volume 670.070017
_symmetry_space_group_name_H-M "C C"
_symmetry_group_IT_number 9
_symmetry_cell_setting 'monoclinic'
loop_
_space_group_symop_operation_xyz
x,y,z
x,-y,1/2+z
1/2+x,1/2+y,z
1/2+x,1/2-y,1/2+z
loop_
_atom_site_type_symbol
_atom_site_label
_atom_site_fract_x
_atom_site_fract_y
_atom_site_fract_z
Si Si1 0.768320 0.615625 0.969830
Si Si2 0.576075 0.717074 0.134354
Si Si3 0.506899 0.730872 0.659802
Si Si4 0.720628 0.048347 0.813168
Si Si5 0.118084 0.579048 0.941578
O O1 0.504626 0.520205 0.905330
O O2 0.872564 0.564606 0.919232
O O3 0.749761 0.860467 0.976794
O O4 0.962736 0.576870 0.089164
O O5 0.627319 0.469672 0.156849
O O6 0.636374 0.788381 0.231442
O O7 0.745350 0.821739 0.120851
O O8 0.302604 0.747549 0.028091
O O9 0.655534 0.817974 0.768909
O O10 0.580113 0.126351 0.846140
#
# Coordination Sequence:
#
# PCOD8056630 Si02
#       5
#     4   4   4   4   4
#     4  11  28  54  80 119 171 220 282 350 424 505
#     4  11  28  52  82 123 167 222 281 355 420 506
#     4  11  28  52  82 123 167 222 281 355 420 506
#     4  12  28  52  88 122 166 226 286 342 436 498
#     4  11  28  54  80 119 171 220 282 350 424 505
#
# _framework density 29.847625000000001
#
# number of rings (size 3 to 8) (size 9 to 14) (size 15 to 20)
#    0.000    0.800    2.000    1.200   11.200   11.200 
#    0.000    4.000    0.000    0.000    0.000    0.000 
#    0.000    0.000    0.000    0.000    0.000    0.000 
#
# Total GULP energy -124000.490501 kJ/mol
# GULP energy per Si atom -12400.049050 kJ/mol
# Density = 2.977969 g / cm^3
# Si number density = 29.847625 Si / 1000 Ang^3
#
#
#
# Elastic Constant Matrix: (Units=GPa)
#
#
# Indices 1 2 3 4 5 6 
#
# 1 184.8623 4.9633 41.5746 0.0000 -36.4933 0.0000
# 2 4.9633 13.5428 19.7240 0.0000 -4.1353 0.0000
# 3 41.5746 19.7240 170.1711 0.0000 -27.5633 0.0000
# 4 0.0000 0.0000 0.0000 52.0396 0.0000 -0.7011
# 5 -36.4933 -4.1353 -27.5633 0.0000 54.5976 0.0000
# 6 0.0000 0.0000 0.0000 -0.7011 0.0000 42.3490
#
#
#
# Elastic Compliance Matrix: (Units=1/GPa)
#
#
# Indices 1 2 3 4 5 6 
#
# 1 0.006368 0.000234 -0.000970 0.000000 0.003785 0.000000
# 2 0.000234 0.088985 -0.010078 0.000000 0.001809 0.000000
# 3 -0.000970 -0.010078 0.007681 0.000000 0.002466 0.000000
# 4 0.000000 0.000000 0.000000 0.019220 0.000000 0.000318
# 5 0.003785 0.001809 0.002466 0.000000 0.022227 0.000000
# 6 0.000000 0.000000 0.000000 0.000318 0.000000 0.023619
#
#
# Mechanical properties :
#
#
# Convention : Reuss Voigt Hill
#
# Bulk Modulus (GPa) = 12.28406 55.67779 33.98092
# Shear Modulus (GPa) = 23.05597 49.95151 36.50374
#
# Velocity S-wave (km/s) = 2.78232 4.09534 3.50094
# Velocity P-wave (km/s) = 3.80083 6.40757 5.26798
#
# Compressibility (1/GPa) = 0.08140633
#
# Stress axis : x y z
#
# Youngs Moduli (GPa) = 157.02467 11.23790 130.19155
#
# Poissons Ratio (x) = -0.00263 0.12629
# Poissons Ratio (y) = -0.03681 1.31210
# Poissons Ratio (z) = 0.15232 0.11326
#
# Static dielectric constant tensor:
#      x y z
#    x 5.421730 0.000000 -0.602320 
#    y 0.000000 5.846040 0.000000 
#    z -0.602320 0.000000 6.389270 
# 
# 
# High freq. dielectric constant tensor:
#      x y z
#    x 2.207630 0.000000 -0.009190 
#    y 0.000000 2.254200 0.000000 
#    z -0.009190 0.000000 2.252550 
# 
# From -- ./inp_files/32347.got.cif
#   From: 2010.06.25/outbox.cif.g09.slc.cpg/sg9_17_cif.got.tgz:32347.got - 2010.06.27 21:40:51.
