data_PCOD8056201
_publ_section_title
;
Structure prediction by ZEFSAII (Michael W. Deem and Ramdas Pophale) SiO2 
 PCOD8056201
Probable space group: C C
;
_chemical_formula_sum "Si O2"
_cell_formula_units_Z 32
_cell_length_a 25.750685
_cell_length_b 11.666506
_cell_length_c 14.090594
_cell_angle_alpha 90.000000
_cell_angle_beta 19.962270
_cell_angle_gamma 90.000000
_cell_volume 1445.186941
_symmetry_space_group_name_H-M "C C"
_symmetry_group_IT_number 9
_symmetry_cell_setting 'monoclinic'
loop_
_space_group_symop_operation_xyz
x,y,z
x,-y,1/2+z
1/2+x,1/2+y,z
1/2+x,1/2-y,1/2+z
loop_
_atom_site_type_symbol
_atom_site_label
_atom_site_fract_x
_atom_site_fract_y
_atom_site_fract_z
Si Si1 0.332150 0.137164 0.686800
Si Si2 0.169043 0.226013 0.427709
Si Si3 0.708983 0.868573 0.837499
Si Si4 0.339718 0.569554 0.716952
Si Si5 0.597164 0.693209 0.758287
Si Si6 0.350732 0.335722 0.396985
Si Si7 0.160217 0.052726 0.160404
Si Si8 0.375597 0.064594 0.966927
O O1 0.215291 0.232766 0.848797
O O2 0.474067 0.206724 0.489063
O O3 0.378363 0.057484 0.517760
O O4 0.259589 0.059343 0.893912
O O5 0.213890 0.357742 0.373517
O O6 0.110163 0.169699 0.624643
O O7 0.026152 0.207222 0.602205
O O8 0.321741 0.161973 0.132181
O O9 0.779423 0.893863 0.613024
O O10 0.816426 0.937248 0.726151
O O11 0.538146 0.911214 0.142308
O O12 0.319483 0.574434 0.865585
O O13 0.506469 0.627506 0.409606
O O14 0.757413 0.722713 0.531105
O O15 0.572363 0.565846 0.839267
O O16 0.259979 0.080247 0.079298
#
# Coordination Sequence:
#
# PCOD8056201 Si02
#       8
#     4   4   4   4   4   4   4   4
#     4  12  25  47  74 104 148 188 240 302 358 433
#     4  11  22  46  70  98 144 189 237 295 358 427
#     4  12  26  47  71 107 145 192 241 302 361 429
#     4  11  25  45  73 106 148 189 245 301 360 435
#     4  11  23  44  70 100 142 190 238 296 354 433
#     4  11  23  46  74 105 142 198 242 291 373 430
#     4  12  24  43  71 105 141 189 241 298 363 425
#     4  12  26  44  71 107 142 187 246 297 357 434
#
# _framework density 22.142464
#
# number of rings (size 3 to 8) (size 9 to 14) (size 15 to 20)
#    0.000    0.500    5.000    3.750    1.750    0.000 
#    2.250    0.000    0.000    0.000    0.000    0.000 
#    0.000    0.000    0.000    0.000    0.000    0.000 
#
# Total GULP energy -198218.586408 kJ/mol
# GULP energy per Si atom -12388.661651 kJ/mol
# Density = 2.209207 g / cm^3
# Si number density = 22.142464 Si / 1000 Ang^3
#
#
#
# Elastic Constant Matrix: (Units=GPa)
#
#
# Indices 1 2 3 4 5 6 
#
# 1 96.3140 36.7702 30.8659 0.0000 -8.2237 0.0000
# 2 36.7702 92.5739 31.6139 0.0000 0.1201 0.0000
# 3 30.8659 31.6139 123.6899 0.0001 -9.9488 0.0000
# 4 0.0000 0.0000 0.0001 32.9953 -0.0001 -1.6551
# 5 -8.2237 0.1201 -9.9488 -0.0001 40.1379 0.0000
# 6 0.0000 0.0000 0.0000 -1.6551 0.0000 19.4714
#
#
#
# Elastic Compliance Matrix: (Units=1/GPa)
#
#
# Indices 1 2 3 4 5 6 
#
# 1 0.012885 -0.004473 -0.001896 0.000000 0.002183 0.000000
# 2 -0.004473 0.013413 -0.002438 0.000000 -0.001561 0.000000
# 3 -0.001896 -0.002438 0.009336 0.000000 0.001933 0.000000
# 4 0.000000 0.000000 0.000000 0.030437 0.000000 0.002587
# 5 0.002183 -0.001561 0.001933 0.000000 0.025845 0.000000
# 6 0.000000 0.000000 0.000000 0.002587 0.000000 0.051577
#
#
# Mechanical properties :
#
#
# Convention : Reuss Voigt Hill
#
# Bulk Modulus (GPa) = 55.49287 56.78642 56.13965
# Shear Modulus (GPa) = 29.91959 32.74277 31.33118
#
# Velocity S-wave (km/s) = 3.67990 3.84960 3.76571
# Velocity P-wave (km/s) = 6.57052 6.74247 6.65705
#
# Compressibility (1/GPa) = 0.01802033
#
# Stress axis : x y z
#
# Youngs Moduli (GPa) = 77.61262 74.55286 107.10676
#
# Poissons Ratio (x) = 0.33347 0.20312
# Poissons Ratio (y) = 0.34715 0.26109
# Poissons Ratio (z) = 0.14718 0.18173
#
# Static dielectric constant tensor:
#      x y z
#    x 4.088060 0.000000 -0.123830 
#    y 0.000000 3.884030 0.000000 
#    z -0.123830 0.000000 4.248960 
# 
# 
# High freq. dielectric constant tensor:
#      x y z
#    x 1.877250 0.000000 -0.012630 
#    y 0.000000 1.861030 0.000000 
#    z -0.012630 0.000000 1.888730 
# 
# From -- ./inp_files/28097.got.cif
#   From: 2010.06.25/outbox.cif.g09.slc.cpg/sg9_15_cif.got.tgz:28097.got - 2010.06.27 21:40:51.
