data_PCOD8056184
_publ_section_title
;
Structure prediction by ZEFSAII (Michael W. Deem and Ramdas Pophale) SiO2 
 PCOD8056184
Probable space group: C C
;
_chemical_formula_sum "Si O2"
_cell_formula_units_Z 32
_cell_length_a 16.730497
_cell_length_b 14.209259
_cell_length_c 8.745712
_cell_angle_alpha 90.000000
_cell_angle_beta 40.850110
_cell_angle_gamma 90.000000
_cell_volume 1359.902946
_symmetry_space_group_name_H-M "C C"
_symmetry_group_IT_number 9
_symmetry_cell_setting 'monoclinic'
loop_
_space_group_symop_operation_xyz
x,y,z
x,-y,1/2+z
1/2+x,1/2+y,z
1/2+x,1/2-y,1/2+z
loop_
_atom_site_type_symbol
_atom_site_label
_atom_site_fract_x
_atom_site_fract_y
_atom_site_fract_z
Si Si1 0.906320 0.400893 0.436260
Si Si2 0.340738 0.400990 0.720605
Si Si3 0.839722 0.289270 0.057131
Si Si4 0.520776 0.793553 0.522967
Si Si5 0.641267 0.609562 0.249891
Si Si6 0.107135 0.086210 0.947727
Si Si7 0.209109 0.549326 0.712732
Si Si8 0.486730 0.062842 0.504891
O O1 0.784267 0.365303 0.529416
O O2 0.888117 0.486226 0.584418
O O3 0.993783 0.441163 0.178006
O O4 0.972651 0.314047 0.421650
O O5 0.299697 0.313209 0.675419
O O6 0.484847 0.388087 0.533720
O O7 0.306087 0.499753 0.686823
O O8 0.278550 0.396789 0.976660
O O9 0.901211 0.289156 0.802000
O O10 0.715818 0.349026 0.227312
O O11 0.944932 0.334097 0.013046
O O12 0.577436 0.690928 0.438247
O O13 0.621118 0.873495 0.425163
O O14 0.633078 0.521146 0.371977
O O15 0.587898 0.595891 0.157850
O O16 0.123240 0.468773 0.758810
#
# Coordination Sequence:
#
# PCOD8056184 Si02
#       8
#     4   4   4   4   4   4   4   4
#     4  11  22  44  76 112 145 191 250 308 371 436
#     4  12  29  49  75 108 156 203 246 309 387 443
#     4  12  27  48  75 115 145 196 255 310 374 453
#     4  11  28  46  79 113 147 198 259 308 377 449
#     4  12  26  47  76 110 151 196 249 316 375 446
#     4  12  29  48  75 109 157 195 250 311 383 448
#     4  11  25  51  74 108 151 197 250 307 373 450
#     4  11  22  45  80 107 146 192 249 311 362 445
#
# _framework density 23.531089999999999
#
# number of rings (size 3 to 8) (size 9 to 14) (size 15 to 20)
#    0.000    0.500    2.500    5.250    8.750    1.000 
#    0.000    0.000    0.000    0.000    0.000    0.000 
#    0.000    0.000    0.000    0.000    0.000    0.000 
#
# Total GULP energy -198399.733316 kJ/mol
# GULP energy per Si atom -12399.983332 kJ/mol
# Density = 2.347753 g / cm^3
# Si number density = 23.531090 Si / 1000 Ang^3
#
#
#
# Elastic Constant Matrix: (Units=GPa)
#
#
# Indices 1 2 3 4 5 6 
#
# 1 121.9779 43.5196 34.4260 0.0000 -8.8176 0.0000
# 2 43.5196 133.3316 51.5846 0.0000 -5.1150 0.0000
# 3 34.4260 51.5846 119.8506 0.0000 -1.8846 0.0000
# 4 0.0000 0.0000 0.0000 38.2360 0.0000 1.6151
# 5 -8.8176 -5.1150 -1.8846 0.0000 36.8849 0.0000
# 6 0.0000 0.0000 0.0000 1.6151 0.0000 36.5271
#
#
#
# Elastic Compliance Matrix: (Units=1/GPa)
#
#
# Indices 1 2 3 4 5 6 
#
# 1 0.009683 -0.002428 -0.001707 0.000000 0.001891 0.000000
# 2 -0.002428 0.009648 -0.003446 0.000000 0.000582 0.000000
# 3 -0.001707 -0.003446 0.010312 0.000000 -0.000359 0.000000
# 4 0.000000 0.000000 0.000000 0.026202 0.000000 -0.001159
# 5 0.001891 0.000582 -0.000359 0.000000 0.027626 0.000000
# 6 0.000000 0.000000 0.000000 -0.001159 0.000000 0.027428
#
#
# Mechanical properties :
#
#
# Convention : Reuss Voigt Hill
#
# Bulk Modulus (GPa) = 69.05383 70.46893 69.76138
# Shear Modulus (GPa) = 38.20106 38.70494 38.45300
#
# Velocity S-wave (km/s) = 4.03355 4.06007 4.04683
# Velocity P-wave (km/s) = 7.14858 7.21048 7.17960
#
# Compressibility (1/GPa) = 0.01448146
#
# Stress axis : x y z
#
# Youngs Moduli (GPa) = 103.27694 103.64784 96.97866
#
# Poissons Ratio (x) = 0.25162 0.16551
# Poissons Ratio (y) = 0.25072 0.33420
# Poissons Ratio (z) = 0.17626 0.35719
#
# Static dielectric constant tensor:
#      x y z
#    x 4.289120 0.000000 -0.136400 
#    y 0.000000 4.164430 0.000000 
#    z -0.136400 0.000000 4.234530 
# 
# 
# High freq. dielectric constant tensor:
#      x y z
#    x 1.935440 0.000000 -0.003560 
#    y 0.000000 1.931070 0.000000 
#    z -0.003560 0.000000 1.934860 
# 
# From -- ./inp_files/10892.got.cif
#   From: 2010.06.25/outbox.cif.g09.slc.cpg/sg9_6_cif.got.tgz:10892.got - 2010.06.27 21:40:51.
