data_PCOD8056949
_publ_section_title
;
Structure prediction by ZEFSAII (Michael W. Deem and Ramdas Pophale) SiO2 
 PCOD8056949
Probable space group: P 2/M
;
_chemical_formula_sum "Si O2"
_cell_formula_units_Z 28
_cell_length_a 18.863953
_cell_length_b 9.208194
_cell_length_c 17.888492
_cell_angle_alpha 90.000000
_cell_angle_beta 147.867488
_cell_angle_gamma 90.000000
_cell_volume 1652.699489
_symmetry_space_group_name_H-M "P 2/M"
_symmetry_group_IT_number 10
_symmetry_cell_setting 'monoclinic'
loop_
_space_group_symop_operation_xyz
x,y,z
-x,y,-z
-x,-y,-z
x,-y,z
loop_
_atom_site_type_symbol
_atom_site_label
_atom_site_fract_x
_atom_site_fract_y
_atom_site_fract_z
Si Si1 0.164136 0.832520 0.009133
Si Si2 0.772750 0.834817 0.093603
Si Si3 0.348615 0.669474 0.883619
Si Si4 0.857564 0.169301 0.402829
Si Si5 0.083592 0.833088 0.378006
Si Si6 0.155157 0.838653 0.160493
Si Si7 0.106722 0.328797 0.255469
O O1 0.233236 0.801564 0.151847
O O2 0.109539 0.000000 0.959453
O O3 0.263020 0.811799 0.026680
O O4 0.044101 0.720990 0.891152
O O5 0.681185 0.729721 0.060360
O O6 0.927224 0.796008 0.245762
O O7 0.744327 0.000000 0.092956
O O8 0.318453 0.500000 0.856191
O O9 0.258335 0.743564 0.740633
O O10 0.500000 0.705806 0.000000
O O11 0.845623 0.200685 0.480348
O O12 0.000000 0.223885 0.500000
O O13 0.840130 0.000000 0.368517
O O14 0.155536 0.736600 0.378378
O O15 0.100901 0.000000 0.370268
O O16 0.193259 0.729878 0.261930
O O17 0.192309 0.000000 0.221035
O O18 0.000000 0.827836 0.000000
O O19 0.119473 0.500000 0.269375
#
# Coordination Sequence:
#
# PCOD8056949 Si02
#       7
#     4   4   4   4   4   4   4
#     4   8  15  26  39  55  79 114 153 192 232 275
#     4   9  16  30  49  67  88 118 159 202 238 278
#     4  11  24  37  48  69 102 133 159 193 241 293
#     4  10  19  35  56  75  92 118 162 209 244 282
#     4   9  17  30  47  66  90 117 151 196 241 281
#     4   8  13  23  36  50  76 116 153 183 226 275
#     4  10  17  22  33  57  88 118 150 185 224 274
#
# _framework density 16.941979
#
# number of rings (size 3 to 8) (size 9 to 14) (size 15 to 20)
#    0.000    2.714    1.429    3.429    0.000    6.857 
#    0.000    0.000    0.000    0.000    0.000    0.000 
#    0.000    1.143    0.000   12.857    0.000    8.857 
#
# Total GULP energy -346969.419303 kJ/mol
# GULP energy per Si atom -12391.764975 kJ/mol
# Density = 1.690342 g / cm^3
# Si number density = 16.941979 Si / 1000 Ang^3
#
#
#
# Elastic Constant Matrix: (Units=GPa)
#
#
# Indices 1 2 3 4 5 6 
#
# 1 126.1523 67.9126 58.6452 0.0000 -38.7727 0.0000
# 2 67.9126 100.7657 48.0415 0.0000 -16.6674 0.0000
# 3 58.6452 48.0415 58.5405 0.0000 -14.4463 0.0000
# 4 0.0000 0.0000 0.0000 13.7434 0.0000 2.3195
# 5 -38.7727 -16.6674 -14.4463 0.0000 25.2519 0.0000
# 6 0.0000 0.0000 0.0000 2.3195 0.0000 13.6741
#
#
#
# Elastic Compliance Matrix: (Units=1/GPa)
#
#
# Indices 1 2 3 4 5 6 
#
# 1 0.027221 -0.006501 -0.014764 0.000000 0.029059 0.000000
# 2 -0.006501 0.018144 -0.009182 0.000000 -0.003258 0.000000
# 3 -0.014764 -0.009182 0.037630 0.000000 -0.007202 0.000000
# 4 0.000000 0.000000 0.000000 0.074907 0.000000 -0.012706
# 5 0.029059 -0.003258 -0.007202 0.000000 0.077949 0.000000
# 6 0.000000 0.000000 0.000000 -0.012706 0.000000 0.075286
#
#
# Mechanical properties :
#
#
# Convention : Reuss Voigt Hill
#
# Bulk Modulus (GPa) = 45.24287 70.51744 57.88016
# Shear Modulus (GPa) = 13.17880 17.92451 15.55165
#
# Velocity S-wave (km/s) = 2.79207 3.25621 3.03303
# Velocity P-wave (km/s) = 6.09564 7.47332 6.81936
#
# Compressibility (1/GPa) = 0.02210293
#
# Stress axis : x y z
#
# Youngs Moduli (GPa) = 36.73595 55.11569 26.57432
#
# Poissons Ratio (x) = 0.35828 0.39235
# Poissons Ratio (y) = 0.23880 0.24399
# Poissons Ratio (z) = 0.54237 0.50604
#
# Static dielectric constant tensor:
#      x y z
#    x 3.582650 0.000000 -0.578630 
#    y 0.000000 3.073760 0.000000 
#    z -0.578630 0.000000 2.831980 
# 
# 
# High freq. dielectric constant tensor:
#      x y z
#    x 1.657700 0.000000 -0.052620 
#    y 0.000000 1.647450 0.000000 
#    z -0.052620 0.000000 1.596250 
# 
# From -- ./inp_files/38037.got.cif
#   From: 2010.06.25/outbox.cif.g09.slc.cpg/sg10_20_cif.got.tgz:38037.got - 2010.06.27 22:07:45.
