data_PCOD8056938
_publ_section_title
;
Structure prediction by ZEFSAII (Michael W. Deem and Ramdas Pophale) SiO2 
 PCOD8056938
Probable space group: P 2/M
;
_chemical_formula_sum "Si O2"
_cell_formula_units_Z 24
_cell_length_a 9.534667
_cell_length_b 8.058180
_cell_length_c 32.526923
_cell_angle_alpha 90.000000
_cell_angle_beta 149.822176
_cell_angle_gamma 90.000000
_cell_volume 1256.266400
_symmetry_space_group_name_H-M "P 2/M"
_symmetry_group_IT_number 10
_symmetry_cell_setting 'monoclinic'
loop_
_space_group_symop_operation_xyz
x,y,z
-x,y,-z
-x,-y,-z
x,-y,z
loop_
_atom_site_type_symbol
_atom_site_label
_atom_site_fract_x
_atom_site_fract_y
_atom_site_fract_z
Si Si1 0.341623 0.686021 0.917096
Si Si2 0.938790 0.000000 0.437680
Si Si3 0.261741 0.312513 0.659320
Si Si4 0.835885 0.191054 0.833169
Si Si5 0.449396 0.000000 0.439210
Si Si6 0.131972 0.195445 0.991163
Si Si7 0.230867 0.679259 0.403232
O O1 0.255704 0.500000 0.883615
O O2 0.542095 0.754532 0.931593
O O3 0.058723 0.791229 0.852161
O O4 0.500000 0.695290 0.000000
O O5 0.773526 0.831918 0.383618
O O6 0.000000 0.000000 0.500000
O O7 0.246015 0.000000 0.499556
O O8 0.219359 0.500000 0.630396
O O9 0.568516 0.302306 0.756110
O O10 0.041017 0.278664 0.639266
O O11 0.746587 0.000000 0.814165
O O12 0.958979 0.259187 0.907680
O O13 0.500000 0.000000 0.500000
O O14 0.277846 0.167787 0.383081
O O15 0.115158 0.000000 0.988743
O O16 0.000000 0.270605 0.000000
O O17 0.500000 0.665936 0.500000
O O18 0.193400 0.500000 0.371023
#
# Coordination Sequence:
#
# PCOD8056938 Si02
#       7
#     4   2   4   4   2   4   4
#     4   9  17  30  49  75 105 144 190 226 263 324
#     4  12  24  38  58  86 114 142 186 229 287 337
#     4  11  21  36  58  84 113 144 186 235 279 329
#     4  10  19  32  56  81 107 146 188 228 271 327
#     4  10  16  32  58  78 102 136 177 225 257 328
#     4   9  18  33  54  81 113 144 182 227 275 324
#     4   9  16  28  53  81 102 134 182 226 264 315
#
# _framework density 19.104229
#
# number of rings (size 3 to 8) (size 9 to 14) (size 15 to 20)
#    0.000    2.167    4.167    1.000    0.000    3.333 
#    0.000    0.000    3.667    0.000    0.000    0.000 
#    0.000    0.000    0.000    0.000    0.000    0.000 
#
# Total GULP energy -297334.300625 kJ/mol
# GULP energy per Si atom -12388.929193 kJ/mol
# Density = 1.906075 g / cm^3
# Si number density = 19.104229 Si / 1000 Ang^3
#
#
#
# Elastic Constant Matrix: (Units=GPa)
#
#
# Indices 1 2 3 4 5 6 
#
# 1 115.0438 18.5502 49.0943 0.0000 17.4033 0.0000
# 2 18.5502 120.8454 34.4705 0.0000 -1.2238 0.0000
# 3 49.0943 34.4705 77.0263 0.0000 19.9502 0.0000
# 4 0.0000 0.0000 0.0000 26.0349 0.0000 15.8207
# 5 17.4033 -1.2238 19.9502 0.0000 26.8304 0.0000
# 6 0.0000 0.0000 0.0000 15.8207 0.0000 25.9230
#
#
#
# Elastic Compliance Matrix: (Units=1/GPa)
#
#
# Indices 1 2 3 4 5 6 
#
# 1 0.012088 0.000147 -0.007111 0.000000 -0.002547 0.000000
# 2 0.000147 0.009936 -0.005738 0.000000 0.004624 0.000000
# 3 -0.007111 -0.005738 0.023477 0.000000 -0.013106 0.000000
# 4 0.000000 0.000000 0.000000 0.061051 0.000000 -0.037259
# 5 -0.002547 0.004624 -0.013106 0.000000 0.048879 0.000000
# 6 0.000000 0.000000 0.000000 -0.037259 0.000000 0.061315
#
#
# Mechanical properties :
#
#
# Convention : Reuss Voigt Hill
#
# Bulk Modulus (GPa) = 49.75644 57.46062 53.60853
# Shear Modulus (GPa) = 20.09238 29.81105 24.95171
#
# Velocity S-wave (km/s) = 3.24655 3.95453 3.61790
# Velocity P-wave (km/s) = 6.33677 7.14099 6.75087
#
# Compressibility (1/GPa) = 0.02009790
#
# Stress axis : x y z
#
# Youngs Moduli (GPa) = 82.72339 100.64384 42.59450
#
# Poissons Ratio (x) = -0.01479 0.30289
# Poissons Ratio (y) = -0.01215 0.24440
# Poissons Ratio (z) = 0.58824 0.57749
#
# Static dielectric constant tensor:
#      x y z
#    x 3.120790 0.000000 -0.319050 
#    y 0.000000 4.064390 0.000000 
#    z -0.319050 0.000000 2.171320 
# 
# 
# High freq. dielectric constant tensor:
#      x y z
#    x 1.724060 0.000000 0.044740 
#    y 0.000000 1.762890 0.000000 
#    z 0.044740 0.000000 1.705680 
# 
# From -- ./inp_files/80144.got.cif
#   From: 2010.06.25/outbox.cif.g09.slc.cpg/sg10_41_cif.got.tgz:80144.got - 2010.06.27 22:07:45.
