data_PCOD8056325
_publ_section_title
;
Structure prediction by ZEFSAII (Michael W. Deem and Ramdas Pophale) SiO2 
 PCOD8056325
Probable space group: C C
;
_chemical_formula_sum "Si O2"
_cell_formula_units_Z 24
_cell_length_a 11.496529
_cell_length_b 8.865793
_cell_length_c 10.400044
_cell_angle_alpha 90.000000
_cell_angle_beta 69.164542
_cell_angle_gamma 90.000000
_cell_volume 990.713190
_symmetry_space_group_name_H-M "C C"
_symmetry_group_IT_number 9
_symmetry_cell_setting 'monoclinic'
loop_
_space_group_symop_operation_xyz
x,y,z
x,-y,1/2+z
1/2+x,1/2+y,z
1/2+x,1/2-y,1/2+z
loop_
_atom_site_type_symbol
_atom_site_label
_atom_site_fract_x
_atom_site_fract_y
_atom_site_fract_z
Si Si1 0.402100 0.373791 0.153180
Si Si2 0.656074 0.784917 0.549184
Si Si3 0.482136 0.452088 0.378134
Si Si4 0.419188 0.133971 0.466203
Si Si5 0.017659 0.454980 0.194082
Si Si6 0.659044 0.288035 0.767558
O O1 0.536854 0.310297 0.138705
O O2 0.383992 0.464916 0.295859
O O3 0.303559 0.236048 0.170405
O O4 0.405141 0.475053 0.025879
O O5 0.779217 0.694218 0.534884
O O6 0.643867 0.810811 0.401911
O O7 0.643633 0.943881 0.629456
O O8 0.509757 0.278077 0.406537
O O9 0.614688 0.538554 0.303216
O O10 0.446532 0.045333 0.586467
O O11 0.428410 0.019701 0.341706
O O12 0.063188 0.285919 0.204798
#
# Coordination Sequence:
#
# PCOD8056325 Si02
#       6
#     4   4   4   4   4   4
#     4  11  24  44  75 105 150 193 247 303 373 440
#     4  11  23  46  76 103 156 193 245 317 358 450
#     4  11  24  47  73 110 144 201 239 312 373 441
#     4  12  26  49  78 109 156 195 259 306 383 444
#     4  12  25  48  76 115 147 206 248 313 380 444
#     4  11  24  44  76 108 149 194 252 303 377 443
#
# _framework density 24.224971
#
# number of rings (size 3 to 8) (size 9 to 14) (size 15 to 20)
#    0.000    0.667    5.000    2.000    0.000    4.000 
#    0.000    1.667    0.000    0.000    0.000    0.000 
#    0.000    0.000    0.000    0.000    0.000    0.000 
#
# Total GULP energy -148701.755283 kJ/mol
# GULP energy per Si atom -12391.812940 kJ/mol
# Density = 2.416983 g / cm^3
# Si number density = 24.224971 Si / 1000 Ang^3
#
#
#
# Elastic Constant Matrix: (Units=GPa)
#
#
# Indices 1 2 3 4 5 6 
#
# 1 121.6978 47.2207 58.1076 0.0000 -2.4627 0.0000
# 2 47.2207 103.6686 46.2707 0.0000 -5.0154 0.0000
# 3 58.1076 46.2707 138.2523 0.0000 26.5895 0.0000
# 4 0.0000 0.0000 0.0000 43.4369 0.0000 -5.9988
# 5 -2.4627 -5.0154 26.5895 0.0000 33.1203 0.0000
# 6 0.0000 0.0000 0.0000 -5.9988 0.0000 43.0768
#
#
#
# Elastic Compliance Matrix: (Units=1/GPa)
#
#
# Indices 1 2 3 4 5 6 
#
# 1 0.011736 -0.003032 -0.004727 0.000000 0.004209 0.000000
# 2 -0.003032 0.013088 -0.004073 0.000000 0.005026 0.000000
# 3 -0.004727 -0.004073 0.012736 0.000000 -0.011193 0.000000
# 4 0.000000 0.000000 0.000000 0.023473 0.000000 0.003269
# 5 0.004209 0.005026 -0.011193 0.000000 0.040253 0.000000
# 6 0.000000 0.000000 0.000000 0.003269 0.000000 0.023670
#
#
# Mechanical properties :
#
#
# Convention : Reuss Voigt Hill
#
# Bulk Modulus (GPa) = 71.96432 74.09076 73.02754
# Shear Modulus (GPa) = 32.62621 38.06144 35.34382
#
# Velocity S-wave (km/s) = 3.67386 3.96809 3.82381
# Velocity P-wave (km/s) = 6.91140 7.18646 7.05027
#
# Compressibility (1/GPa) = 0.01389578
#
# Stress axis : x y z
#
# Youngs Moduli (GPa) = 85.20874 76.40504 78.51968
#
# Poissons Ratio (x) = 0.23167 0.37118
# Poissons Ratio (y) = 0.25837 0.31978
# Poissons Ratio (z) = 0.40280 0.31117
#
# Static dielectric constant tensor:
#      x y z
#    x 4.149400 0.000000 -0.034300 
#    y 0.000000 4.276160 0.000000 
#    z -0.034300 0.000000 4.797990 
# 
# 
# High freq. dielectric constant tensor:
#      x y z
#    x 1.944780 0.000000 0.002680 
#    y 0.000000 1.951820 0.000000 
#    z 0.002680 0.000000 1.986870 
# 
# From -- ./inp_files/15859.got.cif
#   From: 2010.06.25/outbox.cif.g09.slc.cpg/sg9_8_cif.got.tgz:15859.got - 2010.06.27 21:40:51.
