data_PCOD8056649
_publ_section_title
;
Structure prediction by ZEFSAII (Michael W. Deem and Ramdas Pophale) SiO2 
 PCOD8056649
Probable space group: C C
;
_chemical_formula_sum "Si O2"
_cell_formula_units_Z 24
_cell_length_a 9.764481
_cell_length_b 17.124699
_cell_length_c 9.539986
_cell_angle_alpha 90.000000
_cell_angle_beta 44.491996
_cell_angle_gamma 90.000000
_cell_volume 1117.943623
_symmetry_space_group_name_H-M "C C"
_symmetry_group_IT_number 9
_symmetry_cell_setting 'monoclinic'
loop_
_space_group_symop_operation_xyz
x,y,z
x,-y,1/2+z
1/2+x,1/2+y,z
1/2+x,1/2-y,1/2+z
loop_
_atom_site_type_symbol
_atom_site_label
_atom_site_fract_x
_atom_site_fract_y
_atom_site_fract_z
Si Si1 0.045590 0.672482 0.673570
Si Si2 0.424788 0.581517 0.362047
Si Si3 0.184804 0.846935 0.906961
Si Si4 0.608582 0.337536 0.478303
Si Si5 0.462107 0.404343 0.312391
Si Si6 0.089509 0.325531 0.471470
O O1 0.198722 0.606503 0.516702
O O2 0.094435 0.752443 0.557489
O O3 0.833751 0.642691 0.781180
O O4 0.045853 0.684771 0.839734
O O5 0.528370 0.634210 0.401912
O O6 0.443568 0.490985 0.388019
O O7 0.524613 0.595899 0.140099
O O8 0.402445 0.859203 0.690127
O O9 0.146431 0.759114 0.988174
O O10 0.146437 0.900710 0.071090
O O11 0.490217 0.343425 0.419196
O O12 0.266996 0.384442 0.367886
#
# Coordination Sequence:
#
# PCOD8056649 Si02
#       6
#     4   4   4   4   4   4
#     4  12  23  46  77  99 136 193 241 273 348 433
#     4  12  25  48  72 104 145 185 230 291 356 418
#     4  12  23  45  77 100 138 188 240 279 345 426
#     4  12  26  44  73 109 137 185 236 295 343 415
#     4  12  30  43  71 111 147 171 234 310 350 392
#     4  12  23  46  78 101 129 198 243 276 338 436
#
# _framework density 21.467987999999998
#
# number of rings (size 3 to 8) (size 9 to 14) (size 15 to 20)
#    0.000    0.000    8.333    1.000    2.333    4.000 
#    0.000    0.000    0.000    0.000    0.000    0.000 
#    0.000    0.000    0.000    0.000    0.000    0.000 
#
# Total GULP energy -148867.724497 kJ/mol
# GULP energy per Si atom -12405.643708 kJ/mol
# Density = 2.141913 g / cm^3
# Si number density = 21.467988 Si / 1000 Ang^3
#
#
#
# Elastic Constant Matrix: (Units=GPa)
#
#
# Indices 1 2 3 4 5 6 
#
# 1 83.5763 21.1061 51.0732 0.0000 -0.6294 0.0000
# 2 21.1061 92.8503 53.5980 0.0000 -7.7241 0.0000
# 3 51.0732 53.5980 141.1815 0.0000 -13.7761 0.0000
# 4 0.0000 0.0000 0.0000 29.2564 0.0000 2.1296
# 5 -0.6294 -7.7241 -13.7761 0.0000 43.3983 0.0000
# 6 0.0000 0.0000 0.0000 2.1296 0.0000 18.9347
#
#
#
# Elastic Compliance Matrix: (Units=1/GPa)
#
#
# Indices 1 2 3 4 5 6 
#
# 1 0.015481 -0.000423 -0.005599 0.000000 -0.001628 0.000000
# 2 -0.000423 0.013832 -0.005014 0.000000 0.000864 0.000000
# 3 -0.005599 -0.005014 0.011266 0.000000 0.002603 0.000000
# 4 0.000000 0.000000 0.000000 0.034463 0.000000 -0.003876
# 5 -0.001628 0.000864 0.002603 0.000000 0.023999 0.000000
# 6 0.000000 0.000000 0.000000 -0.003876 0.000000 0.053249
#
#
# Mechanical properties :
#
#
# Convention : Reuss Voigt Hill
#
# Bulk Modulus (GPa) = 54.02943 63.24029 58.63486
# Shear Modulus (GPa) = 27.69620 31.10660 29.40140
#
# Velocity S-wave (km/s) = 3.59572 3.81067 3.70475
# Velocity P-wave (km/s) = 6.51621 6.99167 6.75812
#
# Compressibility (1/GPa) = 0.01850843
#
# Stress axis : x y z
#
# Youngs Moduli (GPa) = 64.59561 72.29411 88.76291
#
# Poissons Ratio (x) = 0.03055 0.49696
# Poissons Ratio (y) = 0.02730 0.44507
# Poissons Ratio (z) = 0.36165 0.36249
#
# Static dielectric constant tensor:
#      x y z
#    x 3.845610 0.000000 -0.072540 
#    y 0.000000 3.635900 0.000000 
#    z -0.072540 0.000000 4.218860 
# 
# 
# High freq. dielectric constant tensor:
#      x y z
#    x 1.840730 0.000000 -0.002710 
#    y 0.000000 1.829900 0.000000 
#    z -0.002710 0.000000 1.861900 
# 
# From -- ./inp_files/5173.got.cif
#   From: 2010.06.25/outbox.cif.g09.slc.cpg/sg9_3_cif.got.tgz:5173.got - 2010.06.27 21:40:51.
