data_PCOD8056998
_publ_section_title
;
Structure prediction by ZEFSAII (Michael W. Deem and Ramdas Pophale) SiO2 
 PCOD8056998
Probable space group: P 2/M
;
_chemical_formula_sum "Si O2"
_cell_formula_units_Z 32
_cell_length_a 14.261675
_cell_length_b 9.470078
_cell_length_c 16.257062
_cell_angle_alpha 90.000000
_cell_angle_beta 98.544431
_cell_angle_gamma 90.000000
_cell_volume 2171.295565
_symmetry_space_group_name_H-M "P 2/M"
_symmetry_group_IT_number 10
_symmetry_cell_setting 'monoclinic'
loop_
_space_group_symop_operation_xyz
x,y,z
-x,y,-z
-x,-y,-z
x,-y,z
loop_
_atom_site_type_symbol
_atom_site_label
_atom_site_fract_x
_atom_site_fract_y
_atom_site_fract_z
Si Si1 0.880316 0.163859 0.840489
Si Si2 0.042548 0.343909 0.914485
Si Si3 0.270261 0.160511 0.310631
Si Si4 0.217167 0.336791 0.030937
Si Si5 0.454624 0.833320 0.232792
Si Si6 0.433185 0.337214 0.066907
Si Si7 0.456004 0.340070 0.622448
Si Si8 0.649491 0.658022 0.547447
O O1 0.831535 0.183486 0.745279
O O2 0.813345 0.237896 0.898161
O O3 0.985327 0.233009 0.850568
O O4 0.889976 0.000000 0.865363
O O5 0.032052 0.500000 0.873876
O O6 0.153714 0.303173 0.940898
O O7 0.000000 0.341067 0.000000
O O8 0.352404 0.206569 0.257499
O O9 0.272715 0.246392 0.396408
O O10 0.287150 0.000000 0.338107
O O11 0.200216 0.500000 0.055150
O O12 0.325956 0.307280 0.023470
O O13 0.462208 0.763767 0.144827
O O14 0.538151 0.767509 0.300400
O O15 0.470371 0.000000 0.227275
O O16 0.445509 0.500000 0.096050
O O17 0.500000 0.298400 0.000000
O O18 0.438406 0.500000 0.651867
O O19 0.371176 0.292838 0.549326
O O20 0.552870 0.334268 0.585063
O O21 0.689978 0.500000 0.551840
#
# Coordination Sequence:
#
# PCOD8056998 Si02
#       8
#     4   4   4   4   4   4   4   4
#     4  10  17  25  37  56  79 102 129 159 189 227
#     4   8  15  26  38  54  73  95 125 157 192 231
#     4   9  17  25  34  52  79 104 128 157 189 226
#     4   9  17  29  42  54  72  97 126 163 200 235
#     4  10  18  28  40  55  74 100 130 161 199 236
#     4  10  20  32  45  59  74  98 133 170 207 240
#     4   8  14  25  38  53  72  95 127 162 190 223
#     4   8  14  23  36  53  72  97 129 159 187 220
#
# _framework density 14.737746
#
# number of rings (size 3 to 8) (size 9 to 14) (size 15 to 20)
#    0.000    3.000    1.250    2.250    0.000    4.500 
#    0.000    2.500    0.000    0.000    0.000    0.000 
#    0.000    0.000    0.000    1.125    0.000   23.500 
#
# Total GULP energy -396576.932566 kJ/mol
# GULP energy per Si atom -12393.029143 kJ/mol
# Density = 1.470420 g / cm^3
# Si number density = 14.737746 Si / 1000 Ang^3
#
#
#
# Elastic Constant Matrix: (Units=GPa)
#
#
# Indices 1 2 3 4 5 6 
#
# 1 63.2463 40.6955 46.2818 0.0000 18.7508 0.0000
# 2 40.6955 89.5460 58.7429 0.0000 21.0447 0.0000
# 3 46.2818 58.7429 83.8340 0.0000 26.0175 0.0000
# 4 0.0000 0.0000 0.0000 22.6826 0.0000 7.7411
# 5 18.7508 21.0447 26.0175 0.0000 20.2850 0.0000
# 6 0.0000 0.0000 0.0000 7.7411 0.0000 15.5529
#
#
#
# Elastic Compliance Matrix: (Units=1/GPa)
#
#
# Indices 1 2 3 4 5 6 
#
# 1 0.028558 -0.004340 -0.009851 0.000000 -0.009261 0.000000
# 2 -0.004340 0.021608 -0.011683 0.000000 -0.003420 0.000000
# 3 -0.009851 -0.011683 0.031507 0.000000 -0.019184 0.000000
# 4 0.000000 0.000000 0.000000 0.053108 0.000000 -0.026433
# 5 -0.009261 -0.003420 -0.019184 0.000000 0.086012 0.000000
# 6 0.000000 0.000000 0.000000 -0.026433 0.000000 0.077453
#
#
# Mechanical properties :
#
#
# Convention : Reuss Voigt Hill
#
# Bulk Modulus (GPa) = 33.41723 58.67408 46.04566
# Shear Modulus (GPa) = 13.89012 17.76451 15.82731
#
# Velocity S-wave (km/s) = 3.07332 3.47562 3.28064
# Velocity P-wave (km/s) = 5.94286 7.48366 6.75732
#
# Compressibility (1/GPa) = 0.02992469
#
# Stress axis : x y z
#
# Youngs Moduli (GPa) = 35.01678 46.27897 31.73910
#
# Poissons Ratio (x) = 0.20085 0.31265
# Poissons Ratio (y) = 0.15197 0.37082
# Poissons Ratio (z) = 0.34494 0.54070
#
# Static dielectric constant tensor:
#      x y z
#    x 2.826490 0.000000 0.476960 
#    y 0.000000 2.944530 0.000000 
#    z 0.476960 0.000000 2.805050 
# 
# 
# High freq. dielectric constant tensor:
#      x y z
#    x 1.525280 0.000000 0.045810 
#    y 0.000000 1.570830 0.000000 
#    z 0.045810 0.000000 1.536020 
# 
# From -- ./inp_files/66100.got.cif
#   From: 2010.06.25/outbox.cif.g09.slc.cpg/sg10_34_cif.got.tgz:66100.got - 2010.06.27 22:07:45.
