data_PCOD8056821
_publ_section_title
;
Structure prediction by ZEFSAII (Michael W. Deem and Ramdas Pophale) SiO2 
 PCOD8056821
Probable space group: P 2/M
;
_chemical_formula_sum "Si O2"
_cell_formula_units_Z 32
_cell_length_a 21.604454
_cell_length_b 9.014936
_cell_length_c 21.621158
_cell_angle_alpha 90.000000
_cell_angle_beta 154.653593
_cell_angle_gamma 90.000000
_cell_volume 1802.685500
_symmetry_space_group_name_H-M "P 2/M"
_symmetry_group_IT_number 10
_symmetry_cell_setting 'monoclinic'
loop_
_space_group_symop_operation_xyz
x,y,z
-x,y,-z
-x,-y,-z
x,-y,z
loop_
_atom_site_type_symbol
_atom_site_label
_atom_site_fract_x
_atom_site_fract_y
_atom_site_fract_z
Si Si1 0.379890 0.176135 0.822049
Si Si2 0.881667 0.173898 0.942307
Si Si3 0.571360 0.164643 0.266428
Si Si4 0.688098 0.677591 0.124020
Si Si5 0.237804 0.831327 0.926986
Si Si6 0.824548 0.332035 0.011089
Si Si7 0.510258 0.334407 0.325807
Si Si8 0.441992 0.826026 0.382639
O O1 0.332063 0.203754 0.707292
O O2 0.265948 0.249136 0.767878
O O3 0.400908 0.000000 0.853060
O O4 0.528243 0.264055 0.966057
O O5 0.912729 0.256985 0.034777
O O6 0.725807 0.217501 0.774287
O O7 0.892638 0.000000 0.965589
O O8 0.000000 0.227386 0.000000
O O9 0.605504 0.271518 0.354861
O O10 0.607329 0.000000 0.322301
O O11 0.405442 0.174100 0.095925
O O12 0.694675 0.500000 0.132549
O O13 0.791069 0.738774 0.162207
O O14 0.185276 0.000000 0.870145
O O15 0.144826 0.756826 0.897984
O O16 0.878204 0.500000 0.067885
O O17 0.656039 0.325426 0.843262
O O18 0.563034 0.500000 0.385739
O O19 0.535470 0.243858 0.411512
O O20 0.500000 0.762754 0.500000
O O21 0.466363 0.000000 0.400369
#
# Coordination Sequence:
#
# PCOD8056821 Si02
#       8
#     4   4   4   4   4   4   4   4
#     4   9  15  22  29  38  55  82 115 150 189 231
#     4   9  17  29  44  61  81 105 133 164 199 240
#     4   8  14  22  32  44  60  85 117 152 188 228
#     4  10  16  20  27  40  58  81 112 152 193 230
#     4   9  15  23  33  44  61  87 118 152 190 231
#     4   9  16  25  37  54  73  93 121 157 195 233
#     4   9  16  24  36  53  72  93 119 155 195 233
#     4   9  17  29  44  60  79 104 133 164 198 237
#
# _framework density 17.751294000000001
#
# number of rings (size 3 to 8) (size 9 to 14) (size 15 to 20)
#    0.000    3.000    0.000    4.125    0.000    7.000 
#    0.000    0.000    0.000    0.000    0.000    0.000 
#    0.000    0.000    0.000    0.000    0.000    1.250 
#
# Total GULP energy -396533.511947 kJ/mol
# GULP energy per Si atom -12391.672248 kJ/mol
# Density = 1.771089 g / cm^3
# Si number density = 17.751294 Si / 1000 Ang^3
#
#
#
# Elastic Constant Matrix: (Units=GPa)
#
#
# Indices 1 2 3 4 5 6 
#
# 1 204.4948 88.1565 23.6590 0.0000 -19.9419 0.0000
# 2 88.1565 119.3332 14.2476 0.0000 -9.3973 0.0000
# 3 23.6590 14.2476 11.8626 0.0000 -5.1907 0.0000
# 4 0.0000 0.0000 0.0000 5.3617 0.0000 -2.3262
# 5 -19.9419 -9.3973 -5.1907 0.0000 14.1527 0.0000
# 6 0.0000 0.0000 0.0000 -2.3262 0.0000 27.5861
#
#
#
# Elastic Compliance Matrix: (Units=1/GPa)
#
#
# Indices 1 2 3 4 5 6 
#
# 1 0.008524 -0.004809 -0.008776 0.000000 0.005600 0.000000
# 2 -0.004809 0.012577 -0.005748 0.000000 -0.000533 0.000000
# 3 -0.008776 -0.005748 0.121050 0.000000 0.028215 0.000000
# 4 0.000000 0.000000 0.000000 0.193591 0.000000 0.016324
# 5 0.005600 -0.000533 0.028215 0.000000 0.088543 0.000000
# 6 0.000000 0.000000 0.000000 0.016324 0.000000 0.037627
#
#
# Mechanical properties :
#
#
# Convention : Reuss Voigt Hill
#
# Bulk Modulus (GPa) = 9.66308 65.31297 37.48803
# Shear Modulus (GPa) = 9.34458 23.39528 16.36993
#
# Velocity S-wave (km/s) = 2.29687 3.63429 3.04004
# Velocity P-wave (km/s) = 3.53405 7.38133 5.78678
#
# Compressibility (1/GPa) = 0.10348664
#
# Stress axis : x y z
#
# Youngs Moduli (GPa) = 117.30953 79.51319 8.26108
#
# Poissons Ratio (x) = 0.38235 0.07250
# Poissons Ratio (y) = 0.56410 0.04748
# Poissons Ratio (z) = 1.02945 0.45702
#
# Static dielectric constant tensor:
#      x y z
#    x 4.036720 0.000000 -0.225290 
#    y 0.000000 3.353290 0.000000 
#    z -0.225290 0.000000 2.469700 
# 
# 
# High freq. dielectric constant tensor:
#      x y z
#    x 1.716740 0.000000 -0.019250 
#    y 0.000000 1.694610 0.000000 
#    z -0.019250 0.000000 1.579440 
# 
# From -- ./inp_files/56290.got.cif
#   From: 2010.06.25/outbox.cif.g09.slc.cpg/sg10_29_cif.got.tgz:56290.got - 2010.06.27 22:07:45.
