data_PCOD8056336
_publ_section_title
;
Structure prediction by ZEFSAII (Michael W. Deem and Ramdas Pophale) SiO2 
 PCOD8056336
Probable space group: C C
;
_chemical_formula_sum "Si O2"
_cell_formula_units_Z 24
_cell_length_a 16.545292
_cell_length_b 7.196843
_cell_length_c 24.668186
_cell_angle_alpha 90.000000
_cell_angle_beta 158.609340
_cell_angle_gamma 90.000000
_cell_volume 1071.320012
_symmetry_space_group_name_H-M "C C"
_symmetry_group_IT_number 9
_symmetry_cell_setting 'monoclinic'
loop_
_space_group_symop_operation_xyz
x,y,z
x,-y,1/2+z
1/2+x,1/2+y,z
1/2+x,1/2-y,1/2+z
loop_
_atom_site_type_symbol
_atom_site_label
_atom_site_fract_x
_atom_site_fract_y
_atom_site_fract_z
Si Si1 0.971950 0.422257 0.496280
Si Si2 0.964665 0.241279 0.925200
Si Si3 0.922215 0.224270 0.301504
Si Si4 0.769425 0.437577 0.478888
Si Si5 0.420522 0.155905 0.273809
Si Si6 0.230278 0.619749 0.296505
O O1 0.887967 0.556302 0.396301
O O2 0.910584 0.516037 0.515540
O O3 0.841384 0.228213 0.415217
O O4 0.231728 0.381013 0.648453
O O5 0.948192 0.239052 0.849690
O O6 0.787758 0.095826 0.836808
O O7 0.198320 0.193637 0.100741
O O8 0.958619 0.435828 0.304129
O O9 0.841288 0.216994 0.312861
O O10 0.147936 0.110288 0.432213
O O11 0.615402 0.264543 0.364038
O O12 0.966022 0.357835 0.639687
#
# Coordination Sequence:
#
# PCOD8056336 Si02
#       6
#     4   4   4   4   4   4
#     4  11  24  44  71 102 144 183 237 297 356 416
#     4  12  24  48  76 102 140 198 234 290 362 424
#     4  11  23  47  70 102 143 192 232 291 362 423
#     4  11  26  43  67 113 140 177 246 300 343 425
#     4  12  25  44  79 103 143 191 238 291 359 422
#     4  11  24  44  71 102 144 183 237 297 356 416
#
# _framework density 22.402270999999999
#
# number of rings (size 3 to 8) (size 9 to 14) (size 15 to 20)
#    0.000    0.667    6.667    1.000    2.333    2.667 
#    3.000    0.000    0.000    0.000    0.000    0.000 
#    0.000    0.000    0.000    0.000    0.000    0.000 
#
# Total GULP energy -148681.243567 kJ/mol
# GULP energy per Si atom -12390.103631 kJ/mol
# Density = 2.235128 g / cm^3
# Si number density = 22.402271 Si / 1000 Ang^3
#
#
#
# Elastic Constant Matrix: (Units=GPa)
#
#
# Indices 1 2 3 4 5 6 
#
# 1 50.8699 19.1201 31.0922 -0.0142 1.2510 -0.0008
# 2 19.1201 115.1827 23.5547 0.0002 11.9849 0.0053
# 3 31.0922 23.5547 135.5672 0.0060 7.0961 0.0308
# 4 -0.0142 0.0002 0.0060 37.6556 0.0059 -7.6888
# 5 1.2510 11.9849 7.0961 0.0059 38.4866 -0.0065
# 6 -0.0008 0.0053 0.0308 -7.6888 -0.0065 28.8710
#
#
#
# Elastic Compliance Matrix: (Units=1/GPa)
#
#
# Indices 1 2 3 4 5 6 
#
# 1 0.023828 -0.003048 -0.004993 0.000012 0.001095 0.000010
# 2 -0.003048 0.009644 -0.000833 -0.000001 -0.002751 -0.000002
# 3 -0.004993 -0.000833 0.008728 -0.000005 -0.001188 -0.000011
# 4 0.000012 -0.000001 -0.000005 0.028084 -0.000002 0.007479
# 5 0.001095 -0.002751 -0.001188 -0.000002 0.027023 0.000007
# 6 0.000010 -0.000002 -0.000011 0.007479 0.000007 0.036629
#
#
# Mechanical properties :
#
#
# Convention : Reuss Voigt Hill
#
# Bulk Modulus (GPa) = 40.89357 49.90598 45.39977
# Shear Modulus (GPa) = 31.28225 36.19284 33.73754
#
# Velocity S-wave (km/s) = 3.74088 4.02380 3.88492
# Velocity P-wave (km/s) = 6.07888 6.62673 6.35870
#
# Compressibility (1/GPa) = 0.02445373
#
# Stress axis : x y z
#
# Youngs Moduli (GPa) = 41.96668 103.68753 114.56964
#
# Poissons Ratio (x) = 0.31608 0.57201
# Poissons Ratio (y) = 0.12793 0.09539
# Poissons Ratio (z) = 0.20953 0.08633
#
# Static dielectric constant tensor:
#      x y z
#    x 3.847670 -0.000040 -0.149500 
#    y -0.000040 4.147400 0.000000 
#    z -0.149500 0.000000 4.101310 
# 
# 
# High freq. dielectric constant tensor:
#      x y z
#    x 1.872710 0.000000 -0.007270 
#    y 0.000000 1.893020 0.000000 
#    z -0.007270 0.000000 1.889020 
# 
# From -- ./inp_files/17676.got.cif
#   From: 2010.06.25/outbox.cif.g09.slc.cpg/sg9_9_cif.got.tgz:17676.got - 2010.06.27 21:40:51.
