data_PCOD8056467
_publ_section_title
;
Structure prediction by ZEFSAII (Michael W. Deem and Ramdas Pophale) SiO2 
 PCOD8056467
Probable space group: C C
;
_chemical_formula_sum "Si O2"
_cell_formula_units_Z 32
_cell_length_a 22.593288
_cell_length_b 14.388837
_cell_length_c 9.444335
_cell_angle_alpha 90.000000
_cell_angle_beta 29.385156
_cell_angle_gamma 90.000000
_cell_volume 1506.513834
_symmetry_space_group_name_H-M "C C"
_symmetry_group_IT_number 9
_symmetry_cell_setting 'monoclinic'
loop_
_space_group_symop_operation_xyz
x,y,z
x,-y,1/2+z
1/2+x,1/2+y,z
1/2+x,1/2-y,1/2+z
loop_
_atom_site_type_symbol
_atom_site_label
_atom_site_fract_x
_atom_site_fract_y
_atom_site_fract_z
Si Si1 0.154280 0.714834 0.394960
Si Si2 0.529916 0.126570 0.179114
Si Si3 0.739994 0.984540 0.726401
Si Si4 0.907378 0.053504 0.139178
Si Si5 0.674165 0.740672 0.178456
Si Si6 0.951816 0.747416 0.602806
Si Si7 0.153034 0.038298 0.143642
Si Si8 0.774919 0.596199 0.602469
O O1 0.200675 0.614852 0.243399
O O2 0.143843 0.717762 0.586657
O O3 0.246117 0.794048 0.148836
O O4 0.023675 0.731841 0.598405
O O5 0.480910 0.166725 0.429609
O O6 0.418341 0.084782 0.322330
O O7 0.590894 0.209328 0.965639
O O8 0.622280 0.043001 0.017466
O O9 0.821503 0.961255 0.688052
O O10 0.819380 0.046209 0.456506
O O11 0.979557 0.151071 0.980824
O O12 0.011179 0.977820 0.925974
O O13 0.654475 0.631248 0.232717
O O14 0.812198 0.753766 0.932592
O O15 0.230780 0.957329 0.055144
O O16 0.205670 0.052391 0.878807
#
# Coordination Sequence:
#
# PCOD8056467 Si02
#       8
#     4   4   4   4   4   4   4   4
#     4  11  24  47  70  99 141 183 231 287 347 413
#     4  12  26  46  71 100 145 181 227 286 352 412
#     4  12  25  44  72 105 134 186 231 285 350 407
#     4  12  25  44  71 101 139 176 243 286 335 418
#     4  11  26  47  68 102 141 182 230 286 349 413
#     4  12  24  49  68 100 145 180 227 292 340 419
#     4  11  25  43  71  98 137 184 228 285 348 407
#     4  11  25  46  65 103 138 182 229 285 347 413
#
# _framework density 21.241091999999998
#
# number of rings (size 3 to 8) (size 9 to 14) (size 15 to 20)
#    0.000    0.500    6.250    1.500    8.750    2.000 
#    2.250    0.000    0.000    0.000    0.000    0.000 
#    0.000    0.000    0.000    0.000    0.000    0.000 
#
# Total GULP energy -198441.735723 kJ/mol
# GULP energy per Si atom -12402.608483 kJ/mol
# Density = 2.119275 g / cm^3
# Si number density = 21.241092 Si / 1000 Ang^3
#
#
#
# Elastic Constant Matrix: (Units=GPa)
#
#
# Indices 1 2 3 4 5 6 
#
# 1 134.0901 21.6015 26.7398 0.0000 -30.6413 0.0000
# 2 21.6015 97.7300 11.9482 0.0000 9.1254 0.0000
# 3 26.7398 11.9482 87.7185 0.0000 -17.4220 0.0000
# 4 0.0000 0.0000 0.0000 -881.9191 -0.0001 -904.1697
# 5 -30.6413 9.1254 -17.4220 -0.0001 19.1967 -0.0001
# 6 0.0000 0.0000 0.0000 -904.1697 -0.0001 -835.1526
#
#
#
# Elastic Compliance Matrix: (Units=1/GPa)
#
#
# Indices 1 2 3 4 5 6 
#
# 1 0.014286 -0.005940 0.001884 0.000000 0.027335 0.000000
# 2 -0.005940 0.013873 -0.003991 0.000000 -0.019698 0.000000
# 3 0.001884 -0.003991 0.015058 0.000000 0.018569 0.000000
# 4 0.000000 0.000000 0.000000 0.010312 0.000000 -0.011165
# 5 0.027335 -0.019698 0.018569 0.000000 0.121941 0.000000
# 6 0.000000 0.000000 0.000000 -0.011165 0.000000 0.010890
#
#
# Mechanical properties :
#
#
# Convention : Reuss Voigt Hill
#
# Bulk Modulus (GPa) = 36.87311 48.90196 42.88754
# Shear Modulus (GPa) = 23.64126 -322.29175 -149.32524
#
# Velocity S-wave (km/s) = 3.33978 -12.33125 -8.39362
# Velocity P-wave (km/s) = 5.68060 13.40425 8.58501
#
# Compressibility (1/GPa) = 0.02712003
#
# Stress axis : x y z
#
# Youngs Moduli (GPa) = 70.00089 72.08502 66.41135
#
# Poissons Ratio (x) = 0.42820 -0.12509
# Poissons Ratio (y) = 0.41582 0.26506
# Poissons Ratio (z) = -0.13185 0.28770
#
# Static dielectric constant tensor:
#      x y z
#    x 3.929090 0.000000 -0.231810 
#    y 0.000000 56.096760 0.000000 
#    z -0.231810 0.000000 3.654930 
# 
# 
# High freq. dielectric constant tensor:
#      x y z
#    x 1.846400 0.000000 -0.016780 
#    y 0.000000 1.851680 0.000000 
#    z -0.016780 0.000000 1.823980 
# 
# From -- ./inp_files/11767.got.cif
#   From: 2010.06.25/outbox.cif.g09.slc.cpg/sg9_6_cif.got.tgz:11767.got - 2010.06.27 21:40:51.
