data_PCOD8056720
_publ_section_title
;
Structure prediction by ZEFSAII (Michael W. Deem and Ramdas Pophale) SiO2 
 PCOD8056720
Probable space group: C C
;
_chemical_formula_sum "Si O2"
_cell_formula_units_Z 32
_cell_length_a 18.103248
_cell_length_b 12.652088
_cell_length_c 12.763978
_cell_angle_alpha 90.000000
_cell_angle_beta 151.090624
_cell_angle_gamma 90.000000
_cell_volume 1413.300239
_symmetry_space_group_name_H-M "C C"
_symmetry_group_IT_number 9
_symmetry_cell_setting 'monoclinic'
loop_
_space_group_symop_operation_xyz
x,y,z
x,-y,1/2+z
1/2+x,1/2+y,z
1/2+x,1/2-y,1/2+z
loop_
_atom_site_type_symbol
_atom_site_label
_atom_site_fract_x
_atom_site_fract_y
_atom_site_fract_z
Si Si1 0.428090 0.382674 0.113410
Si Si2 0.422853 0.089477 0.364557
Si Si3 0.764617 0.035474 0.767249
Si Si4 0.752508 0.731788 0.526079
Si Si5 0.419677 0.255302 0.539216
Si Si6 0.242251 0.101572 0.716306
Si Si7 0.410360 0.551761 0.258409
Si Si8 0.262652 0.183529 0.968179
O O1 0.469342 0.486226 0.231857
O O2 0.582969 0.323997 0.270291
O O3 0.330710 0.425584 0.894807
O O4 0.319895 0.304104 0.045113
O O5 0.582402 0.030042 0.547803
O O6 0.445486 0.193249 0.463729
O O7 0.303790 0.016229 0.277498
O O8 0.358245 0.116815 0.170601
O O9 0.822583 0.140281 0.895908
O O10 0.821400 0.033909 0.718513
O O11 0.833878 0.685709 0.522188
O O12 0.803296 0.673335 0.695597
O O13 0.791924 0.856034 0.581151
O O14 0.574890 0.710343 0.288290
O O15 0.304973 0.144243 0.904167
O O16 0.059126 0.101244 0.498011
#
# Coordination Sequence:
#
# PCOD8056720 Si02
#       8
#     4   4   4   4   4   4   4   4
#     4  12  26  50  75 109 150 200 245 313 385 448
#     4  12  30  47  76 115 150 204 249 316 379 453
#     4  12  27  49  77 108 149 197 250 307 381 446
#     4  12  26  47  79 111 147 197 255 312 368 446
#     4  12  26  49  77 109 149 195 257 312 368 447
#     4  12  28  48  76 111 153 201 252 310 377 450
#     4  12  25  48  76 108 149 197 246 306 378 447
#     4  12  30  48  74 113 155 197 250 314 382 465
#
# _framework density 22.642040000000001
#
# number of rings (size 3 to 8) (size 9 to 14) (size 15 to 20)
#    0.000    0.000    6.250    1.500   10.500    0.000 
#    0.000    0.000    0.000    0.000    0.000    0.000 
#    0.000    0.000    0.000    0.000    0.000    0.000 
#
# Total GULP energy -198457.456812 kJ/mol
# GULP energy per Si atom -12403.591051 kJ/mol
# Density = 2.259051 g / cm^3
# Si number density = 22.642040 Si / 1000 Ang^3
#
#
#
# Elastic Constant Matrix: (Units=GPa)
#
#
# Indices 1 2 3 4 5 6 
#
# 1 112.1526 30.0569 40.0555 0.0000 -5.1112 0.0000
# 2 30.0569 81.1191 31.9057 0.0000 -3.0578 0.0000
# 3 40.0555 31.9057 124.0553 0.0000 1.6275 0.0000
# 4 0.0000 0.0000 0.0000 32.2402 0.0000 -0.0892
# 5 -5.1112 -3.0578 1.6275 0.0000 45.8815 0.0000
# 6 0.0000 0.0000 0.0000 -0.0892 0.0000 48.6821
#
#
#
# Elastic Compliance Matrix: (Units=1/GPa)
#
#
# Indices 1 2 3 4 5 6 
#
# 1 0.010708 -0.002849 -0.002739 0.000000 0.001100 0.000000
# 2 -0.002849 0.014523 -0.002825 0.000000 0.000751 0.000000
# 3 -0.002739 -0.002825 0.009683 0.000000 -0.000837 0.000000
# 4 0.000000 0.000000 0.000000 0.031017 0.000000 0.000057
# 5 0.001100 0.000751 -0.000837 0.000000 0.021998 0.000000
# 6 0.000000 0.000000 0.000000 0.000057 0.000000 0.020542
#
#
# Mechanical properties :
#
#
# Convention : Reuss Voigt Hill
#
# Bulk Modulus (GPa) = 55.28684 57.92925 56.60805
# Shear Modulus (GPa) = 38.07318 39.71467 38.89393
#
# Velocity S-wave (km/s) = 4.10509 4.19265 4.14910
# Velocity P-wave (km/s) = 6.85126 7.00558 6.92885
#
# Compressibility (1/GPa) = 0.01808749
#
# Stress axis : x y z
#
# Youngs Moduli (GPa) = 93.38456 68.85829 103.27425
#
# Poissons Ratio (x) = 0.19617 0.28290
# Poissons Ratio (y) = 0.26604 0.29175
# Poissons Ratio (z) = 0.25581 0.19453
#
# Static dielectric constant tensor:
#      x y z
#    x 4.358160 0.000000 -0.171360 
#    y 0.000000 3.860650 0.000000 
#    z -0.171360 0.000000 4.081890 
# 
# 
# High freq. dielectric constant tensor:
#      x y z
#    x 1.910780 0.000000 -0.007380 
#    y 0.000000 1.887480 0.000000 
#    z -0.007380 0.000000 1.901160 
# 
# From -- ./inp_files/9115.got.cif
#   From: 2010.06.25/outbox.cif.g09.slc.cpg/sg9_5_cif.got.tgz:9115.got - 2010.06.27 21:40:51.
