data_PCOD8056383
_publ_section_title
;
Structure prediction by ZEFSAII (Michael W. Deem and Ramdas Pophale) SiO2 
 PCOD8056383
Probable space group: C C
;
_chemical_formula_sum "Si O2"
_cell_formula_units_Z 28
_cell_length_a 7.962126
_cell_length_b 6.321773
_cell_length_c 28.248265
_cell_angle_alpha 90.000000
_cell_angle_beta 125.169473
_cell_angle_gamma 90.000000
_cell_volume 1162.309885
_symmetry_space_group_name_H-M "C C"
_symmetry_group_IT_number 9
_symmetry_cell_setting 'monoclinic'
loop_
_space_group_symop_operation_xyz
x,y,z
x,-y,1/2+z
1/2+x,1/2+y,z
1/2+x,1/2-y,1/2+z
loop_
_atom_site_type_symbol
_atom_site_label
_atom_site_fract_x
_atom_site_fract_y
_atom_site_fract_z
Si Si1 0.367200 0.824252 0.174870
Si Si2 0.168735 0.268737 0.995491
Si Si3 0.995210 0.469548 0.602378
Si Si4 0.254780 0.948616 0.750901
Si Si5 0.084157 0.006868 0.901262
Si Si6 0.683430 0.267918 0.327393
Si Si7 0.836764 0.203454 0.009833
O O1 0.592031 0.741592 0.225572
O O2 0.228894 0.615752 0.141909
O O3 0.393071 0.998147 0.137456
O O4 0.261281 0.950112 0.200231
O O5 0.095744 0.234775 0.929298
O O6 0.390647 0.196717 0.049746
O O7 0.181103 0.523241 0.003036
O O8 0.011320 0.129442 0.001571
O O9 0.968147 0.699960 0.574383
O O10 0.471666 0.853893 0.801836
O O11 0.189552 0.130385 0.776789
O O12 0.193854 0.043470 0.868293
O O13 0.860153 0.907525 0.859828
O O14 0.211844 0.872136 0.959383
#
# Coordination Sequence:
#
# PCOD8056383 Si02
#       7
#     4   4   4   4   4   4   4
#     4  12  26  47  74 102 144 187 240 304 356 422
#     4  11  24  43  70 107 145 184 234 289 348 451
#     4  11  26  43  72 108 140 189 236 289 366 424
#     4  12  28  48  72 106 138 186 252 298 356 420
#     4  11  26  43  72 108 140 189 236 289 366 424
#     4  12  26  47  74 102 144 187 240 304 356 422
#     4  11  24  43  70 107 145 184 234 289 348 451
#
# _framework density 24.089960000000001
#
# number of rings (size 3 to 8) (size 9 to 14) (size 15 to 20)
#    0.000    0.571    0.000    6.857   12.000    4.571 
#    0.000    0.000    0.000    0.000    0.000    0.000 
#    0.000    0.000    0.000    0.000    0.000    0.000 
#
# Total GULP energy -173521.599004 kJ/mol
# GULP energy per Si atom -12394.399929 kJ/mol
# Density = 2.403513 g / cm^3
# Si number density = 24.089960 Si / 1000 Ang^3
#
#
#
# Elastic Constant Matrix: (Units=GPa)
#
#
# Indices 1 2 3 4 5 6 
#
# 1 101.8759 18.2665 32.9475 0.0000 -5.9520 0.0000
# 2 18.2665 82.8502 22.8430 0.0000 -4.1465 0.0000
# 3 32.9475 22.8430 106.3050 0.0000 -12.5077 0.0000
# 4 0.0000 0.0000 0.0000 28.6240 0.0000 0.7807
# 5 -5.9520 -4.1465 -12.5077 0.0000 40.7690 0.0000
# 6 0.0000 0.0000 0.0000 0.7807 0.0000 42.7574
#
#
#
# Elastic Compliance Matrix: (Units=1/GPa)
#
#
# Indices 1 2 3 4 5 6 
#
# 1 0.011115 -0.001585 -0.003042 0.000000 0.000528 0.000000
# 2 -0.001585 0.013065 -0.002269 0.000000 0.000401 0.000000
# 3 -0.003042 -0.002269 0.011161 0.000000 0.002749 0.000000
# 4 0.000000 0.000000 0.000000 0.034953 0.000000 -0.000638
# 5 0.000528 0.000401 0.002749 0.000000 0.025490 0.000000
# 6 0.000000 0.000000 0.000000 -0.000638 0.000000 0.023399
#
#
# Mechanical properties :
#
#
# Convention : Reuss Voigt Hill
#
# Bulk Modulus (GPa) = 46.40787 48.79393 47.60090
# Shear Modulus (GPa) = 35.67395 36.89502 36.28449
#
# Velocity S-wave (km/s) = 3.85237 3.91775 3.88520
# Velocity P-wave (km/s) = 6.25251 6.38466 6.31893
#
# Compressibility (1/GPa) = 0.02154807
#
# Stress axis : x y z
#
# Youngs Moduli (GPa) = 89.97006 76.53940 89.59987
#
# Poissons Ratio (x) = 0.12134 0.27257
# Poissons Ratio (y) = 0.14264 0.20329
# Poissons Ratio (z) = 0.27369 0.17366
#
# Static dielectric constant tensor:
#      x y z
#    x 4.554670 0.000000 -0.115060 
#    y 0.000000 4.235680 0.000000 
#    z -0.115060 0.000000 4.575930 
# 
# 
# High freq. dielectric constant tensor:
#      x y z
#    x 1.962000 0.000000 -0.002440 
#    y 0.000000 1.953340 0.000000 
#    z -0.002440 0.000000 1.976550 
# 
# From -- ./inp_files/34717.got.cif
#   From: 2010.06.25/outbox.cif.g09.slc.cpg/sg9_18_cif.got.tgz:34717.got - 2010.06.27 21:40:51.
