data_PCOD8056206
_publ_section_title
;
Structure prediction by ZEFSAII (Michael W. Deem and Ramdas Pophale) SiO2 
 PCOD8056206
Probable space group: C C
;
_chemical_formula_sum "Si O2"
_cell_formula_units_Z 32
_cell_length_a 17.551330
_cell_length_b 10.782692
_cell_length_c 14.163403
_cell_angle_alpha 90.000000
_cell_angle_beta 150.344553
_cell_angle_gamma 90.000000
_cell_volume 1326.232538
_symmetry_space_group_name_H-M "C C"
_symmetry_group_IT_number 9
_symmetry_cell_setting 'monoclinic'
loop_
_space_group_symop_operation_xyz
x,y,z
x,-y,1/2+z
1/2+x,1/2+y,z
1/2+x,1/2-y,1/2+z
loop_
_atom_site_type_symbol
_atom_site_label
_atom_site_fract_x
_atom_site_fract_y
_atom_site_fract_z
Si Si1 0.329000 0.913134 0.357860
Si Si2 0.716935 0.366712 0.446535
Si Si3 0.633372 0.994315 0.115985
Si Si4 0.857729 0.818862 0.440014
Si Si5 0.297501 0.703005 0.186591
Si Si6 0.555600 0.626255 0.330318
Si Si7 0.134919 0.871418 0.612546
Si Si8 0.544714 0.807524 0.864459
O O1 0.290855 0.878507 0.423261
O O2 0.474745 0.003467 0.503385
O O3 0.374774 0.798166 0.342178
O O4 0.178864 0.983556 0.152793
O O5 0.622740 0.492776 0.371042
O O6 0.612621 0.237487 0.335029
O O7 0.865948 0.342717 0.674104
O O8 0.688092 0.125071 0.136926
O O9 0.742544 0.935844 0.313673
O O10 0.629564 0.912280 0.015949
O O11 0.764131 0.692879 0.318171
O O12 0.953623 0.810868 0.638748
O O13 0.969387 0.844777 0.474631
O O14 0.433384 0.620708 0.285768
O O15 0.195026 0.777932 0.999599
O O16 0.106663 0.822492 0.477134
#
# Coordination Sequence:
#
# PCOD8056206 Si02
#       8
#     4   4   4   4   4   4   4   4
#     4  12  27  51  75 111 156 202 248 314 387 454
#     4  12  29  47  81 112 153 192 260 323 372 442
#     4  11  26  48  75 109 153 203 248 303 388 455
#     4  11  24  43  75 111 145 198 254 316 368 448
#     4  12  28  48  76 107 158 201 248 308 387 456
#     4  12  27  49  75 113 152 196 257 315 377 446
#     4  11  22  46  76 107 153 196 254 303 387 452
#     4  11  25  48  75 114 144 202 251 314 372 455
#
# _framework density 24.128499000000001
#
# number of rings (size 3 to 8) (size 9 to 14) (size 15 to 20)
#    0.000    0.500    2.500    6.000    7.000    2.000 
#    0.000    0.000    0.000    0.000    0.000    0.000 
#    0.000    0.000    0.000    0.000    0.000    0.000 
#
# Total GULP energy -198245.382327 kJ/mol
# GULP energy per Si atom -12390.336395 kJ/mol
# Density = 2.407358 g / cm^3
# Si number density = 24.128499 Si / 1000 Ang^3
#
#
#
# Elastic Constant Matrix: (Units=GPa)
#
#
# Indices 1 2 3 4 5 6 
#
# 1 111.5750 36.4109 43.4551 0.0000 10.5198 0.0000
# 2 36.4109 70.0102 28.7084 0.0000 1.8436 0.0000
# 3 43.4551 28.7084 111.0740 0.0000 10.7614 0.0000
# 4 0.0000 0.0000 0.0000 52.7110 0.0000 -1.7158
# 5 10.5198 1.8436 10.7614 0.0000 35.7810 0.0000
# 6 0.0000 0.0000 0.0000 -1.7158 0.0000 47.6234
#
#
#
# Elastic Compliance Matrix: (Units=1/GPa)
#
#
# Indices 1 2 3 4 5 6 
#
# 1 0.012025 -0.004872 -0.003221 0.000000 -0.002316 0.000000
# 2 -0.004872 0.017958 -0.002868 0.000000 0.001370 0.000000
# 3 -0.003221 -0.002868 0.011225 0.000000 -0.002281 0.000000
# 4 0.000000 0.000000 0.000000 0.018994 0.000000 0.000684
# 5 -0.002316 0.001370 -0.002281 0.000000 0.029244 0.000000
# 6 0.000000 0.000000 0.000000 0.000684 0.000000 0.021023
#
#
# Mechanical properties :
#
#
# Convention : Reuss Voigt Hill
#
# Bulk Modulus (GPa) = 51.85122 56.64536 54.24829
# Shear Modulus (GPa) = 36.01782 39.49539 37.75660
#
# Velocity S-wave (km/s) = 3.86780 4.05022 3.96006
# Velocity P-wave (km/s) = 6.44072 6.73795 6.59101
#
# Compressibility (1/GPa) = 0.01928595
#
# Stress axis : x y z
#
# Youngs Moduli (GPa) = 83.15707 55.68676 89.08373
#
# Poissons Ratio (x) = 0.27133 0.28694
# Poissons Ratio (y) = 0.40518 0.25548
# Poissons Ratio (z) = 0.26785 0.15970
#
# Static dielectric constant tensor:
#      x y z
#    x 4.465620 0.000000 0.139790 
#    y 0.000000 4.369040 0.000000 
#    z 0.139790 0.000000 4.437660 
# 
# 
# High freq. dielectric constant tensor:
#      x y z
#    x 1.971220 0.000000 0.013090 
#    y 0.000000 1.957320 0.000000 
#    z 0.013090 0.000000 1.969400 
# 
# From -- ./inp_files/26831.got.cif
#   From: 2010.06.25/outbox.cif.g09.slc.cpg/sg9_14_cif.got.tgz:26831.got - 2010.06.27 21:40:51.
