data_PCOD8056516
_publ_section_title
;
Structure prediction by ZEFSAII (Michael W. Deem and Ramdas Pophale) SiO2 
 PCOD8056516
Probable space group: C C
;
_chemical_formula_sum "Si O2"
_cell_formula_units_Z 32
_cell_length_a 11.662055
_cell_length_b 11.486502
_cell_length_c 14.753523
_cell_angle_alpha 90.000000
_cell_angle_beta 45.246623
_cell_angle_gamma 90.000000
_cell_volume 1403.475916
_symmetry_space_group_name_H-M "C C"
_symmetry_group_IT_number 9
_symmetry_cell_setting 'monoclinic'
loop_
_space_group_symop_operation_xyz
x,y,z
x,-y,1/2+z
1/2+x,1/2+y,z
1/2+x,1/2-y,1/2+z
loop_
_atom_site_type_symbol
_atom_site_label
_atom_site_fract_x
_atom_site_fract_y
_atom_site_fract_z
Si Si1 0.642210 0.948415 0.959970
Si Si2 0.553182 0.262902 0.397417
Si Si3 0.468744 0.638324 0.366547
Si Si4 0.159082 0.011330 0.112654
Si Si5 0.511628 0.086383 0.874225
Si Si6 0.619689 0.496268 0.934824
Si Si7 0.680412 0.750647 0.636839
Si Si8 0.980804 0.457892 0.714006
O O1 0.595939 0.821351 0.953973
O O2 0.813483 0.929394 0.913645
O O3 0.641424 0.049519 0.880948
O O4 0.501390 0.970973 0.110558
O O5 0.634037 0.386439 0.370076
O O6 0.641960 0.209177 0.260727
O O7 0.359541 0.272610 0.499557
O O8 0.607023 0.604767 0.217277
O O9 0.472377 0.777577 0.377823
O O10 0.496200 0.589152 0.452662
O O11 0.119266 0.880769 0.164722
O O12 0.349541 0.023446 0.996588
O O13 0.066884 0.027645 0.067210
O O14 0.565662 0.029248 0.749004
O O15 0.793834 0.434336 0.839516
O O16 0.566526 0.835518 0.642373
#
# Coordination Sequence:
#
# PCOD8056516 Si02
#       8
#     4   4   4   4   4   4   4   4
#     4  12  25  45  73 105 147 197 246 313 386 455
#     4  12  24  46  75 106 148 197 257 311 373 468
#     4  12  28  45  72 108 149 197 250 310 390 464
#     4  11  25  49  71 101 146 192 247 316 382 453
#     4  11  26  50  69 107 151 192 249 320 386 457
#     4  11  25  47  70 106 150 193 247 312 382 461
#     4  12  24  47  78 105 146 195 261 313 378 461
#     4  11  25  45  74 106 145 193 251 315 385 457
#
# _framework density 22.800533000000001
#
# number of rings (size 3 to 8) (size 9 to 14) (size 15 to 20)
#    0.000    0.500    3.750    4.500    7.000    2.000 
#    0.000    0.000    0.000    0.000    0.000    0.000 
#    0.000    0.000    0.000    0.000    0.000    0.000 
#
# Total GULP energy -198318.221371 kJ/mol
# GULP energy per Si atom -12394.888836 kJ/mol
# Density = 2.274864 g / cm^3
# Si number density = 22.800533 Si / 1000 Ang^3
#
#
#
# Elastic Constant Matrix: (Units=GPa)
#
#
# Indices 1 2 3 4 5 6 
#
# 1 117.2162 36.0433 14.5133 0.0000 7.4459 0.0000
# 2 36.0433 114.2061 16.9408 0.0000 2.3423 0.0000
# 3 14.5133 16.9408 73.2379 0.0000 8.8034 0.0000
# 4 0.0000 0.0000 0.0000 32.4458 0.0000 3.2357
# 5 7.4459 2.3423 8.8034 0.0000 31.0053 0.0000
# 6 0.0000 0.0000 0.0000 3.2357 0.0000 43.3153
#
#
#
# Elastic Compliance Matrix: (Units=1/GPa)
#
#
# Indices 1 2 3 4 5 6 
#
# 1 0.009652 -0.002856 -0.001035 0.000000 -0.001808 0.000000
# 2 -0.002856 0.009912 -0.001780 0.000000 0.000442 0.000000
# 3 -0.001035 -0.001780 0.014728 0.000000 -0.003799 0.000000
# 4 0.000000 0.000000 0.000000 0.031052 0.000000 -0.002320
# 5 -0.001808 0.000442 -0.003799 0.000000 0.033732 0.000000
# 6 0.000000 0.000000 0.000000 -0.002320 0.000000 0.023260
#
#
# Mechanical properties :
#
#
# Convention : Reuss Voigt Hill
#
# Bulk Modulus (GPa) = 43.57110 48.85055 46.21082
# Shear Modulus (GPa) = 35.37880 37.16414 36.27147
#
# Velocity S-wave (km/s) = 3.94339 4.04167 3.99283
# Velocity P-wave (km/s) = 6.31545 6.57661 6.44735
#
# Compressibility (1/GPa) = 0.02295099
#
# Stress axis : x y z
#
# Youngs Moduli (GPa) = 103.60168 100.88444 67.89983
#
# Poissons Ratio (x) = 0.28809 0.07027
# Poissons Ratio (y) = 0.29585 0.12087
# Poissons Ratio (z) = 0.10721 0.17959
#
# Static dielectric constant tensor:
#      x y z
#    x 4.291460 0.000000 0.271300 
#    y 0.000000 4.121700 0.000000 
#    z 0.271300 0.000000 4.289190 
# 
# 
# High freq. dielectric constant tensor:
#      x y z
#    x 1.899800 0.000000 0.016050 
#    y 0.000000 1.909380 0.000000 
#    z 0.016050 0.000000 1.903540 
# 
# From -- ./inp_files/16136.got.cif
#   From: 2010.06.25/outbox.cif.g09.slc.cpg/sg9_9_cif.got.tgz:16136.got - 2010.06.27 21:40:51.
