data_PCOD8056644
_publ_section_title
;
Structure prediction by ZEFSAII (Michael W. Deem and Ramdas Pophale) SiO2 
 PCOD8056644
Probable space group: C C
;
_chemical_formula_sum "Si O2"
_cell_formula_units_Z 32
_cell_length_a 17.440871
_cell_length_b 11.416931
_cell_length_c 13.364412
_cell_angle_alpha 90.000000
_cell_angle_beta 29.925665
_cell_angle_gamma 90.000000
_cell_volume 1327.577914
_symmetry_space_group_name_H-M "C C"
_symmetry_group_IT_number 9
_symmetry_cell_setting 'monoclinic'
loop_
_space_group_symop_operation_xyz
x,y,z
x,-y,1/2+z
1/2+x,1/2+y,z
1/2+x,1/2-y,1/2+z
loop_
_atom_site_type_symbol
_atom_site_label
_atom_site_fract_x
_atom_site_fract_y
_atom_site_fract_z
Si Si1 0.834620 0.444720 0.262840
Si Si2 0.024592 0.761344 0.485812
Si Si3 0.246854 0.303549 0.557408
Si Si4 0.425878 0.472970 0.485670
Si Si5 0.600738 0.708469 0.120362
Si Si6 0.956301 0.407117 0.787180
Si Si7 0.754543 0.445396 0.657744
Si Si8 0.286476 0.314533 0.069893
O O1 0.906949 0.345080 0.110269
O O2 0.731871 0.393100 0.471520
O O3 0.961939 0.522646 0.175620
O O4 0.733697 0.516969 0.297333
O O5 0.935456 0.886046 0.571133
O O6 0.154471 0.751816 0.254825
O O7 0.103713 0.746671 0.503582
O O8 0.377956 0.394192 0.444782
O O9 0.338743 0.199545 0.400356
O O10 0.128844 0.364417 0.614537
O O11 0.592635 0.534940 0.282897
O O12 0.292977 0.575895 0.641459
O O13 0.433727 0.660752 0.333460
O O14 0.645139 0.811058 0.150197
O O15 0.896096 0.487542 0.946254
O O16 0.791470 0.307458 0.622569
#
# Coordination Sequence:
#
# PCOD8056644 Si02
#       8
#     4   4   4   4   4   4   4   4
#     4  12  25  44  78 103 145 195 256 309 373 454
#     4  12  23  44  72 111 138 193 250 307 366 452
#     4  12  25  43  75 106 149 195 252 309 388 448
#     4  12  25  44  73 105 144 200 249 305 376 460
#     4  12  23  41  71 106 141 186 250 299 367 446
#     4  12  23  46  73 107 150 198 245 318 379 449
#     4  12  23  49  70 102 152 200 242 315 379 446
#     4  12  27  43  70 106 149 195 240 306 388 435
#
# _framework density 24.104044999999999
#
# number of rings (size 3 to 8) (size 9 to 14) (size 15 to 20)
#    0.000    0.000    8.750    0.750    3.500    0.000 
#    2.250    1.250    0.000    0.000    0.000    0.000 
#    0.000    0.000    0.000    0.000    0.000    0.000 
#
# Total GULP energy -198306.429166 kJ/mol
# GULP energy per Si atom -12394.151823 kJ/mol
# Density = 2.404918 g / cm^3
# Si number density = 24.104045 Si / 1000 Ang^3
#
#
#
# Elastic Constant Matrix: (Units=GPa)
#
#
# Indices 1 2 3 4 5 6 
#
# 1 137.6418 55.6795 16.9970 0.0000 -23.3339 0.0000
# 2 55.6795 164.3384 20.0827 0.0000 -4.9176 0.0000
# 3 16.9970 20.0827 48.9103 0.0000 -7.5056 0.0000
# 4 0.0000 0.0000 0.0000 28.2592 0.0000 -3.5992
# 5 -23.3339 -4.9176 -7.5056 0.0000 22.2913 0.0000
# 6 0.0000 0.0000 0.0000 -3.5992 0.0000 50.0954
#
#
#
# Elastic Compliance Matrix: (Units=1/GPa)
#
#
# Indices 1 2 3 4 5 6 
#
# 1 0.010277 -0.003091 -0.000797 0.000000 0.009807 0.000000
# 2 -0.003091 0.007343 -0.002308 0.000000 -0.002393 0.000000
# 3 -0.000797 -0.002308 0.022634 0.000000 0.006277 0.000000
# 4 0.000000 0.000000 0.000000 0.035713 0.000000 0.002566
# 5 0.009807 -0.002393 0.006277 0.000000 0.056712 0.000000
# 6 0.000000 0.000000 0.000000 0.002566 0.000000 0.020146
#
#
# Mechanical properties :
#
#
# Convention : Reuss Voigt Hill
#
# Bulk Modulus (GPa) = 35.89285 59.60098 47.74692
# Shear Modulus (GPa) = 28.65270 37.33793 32.99531
#
# Velocity S-wave (km/s) = 3.45151 3.94004 3.70384
# Velocity P-wave (km/s) = 5.55040 6.74380 6.17599
#
# Compressibility (1/GPa) = 0.02786070
#
# Stress axis : x y z
#
# Youngs Moduli (GPa) = 97.30869 136.18997 44.18216
#
# Poissons Ratio (x) = 0.42095 0.03522
# Poissons Ratio (y) = 0.30077 0.10197
# Poissons Ratio (z) = 0.07757 0.31432
#
# Static dielectric constant tensor:
#      x y z
#    x 4.489710 0.000000 -0.354170 
#    y 0.000000 4.703680 0.000000 
#    z -0.354170 0.000000 4.037260 
# 
# 
# High freq. dielectric constant tensor:
#      x y z
#    x 1.966810 0.000000 -0.027720 
#    y 0.000000 1.967350 0.000000 
#    z -0.027720 0.000000 1.924170 
# 
# From -- ./inp_files/10736.got.cif
#   From: 2010.06.25/outbox.cif.g09.slc.cpg/sg9_6_cif.got.tgz:10736.got - 2010.06.27 21:40:51.
