data_PCOD8056033
_publ_section_title
;
Structure prediction by ZEFSAII (Michael W. Deem and Ramdas Pophale) SiO2 
 PCOD8056033
Probable space group: C C
;
_chemical_formula_sum "Si O2"
_cell_formula_units_Z 32
_cell_length_a 5.258697
_cell_length_b 18.052618
_cell_length_c 13.991614
_cell_angle_alpha 90.000000
_cell_angle_beta 69.453493
_cell_angle_gamma 90.000000
_cell_volume 1243.774984
_symmetry_space_group_name_H-M "C C"
_symmetry_group_IT_number 9
_symmetry_cell_setting 'monoclinic'
loop_
_space_group_symop_operation_xyz
x,y,z
x,-y,1/2+z
1/2+x,1/2+y,z
1/2+x,1/2-y,1/2+z
loop_
_atom_site_type_symbol
_atom_site_label
_atom_site_fract_x
_atom_site_fract_y
_atom_site_fract_z
Si Si1 0.423610 0.860635 0.982410
Si Si2 0.420000 0.728548 0.112911
Si Si3 0.865235 0.322177 0.777989
Si Si4 0.530166 0.568240 0.674158
Si Si5 0.180958 0.085476 0.133655
Si Si6 0.124898 0.511510 0.956274
Si Si7 0.577631 0.184958 0.776225
Si Si8 0.231816 0.062553 0.847799
O O1 0.443171 0.860404 0.865678
O O2 0.644525 0.923988 0.982450
O O3 0.465905 0.776485 0.011330
O O4 0.142325 0.888761 0.066726
O O5 0.110441 0.710294 0.181859
O O6 0.577352 0.651420 0.079085
O O7 0.548695 0.781179 0.175596
O O8 0.701768 0.383761 0.739018
O O9 0.676515 0.251752 0.830563
O O10 0.462114 0.482385 0.656119
O O11 0.278724 0.613731 0.748786
O O12 0.759226 0.555795 0.728146
O O13 0.471002 0.058504 0.057226
O O14 0.423883 0.544498 0.914894
O O15 0.946810 0.514283 0.880980
O O16 0.300940 0.150347 0.856331
#
# Coordination Sequence:
#
# PCOD8056033 Si02
#       8
#     4   4   4   4   4   4   4   4
#     4  11  25  50  77 113 158 214 268 323 402 481
#     4  11  25  48  73 113 158 212 262 332 396 474
#     4  11  25  49  74 116 163 212 266 331 402 480
#     4  11  23  49  79 113 156 211 262 333 389 478
#     4  10  27  47  75 113 156 208 265 338 391 478
#     4  11  28  47  80 118 156 213 268 329 399 476
#     4  11  23  47  77 111 159 211 261 321 407 470
#     4  12  24  47  79 119 154 203 266 327 396 467
#
# _framework density 25.728124999999999
#
# number of rings (size 3 to 8) (size 9 to 14) (size 15 to 20)
#    0.000    1.000    3.750    0.750    3.500    6.000 
#    4.500    0.000    0.000    1.500    0.000    0.000 
#    0.000    0.000    0.000    0.000    0.000    0.000 
#
# Total GULP energy -198233.030781 kJ/mol
# GULP energy per Si atom -12389.564424 kJ/mol
# Density = 2.566957 g / cm^3
# Si number density = 25.728125 Si / 1000 Ang^3
#
#
#
# Elastic Constant Matrix: (Units=GPa)
#
#
# Indices 1 2 3 4 5 6 
#
# 1 80.7333 40.4337 9.4698 0.0000 -10.9479 0.0000
# 2 40.4337 198.2638 35.9982 0.0000 -8.1101 0.0000
# 3 9.4698 35.9982 72.2679 0.0000 -1.3600 0.0000
# 4 0.0000 0.0000 0.0000 30.6160 0.0000 -2.3885
# 5 -10.9479 -8.1101 -1.3600 0.0000 30.8018 0.0000
# 6 0.0000 0.0000 0.0000 -2.3885 0.0000 25.8819
#
#
#
# Elastic Compliance Matrix: (Units=1/GPa)
#
#
# Indices 1 2 3 4 5 6 
#
# 1 0.014372 -0.002666 -0.000473 0.000000 0.004385 0.000000
# 2 -0.002666 0.006096 -0.002677 0.000000 0.000539 0.000000
# 3 -0.000473 -0.002677 0.015229 0.000000 -0.000200 0.000000
# 4 0.000000 0.000000 0.000000 0.032900 0.000000 0.003036
# 5 0.004385 0.000539 -0.000200 0.000000 0.034157 0.000000
# 6 0.000000 0.000000 0.000000 0.003036 0.000000 0.038917
#
#
# Mechanical properties :
#
#
# Convention : Reuss Voigt Hill
#
# Bulk Modulus (GPa) = 41.55349 58.11871 49.83610
# Shear Modulus (GPa) = 30.99373 35.15083 33.07228
#
# Velocity S-wave (km/s) = 3.47459 3.70028 3.58921
# Velocity P-wave (km/s) = 5.68182 6.39490 6.04888
#
# Compressibility (1/GPa) = 0.02406537
#
# Stress axis : x y z
#
# Youngs Moduli (GPa) = 69.58132 164.05507 65.66421
#
# Poissons Ratio (x) = 0.43732 0.03105
# Poissons Ratio (y) = 0.18548 0.17577
# Poissons Ratio (z) = 0.03290 0.43915
#
# Static dielectric constant tensor:
#      x y z
#    x 4.583620 0.000000 0.201590 
#    y 0.000000 5.193590 0.000000 
#    z 0.201590 0.000000 4.537270 
# 
# 
# High freq. dielectric constant tensor:
#      x y z
#    x 2.006900 0.000000 0.004880 
#    y 0.000000 2.058710 0.000000 
#    z 0.004880 0.000000 2.022330 
# 
# From -- ./inp_files/22061.got.cif
#   From: 2010.06.25/outbox.cif.g09.slc.cpg/sg9_12_cif.got.tgz:22061.got - 2010.06.27 21:40:51.
