data_PCOD8056152
_publ_section_title
;
Structure prediction by ZEFSAII (Michael W. Deem and Ramdas Pophale) SiO2 
 PCOD8056152
Probable space group: C C
;
_chemical_formula_sum "Si O2"
_cell_formula_units_Z 28
_cell_length_a 12.270864
_cell_length_b 13.957704
_cell_length_c 8.976437
_cell_angle_alpha 90.000000
_cell_angle_beta 59.548760
_cell_angle_gamma 90.000000
_cell_volume 1325.351270
_symmetry_space_group_name_H-M "C C"
_symmetry_group_IT_number 9
_symmetry_cell_setting 'monoclinic'
loop_
_space_group_symop_operation_xyz
x,y,z
x,-y,1/2+z
1/2+x,1/2+y,z
1/2+x,1/2-y,1/2+z
loop_
_atom_site_type_symbol
_atom_site_label
_atom_site_fract_x
_atom_site_fract_y
_atom_site_fract_z
Si Si1 0.094460 0.031761 0.888370
Si Si2 0.675977 0.875698 0.862019
Si Si3 0.444765 0.589483 0.275571
Si Si4 0.762418 0.693959 0.651162
Si Si5 0.972210 0.539731 0.962045
Si Si6 0.990855 0.698400 0.716505
Si Si7 0.323561 0.922822 0.850481
O O1 0.148866 0.119082 0.753703
O O2 0.196265 0.949547 0.852995
O O3 0.978614 0.982455 0.883513
O O4 0.039315 0.075691 0.074789
O O5 0.799256 0.930138 0.836789
O O6 0.716002 0.803948 0.699446
O O7 0.578583 0.957491 0.881189
O O8 0.616758 0.806257 0.028889
O O9 0.464971 0.699465 0.308777
O O10 0.872297 0.667588 0.694370
O O11 0.811421 0.679656 0.445604
O O12 0.017697 0.629899 0.836743
O O13 0.847301 0.498694 0.967650
O O14 0.939868 0.574018 0.152422
#
# Coordination Sequence:
#
# PCOD8056152 Si02
#       7
#     4   4   4   4   4   4   4
#     4  12  21  41  65  97 131 171 224 269 338 408
#     4  11  24  42  70  96 139 172 221 276 348 404
#     4  11  27  40  66  96 136 177 210 277 349 404
#     4  11  22  42  71  97 128 179 229 271 337 414
#     4  12  22  41  73 100 130 171 241 285 329 387
#     4  11  23  45  69  95 129 184 225 274 340 412
#     4  12  21  39  74  99 127 176 236 282 321 401
#
# _framework density 21.126476
#
# number of rings (size 3 to 8) (size 9 to 14) (size 15 to 20)
#    0.000    0.571    8.571    0.000    2.000    0.000 
#    2.571    2.857    3.143    0.000    0.000    0.000 
#    0.000    0.000    0.000    0.000    0.000    0.000 
#
# Total GULP energy -173601.889257 kJ/mol
# GULP energy per Si atom -12400.134947 kJ/mol
# Density = 2.107839 g / cm^3
# Si number density = 21.126476 Si / 1000 Ang^3
#
#
#
# Elastic Constant Matrix: (Units=GPa)
#
#
# Indices 1 2 3 4 5 6 
#
# 1 92.7912 48.9175 21.7399 0.0000 -2.3624 0.0000
# 2 48.9175 107.6727 42.8643 0.0000 8.4426 0.0000
# 3 21.7399 42.8643 104.9529 0.0000 7.9784 0.0000
# 4 0.0000 0.0000 0.0000 33.8976 0.0000 -2.2885
# 5 -2.3624 8.4426 7.9784 0.0000 29.1220 0.0000
# 6 0.0000 0.0000 0.0000 -2.2885 0.0000 33.4824
#
#
#
# Elastic Compliance Matrix: (Units=1/GPa)
#
#
# Indices 1 2 3 4 5 6 
#
# 1 0.014473 -0.006613 -0.000543 0.000000 0.003240 0.000000
# 2 -0.006613 0.014229 -0.004174 0.000000 -0.003518 0.000000
# 3 -0.000543 -0.004174 0.011496 0.000000 -0.001984 0.000000
# 4 0.000000 0.000000 0.000000 0.029637 0.000000 0.002026
# 5 0.003240 -0.003518 -0.001984 0.000000 0.036164 0.000000
# 6 0.000000 0.000000 0.000000 0.002026 0.000000 0.030005
#
#
# Mechanical properties :
#
#
# Convention : Reuss Voigt Hill
#
# Bulk Modulus (GPa) = 57.02129 59.16224 58.09176
# Shear Modulus (GPa) = 30.39288 32.09343 31.24315
#
# Velocity S-wave (km/s) = 3.79702 3.90180 3.84977
# Velocity P-wave (km/s) = 6.80237 6.95438 6.87879
#
# Compressibility (1/GPa) = 0.01753731
#
# Stress axis : x y z
#
# Youngs Moduli (GPa) = 69.09460 70.27702 86.98495
#
# Poissons Ratio (x) = 0.46474 0.04726
# Poissons Ratio (y) = 0.45692 0.36310
# Poissons Ratio (z) = 0.03754 0.29335
#
# Static dielectric constant tensor:
#      x y z
#    x 3.783430 0.000000 -0.073570 
#    y 0.000000 3.766400 0.000000 
#    z -0.073570 0.000000 3.907900 
# 
# 
# High freq. dielectric constant tensor:
#      x y z
#    x 1.820070 0.000000 -0.008630 
#    y 0.000000 1.819530 0.000000 
#    z -0.008630 0.000000 1.831700 
# 
# From -- ./inp_files/7174.got.cif
#   From: 2010.06.25/outbox.cif.g09.slc.cpg/sg9_4_cif.got.tgz:7174.got - 2010.06.27 21:40:51.
