data_PCOD8056808
_publ_section_title
;
Structure prediction by ZEFSAII (Michael W. Deem and Ramdas Pophale) SiO2 
 PCOD8056808
Probable space group: P 2/M
;
_chemical_formula_sum "Si O2"
_cell_formula_units_Z 28
_cell_length_a 19.395587
_cell_length_b 14.210133
_cell_length_c 9.756731
_cell_angle_alpha 90.000000
_cell_angle_beta 39.132043
_cell_angle_gamma 90.000000
_cell_volume 1697.111081
_symmetry_space_group_name_H-M "P 2/M"
_symmetry_group_IT_number 10
_symmetry_cell_setting 'monoclinic'
loop_
_space_group_symop_operation_xyz
x,y,z
-x,y,-z
-x,-y,-z
x,-y,z
loop_
_atom_site_type_symbol
_atom_site_label
_atom_site_fract_x
_atom_site_fract_y
_atom_site_fract_z
Si Si1 0.848950 0.784618 0.490518
Si Si2 0.575256 0.106931 0.682217
Si Si3 0.899173 0.605766 0.061220
Si Si4 0.769429 0.780353 0.307376
Si Si5 0.959767 0.605806 0.413550
Si Si6 0.956903 0.105959 0.911968
Si Si7 0.345753 0.105566 0.128981
O O1 0.803951 0.798297 0.408808
O O2 0.865814 0.675875 0.505395
O O3 0.759148 0.827543 0.733430
O O4 0.963344 0.841171 0.318276
O O5 0.644275 0.183082 0.485705
O O6 0.614220 0.110259 0.777591
O O7 0.592572 0.000000 0.599505
O O8 0.446954 0.135367 0.874281
O O9 0.869296 0.500000 0.155204
O O10 0.790657 0.669679 0.243977
O O11 0.000000 0.644944 0.000000
O O12 0.936138 0.608451 0.847121
O O13 0.841417 0.840436 0.089514
O O14 0.910337 0.500000 0.494022
O O15 0.000000 0.638526 0.500000
O O16 0.940977 0.000000 0.883604
O O17 0.000000 0.107022 0.000000
O O18 0.308643 0.000000 0.150363
#
# Coordination Sequence:
#
# PCOD8056808 Si02
#       7
#     4   4   4   4   4   4   4
#     4  10  16  25  41  61  86 115 147 179 213 258
#     4   8  14  23  36  59  91 119 147 180 212 251
#     4  10  17  28  44  64  88 113 144 180 221 269
#     4  10  15  23  39  64  89 115 142 177 216 258
#     4  10  20  32  45  63  88 117 149 183 221 268
#     4   9  15  21  33  59  88 111 136 171 212 253
#     4   8  14  24  38  58  86 122 152 175 210 256
#
# _framework density 16.498625000000001
#
# number of rings (size 3 to 8) (size 9 to 14) (size 15 to 20)
#    0.000    2.714    2.857    2.143    0.000    3.429 
#    0.000    0.000    0.000    2.571    0.000    5.000 
#    0.000    5.714    0.000    0.000    0.000    0.000 
#
# Total GULP energy -346944.108389 kJ/mol
# GULP energy per Si atom -12390.861014 kJ/mol
# Density = 1.646107 g / cm^3
# Si number density = 16.498625 Si / 1000 Ang^3
#
#
#
# Elastic Constant Matrix: (Units=GPa)
#
#
# Indices 1 2 3 4 5 6 
#
# 1 14.8478 12.4677 24.3844 0.0000 -1.7423 0.0000
# 2 12.4677 116.5033 62.0341 0.0000 -24.3458 0.0000
# 3 24.3844 62.0341 114.2992 0.0000 -28.7200 0.0000
# 4 0.0000 0.0000 0.0000 27.3836 0.0000 -4.0449
# 5 -1.7423 -24.3458 -28.7200 0.0000 21.8627 0.0000
# 6 0.0000 0.0000 0.0000 -4.0449 0.0000 6.4559
#
#
#
# Elastic Compliance Matrix: (Units=1/GPa)
#
#
# Indices 1 2 3 4 5 6 
#
# 1 0.120647 -0.002885 -0.033682 0.000000 -0.037844 0.000000
# 2 -0.002885 0.012956 -0.004252 0.000000 0.008611 0.000000
# 3 -0.033682 -0.004252 0.024448 0.000000 0.024697 0.000000
# 4 0.000000 0.000000 0.000000 0.040242 0.000000 0.025213
# 5 -0.037844 0.008611 0.024697 0.000000 0.084756 0.000000
# 6 0.000000 0.000000 0.000000 0.025213 0.000000 0.170694
#
#
# Mechanical properties :
#
#
# Convention : Reuss Voigt Hill
#
# Bulk Modulus (GPa) = 13.08691 49.26920 31.17805
# Shear Modulus (GPa) = 8.91501 20.92473 14.91987
#
# Velocity S-wave (km/s) = 2.32706 3.56514 3.01044
# Velocity P-wave (km/s) = 3.89482 6.84649 5.56974
#
# Compressibility (1/GPa) = 0.07641226
#
# Stress axis : x y z
#
# Youngs Moduli (GPa) = 8.28866 77.18455 40.90305
#
# Poissons Ratio (x) = 0.22267 1.37769
# Poissons Ratio (y) = 0.02391 0.17394
# Poissons Ratio (z) = 0.27918 0.32822
#
# Static dielectric constant tensor:
#      x y z
#    x 2.554100 0.000000 -0.188660 
#    y 0.000000 3.248510 0.000000 
#    z -0.188660 0.000000 3.440550 
# 
# 
# High freq. dielectric constant tensor:
#      x y z
#    x 1.562670 0.000000 -0.003370 
#    y 0.000000 1.639100 0.000000 
#    z -0.003370 0.000000 1.631690 
# 
# From -- ./inp_files/32776.got.cif
#   From: 2010.06.25/outbox.cif.g09.slc.cpg/sg10_17_cif.got.tgz:32776.got - 2010.06.27 22:07:45.
