data_PCOD8056157
_publ_section_title
;
Structure prediction by ZEFSAII (Michael W. Deem and Ramdas Pophale) SiO2 
 PCOD8056157
Probable space group: C C
;
_chemical_formula_sum "Si O2"
_cell_formula_units_Z 32
_cell_length_a 13.307889
_cell_length_b 11.138609
_cell_length_c 9.608446
_cell_angle_alpha 90.000000
_cell_angle_beta 93.620648
_cell_angle_gamma 90.000000
_cell_volume 1421.430336
_symmetry_space_group_name_H-M "C C"
_symmetry_group_IT_number 9
_symmetry_cell_setting 'monoclinic'
loop_
_space_group_symop_operation_xyz
x,y,z
x,-y,1/2+z
1/2+x,1/2+y,z
1/2+x,1/2-y,1/2+z
loop_
_atom_site_type_symbol
_atom_site_label
_atom_site_fract_x
_atom_site_fract_y
_atom_site_fract_z
Si Si1 0.275720 0.203148 0.001370
Si Si2 0.165815 0.627836 0.929741
Si Si3 0.237508 0.122409 0.476457
Si Si4 0.742144 0.949795 0.145770
Si Si5 0.836207 0.509891 0.218136
Si Si6 0.955802 0.698816 0.813159
Si Si7 0.962835 0.942467 0.652751
Si Si8 0.083485 0.047772 0.896706
O O1 0.236477 0.320836 0.073542
O O2 0.337818 0.126495 0.121275
O O3 0.356143 0.234096 0.890610
O O4 0.176961 0.139775 0.925525
O O5 0.247203 0.734831 0.961397
O O6 0.199289 0.556625 0.796359
O O7 0.054243 0.681753 0.914889
O O8 0.167285 0.537730 0.058343
O O9 0.308143 0.048336 0.373153
O O10 0.257875 0.082231 0.637188
O O11 0.123370 0.086390 0.430518
O O12 0.852559 0.004534 0.154264
O O13 0.938463 0.430574 0.234402
O O14 0.972210 0.807257 0.708925
O O15 0.992843 0.927966 0.494797
O O16 0.036624 0.038058 0.737794
#
# Coordination Sequence:
#
# PCOD8056157 Si02
#       8
#     4   4   4   4   4   4   4   4
#     4  11  24  45  70 100 144 177 237 296 352 417
#     4  12  27  47  70 100 150 190 234 292 358 426
#     4  11  22  44  72 102 137 184 235 292 349 414
#     4  12  27  49  67 102 150 190 233 297 362 417
#     4  11  22  42  74  99 136 180 233 294 351 414
#     4  12  25  43  71 106 138 180 240 288 359 430
#     4  12  25  46  73 102 137 188 238 289 351 436
#     4  11  22  44  75 103 134 183 240 292 348 418
#
# _framework density 22.512535
#
# number of rings (size 3 to 8) (size 9 to 14) (size 15 to 20)
#    0.000    0.500    5.000    5.250    1.750    0.000 
#    2.250    0.000    0.000    0.000    0.000    0.000 
#    0.000    0.000    0.000    0.000    0.000    0.000 
#
# Total GULP energy -198306.370236 kJ/mol
# GULP energy per Si atom -12394.148140 kJ/mol
# Density = 2.246130 g / cm^3
# Si number density = 22.512535 Si / 1000 Ang^3
#
#
#
# Elastic Constant Matrix: (Units=GPa)
#
#
# Indices 1 2 3 4 5 6 
#
# 1 72.3373 12.4879 1.2380 0.0000 -0.6138 0.0000
# 2 12.4879 129.3846 25.4832 0.0000 12.9259 0.0000
# 3 1.2380 25.4832 59.6836 0.0000 -5.4442 0.0000
# 4 0.0000 0.0000 0.0000 34.7801 0.0000 4.9565
# 5 -0.6138 12.9259 -5.4442 0.0000 35.8754 0.0000
# 6 0.0000 0.0000 0.0000 4.9565 0.0000 31.3216
#
#
#
# Elastic Compliance Matrix: (Units=1/GPa)
#
#
# Indices 1 2 3 4 5 6 
#
# 1 0.014088 -0.001532 0.000441 0.000000 0.000860 0.000000
# 2 -0.001532 0.009101 -0.004214 0.000000 -0.003945 0.000000
# 3 0.000441 -0.004214 0.018947 0.000000 0.004401 0.000000
# 4 0.000000 0.000000 0.000000 0.029415 0.000000 -0.004655
# 5 0.000860 -0.003945 0.004401 0.000000 0.029978 0.000000
# 6 0.000000 0.000000 0.000000 -0.004655 0.000000 0.032663
#
#
# Mechanical properties :
#
#
# Convention : Reuss Voigt Hill
#
# Bulk Modulus (GPa) = 31.72161 37.75819 34.73990
# Shear Modulus (GPa) = 32.19319 35.20852 33.70085
#
# Velocity S-wave (km/s) = 3.78565 3.95897 3.87328
# Velocity P-wave (km/s) = 5.76450 6.14056 5.95550
#
# Compressibility (1/GPa) = 0.03152425
#
# Stress axis : x y z
#
# Youngs Moduli (GPa) = 70.98016 109.87997 52.78018
#
# Poissons Ratio (x) = 0.16839 -0.02325
# Poissons Ratio (y) = 0.10878 0.22241
# Poissons Ratio (z) = -0.03127 0.46302
#
# Static dielectric constant tensor:
#      x y z
#    x 3.962620 0.000000 0.134920 
#    y 0.000000 4.281180 0.000000 
#    z 0.134920 0.000000 4.182740 
# 
# 
# High freq. dielectric constant tensor:
#      x y z
#    x 1.878190 0.000000 0.005750 
#    y 0.000000 1.897960 0.000000 
#    z 0.005750 0.000000 1.894450 
# 
# From -- ./inp_files/9153.got.cif
#   From: 2010.06.25/outbox.cif.g09.slc.cpg/sg9_5_cif.got.tgz:9153.got - 2010.06.27 21:40:51.
