data_PCOD8056578
_publ_section_title
;
Structure prediction by ZEFSAII (Michael W. Deem and Ramdas Pophale) SiO2 
 PCOD8056578
Probable space group: C C
;
_chemical_formula_sum "Si O2"
_cell_formula_units_Z 24
_cell_length_a 22.941583
_cell_length_b 5.927900
_cell_length_c 15.157815
_cell_angle_alpha 90.000000
_cell_angle_beta 154.150977
_cell_angle_gamma 90.000000
_cell_volume 898.770069
_symmetry_space_group_name_H-M "C C"
_symmetry_group_IT_number 9
_symmetry_cell_setting 'monoclinic'
loop_
_space_group_symop_operation_xyz
x,y,z
x,-y,1/2+z
1/2+x,1/2+y,z
1/2+x,1/2-y,1/2+z
loop_
_atom_site_type_symbol
_atom_site_label
_atom_site_fract_x
_atom_site_fract_y
_atom_site_fract_z
Si Si1 0.141490 0.940465 0.579130
Si Si2 0.710138 0.105161 0.404720
Si Si3 0.423487 0.059467 0.259293
Si Si4 0.854763 0.894811 0.433609
Si Si5 0.975906 0.238590 0.481670
Si Si6 0.088987 0.261343 0.356648
O O1 0.281401 0.830299 0.799264
O O2 0.032615 0.749771 0.419362
O O3 0.091980 0.112487 0.585664
O O4 0.159706 0.069778 0.511415
O O5 0.783646 0.330103 0.539284
O O6 0.555071 0.153852 0.172160
O O7 0.782393 0.999963 0.419070
O O8 0.707249 0.921700 0.480378
O O9 0.405228 0.930212 0.326963
O O10 0.472827 0.887324 0.252513
O O11 0.009851 0.846325 0.666208
O O12 0.857617 0.078269 0.357898
#
# Coordination Sequence:
#
# PCOD8056578 Si02
#       6
#     4   4   4   4   4   4
#     4  11  25  53  77 115 155 207 269 323 398 470
#     4  12  25  52  81 116 161 205 264 337 393 475
#     4  11  25  53  77 115 155 207 269 323 398 470
#     4  12  25  52  81 116 161 205 264 337 393 475
#     4  11  27  51  77 117 156 210 267 324 402 471
#     4  11  27  51  77 117 156 210 267 324 402 471
#
# _framework density 26.70316
#
# number of rings (size 3 to 8) (size 9 to 14) (size 15 to 20)
#    0.000    0.667    3.333    3.000    0.000    1.333 
#   12.000    0.000    0.000    0.000    0.000    0.000 
#    0.000    0.000    0.000    0.000    0.000    0.000 
#
# Total GULP energy -148901.449742 kJ/mol
# GULP energy per Si atom -12408.454145 kJ/mol
# Density = 2.664238 g / cm^3
# Si number density = 26.703160 Si / 1000 Ang^3
#
#
#
# Elastic Constant Matrix: (Units=GPa)
#
#
# Indices 1 2 3 4 5 6 
#
# 1 122.2908 72.1488 69.7397 0.0000 -11.1715 0.0000
# 2 72.1488 150.1018 62.4243 0.0000 -17.8255 0.0000
# 3 69.7397 62.4243 120.9209 0.0000 -12.0667 0.0000
# 4 0.0000 0.0000 0.0000 70.2455 0.0000 1.6215
# 5 -11.1715 -17.8255 -12.0667 0.0000 39.8747 0.0000
# 6 0.0000 0.0000 0.0000 1.6215 0.0000 67.2060
#
#
#
# Elastic Compliance Matrix: (Units=1/GPa)
#
#
# Indices 1 2 3 4 5 6 
#
# 1 0.014090 -0.004296 -0.005884 0.000000 0.000246 0.000000
# 2 -0.004296 0.010051 -0.002457 0.000000 0.002546 0.000000
# 3 -0.005884 -0.002457 0.013052 0.000000 0.001203 0.000000
# 4 0.000000 0.000000 0.000000 0.014244 0.000000 -0.000344
# 5 0.000246 0.002546 0.001203 0.000000 0.026650 0.000000
# 6 0.000000 0.000000 0.000000 -0.000344 0.000000 0.014888
#
#
# Mechanical properties :
#
#
# Convention : Reuss Voigt Hill
#
# Bulk Modulus (GPa) = 83.90010 89.10434 86.50222
# Shear Modulus (GPa) = 40.90947 48.06528 44.48738
#
# Velocity S-wave (km/s) = 3.91833 4.24723 4.08609
# Velocity P-wave (km/s) = 7.20825 7.58240 7.39769
#
# Compressibility (1/GPa) = 0.01191894
#
# Stress axis : x y z
#
# Youngs Moduli (GPa) = 70.97361 99.48809 76.61904
#
# Poissons Ratio (x) = 0.42744 0.45079
# Poissons Ratio (y) = 0.30493 0.18825
# Poissons Ratio (z) = 0.41758 0.24444
#
# Static dielectric constant tensor:
#      x y z
#    x 4.930830 0.000000 -0.202560 
#    y 0.000000 1.016230 0.000000 
#    z -0.202560 0.000000 4.859820 
# 
# 
# High freq. dielectric constant tensor:
#      x y z
#    x 2.082380 0.000000 -0.004750 
#    y 0.000000 2.088020 0.000000 
#    z -0.004750 0.000000 2.081260 
# 
# From -- ./inp_files/20648.got.cif
#   From: 2010.06.25/outbox.cif.g09.slc.cpg/sg9_11_cif.got.tgz:20648.got - 2010.06.27 21:40:51.
