data_PCOD8056563
_publ_section_title
;
Structure prediction by ZEFSAII (Michael W. Deem and Ramdas Pophale) SiO2 
 PCOD8056563
Probable space group: C C
;
_chemical_formula_sum "Si O2"
_cell_formula_units_Z 24
_cell_length_a 8.400205
_cell_length_b 13.145707
_cell_length_c 13.599393
_cell_angle_alpha 90.000000
_cell_angle_beta 43.723287
_cell_angle_gamma 90.000000
_cell_volume 1037.963611
_symmetry_space_group_name_H-M "C C"
_symmetry_group_IT_number 9
_symmetry_cell_setting 'monoclinic'
loop_
_space_group_symop_operation_xyz
x,y,z
x,-y,1/2+z
1/2+x,1/2+y,z
1/2+x,1/2-y,1/2+z
loop_
_atom_site_type_symbol
_atom_site_label
_atom_site_fract_x
_atom_site_fract_y
_atom_site_fract_z
Si Si1 0.481220 0.656890 0.935710
Si Si2 0.270959 0.516736 0.781102
Si Si3 0.054317 0.959147 0.829511
Si Si4 0.274750 0.668730 0.594334
Si Si5 0.356744 0.715504 0.195038
Si Si6 0.504011 0.865265 0.548821
O O1 0.603438 0.545853 0.889891
O O2 0.620498 0.721973 0.793130
O O3 0.497568 0.715963 0.031054
O O4 0.216919 0.638729 0.027172
O O5 0.484186 0.524129 0.762991
O O6 0.287941 0.588086 0.677933
O O7 0.271260 0.397962 0.756196
O O8 0.044141 0.554455 0.942073
O O9 0.283232 0.895531 0.711072
O O10 0.843457 0.888254 0.962106
O O11 0.471654 0.752480 0.521515
O O12 0.028615 0.728301 0.696175
#
# Coordination Sequence:
#
# PCOD8056563 Si02
#       6
#     4   4   4   4   4   4
#     4  11  29  46  74 109 156 203 255 331 388 464
#     4  11  26  48  74 115 150 204 260 322 391 460
#     4  11  25  49  74 113 153 198 268 321 393 464
#     4  12  26  50  82 110 152 212 266 319 398 464
#     4  12  27  50  75 113 153 204 264 327 393 462
#     4  11  27  47  77 110 154 207 261 322 389 472
#
# _framework density 23.122195999999999
#
# number of rings (size 3 to 8) (size 9 to 14) (size 15 to 20)
#    0.000    0.667    3.333    2.000   16.333    0.000 
#    0.000    0.000    0.000    0.000    0.000    0.000 
#    0.000    0.000    0.000    0.000    0.000    0.000 
#
# Total GULP energy -148699.101307 kJ/mol
# GULP energy per Si atom -12391.591776 kJ/mol
# Density = 2.306957 g / cm^3
# Si number density = 23.122196 Si / 1000 Ang^3
#
#
#
# Elastic Constant Matrix: (Units=GPa)
#
#
# Indices 1 2 3 4 5 6 
#
# 1 85.6839 48.1061 41.9296 0.0000 5.6049 0.0000
# 2 48.1061 177.0411 70.0938 -0.0003 -0.9851 0.0002
# 3 41.9296 70.0938 126.7725 -0.0013 0.6382 0.0007
# 4 0.0000 -0.0003 -0.0013 48.1984 0.0004 3.2338
# 5 5.6049 -0.9851 0.6382 0.0004 25.4344 -0.0003
# 6 0.0000 0.0002 0.0007 3.2338 -0.0003 38.8679
#
#
#
# Elastic Compliance Matrix: (Units=1/GPa)
#
#
# Indices 1 2 3 4 5 6 
#
# 1 0.015134 -0.002760 -0.003463 0.000000 -0.003355 0.000000
# 2 -0.002760 0.007738 -0.003371 0.000000 0.000993 0.000000
# 3 -0.003463 -0.003371 0.010895 0.000000 0.000359 0.000000
# 4 0.000000 0.000000 0.000000 0.020864 0.000000 -0.001736
# 5 -0.003355 0.000993 0.000359 0.000000 0.040086 0.000000
# 6 0.000000 0.000000 0.000000 -0.001736 0.000000 0.025873
#
#
# Mechanical properties :
#
#
# Convention : Reuss Voigt Hill
#
# Bulk Modulus (GPa) = 68.58197 78.86181 73.72189
# Shear Modulus (GPa) = 34.56909 37.79134 36.18022
#
# Velocity S-wave (km/s) = 3.87080 4.04718 3.95997
# Velocity P-wave (km/s) = 7.05000 7.48466 7.27058
#
# Compressibility (1/GPa) = 0.01458109
#
# Stress axis : x y z
#
# Youngs Moduli (GPa) = 66.07481 129.22467 91.78230
#
# Poissons Ratio (x) = 0.35667 0.31781
# Poissons Ratio (y) = 0.18237 0.30938
# Poissons Ratio (z) = 0.22880 0.43559
#
# Static dielectric constant tensor:
#      x y z
#    x 3.995450 0.000000 0.255800 
#    y 0.000000 4.604280 0.000000 
#    z 0.255800 0.000000 4.279320 
# 
# 
# High freq. dielectric constant tensor:
#      x y z
#    x 1.892270 0.000000 0.007310 
#    y 0.000000 1.941200 0.000000 
#    z 0.007310 0.000000 1.921630 
# 
# From -- ./inp_files/4774.got.cif
#   From: 2010.06.25/outbox.cif.g09.slc.cpg/sg9_3_cif.got.tgz:4774.got - 2010.06.27 21:40:51.
