data_PCOD8056082
_publ_section_title
;
Structure prediction by ZEFSAII (Michael W. Deem and Ramdas Pophale) SiO2 
 PCOD8056082
Probable space group: C C
;
_chemical_formula_sum "Si O2"
_cell_formula_units_Z 32
_cell_length_a 4.971839
_cell_length_b 22.646784
_cell_length_c 12.836059
_cell_angle_alpha 90.000000
_cell_angle_beta 104.389907
_cell_angle_gamma 90.000000
_cell_volume 1399.947823
_symmetry_space_group_name_H-M "C C"
_symmetry_group_IT_number 9
_symmetry_cell_setting 'monoclinic'
loop_
_space_group_symop_operation_xyz
x,y,z
x,-y,1/2+z
1/2+x,1/2+y,z
1/2+x,1/2-y,1/2+z
loop_
_atom_site_type_symbol
_atom_site_label
_atom_site_fract_x
_atom_site_fract_y
_atom_site_fract_z
Si Si1 0.211020 0.362848 0.450260
Si Si2 0.285031 0.136315 0.311206
Si Si3 0.808087 0.662531 0.075127
Si Si4 0.988619 0.784107 0.161727
Si Si5 0.544366 0.581893 0.625942
Si Si6 0.819036 0.929263 0.883794
Si Si7 0.081914 0.737703 0.800106
Si Si8 0.629937 0.953431 0.262918
O O1 0.539937 0.355122 0.482737
O O2 0.057816 0.303103 0.398426
O O3 0.126610 0.415179 0.366711
O O4 0.074531 0.371291 0.551479
O O5 0.262469 0.136829 0.185007
O O6 0.601857 0.124408 0.375402
O O7 0.199817 0.199660 0.348340
O O8 0.084819 0.087264 0.340481
O O9 0.839936 0.733990 0.077223
O O10 0.281017 0.754396 0.220072
O O11 0.038027 0.846783 0.109881
O O12 0.794078 0.795670 0.242710
O O13 0.420359 0.552266 0.509370
O O14 0.385683 0.562090 0.713643
O O15 0.855529 0.557990 0.668779
O O16 0.654191 0.980168 0.806762
#
# Coordination Sequence:
#
# PCOD8056082 Si02
#       8
#     4   4   4   4   4   4   4   4
#     4  12  23  41  68 107 137 191 224 280 353 416
#     4  11  25  47  66 105 145 179 235 295 345 409
#     4  11  25  39  70 104 147 182 226 282 355 418
#     4  11  21  42  65 103 144 182 227 283 350 409
#     4  12  25  47  73 104 136 186 234 295 344 423
#     4  12  28  47  75 101 135 194 238 285 356 405
#     4  11  22  40  68  99 143 180 220 292 344 410
#     4  12  27  49  71 103 145 182 240 294 339 416
#
# _framework density 22.857996
#
# number of rings (size 3 to 8) (size 9 to 14) (size 15 to 20)
#    0.000    0.500    2.500    6.750    3.500    3.000 
#    0.000    0.000    0.000    0.000    0.000    0.000 
#    0.000    0.000    0.000    0.000    0.000    0.000 
#
# Total GULP energy -198470.312452 kJ/mol
# GULP energy per Si atom -12404.394528 kJ/mol
# Density = 2.280597 g / cm^3
# Si number density = 22.857996 Si / 1000 Ang^3
#
#
#
# Elastic Constant Matrix: (Units=GPa)
#
#
# Indices 1 2 3 4 5 6 
#
# 1 111.6231 9.2111 11.2821 0.0000 3.1660 0.0000
# 2 9.2111 64.5085 29.3588 0.0000 -0.6273 0.0000
# 3 11.2821 29.3588 57.1420 0.0000 1.2239 0.0000
# 4 0.0000 0.0000 0.0000 15.7506 0.0000 6.1146
# 5 3.1660 -0.6273 1.2239 0.0000 49.5660 0.0000
# 6 0.0000 0.0000 0.0000 6.1146 0.0000 30.3842
#
#
#
# Elastic Compliance Matrix: (Units=1/GPa)
#
#
# Indices 1 2 3 4 5 6 
#
# 1 0.009176 -0.000648 -0.001467 0.000000 -0.000558 0.000000
# 2 -0.000648 0.020292 -0.010309 0.000000 0.000553 0.000000
# 3 -0.001467 -0.010309 0.023100 0.000000 -0.000607 0.000000
# 4 0.000000 0.000000 0.000000 0.068870 0.000000 -0.013860
# 5 -0.000558 0.000553 -0.000607 0.000000 0.020233 0.000000
# 6 0.000000 0.000000 0.000000 -0.013860 0.000000 0.035701
#
#
# Mechanical properties :
#
#
# Convention : Reuss Voigt Hill
#
# Bulk Modulus (GPa) = 36.07643 36.99750 36.53697
# Shear Modulus (GPa) = 23.64512 31.36828 27.50670
#
# Velocity S-wave (km/s) = 3.21975 3.70849 3.47273
# Velocity P-wave (km/s) = 5.44422 5.87862 5.66558
#
# Compressibility (1/GPa) = 0.02771893
#
# Stress axis : x y z
#
# Youngs Moduli (GPa) = 108.97659 49.28107 43.29052
#
# Poissons Ratio (x) = 0.03194 0.06350
# Poissons Ratio (y) = 0.07063 0.44630
# Poissons Ratio (z) = 0.15985 0.50806
#
# Static dielectric constant tensor:
#      x y z
#    x 4.314980 0.000000 -0.067860 
#    y 0.000000 4.058600 0.000000 
#    z -0.067860 0.000000 4.013460 
# 
# 
# High freq. dielectric constant tensor:
#      x y z
#    x 1.923310 0.000000 -0.003430 
#    y 0.000000 1.893840 0.000000 
#    z -0.003430 0.000000 1.901100 
# 
# From -- ./inp_files/13815.got.cif
#   From: 2010.06.25/outbox.cif.g09.slc.cpg/sg9_7_cif.got.tgz:13815.got - 2010.06.27 21:40:51.
