data_PCOD8056304
_publ_section_title
;
Structure prediction by ZEFSAII (Michael W. Deem and Ramdas Pophale) SiO2 
 PCOD8056304
Probable space group: C C
;
_chemical_formula_sum "Si O2"
_cell_formula_units_Z 28
_cell_length_a 13.840677
_cell_length_b 12.188290
_cell_length_c 13.344623
_cell_angle_alpha 90.000000
_cell_angle_beta 32.729843
_cell_angle_gamma 90.000000
_cell_volume 1217.154100
_symmetry_space_group_name_H-M "C C"
_symmetry_group_IT_number 9
_symmetry_cell_setting 'monoclinic'
loop_
_space_group_symop_operation_xyz
x,y,z
x,-y,1/2+z
1/2+x,1/2+y,z
1/2+x,1/2-y,1/2+z
loop_
_atom_site_type_symbol
_atom_site_label
_atom_site_fract_x
_atom_site_fract_y
_atom_site_fract_z
Si Si1 0.858940 0.878435 0.034450
Si Si2 0.232751 0.131522 0.852148
Si Si3 0.656819 0.589199 0.509189
Si Si4 0.702238 0.517725 0.685566
Si Si5 0.272837 0.435678 0.314528
Si Si6 0.909185 0.660834 0.117137
Si Si7 0.141387 0.356064 0.031549
O O1 0.770246 0.955751 0.196282
O O2 0.920739 0.770839 0.041717
O O3 0.711052 0.840144 0.083726
O O4 0.021806 0.943761 0.840754
O O5 0.435474 0.110205 0.711031
O O6 0.201206 0.122928 0.760438
O O7 0.155518 0.244601 0.957812
O O8 0.121502 0.031501 0.994843
O O9 0.744086 0.573995 0.542245
O O10 0.451067 0.632698 0.694507
O O11 0.772292 0.662855 0.331331
O O12 0.860933 0.437962 0.582931
O O13 0.265055 0.553086 0.373553
O O14 0.104062 0.361783 0.493642
#
# Coordination Sequence:
#
# PCOD8056304 Si02
#       7
#     4   4   4   4   4   4   4
#     4  12  26  44  77 108 137 188 241 294 357 426
#     4  11  25  44  69 102 140 180 238 293 345 428
#     4  11  23  46  68 103 147 183 233 295 354 422
#     4  11  23  46  70 102 147 187 229 299 358 418
#     4  12  24  44  70 103 145 177 235 295 359 419
#     4  11  25  44  70 108 143 184 240 296 350 431
#     4  12  26  44  72 104 135 187 236 294 357 422
#
# _framework density 23.004483
#
# number of rings (size 3 to 8) (size 9 to 14) (size 15 to 20)
#    0.000    0.571    7.143    2.571    6.000    0.000 
#    0.000    2.857    0.000    0.000    0.000    0.000 
#    0.000    0.000    0.000    0.000    0.000    0.000 
#
# Total GULP energy -173551.618078 kJ/mol
# GULP energy per Si atom -12396.544148 kJ/mol
# Density = 2.295212 g / cm^3
# Si number density = 23.004483 Si / 1000 Ang^3
#
#
#
# Elastic Constant Matrix: (Units=GPa)
#
#
# Indices 1 2 3 4 5 6 
#
# 1 134.4923 24.7130 23.5730 0.0006 10.7799 -0.0002
# 2 24.7130 64.1787 12.0378 0.0007 5.1224 -0.0004
# 3 23.5730 12.0378 94.5255 0.0017 -18.3706 -0.0013
# 4 0.0006 0.0007 0.0017 22.7415 -0.0007 -5.0323
# 5 10.7799 5.1224 -18.3706 -0.0007 45.2233 0.0006
# 6 -0.0002 -0.0004 -0.0013 -5.0323 0.0006 22.1497
#
#
#
# Elastic Compliance Matrix: (Units=1/GPa)
#
#
# Indices 1 2 3 4 5 6 
#
# 1 0.008541 -0.002641 -0.002314 0.000000 -0.002677 0.000000
# 2 -0.002641 0.017128 -0.001930 0.000000 -0.002094 0.000000
# 3 -0.002314 -0.001930 0.012542 -0.000001 0.005865 0.000000
# 4 0.000000 0.000000 -0.000001 0.046300 0.000000 0.010519
# 5 -0.002677 -0.002094 0.005865 0.000000 0.025370 0.000000
# 6 0.000000 0.000000 0.000000 0.010519 0.000000 0.047537
#
#
# Mechanical properties :
#
#
# Convention : Reuss Voigt Hill
#
# Bulk Modulus (GPa) = 40.91462 45.98266 43.44864
# Shear Modulus (GPa) = 27.88106 33.54776 30.71441
#
# Velocity S-wave (km/s) = 3.48513 3.82293 3.65793
# Velocity P-wave (km/s) = 5.83258 6.28636 6.06372
#
# Compressibility (1/GPa) = 0.02444114
#
# Stress axis : x y z
#
# Youngs Moduli (GPa) = 117.08569 58.38542 79.73408
#
# Poissons Ratio (x) = 0.15420 0.18448
# Poissons Ratio (y) = 0.30924 0.15385
# Poissons Ratio (z) = 0.27091 0.11266
#
# Static dielectric constant tensor:
#      x y z
#    x 4.360780 0.000000 -0.011470 
#    y 0.000000 4.126730 0.000000 
#    z -0.011470 0.000000 4.243660 
# 
# 
# High freq. dielectric constant tensor:
#      x y z
#    x 1.912430 0.000000 -0.007450 
#    y 0.000000 1.901640 0.000000 
#    z -0.007450 0.000000 1.917040 
# 
# From -- ./inp_files/25898.got.cif
#   From: 2010.06.25/outbox.cif.g09.slc.cpg/sg9_13_cif.got.tgz:25898.got - 2010.06.27 21:40:51.
