data_PCOD8056238
_publ_section_title
;
Structure prediction by ZEFSAII (Michael W. Deem and Ramdas Pophale) SiO2 
 PCOD8056238
Probable space group: C C
;
_chemical_formula_sum "Si O2"
_cell_formula_units_Z 32
_cell_length_a 21.603629
_cell_length_b 16.008918
_cell_length_c 8.525749
_cell_angle_alpha 90.000000
_cell_angle_beta 29.529979
_cell_angle_gamma 90.000000
_cell_volume 1453.320675
_symmetry_space_group_name_H-M "C C"
_symmetry_group_IT_number 9
_symmetry_cell_setting 'monoclinic'
loop_
_space_group_symop_operation_xyz
x,y,z
x,-y,1/2+z
1/2+x,1/2+y,z
1/2+x,1/2-y,1/2+z
loop_
_atom_site_type_symbol
_atom_site_label
_atom_site_fract_x
_atom_site_fract_y
_atom_site_fract_z
Si Si1 0.851990 0.996359 0.412450
Si Si2 0.142950 0.378255 0.318359
Si Si3 0.456121 0.385705 0.921204
Si Si4 0.707612 0.690715 0.739699
Si Si5 0.892361 0.434270 0.992136
Si Si6 0.750964 0.250150 0.809069
Si Si7 0.156765 0.366477 0.942104
Si Si8 0.402497 0.895540 0.332551
O O1 0.751344 0.943705 0.732622
O O2 0.772192 0.070641 0.505871
O O3 0.950009 0.042826 0.305190
O O4 0.941888 0.937155 0.112740
O O5 0.153186 0.296863 0.409344
O O6 0.038990 0.437137 0.625169
O O7 0.095102 0.354395 0.249960
O O8 0.587072 0.340113 0.603295
O O9 0.343585 0.319867 0.172244
O O10 0.823387 0.631985 0.531389
O O11 0.687997 0.698176 0.592991
O O12 0.737838 0.784024 0.728789
O O13 0.845295 0.528137 0.060598
O O14 0.878958 0.414592 0.203100
O O15 0.825416 0.312903 0.535435
O O16 0.048466 0.377740 0.049695
#
# Coordination Sequence:
#
# PCOD8056238 Si02
#       8
#     4   4   4   4   4   4   4   4
#     4  11  23  42  70 103 139 183 239 290 356 431
#     4  11  24  41  71 108 136 183 240 294 354 423
#     4  11  25  44  70 105 142 186 233 298 361 425
#     4  12  26  46  69 103 147 187 233 299 366 429
#     4  12  27  43  71 105 142 187 241 290 363 428
#     4  11  24  45  71 102 145 184 236 296 361 426
#     4  12  22  42  71 101 141 181 236 295 354 431
#     4  12  25  45  69 103 142 187 236 296 357 431
#
# _framework density 22.018540000000002
#
# number of rings (size 3 to 8) (size 9 to 14) (size 15 to 20)
#    0.000    0.500    5.000    3.750    1.750    2.000 
#    0.000    2.500    0.000    0.000    0.000    0.000 
#    0.000    0.000    0.000    0.000    0.000    0.000 
#
# Total GULP energy -198346.393991 kJ/mol
# GULP energy per Si atom -12396.649624 kJ/mol
# Density = 2.196843 g / cm^3
# Si number density = 22.018540 Si / 1000 Ang^3
#
#
#
# Elastic Constant Matrix: (Units=GPa)
#
#
# Indices 1 2 3 4 5 6 
#
# 1 94.9003 30.8124 19.1440 0.0000 24.7801 0.0000
# 2 30.8124 112.3405 11.1251 0.0000 4.8778 0.0000
# 3 19.1440 11.1251 69.7650 0.0000 17.1779 0.0000
# 4 0.0000 0.0000 0.0000 44.9208 0.0000 8.5266
# 5 24.7801 4.8778 17.1779 0.0000 38.6979 0.0000
# 6 0.0000 0.0000 0.0000 8.5266 0.0000 33.0937
#
#
#
# Elastic Compliance Matrix: (Units=1/GPa)
#
#
# Indices 1 2 3 4 5 6 
#
# 1 0.013967 -0.003353 -0.001347 0.000000 -0.007923 0.000000
# 2 -0.003353 0.009860 -0.000982 0.000000 0.001340 0.000000
# 3 -0.001347 -0.000982 0.016411 0.000000 -0.006298 0.000000
# 4 0.000000 0.000000 0.000000 0.023406 0.000000 -0.006031
# 5 -0.007923 0.001340 -0.006298 0.000000 0.033541 0.000000
# 6 0.000000 0.000000 0.000000 -0.006031 0.000000 0.031771
#
#
# Mechanical properties :
#
#
# Convention : Reuss Voigt Hill
#
# Bulk Modulus (GPa) = 34.63473 44.35209 39.49341
# Shear Modulus (GPa) = 33.34536 37.73743 35.54139
#
# Velocity S-wave (km/s) = 3.89578 4.14441 4.02202
# Velocity P-wave (km/s) = 6.00001 6.56417 6.28842
#
# Compressibility (1/GPa) = 0.02887275
#
# Stress axis : x y z
#
# Youngs Moduli (GPa) = 71.59899 101.41651 60.93502
#
# Poissons Ratio (x) = 0.34008 0.08208
# Poissons Ratio (y) = 0.24010 0.05985
# Poissons Ratio (z) = 0.09644 0.09962
#
# Static dielectric constant tensor:
#      x y z
#    x 3.912500 0.000000 0.170430 
#    y 0.000000 4.207440 0.000000 
#    z 0.170430 0.000000 3.827810 
# 
# 
# High freq. dielectric constant tensor:
#      x y z
#    x 1.858320 0.000000 0.020570 
#    y 0.000000 1.887380 0.000000 
#    z 0.020570 0.000000 1.855880 
# 
# From -- ./inp_files/7392.got.cif
#   From: 2010.06.25/outbox.cif.g09.slc.cpg/sg9_4_cif.got.tgz:7392.got - 2010.06.27 21:40:51.
