data_PCOD8056327
_publ_section_title
;
Structure prediction by ZEFSAII (Michael W. Deem and Ramdas Pophale) SiO2 
 PCOD8056327
Probable space group: C C
;
_chemical_formula_sum "Si O2"
_cell_formula_units_Z 32
_cell_length_a 9.416362
_cell_length_b 14.763912
_cell_length_c 11.779402
_cell_angle_alpha 90.000000
_cell_angle_beta 123.674083
_cell_angle_gamma 90.000000
_cell_volume 1362.818955
_symmetry_space_group_name_H-M "C C"
_symmetry_group_IT_number 9
_symmetry_cell_setting 'monoclinic'
loop_
_space_group_symop_operation_xyz
x,y,z
x,-y,1/2+z
1/2+x,1/2+y,z
1/2+x,1/2-y,1/2+z
loop_
_atom_site_type_symbol
_atom_site_label
_atom_site_fract_x
_atom_site_fract_y
_atom_site_fract_z
Si Si1 0.584980 0.419022 0.021180
Si Si2 0.538698 0.107840 0.033119
Si Si3 0.572896 0.779466 0.928090
Si Si4 0.937034 0.408959 0.044977
Si Si5 0.104316 0.341319 0.332846
Si Si6 0.497581 0.620352 0.044083
Si Si7 0.945832 0.225503 0.618745
Si Si8 0.419923 0.341611 0.751574
O O1 0.753912 0.403713 0.021640
O O2 0.562657 0.520190 0.051985
O O3 0.579545 0.346984 0.123276
O O4 0.431128 0.407567 0.864220
O O5 0.414899 0.182249 0.032889
O O6 0.720309 0.157756 0.135651
O O7 0.505132 0.011026 0.072082
O O8 0.522230 0.090227 0.889912
O O9 0.505963 0.752111 0.773019
O O10 0.443419 0.853076 0.928797
O O11 0.606444 0.689535 0.017978
O O12 0.761922 0.824344 0.020887
O O13 0.065977 0.358755 0.185632
O O14 0.306674 0.347942 0.429691
O O15 0.011542 0.249923 0.332811
O O16 0.529592 0.627937 0.191930
#
# Coordination Sequence:
#
# PCOD8056327 Si02
#       8
#     4   4   4   4   4   4   4   4
#     4  12  27  46  76 106 149 199 246 306 374 452
#     4  11  26  45  73 107 146 193 249 308 372 449
#     4  12  28  47  73 110 152 196 254 319 380 444
#     4  12  27  46  76 106 149 199 246 306 374 452
#     4  11  23  46  76 105 146 194 248 303 378 446
#     4  11  26  45  73 107 146 193 249 308 372 449
#     4  12  28  47  73 110 152 196 254 319 380 444
#     4  11  23  46  76 105 146 194 248 303 378 446
#
# _framework density 23.480741999999999
#
# number of rings (size 3 to 8) (size 9 to 14) (size 15 to 20)
#    0.000    0.500    2.500    4.500   10.500    1.000 
#    0.000    0.000    0.000    0.000    0.000    0.000 
#    0.000    0.000    0.000    0.000    0.000    0.000 
#
# Total GULP energy -198221.112154 kJ/mol
# GULP energy per Si atom -12388.819510 kJ/mol
# Density = 2.342730 g / cm^3
# Si number density = 23.480742 Si / 1000 Ang^3
#
#
#
# Elastic Constant Matrix: (Units=GPa)
#
#
# Indices 1 2 3 4 5 6 
#
# 1 127.1299 43.4748 39.3249 0.0000 -5.6500 0.0000
# 2 43.4748 125.5678 15.1533 0.0000 -6.2888 0.0000
# 3 39.3249 15.1533 86.1711 0.0000 -14.7495 0.0000
# 4 0.0000 0.0000 0.0000 53.7258 0.0000 -35.8093
# 5 -5.6500 -6.2888 -14.7495 0.0000 36.3278 0.0000
# 6 0.0000 0.0000 0.0000 -35.8093 0.0000 85.3886
#
#
#
# Elastic Compliance Matrix: (Units=1/GPa)
#
#
# Indices 1 2 3 4 5 6 
#
# 1 0.010187 -0.003050 -0.004225 0.000000 -0.000659 0.000000
# 2 -0.003050 0.009077 -0.000018 0.000000 0.001090 0.000000
# 3 -0.004225 -0.000018 0.014426 0.000000 0.005197 0.000000
# 4 0.000000 0.000000 0.000000 0.025834 0.000000 0.010834
# 5 -0.000659 0.001090 0.005197 0.000000 0.029723 0.000000
# 6 0.000000 0.000000 0.000000 0.010834 0.000000 0.016255
#
#
# Mechanical properties :
#
#
# Convention : Reuss Voigt Hill
#
# Bulk Modulus (GPa) = 52.34796 59.41942 55.88369
# Shear Modulus (GPa) = 39.53993 51.14948 45.34470
#
# Velocity S-wave (km/s) = 4.10802 4.67235 4.39925
# Velocity P-wave (km/s) = 6.69653 7.38027 7.04670
#
# Compressibility (1/GPa) = 0.01910294
#
# Stress axis : x y z
#
# Youngs Moduli (GPa) = 98.16742 110.17428 69.32090
#
# Poissons Ratio (x) = 0.33603 0.29290
# Poissons Ratio (y) = 0.29941 0.00123
# Poissons Ratio (z) = 0.41478 0.00195
#
# Static dielectric constant tensor:
#      x y z
#    x 4.486400 0.000000 -0.313480 
#    y 0.000000 3.861160 0.000000 
#    z -0.313480 0.000000 4.394810 
# 
# 
# High freq. dielectric constant tensor:
#      x y z
#    x 1.950110 0.000000 -0.014010 
#    y 0.000000 1.924190 0.000000 
#    z -0.014010 0.000000 1.936270 
# 
# From -- ./inp_files/14709.got.cif
#   From: 2010.06.25/outbox.cif.g09.slc.cpg/sg9_8_cif.got.tgz:14709.got - 2010.06.27 21:40:51.
