data_PCOD8056212
_publ_section_title
;
Structure prediction by ZEFSAII (Michael W. Deem and Ramdas Pophale) SiO2 
 PCOD8056212
Probable space group: C C
;
_chemical_formula_sum "Si O2"
_cell_formula_units_Z 28
_cell_length_a 10.901552
_cell_length_b 10.853841
_cell_length_c 21.967215
_cell_angle_alpha 90.000000
_cell_angle_beta 151.128303
_cell_angle_gamma 90.000000
_cell_volume 1255.043845
_symmetry_space_group_name_H-M "C C"
_symmetry_group_IT_number 9
_symmetry_cell_setting 'monoclinic'
loop_
_space_group_symop_operation_xyz
x,y,z
x,-y,1/2+z
1/2+x,1/2+y,z
1/2+x,1/2-y,1/2+z
loop_
_atom_site_type_symbol
_atom_site_label
_atom_site_fract_x
_atom_site_fract_y
_atom_site_fract_z
Si Si1 0.230920 0.194573 0.105280
Si Si2 0.307173 0.591423 0.539965
Si Si3 0.637099 0.807215 0.181421
Si Si4 0.678706 0.450587 0.010720
Si Si5 0.268388 0.695626 0.392606
Si Si6 0.620068 0.455093 0.356369
Si Si7 0.242212 0.063626 0.289737
O O1 0.292349 0.298209 0.082325
O O2 0.038455 0.245604 0.074298
O O3 0.480744 0.158465 0.252533
O O4 0.128417 0.070757 0.029856
O O5 0.364222 0.643181 0.498210
O O6 0.553057 0.507680 0.661637
O O7 0.037428 0.516569 0.421151
O O8 0.767202 0.706105 0.281482
O O9 0.839121 0.910664 0.250737
O O10 0.427221 0.870000 0.133536
O O11 0.439698 0.360165 0.913271
O O12 0.739006 0.486582 0.967798
O O13 0.293690 0.843408 0.406352
O O14 0.614872 0.556815 0.301089
#
# Coordination Sequence:
#
# PCOD8056212 Si02
#       7
#     4   4   4   4   4   4   4
#     4  11  22  48  70  96 153 186 230 304 363 411
#     4  12  24  46  79 103 147 196 235 300 365 426
#     4  11  24  45  66 104 141 183 241 287 360 426
#     4  12  25  42  73 104 137 188 245 295 351 439
#     4  11  24  44  68 105 141 192 238 288 364 429
#     4  11  24  46  68 100 147 187 232 303 358 414
#     4  12  25  45  78 106 144 194 237 299 363 429
#
# _framework density 22.309977
#
# number of rings (size 3 to 8) (size 9 to 14) (size 15 to 20)
#    0.000    0.571    7.143    2.571    2.000    0.000 
#    2.571    1.429    0.000    0.000    0.000    0.000 
#    0.000    0.000    0.000    0.000    0.000    0.000 
#
# Total GULP energy -173542.975378 kJ/mol
# GULP energy per Si atom -12395.926813 kJ/mol
# Density = 2.225920 g / cm^3
# Si number density = 22.309977 Si / 1000 Ang^3
#
#
#
# Elastic Constant Matrix: (Units=GPa)
#
#
# Indices 1 2 3 4 5 6 
#
# 1 69.1150 37.9388 16.5943 -0.0023 -2.3647 -0.0009
# 2 37.9388 60.7275 21.1174 -0.0042 10.0942 -0.0003
# 3 16.5943 21.1174 100.4241 -0.0202 2.1962 -0.0101
# 4 -0.0023 -0.0042 -0.0202 26.9546 -0.0079 1.2227
# 5 -2.3647 10.0942 2.1962 -0.0079 43.4894 -0.0069
# 6 -0.0009 -0.0003 -0.0101 1.2227 -0.0069 38.7627
#
#
#
# Elastic Compliance Matrix: (Units=1/GPa)
#
#
# Indices 1 2 3 4 5 6 
#
# 1 0.022983 -0.014878 -0.000773 0.000000 0.004742 0.000001
# 2 -0.014878 0.028098 -0.003293 -0.000001 -0.007164 -0.000002
# 3 -0.000773 -0.003293 0.010774 0.000007 0.000178 0.000003
# 4 0.000000 -0.000001 0.000007 0.037153 0.000007 -0.001172
# 5 0.004742 -0.007164 0.000178 0.000007 0.024906 0.000004
# 6 0.000001 -0.000002 0.000003 -0.001172 0.000004 0.025835
#
#
# Mechanical properties :
#
#
# Convention : Reuss Voigt Hill
#
# Bulk Modulus (GPa) = 41.72432 42.39640 42.06036
# Shear Modulus (GPa) = 25.55892 32.14907 28.85399
#
# Velocity S-wave (km/s) = 3.38838 3.80019 3.60018
# Velocity P-wave (km/s) = 5.83531 6.18869 6.01460
#
# Compressibility (1/GPa) = 0.02396684
#
# Stress axis : x y z
#
# Youngs Moduli (GPa) = 43.50979 35.58973 92.81496
#
# Poissons Ratio (x) = 0.52950 0.07174
# Poissons Ratio (y) = 0.64734 0.30567
# Poissons Ratio (z) = 0.03363 0.11721
#
# Static dielectric constant tensor:
#      x y z
#    x 4.168990 0.000000 -0.206010 
#    y 0.000000 4.129950 0.000010 
#    z -0.206010 0.000010 3.990530 
# 
# 
# High freq. dielectric constant tensor:
#      x y z
#    x 1.888200 0.000000 -0.012970 
#    y 0.000000 1.874280 0.000000 
#    z -0.012970 0.000000 1.871810 
# 
# From -- ./inp_files/16007.got.cif
#   From: 2010.06.25/outbox.cif.g09.slc.cpg/sg9_9_cif.got.tgz:16007.got - 2010.06.27 21:40:51.
