data_PCOD8056919
_publ_section_title
;
Structure prediction by ZEFSAII (Michael W. Deem and Ramdas Pophale) SiO2 
 PCOD8056919
Probable space group: P 2/M
;
_chemical_formula_sum "Si O2"
_cell_formula_units_Z 22
_cell_length_a 14.337391
_cell_length_b 7.985902
_cell_length_c 10.208648
_cell_angle_alpha 90.000000
_cell_angle_beta 102.550670
_cell_angle_gamma 90.000000
_cell_volume 1140.928748
_symmetry_space_group_name_H-M "P 2/M"
_symmetry_group_IT_number 10
_symmetry_cell_setting 'monoclinic'
loop_
_space_group_symop_operation_xyz
x,y,z
-x,y,-z
-x,-y,-z
x,-y,z
loop_
_atom_site_type_symbol
_atom_site_label
_atom_site_fract_x
_atom_site_fract_y
_atom_site_fract_z
Si Si1 0.384715 0.000000 0.954556
Si Si2 0.740990 0.691597 0.528492
Si Si3 0.947327 0.000000 0.342372
Si Si4 0.417555 0.680910 0.081852
Si Si5 0.039442 0.680669 0.365977
Si Si6 0.572603 0.801480 0.636012
Si Si7 0.271787 0.000000 0.660596
O O1 0.346171 0.832125 0.016759
O O2 0.500000 0.000000 0.000000
O O3 0.351126 0.000000 0.796155
O O4 0.730596 0.500000 0.472019
O O5 0.849552 0.728256 0.600700
O O6 0.675812 0.720559 0.636034
O O7 0.708102 0.829912 0.412839
O O8 0.834107 0.000000 0.314232
O O9 0.000000 0.000000 0.500000
O O10 0.981881 0.168438 0.276756
O O11 0.364534 0.500000 0.070430
O O12 0.462482 0.723351 0.237650
O O13 0.500000 0.669786 0.000000
O O14 0.023177 0.500000 0.290497
O O15 0.000000 0.665389 0.500000
O O16 0.500000 0.746511 0.500000
O O17 0.580238 0.000000 0.650342
#
# Coordination Sequence:
#
# PCOD8056919 Si02
#       7
#     2   4   2   4   4   4   2
#     4  10  24  39  56  78 114 157 205 249 274 336
#     4  11  22  34  55  88 124 155 189 239 299 357
#     4  10  16  30  52  79 120 154 182 237 294 361
#     4  10  22  41  61  78 106 155 201 238 289 347
#     4   9  16  29  49  79 119 153 181 224 293 360
#     4  11  24  38  60  87 119 154 197 253 303 345
#     4  12  22  35  56  88 123 157 201 240 300 350
#
# _framework density 19.282536
#
# number of rings (size 3 to 8) (size 9 to 14) (size 15 to 20)
#    0.000    1.636    5.455    0.545    5.091    2.182 
#    0.000    0.000    0.000    0.000    0.000    2.545 
#    0.000    4.364    0.000    0.000    0.000    0.000 
#
# Total GULP energy -272570.125368 kJ/mol
# GULP energy per Si atom -12389.551153 kJ/mol
# Density = 1.923865 g / cm^3
# Si number density = 19.282536 Si / 1000 Ang^3
#
#
#
# Elastic Constant Matrix: (Units=GPa)
#
#
# Indices 1 2 3 4 5 6 
#
# 1 96.2424 17.9118 34.1667 0.0000 -9.0919 0.0000
# 2 17.9118 193.1202 48.3852 0.0000 2.0867 0.0000
# 3 34.1667 48.3852 89.1941 0.0000 -8.6202 0.0000
# 4 0.0000 0.0000 0.0000 24.0525 0.0000 -15.6873
# 5 -9.0919 2.0867 -8.6202 0.0000 15.6738 0.0000
# 6 0.0000 0.0000 0.0000 -15.6873 0.0000 35.9951
#
#
#
# Elastic Compliance Matrix: (Units=1/GPa)
#
#
# Indices 1 2 3 4 5 6 
#
# 1 0.012365 -0.000152 -0.004181 0.000000 0.004893 0.000000
# 2 -0.000152 0.006107 -0.003529 0.000000 -0.002842 0.000000
# 3 -0.004181 -0.003529 0.015355 0.000000 0.006489 0.000000
# 4 0.000000 0.000000 0.000000 0.058087 0.000000 0.025315
# 5 0.004893 -0.002842 0.006489 0.000000 0.070587 0.000000
# 6 0.000000 0.000000 0.000000 0.025315 0.000000 0.038814
#
#
# Mechanical properties :
#
#
# Convention : Reuss Voigt Hill
#
# Bulk Modulus (GPa) = 55.24265 64.38712 59.81489
# Shear Modulus (GPa) = 22.41402 33.68382 28.04892
#
# Velocity S-wave (km/s) = 3.41310 4.18408 3.81810
# Velocity P-wave (km/s) = 6.65158 7.53697 7.10807
#
# Compressibility (1/GPa) = 0.01810195
#
# Stress axis : x y z
#
# Youngs Moduli (GPa) = 80.87088 163.74054 65.12573
#
# Poissons Ratio (x) = 0.02492 0.27230
# Poissons Ratio (y) = 0.01231 0.22986
# Poissons Ratio (z) = 0.33814 0.57791
#
# Static dielectric constant tensor:
#      x y z
#    x 3.440410 0.000000 -0.197750 
#    y 0.000000 5.607140 0.000000 
#    z -0.197750 0.000000 3.208810 
# 
# 
# High freq. dielectric constant tensor:
#      x y z
#    x 1.730300 0.000000 -0.015190 
#    y 0.000000 1.795330 0.000000 
#    z -0.015190 0.000000 1.691300 
# 
# From -- ./inp_files/27370.got.cif
#   From: 2010.06.25/outbox.cif.g09.slc.cpg/sg10_14_cif.got.tgz:27370.got - 2010.06.27 22:07:45.
