data_PCOD8056901
_publ_section_title
;
Structure prediction by ZEFSAII (Michael W. Deem and Ramdas Pophale) SiO2 
 PCOD8056901
Probable space group: P 2/M
;
_chemical_formula_sum "Si O2"
_cell_formula_units_Z 30
_cell_length_a 31.871799
_cell_length_b 9.305417
_cell_length_c 12.435064
_cell_angle_alpha 90.000000
_cell_angle_beta 153.906318
_cell_angle_gamma 90.000000
_cell_volume 1622.128688
_symmetry_space_group_name_H-M "P 2/M"
_symmetry_group_IT_number 10
_symmetry_cell_setting 'monoclinic'
loop_
_space_group_symop_operation_xyz
x,y,z
-x,y,-z
-x,-y,-z
x,-y,z
loop_
_atom_site_type_symbol
_atom_site_label
_atom_site_fract_x
_atom_site_fract_y
_atom_site_fract_z
Si Si1 0.999135 0.160969 0.760068
Si Si2 0.709836 0.166236 0.786412
Si Si3 0.206016 0.660594 0.439963
Si Si4 0.816043 0.672221 0.846813
Si Si5 0.676338 0.333728 0.094606
Si Si6 0.529638 0.336096 0.447061
Si Si7 0.000000 0.246638 0.000000
Si Si8 0.203926 0.835374 0.791128
O O1 0.998706 0.151938 0.888914
O O2 0.899069 0.220391 0.484413
O O3 0.018858 0.000000 0.762262
O O4 0.077465 0.267722 0.890856
O O5 0.743843 0.262018 0.765633
O O6 0.607278 0.223270 0.586588
O O7 0.700014 0.000000 0.729303
O O8 0.786244 0.183236 0.058167
O O9 0.244302 0.500000 0.520128
O O10 0.218843 0.728543 0.351008
O O11 0.272339 0.737878 0.682299
O O12 0.095099 0.657139 0.219304
O O13 0.818681 0.500000 0.861326
O O14 0.705552 0.500000 0.150160
O O15 0.712893 0.255947 0.072009
O O16 0.562678 0.315905 0.841853
O O17 0.500000 0.299849 0.500000
O O18 0.568352 0.500000 0.528535
O O19 0.217751 0.000000 0.787911
#
# Coordination Sequence:
#
# PCOD8056901 Si02
#       8
#     4   4   4   4   4   4   2   4
#     4  10  20  34  52  80 114 147 184 221 269 323
#     4  11  23  39  59  79 108 147 186 226 274 328
#     4   9  18  32  53  82 112 144 181 225 271 319
#     4  10  22  39  57  78 109 148 190 228 267 319
#     4  10  19  34  56  84 114 142 176 222 276 326
#     4  10  20  35  58  86 112 139 177 226 276 326
#     4  10  16  28  54  80 111 146 185 218 267 316
#     4  10  21  35  53  81 114 146 178 221 273 326
#
# _framework density 18.494216999999999
#
# number of rings (size 3 to 8) (size 9 to 14) (size 15 to 20)
#    0.000    2.000    2.667    1.200    0.000    2.933 
#    0.000    4.000    0.000    4.000    0.000    0.000 
#    0.000    0.000    0.000    0.000    0.000    0.000 
#
# Total GULP energy -371941.671861 kJ/mol
# GULP energy per Si atom -12398.055729 kJ/mol
# Density = 1.845212 g / cm^3
# Si number density = 18.494217 Si / 1000 Ang^3
#
#
#
# Elastic Constant Matrix: (Units=GPa)
#
#
# Indices 1 2 3 4 5 6 
#
# 1 97.6846 41.6285 39.2317 0.0000 3.2999 0.0000
# 2 41.6285 76.5551 26.6665 0.0000 5.9679 0.0000
# 3 39.2317 26.6665 106.9156 0.0000 -3.9561 0.0000
# 4 0.0000 0.0000 0.0000 26.0757 0.0000 4.3491
# 5 3.2999 5.9679 -3.9561 0.0000 22.4585 0.0000
# 6 0.0000 0.0000 0.0000 4.3491 0.0000 26.2483
#
#
#
# Elastic Compliance Matrix: (Units=1/GPa)
#
#
# Indices 1 2 3 4 5 6 
#
# 1 0.014563 -0.006528 -0.003755 0.000000 -0.001067 0.000000
# 2 -0.006528 0.017689 -0.002169 0.000000 -0.004124 0.000000
# 3 -0.003755 -0.002169 0.011388 0.000000 0.003134 0.000000
# 4 0.000000 0.000000 0.000000 0.039440 0.000000 -0.006535
# 5 -0.001067 -0.004124 0.003134 0.000000 0.046331 0.000000
# 6 0.000000 0.000000 0.000000 -0.006535 0.000000 0.039180
#
#
# Mechanical properties :
#
#
# Convention : Reuss Voigt Hill
#
# Bulk Modulus (GPa) = 53.37310 55.13431 54.25371
# Shear Modulus (GPa) = 25.03239 26.53174 25.78206
#
# Velocity S-wave (km/s) = 3.68302 3.79172 3.73776
# Velocity P-wave (km/s) = 6.85625 7.00327 6.93015
#
# Compressibility (1/GPa) = 0.01873603
#
# Stress axis : x y z
#
# Youngs Moduli (GPa) = 68.66721 56.53170 87.81105
#
# Poissons Ratio (x) = 0.36903 0.32974
# Poissons Ratio (y) = 0.44825 0.19048
# Poissons Ratio (z) = 0.25785 0.12263
#
# Static dielectric constant tensor:
#      x y z
#    x 3.304460 0.000000 -0.188940 
#    y 0.000000 3.249400 0.000000 
#    z -0.188940 0.000000 3.623970 
# 
# 
# High freq. dielectric constant tensor:
#      x y z
#    x 1.704510 0.000000 -0.009320 
#    y 0.000000 1.707030 0.000000 
#    z -0.009320 0.000000 1.724680 
# 
# From -- ./inp_files/58018.got.cif
#   From: 2010.06.25/outbox.cif.g09.slc.cpg/sg10_30_cif.got.tgz:58018.got - 2010.06.27 22:07:45.
