data_PCOD8056915
_publ_section_title
;
Structure prediction by ZEFSAII (Michael W. Deem and Ramdas Pophale) SiO2 
 PCOD8056915
Probable space group: P 2/M
;
_chemical_formula_sum "Si O2"
_cell_formula_units_Z 30
_cell_length_a 28.792718
_cell_length_b 9.326620
_cell_length_c 16.595446
_cell_angle_alpha 90.000000
_cell_angle_beta 21.951177
_cell_angle_gamma 90.000000
_cell_volume 1665.920247
_symmetry_space_group_name_H-M "P 2/M"
_symmetry_group_IT_number 10
_symmetry_cell_setting 'monoclinic'
loop_
_space_group_symop_operation_xyz
x,y,z
-x,y,-z
-x,-y,-z
x,-y,z
loop_
_atom_site_type_symbol
_atom_site_label
_atom_site_fract_x
_atom_site_fract_y
_atom_site_fract_z
Si Si1 0.883546 0.331485 0.906059
Si Si2 0.269221 0.840736 0.967238
Si Si3 0.561780 0.668799 0.697200
Si Si4 0.370144 0.666853 0.238783
Si Si5 0.500000 0.248268 0.500000
Si Si6 0.833178 0.669320 0.557409
Si Si7 0.312648 0.170549 0.079958
Si Si8 0.325569 0.340039 0.645803
O O1 0.859403 0.500000 0.935926
O O2 0.025874 0.294541 0.694244
O O3 0.836432 0.261435 0.899044
O O4 0.799202 0.268972 0.115696
O O5 0.395386 0.846999 0.711663
O O6 0.213282 0.000000 0.060071
O O7 0.298671 0.786206 0.009350
O O8 0.529465 0.500000 0.738630
O O9 0.648867 0.694321 0.635189
O O10 0.630478 0.735819 0.507869
O O11 0.436196 0.755508 0.915295
O O12 0.376908 0.500000 0.208316
O O13 0.252880 0.726978 0.377476
O O14 0.500000 0.737676 0.000000
O O15 0.435098 0.344364 0.535919
O O16 0.817333 0.500000 0.600420
O O17 0.802207 0.760346 0.686917
O O18 0.318311 0.000000 0.083717
O O19 0.291710 0.500000 0.674504
#
# Coordination Sequence:
#
# PCOD8056915 Si02
#       8
#     4   4   4   4   2   4   4   4
#     4   9  20  36  53  74 103 137 176 212 247 299
#     4  10  21  34  50  74 105 138 172 208 254 304
#     4  10  18  32  53  78 105 136 168 205 258 310
#     4   9  16  29  53  79 101 128 170 213 253 303
#     4  10  16  30  50  74 103 136 175 204 251 296
#     4  10  20  37  56  74 100 138 175 210 254 307
#     4  11  22  34  50  78 108 133 166 214 260 300
#     4   9  17  29  49  78 107 133 167 213 255 293
#
# _framework density 18.008064000000001
#
# number of rings (size 3 to 8) (size 9 to 14) (size 15 to 20)
#    0.000    2.267    2.667    0.800    0.000    2.667 
#    0.000    4.667    0.000    4.000    0.000    0.000 
#    0.000    4.533    0.000    0.000    0.000    0.000 
#
# Total GULP energy -371847.841417 kJ/mol
# GULP energy per Si atom -12394.928047 kJ/mol
# Density = 1.796708 g / cm^3
# Si number density = 18.008064 Si / 1000 Ang^3
#
#
#
# Elastic Constant Matrix: (Units=GPa)
#
#
# Indices 1 2 3 4 5 6 
#
# 1 118.6870 22.4921 63.2825 0.0000 3.0096 0.0000
# 2 22.4921 44.3141 27.8714 0.0000 -1.0415 0.0000
# 3 63.2825 27.8714 117.7299 0.0000 -5.9510 0.0000
# 4 0.0000 0.0000 0.0000 13.8523 0.0000 3.2500
# 5 3.0096 -1.0415 -5.9510 0.0000 30.7328 0.0000
# 6 0.0000 0.0000 0.0000 3.2500 0.0000 14.0237
#
#
#
# Elastic Compliance Matrix: (Units=1/GPa)
#
#
# Indices 1 2 3 4 5 6 
#
# 1 0.012204 -0.002406 -0.006115 0.000000 -0.002461 0.000000
# 2 -0.002406 0.026992 -0.005088 0.000000 0.000165 0.000000
# 3 -0.006115 -0.005088 0.013136 0.000000 0.002970 0.000000
# 4 0.000000 0.000000 0.000000 0.076341 0.000000 -0.017692
# 5 -0.002461 0.000165 0.002970 0.000000 0.033360 0.000000
# 6 0.000000 0.000000 0.000000 -0.017692 0.000000 0.075408
#
#
# Mechanical properties :
#
#
# Convention : Reuss Voigt Hill
#
# Bulk Modulus (GPa) = 39.82026 56.44698 48.13362
# Shear Modulus (GPa) = 18.31299 22.86075 20.58687
#
# Velocity S-wave (km/s) = 3.19240 3.56683 3.38480
# Velocity P-wave (km/s) = 5.97905 6.95532 6.48558
#
# Compressibility (1/GPa) = 0.02511285
#
# Stress axis : x y z
#
# Youngs Moduli (GPa) = 81.93857 37.04849 76.12925
#
# Poissons Ratio (x) = 0.08915 0.46551
# Poissons Ratio (y) = 0.19717 0.38736
# Poissons Ratio (z) = 0.50104 0.18851
#
# Static dielectric constant tensor:
#      x y z
#    x 3.442440 0.000000 0.119640 
#    y 0.000000 2.995220 0.000000 
#    z 0.119640 0.000000 3.401080 
# 
# 
# High freq. dielectric constant tensor:
#      x y z
#    x 1.700430 0.000000 0.009860 
#    y 0.000000 1.664190 0.000000 
#    z 0.009860 0.000000 1.692030 
# 
# From -- ./inp_files/80718.got.cif
#   From: 2010.06.25/outbox.cif.g09.slc.cpg/sg10_41_cif.got.tgz:80718.got - 2010.06.27 22:07:45.
