data_PCOD8056921
_publ_section_title
;
Structure prediction by ZEFSAII (Michael W. Deem and Ramdas Pophale) SiO2 
 PCOD8056921
Probable space group: P 2/M
;
_chemical_formula_sum "Si O2"
_cell_formula_units_Z 30
_cell_length_a 28.716005
_cell_length_b 8.989568
_cell_length_c 16.526102
_cell_angle_alpha 90.000000
_cell_angle_beta 21.900226
_cell_angle_gamma 90.000000
_cell_volume 1591.226999
_symmetry_space_group_name_H-M "P 2/M"
_symmetry_group_IT_number 10
_symmetry_cell_setting 'monoclinic'
loop_
_space_group_symop_operation_xyz
x,y,z
-x,y,-z
-x,-y,-z
x,-y,z
loop_
_atom_site_type_symbol
_atom_site_label
_atom_site_fract_x
_atom_site_fract_y
_atom_site_fract_z
Si Si1 0.891791 0.177127 0.912252
Si Si2 0.272743 0.834487 0.965700
Si Si3 0.550784 0.672952 0.713485
Si Si4 0.370828 0.672754 0.240063
Si Si5 0.500000 0.254857 0.500000
Si Si6 0.847549 0.677575 0.521661
Si Si7 0.294511 0.177918 0.109686
Si Si8 0.316297 0.334982 0.662435
O O1 0.019994 0.261174 0.720969
O O2 0.909506 0.000000 0.884526
O O3 0.831877 0.237453 0.924241
O O4 0.795709 0.222124 0.137954
O O5 0.407173 0.842548 0.704780
O O6 0.228061 0.000000 0.055180
O O7 0.279213 0.756241 0.042902
O O8 0.512394 0.500000 0.768269
O O9 0.642426 0.699399 0.642261
O O10 0.619032 0.728857 0.522646
O O11 0.427163 0.768032 0.929302
O O12 0.375076 0.500000 0.211203
O O13 0.251493 0.738024 0.385192
O O14 0.500000 0.746381 0.000000
O O15 0.416775 0.351815 0.572928
O O16 0.852069 0.500000 0.521465
O O17 0.815004 0.749679 0.660668
O O18 0.287459 0.000000 0.125199
O O19 0.262255 0.500000 0.733327
#
# Coordination Sequence:
#
# PCOD8056921 Si02
#       8
#     4   4   4   4   2   4   4   4
#     4  10  22  40  58  77 108 152 191 224 265 327
#     4   9  19  33  52  78 111 151 188 218 263 328
#     4  10  19  35  56  84 114 145 180 224 274 325
#     4   9  17  33  59  83 107 140 182 223 272 331
#     4  10  16  30  52  82 111 146 183 228 269 310
#     4  11  22  39  60  81 107 143 185 232 277 325
#     4  11  21  34  54  84 115 145 180 224 274 326
#     4  10  20  33  54  84 116 144 180 228 277 321
#
# _framework density 18.853373999999999
#
# number of rings (size 3 to 8) (size 9 to 14) (size 15 to 20)
#    0.000    2.000    2.667    1.600    0.000    1.600 
#    0.000    7.333    0.000    4.000    0.000    0.000 
#    0.000    0.000    0.000    0.000    0.000    0.000 
#
# Total GULP energy -371872.066334 kJ/mol
# GULP energy per Si atom -12395.735544 kJ/mol
# Density = 1.881046 g / cm^3
# Si number density = 18.853374 Si / 1000 Ang^3
#
#
#
# Elastic Constant Matrix: (Units=GPa)
#
#
# Indices 1 2 3 4 5 6 
#
# 1 97.3104 20.2887 53.4706 0.0000 3.7198 0.0000
# 2 20.2887 64.7887 31.2059 0.0000 -0.5629 0.0000
# 3 53.4706 31.2059 118.7777 0.0000 -5.0944 0.0000
# 4 0.0000 0.0000 0.0000 30.2309 0.0000 2.8549
# 5 3.7198 -0.5629 -5.0944 0.0000 32.7521 0.0000
# 6 0.0000 0.0000 0.0000 2.8549 0.0000 17.2523
#
#
#
# Elastic Compliance Matrix: (Units=1/GPa)
#
#
# Indices 1 2 3 4 5 6 
#
# 1 0.013992 -0.001508 -0.006012 0.000000 -0.002550 0.000000
# 2 -0.001508 0.017839 -0.004014 0.000000 -0.000146 0.000000
# 3 -0.006012 -0.004014 0.012288 0.000000 0.002525 0.000000
# 4 0.000000 0.000000 0.000000 0.033604 0.000000 -0.005561
# 5 -0.002550 -0.000146 0.002525 0.000000 0.031212 0.000000
# 6 0.000000 0.000000 0.000000 -0.005561 0.000000 0.058883
#
#
# Mechanical properties :
#
#
# Convention : Reuss Voigt Hill
#
# Bulk Modulus (GPa) = 47.50343 54.53415 51.01879
# Shear Modulus (GPa) = 25.26474 27.77450 26.51962
#
# Velocity S-wave (km/s) = 3.66466 3.84237 3.75457
# Velocity P-wave (km/s) = 6.56942 6.97663 6.77608
#
# Compressibility (1/GPa) = 0.02105111
#
# Stress axis : x y z
#
# Youngs Moduli (GPa) = 71.47075 56.05617 81.37736
#
# Poissons Ratio (x) = 0.08453 0.48923
# Poissons Ratio (y) = 0.10778 0.32667
# Poissons Ratio (z) = 0.42967 0.22502
#
# Static dielectric constant tensor:
#      x y z
#    x 3.681720 0.000000 0.030790 
#    y 0.000000 3.164840 0.000000 
#    z 0.030790 0.000000 3.371600 
# 
# 
# High freq. dielectric constant tensor:
#      x y z
#    x 1.737330 0.000000 0.006570 
#    y 0.000000 1.709260 0.000000 
#    z 0.006570 0.000000 1.724240 
# 
# From -- ./inp_files/80717.got.cif
#   From: 2010.06.25/outbox.cif.g09.slc.cpg/sg10_41_cif.got.tgz:80717.got - 2010.06.27 22:07:45.
