data_PCOD8056721
_publ_section_title
;
Structure prediction by ZEFSAII (Michael W. Deem and Ramdas Pophale) SiO2 
 PCOD8056721
Probable space group: C C
;
_chemical_formula_sum "Si O2"
_cell_formula_units_Z 32
_cell_length_a 14.156253
_cell_length_b 6.308386
_cell_length_c 15.447904
_cell_angle_alpha 90.000000
_cell_angle_beta 68.158784
_cell_angle_gamma 90.000000
_cell_volume 1280.519892
_symmetry_space_group_name_H-M "C C"
_symmetry_group_IT_number 9
_symmetry_cell_setting 'monoclinic'
loop_
_space_group_symop_operation_xyz
x,y,z
x,-y,1/2+z
1/2+x,1/2+y,z
1/2+x,1/2-y,1/2+z
loop_
_atom_site_type_symbol
_atom_site_label
_atom_site_fract_x
_atom_site_fract_y
_atom_site_fract_z
Si Si1 0.535270 0.534461 0.821250
Si Si2 0.772673 0.507802 0.438417
Si Si3 0.829499 0.109382 0.814882
Si Si4 0.514121 0.970175 0.094372
Si Si5 0.361132 0.398407 0.635530
Si Si6 0.143999 0.318680 0.903603
Si Si7 0.657329 0.281707 0.137256
Si Si8 0.933823 0.780970 0.979006
O O1 0.416373 0.492565 0.840020
O O2 0.559341 0.764400 0.858820
O O3 0.605424 0.525604 0.710991
O O4 0.537977 0.334628 0.887936
O O5 0.836197 0.659209 0.353802
O O6 0.706544 0.397118 0.387463
O O7 0.702495 0.630456 0.532298
O O8 0.843455 0.334844 0.459448
O O9 0.862302 0.094763 0.702968
O O10 0.716534 0.015636 0.859168
O O11 0.430528 0.793790 0.150600
O O12 0.568761 0.103326 0.152615
O O13 0.600771 0.844938 0.014155
O O14 0.462773 0.129642 0.046077
O O15 0.246405 0.313736 0.665753
O O16 0.397234 0.491121 0.530956
#
# Coordination Sequence:
#
# PCOD8056721 Si02
#       8
#     4   4   4   4   4   4   4   4
#     4  12  26  48  75 114 152 203 265 319 396 478
#     4  12  26  49  79 109 158 210 252 330 401 467
#     4  12  27  50  75 113 158 198 263 326 395 477
#     4  12  26  49  80 113 155 207 261 331 404 470
#     4  12  27  51  78 116 158 204 271 331 399 479
#     4  12  25  48  77 107 150 208 257 323 395 475
#     4  12  26  49  78 117 156 206 269 327 401 482
#     4  12  25  50  80 107 161 210 250 337 401 468
#
# _framework density 24.989847999999999
#
# number of rings (size 3 to 8) (size 9 to 14) (size 15 to 20)
#    0.000    0.000    6.250    3.750    1.750    3.000 
#    4.500    0.000    0.000    0.000    0.000    0.000 
#    0.000    0.000    0.000    0.000    0.000    0.000 
#
# Total GULP energy -198230.142935 kJ/mol
# GULP energy per Si atom -12389.383933 kJ/mol
# Density = 2.493297 g / cm^3
# Si number density = 24.989848 Si / 1000 Ang^3
#
#
#
# Elastic Constant Matrix: (Units=GPa)
#
#
# Indices 1 2 3 4 5 6 
#
# 1 117.3665 38.0960 33.9187 0.0000 -5.4521 0.0001
# 2 38.0960 94.3162 50.7916 0.0001 -8.1912 0.0002
# 3 33.9187 50.7916 128.2217 0.0000 -2.2521 0.0000
# 4 0.0000 0.0001 0.0000 31.5440 0.0000 -4.4100
# 5 -5.4521 -8.1912 -2.2521 0.0000 26.2014 0.0000
# 6 0.0001 0.0002 0.0000 -4.4100 0.0000 52.0751
#
#
#
# Elastic Compliance Matrix: (Units=1/GPa)
#
#
# Indices 1 2 3 4 5 6 
#
# 1 0.010003 -0.003231 -0.001350 0.000000 0.000956 0.000000
# 2 -0.003231 0.014901 -0.004986 0.000000 0.003558 0.000000
# 3 -0.001350 -0.004986 0.010114 0.000000 -0.000970 0.000000
# 4 0.000000 0.000000 0.000000 0.032082 0.000000 0.002717
# 5 0.000956 0.003558 -0.000970 0.000000 0.039394 0.000000
# 6 0.000000 0.000000 0.000000 0.002717 0.000000 0.019433
#
#
# Mechanical properties :
#
#
# Convention : Reuss Voigt Hill
#
# Bulk Modulus (GPa) = 62.94602 65.05742 64.00172
# Shear Modulus (GPa) = 33.25464 36.43729 34.84597
#
# Velocity S-wave (km/s) = 3.65187 3.82263 3.73822
# Velocity P-wave (km/s) = 6.55933 6.75081 6.65576
#
# Compressibility (1/GPa) = 0.01588663
#
# Stress axis : x y z
#
# Youngs Moduli (GPa) = 99.96577 67.10735 98.87348
#
# Poissons Ratio (x) = 0.21681 0.13345
# Poissons Ratio (y) = 0.32296 0.49295
# Poissons Ratio (z) = 0.13492 0.33458
#
# Static dielectric constant tensor:
#      x y z
#    x 4.926670 0.000000 0.007190 
#    y 0.000000 4.464800 0.000000 
#    z 0.007190 0.000000 4.716200 
# 
# 
# High freq. dielectric constant tensor:
#      x y z
#    x 2.012840 0.000000 0.003010 
#    y 0.000000 1.986650 0.000000 
#    z 0.003010 0.000000 2.000140 
# 
# From -- ./inp_files/30368.got.cif
#   From: 2010.06.25/outbox.cif.g09.slc.cpg/sg9_16_cif.got.tgz:30368.got - 2010.06.27 21:40:51.
