data_PCOD8056204
_publ_section_title
;
Structure prediction by ZEFSAII (Michael W. Deem and Ramdas Pophale) SiO2 
 PCOD8056204
Probable space group: C C
;
_chemical_formula_sum "Si O2"
_cell_formula_units_Z 32
_cell_length_a 9.839099
_cell_length_b 9.487924
_cell_length_c 17.319667
_cell_angle_alpha 90.000000
_cell_angle_beta 118.775918
_cell_angle_gamma 90.000000
_cell_volume 1417.171758
_symmetry_space_group_name_H-M "C C"
_symmetry_group_IT_number 9
_symmetry_cell_setting 'monoclinic'
loop_
_space_group_symop_operation_xyz
x,y,z
x,-y,1/2+z
1/2+x,1/2+y,z
1/2+x,1/2-y,1/2+z
loop_
_atom_site_type_symbol
_atom_site_label
_atom_site_fract_x
_atom_site_fract_y
_atom_site_fract_z
Si Si1 0.154970 0.689388 0.300080
Si Si2 0.507235 0.980656 0.367538
Si Si3 0.992743 0.374459 0.020661
Si Si4 0.636918 0.333355 0.910003
Si Si5 0.428778 0.648596 0.484224
Si Si6 0.937987 0.102031 0.088447
Si Si7 0.156541 0.364036 0.625015
Si Si8 0.143033 0.985373 0.270127
O O1 0.291997 0.720518 0.398499
O O2 0.212977 0.659856 0.228276
O O3 0.061299 0.837874 0.273390
O O4 0.052620 0.557856 0.300335
O O5 0.604941 0.835708 0.405599
O O6 0.325074 0.950137 0.313432
O O7 0.545243 0.089510 0.447671
O O8 0.808631 0.382732 0.976209
O O9 0.026360 0.216987 0.059662
O O10 0.085094 0.479628 0.102053
O O11 0.542434 0.413887 0.950080
O O12 0.593621 0.389504 0.813746
O O13 0.360216 0.517758 0.513463
O O14 0.516714 0.760749 0.562274
O O15 0.804542 0.160450 0.109216
O O16 0.080428 0.028749 0.170303
#
# Coordination Sequence:
#
# PCOD8056204 Si02
#       8
#     4   4   4   4   4   4   4   4
#     4  12  26  45  75 100 143 193 232 296 359 424
#     4  11  25  48  69 107 145 182 241 295 349 432
#     4  11  23  45  71 101 140 188 231 292 360 419
#     4  11  22  46  74  96 144 185 230 294 358 419
#     4  12  23  47  73  98 140 190 232 294 359 416
#     4  12  27  45  71 105 143 188 239 295 359 424
#     4  12  26  49  68 105 148 180 242 302 346 424
#     4  11  26  45  69 108 139 188 239 286 360 430
#
# _framework density 22.580186000000001
#
# number of rings (size 3 to 8) (size 9 to 14) (size 15 to 20)
#    0.000    0.500    5.000    3.000    3.500    2.000 
#    6.750    0.000    0.000    0.000    0.000    0.000 
#    0.000    0.000    0.000    0.000    0.000    0.000 
#
# Total GULP energy -198307.084609 kJ/mol
# GULP energy per Si atom -12394.192788 kJ/mol
# Density = 2.252879 g / cm^3
# Si number density = 22.580186 Si / 1000 Ang^3
#
#
#
# Elastic Constant Matrix: (Units=GPa)
#
#
# Indices 1 2 3 4 5 6 
#
# 1 75.6949 33.0291 22.5213 0.0000 -17.6708 0.0000
# 2 33.0291 124.2700 51.9324 0.0000 -12.6083 0.0000
# 3 22.5213 51.9324 123.4915 0.0000 -12.1840 0.0000
# 4 0.0000 0.0000 0.0000 44.9517 0.0000 -3.4702
# 5 -17.6708 -12.6083 -12.1840 0.0000 34.2576 0.0000
# 6 0.0000 0.0000 0.0000 -3.4702 0.0000 37.7930
#
#
#
# Elastic Compliance Matrix: (Units=1/GPa)
#
#
# Indices 1 2 3 4 5 6 
#
# 1 0.016564 -0.003298 -0.000944 0.000000 0.006994 0.000000
# 2 -0.003298 0.010584 -0.003765 0.000000 0.000855 0.000000
# 3 -0.000944 -0.003765 0.010020 0.000000 0.001691 0.000000
# 4 0.000000 0.000000 0.000000 0.022405 0.000000 0.002057
# 5 0.006994 0.000855 0.001691 0.000000 0.033715 0.000000
# 6 0.000000 0.000000 0.000000 0.002057 0.000000 0.026649
#
#
# Mechanical properties :
#
#
# Convention : Reuss Voigt Hill
#
# Bulk Modulus (GPa) = 47.27333 59.82466 53.54899
# Shear Modulus (GPa) = 34.96482 37.79871 36.38177
#
# Velocity S-wave (km/s) = 3.93933 4.09586 4.01836
# Velocity P-wave (km/s) = 6.45541 6.99428 6.73024
#
# Compressibility (1/GPa) = 0.02115358
#
# Stress axis : x y z
#
# Youngs Moduli (GPa) = 60.37285 94.48425 99.80073
#
# Poissons Ratio (x) = 0.31165 0.09417
# Poissons Ratio (y) = 0.19914 0.37575
# Poissons Ratio (z) = 0.05697 0.35573
#
# Static dielectric constant tensor:
#      x y z
#    x 4.006600 0.000000 -0.148190 
#    y 0.000000 4.241380 0.000000 
#    z -0.148190 0.000000 4.334810 
# 
# 
# High freq. dielectric constant tensor:
#      x y z
#    x 1.880250 0.000000 0.000620 
#    y 0.000000 1.894430 0.000000 
#    z 0.000620 0.000000 1.906950 
# 
# From -- ./inp_files/29917.got.cif
#   From: 2010.06.25/outbox.cif.g09.slc.cpg/sg9_15_cif.got.tgz:29917.got - 2010.06.27 21:40:51.
