data_PCOD8056221
_publ_section_title
;
Structure prediction by ZEFSAII (Michael W. Deem and Ramdas Pophale) SiO2 
 PCOD8056221
Probable space group: C C
;
_chemical_formula_sum "Si O2"
_cell_formula_units_Z 32
_cell_length_a 28.306688
_cell_length_b 8.515312
_cell_length_c 9.936967
_cell_angle_alpha 90.000000
_cell_angle_beta 38.290215
_cell_angle_gamma 90.000000
_cell_volume 1484.179468
_symmetry_space_group_name_H-M "C C"
_symmetry_group_IT_number 9
_symmetry_cell_setting 'monoclinic'
loop_
_space_group_symop_operation_xyz
x,y,z
x,-y,1/2+z
1/2+x,1/2+y,z
1/2+x,1/2-y,1/2+z
loop_
_atom_site_type_symbol
_atom_site_label
_atom_site_fract_x
_atom_site_fract_y
_atom_site_fract_z
Si Si1 0.101840 0.661070 0.078680
Si Si2 0.861441 0.150153 0.901824
Si Si3 0.533371 0.650153 0.506473
Si Si4 0.622225 0.337585 0.297338
Si Si5 0.272588 0.662414 0.610959
Si Si6 0.292972 0.838929 0.829617
Si Si7 0.113504 0.306473 0.094686
Si Si8 0.781308 0.693527 0.813612
O O1 0.088145 0.782095 0.231531
O O2 0.095643 0.489295 0.156927
O O3 0.041640 0.711128 0.098929
O O4 0.182141 0.669256 0.823813
O O5 0.853172 0.288872 0.809367
O O6 0.947406 0.085465 0.704149
O O7 0.844838 0.215350 0.087106
O O8 0.802021 0.010193 0.005710
O O9 0.592792 0.510193 0.402586
O O10 0.549974 0.715350 0.321192
O O11 0.599030 0.223491 0.470061
O O12 0.712672 0.330742 0.084484
O O13 0.306667 0.717905 0.676766
O O14 0.295782 0.776509 0.438236
O O15 0.299169 0.010705 0.751371
O O16 0.197406 0.250000 0.954149
#
# Coordination Sequence:
#
# PCOD8056221 Si02
#       8
#     4   4   4   4   4   4   4   4
#     4  11  23  42  69 102 133 176 231 278 330 402
#     4  12  27  45  67 101 143 179 221 283 347 396
#     4  12  27  45  67 101 143 179 221 283 347 396
#     4  11  23  40  70 101 135 176 228 279 332 403
#     4  11  23  40  70 101 135 176 228 279 332 403
#     4  11  23  42  69 102 133 176 231 278 330 402
#     4  12  23  41  71 101 132 178 227 279 331 403
#     4  12  23  41  71 101 132 178 227 279 331 403
#
# _framework density 21.560734
#
# number of rings (size 3 to 8) (size 9 to 14) (size 15 to 20)
#    0.000    0.500    5.000    3.000    3.500    5.000 
#    0.000    2.500    0.000    0.000    0.000    0.000 
#    0.000    0.000    0.000    0.000    0.000    0.000 
#
# Total GULP energy -198425.475269 kJ/mol
# GULP energy per Si atom -12401.592204 kJ/mol
# Density = 2.151166 g / cm^3
# Si number density = 21.560734 Si / 1000 Ang^3
#
#
#
# Elastic Constant Matrix: (Units=GPa)
#
#
# Indices 1 2 3 4 5 6 
#
# 1 82.2545 16.9423 42.2872 0.0000 9.0523 0.0000
# 2 16.9423 106.0596 17.7161 0.0000 -3.5698 0.0000
# 3 42.2872 17.7161 107.3754 0.0000 9.1745 0.0000
# 4 0.0000 0.0000 0.0000 28.8320 0.0000 19.7339
# 5 9.0523 -3.5698 9.1745 0.0000 15.6698 0.0000
# 6 0.0000 0.0000 0.0000 19.7339 0.0000 20.4397
#
#
#
# Elastic Compliance Matrix: (Units=1/GPa)
#
#
# Indices 1 2 3 4 5 6 
#
# 1 0.016068 -0.001873 -0.005463 0.000000 -0.006511 0.000000
# 2 -0.001873 0.010080 -0.001278 0.000000 0.004127 0.000000
# 3 -0.005463 -0.001278 0.012032 0.000000 -0.004180 0.000000
# 4 0.000000 0.000000 0.000000 0.102254 0.000000 -0.098723
# 5 -0.006511 0.004127 -0.004180 0.000000 0.070966 0.000000
# 6 0.000000 0.000000 0.000000 -0.098723 0.000000 0.144239
#
#
# Mechanical properties :
#
#
# Convention : Reuss Voigt Hill
#
# Bulk Modulus (GPa) = 47.72628 49.95341 48.83985
# Shear Modulus (GPa) = 13.16301 27.57124 20.36712
#
# Velocity S-wave (km/s) = 2.47353 3.57987 3.07683
# Velocity P-wave (km/s) = 5.50832 6.34872 5.94339
#
# Compressibility (1/GPa) = 0.02095282
#
# Stress axis : x y z
#
# Youngs Moduli (GPa) = 62.23491 99.20328 83.10838
#
# Poissons Ratio (x) = 0.18585 0.45399
# Poissons Ratio (y) = 0.11659 0.10621
# Poissons Ratio (z) = 0.33997 0.12678
#
# Static dielectric constant tensor:
#      x y z
#    x 3.636080 0.000000 0.244030 
#    y 0.000000 3.981180 0.000000 
#    z 0.244030 0.000000 3.932630 
# 
# 
# High freq. dielectric constant tensor:
#      x y z
#    x 1.833780 0.000000 0.028560 
#    y 0.000000 1.853750 0.000000 
#    z 0.028560 0.000000 1.848920 
# 
# From -- ./inp_files/12393.got.cif
#   From: 2010.06.25/outbox.cif.g09.slc.cpg/sg9_7_cif.got.tgz:12393.got - 2010.06.27 21:40:51.
