data_PCOD8056551
_publ_section_title
;
Structure prediction by ZEFSAII (Michael W. Deem and Ramdas Pophale) SiO2 
 PCOD8056551
Probable space group: C C
;
_chemical_formula_sum "Si O2"
_cell_formula_units_Z 32
_cell_length_a 13.488836
_cell_length_b 10.267893
_cell_length_c 8.900826
_cell_angle_alpha 90.000000
_cell_angle_beta 109.112458
_cell_angle_gamma 90.000000
_cell_volume 1164.827831
_symmetry_space_group_name_H-M "C C"
_symmetry_group_IT_number 9
_symmetry_cell_setting 'monoclinic'
loop_
_space_group_symop_operation_xyz
x,y,z
x,-y,1/2+z
1/2+x,1/2+y,z
1/2+x,1/2-y,1/2+z
loop_
_atom_site_type_symbol
_atom_site_label
_atom_site_fract_x
_atom_site_fract_y
_atom_site_fract_z
Si Si1 0.800950 0.472079 0.567690
Si Si2 0.059044 0.338692 0.209469
Si Si3 0.938070 0.686035 0.910771
Si Si4 0.089644 0.217539 0.714157
Si Si5 0.941358 0.349387 0.856899
Si Si6 0.160619 0.926958 0.764621
Si Si7 0.790124 0.143798 0.176723
Si Si8 0.790184 0.888443 0.330298
O O1 0.846828 0.379856 0.462136
O O2 0.893817 0.478508 0.743772
O O3 0.703491 0.416135 0.615603
O O4 0.752781 0.594547 0.443452
O O5 0.068901 0.179788 0.232761
O O6 0.171417 0.385636 0.207331
O O7 0.028396 0.394262 0.361484
O O8 0.970294 0.387629 0.043692
O O9 0.879170 0.747293 0.737729
O O10 0.995665 0.789169 0.046806
O O11 0.184026 0.300570 0.694097
O O12 0.048718 0.298178 0.837404
O O13 0.118765 0.071836 0.776386
O O14 0.854791 0.235023 0.802961
O O15 0.837354 0.021508 0.291855
O O16 0.779731 0.103642 0.001811
#
# Coordination Sequence:
#
# PCOD8056551 Si02
#       8
#     4   4   4   4   4   4   4   4
#     4  11  26  47  73 111 154 197 240 320 380 445
#     4  12  26  49  75 114 148 198 256 312 375 456
#     4  11  25  48  73 108 151 195 251 303 383 447
#     4  11  26  47  73 112 152 192 251 311 385 447
#     4  11  27  49  75 113 149 199 252 310 381 453
#     4  12  25  46  82 111 150 197 254 325 376 447
#     4  12  28  50  74 106 153 199 244 316 372 461
#     4  12  29  50  75 107 153 201 252 307 382 454
#
# _framework density 27.471869999999999
#
# number of rings (size 3 to 8) (size 9 to 14) (size 15 to 20)
#    0.000    0.500    5.000    1.500    8.750    1.000 
#    9.000    0.000    0.000    0.000    0.000    0.000 
#    0.000    0.000    0.000    0.000    0.000    0.000 
#
# Total GULP energy -198213.726370 kJ/mol
# GULP energy per Si atom -12388.357898 kJ/mol
# Density = 2.740934 g / cm^3
# Si number density = 27.471870 Si / 1000 Ang^3
#
#
#
# Elastic Constant Matrix: (Units=GPa)
#
#
# Indices 1 2 3 4 5 6 
#
# 1 91.7186 12.9693 34.3903 0.0000 -14.4223 0.0000
# 2 12.9693 70.4571 25.3557 0.0000 -0.7218 0.0000
# 3 34.3903 25.3557 163.8758 0.0000 -0.4242 0.0000
# 4 0.0000 0.0000 0.0000 41.7420 0.0000 8.2945
# 5 -14.4223 -0.7218 -0.4242 0.0000 57.6050 0.0000
# 6 0.0000 0.0000 0.0000 8.2945 0.0000 30.4283
#
#
#
# Elastic Compliance Matrix: (Units=1/GPa)
#
#
# Indices 1 2 3 4 5 6 
#
# 1 0.012485 -0.001405 -0.002395 0.000000 0.003091 0.000000
# 2 -0.001405 0.015190 -0.002056 0.000000 -0.000177 0.000000
# 3 -0.002395 -0.002056 0.006921 0.000000 -0.000574 0.000000
# 4 0.000000 0.000000 0.000000 0.025329 0.000000 -0.006904
# 5 0.003091 -0.000177 -0.000574 0.000000 0.018127 0.000000
# 6 0.000000 0.000000 0.000000 -0.006904 0.000000 0.034746
#
#
# Mechanical properties :
#
#
# Convention : Reuss Voigt Hill
#
# Bulk Modulus (GPa) = 43.69554 52.38690 48.04122
# Shear Modulus (GPa) = 37.83927 42.84413 40.34170
#
# Velocity S-wave (km/s) = 3.71534 3.95342 3.83622
# Velocity P-wave (km/s) = 5.86047 6.32060 6.09488
#
# Compressibility (1/GPa) = 0.02288563
#
# Stress axis : x y z
#
# Youngs Moduli (GPa) = 80.09293 65.83422 144.48038
#
# Poissons Ratio (x) = 0.09248 0.34600
# Poissons Ratio (y) = 0.11251 0.29703
# Poissons Ratio (z) = 0.19181 0.13535
#
# Static dielectric constant tensor:
#      x y z
#    x 5.400920 0.000000 0.036010 
#    y 0.000000 4.971780 0.000000 
#    z 0.036010 0.000000 5.403350 
# 
# 
# High freq. dielectric constant tensor:
#      x y z
#    x 2.136090 0.000000 -0.008960 
#    y 0.000000 2.093940 0.000000 
#    z -0.008960 0.000000 2.127490 
# 
# From -- ./inp_files/9099.got.cif
#   From: 2010.06.25/outbox.cif.g09.slc.cpg/sg9_5_cif.got.tgz:9099.got - 2010.06.27 21:40:51.
