data_PCOD8056761
_publ_section_title
;
Structure prediction by ZEFSAII (Michael W. Deem and Ramdas Pophale) SiO2 
 PCOD8056761
Probable space group: C C
;
_chemical_formula_sum "Si O2"
_cell_formula_units_Z 28
_cell_length_a 5.160191
_cell_length_b 14.330261
_cell_length_c 16.537711
_cell_angle_alpha 90.000000
_cell_angle_beta 115.637969
_cell_angle_gamma 90.000000
_cell_volume 1102.511587
_symmetry_space_group_name_H-M "C C"
_symmetry_group_IT_number 9
_symmetry_cell_setting 'monoclinic'
loop_
_space_group_symop_operation_xyz
x,y,z
x,-y,1/2+z
1/2+x,1/2+y,z
1/2+x,1/2-y,1/2+z
loop_
_atom_site_type_symbol
_atom_site_label
_atom_site_fract_x
_atom_site_fract_y
_atom_site_fract_z
Si Si1 0.512050 0.864508 0.448190
Si Si2 0.095017 0.838312 0.979603
Si Si3 0.864474 0.897255 0.334539
Si Si4 0.945166 0.105196 0.289859
Si Si5 0.166331 0.659914 0.643085
Si Si6 0.791669 0.367218 0.674099
Si Si7 0.380834 0.483675 0.060467
O O1 0.557837 0.768357 0.503683
O O2 0.724316 0.876682 0.401239
O O3 0.186078 0.858599 0.375427
O O4 0.594679 0.950401 0.519122
O O5 0.383586 0.876756 0.059720
O O6 0.862048 0.913025 0.981144
O O7 0.083722 0.833560 0.880670
O O8 0.667385 0.846473 0.240430
O O9 0.893041 0.004756 0.319555
O O10 0.634705 0.139060 0.218886
O O11 0.169618 0.112785 0.247220
O O12 0.206251 0.767603 0.624739
O O13 0.399993 0.584399 0.641780
O O14 0.661439 0.448453 0.599205
#
# Coordination Sequence:
#
# PCOD8056761 Si02
#       7
#     4   4   4   4   4   4   4
#     4  12  28  51  76 112 154 205 254 319 382 463
#     4  12  28  47  78 112 154 203 259 317 389 454
#     4  12  26  50  79 108 157 203 256 313 389 455
#     4  12  26  50  79 108 157 203 256 313 389 455
#     4  12  28  47  78 112 154 203 259 317 389 454
#     4  12  28  51  76 112 154 205 254 319 382 463
#     4  12  28  48  80 110 160 202 258 326 382 454
#
# _framework density 25.396559
#
# number of rings (size 3 to 8) (size 9 to 14) (size 15 to 20)
#    0.000    0.000    4.286    4.286    8.000    0.000 
#    0.000    0.000    0.000    0.000    0.000    0.000 
#    0.000    0.000    0.000    0.000    0.000    0.000 
#
# Total GULP energy -173566.519685 kJ/mol
# GULP energy per Si atom -12397.608549 kJ/mol
# Density = 2.533876 g / cm^3
# Si number density = 25.396559 Si / 1000 Ang^3
#
#
#
# Elastic Constant Matrix: (Units=GPa)
#
#
# Indices 1 2 3 4 5 6 
#
# 1 66.7697 13.5709 18.4178 0.0000 6.2642 0.0000
# 2 13.5709 196.1582 33.1733 0.0000 0.5293 0.0000
# 3 18.4178 33.1733 116.5528 0.0000 13.8223 0.0000
# 4 0.0000 0.0000 0.0000 83.7303 0.0000 21.6287
# 5 6.2642 0.5293 13.8223 0.0000 47.6622 0.0000
# 6 0.0000 0.0000 0.0000 21.6287 0.0000 32.8181
#
#
#
# Elastic Compliance Matrix: (Units=1/GPa)
#
#
# Indices 1 2 3 4 5 6 
#
# 1 0.015848 -0.000734 -0.002123 0.000000 -0.001459 0.000000
# 2 -0.000734 0.005397 -0.001475 0.000000 0.000464 0.000000
# 3 -0.002123 -0.001475 0.009631 0.000000 -0.002498 0.000000
# 4 0.000000 0.000000 0.000000 0.014393 0.000000 -0.009486
# 5 -0.001459 0.000464 -0.002498 0.000000 0.021892 0.000000
# 6 0.000000 0.000000 0.000000 -0.009486 0.000000 0.036723
#
#
# Mechanical properties :
#
#
# Convention : Reuss Voigt Hill
#
# Bulk Modulus (GPa) = 45.01676 56.64495 50.83086
# Shear Modulus (GPa) = 41.68334 53.79670 47.74002
#
# Velocity S-wave (km/s) = 4.05569 4.60746 4.34035
# Velocity P-wave (km/s) = 6.30044 7.11741 6.72135
#
# Compressibility (1/GPa) = 0.02221395
#
# Stress axis : x y z
#
# Youngs Moduli (GPa) = 63.09812 185.29141 103.82821
#
# Poissons Ratio (x) = 0.13592 0.22038
# Poissons Ratio (y) = 0.04629 0.15317
# Poissons Ratio (z) = 0.13393 0.27334
#
# Static dielectric constant tensor:
#      x y z
#    x 3.707840 0.000000 -0.492120 
#    y 0.000000 4.894210 0.000000 
#    z -0.492120 0.000000 4.396090 
# 
# 
# High freq. dielectric constant tensor:
#      x y z
#    x 1.996240 0.000000 0.002100 
#    y 0.000000 2.042120 0.000000 
#    z 0.002100 0.000000 2.022400 
# 
# From -- ./inp_files/28562.got.cif
#   From: 2010.06.25/outbox.cif.g09.slc.cpg/sg9_15_cif.got.tgz:28562.got - 2010.06.27 21:40:51.
