data_PCOD8056890
_publ_section_title
;
Structure prediction by ZEFSAII (Michael W. Deem and Ramdas Pophale) SiO2 
 PCOD8056890
Probable space group: P 2/M
;
_chemical_formula_sum "Si O2"
_cell_formula_units_Z 28
_cell_length_a 9.715686
_cell_length_b 14.112877
_cell_length_c 14.143202
_cell_angle_alpha 90.000000
_cell_angle_beta 61.528324
_cell_angle_gamma 90.000000
_cell_volume 1704.714974
_symmetry_space_group_name_H-M "P 2/M"
_symmetry_group_IT_number 10
_symmetry_cell_setting 'monoclinic'
loop_
_space_group_symop_operation_xyz
x,y,z
-x,y,-z
-x,-y,-z
x,-y,z
loop_
_atom_site_type_symbol
_atom_site_label
_atom_site_fract_x
_atom_site_fract_y
_atom_site_fract_z
Si Si1 0.381137 0.215946 0.820787
Si Si2 0.332893 0.603743 0.082513
Si Si3 0.324062 0.894903 0.019775
Si Si4 0.485482 0.889706 0.396572
Si Si5 0.274437 0.227427 0.207523
Si Si6 0.821112 0.393186 0.065654
Si Si7 0.167360 0.104802 0.399312
O O1 0.397840 0.169424 0.710796
O O2 0.552016 0.225302 0.808458
O O3 0.287070 0.316188 0.843354
O O4 0.295967 0.146594 0.923539
O O5 0.366151 0.500000 0.114478
O O6 0.242997 0.662804 0.192996
O O7 0.500000 0.652583 0.000000
O O8 0.227836 0.599270 0.025948
O O9 0.237063 0.828816 0.123371
O O10 0.250862 0.000000 0.043149
O O11 0.500000 0.900139 0.000000
O O12 0.500000 0.854150 0.500000
O O13 0.304319 0.872568 0.428800
O O14 0.532636 0.000000 0.372471
O O15 0.157618 0.185063 0.322670
O O16 0.806134 0.500000 0.116304
O O17 0.000000 0.358743 0.000000
O O18 0.000000 0.106204 0.500000
O O19 0.200508 0.000000 0.344307
#
# Coordination Sequence:
#
# PCOD8056890 Si02
#       7
#     4   4   4   4   4   4   4
#     4  10  17  29  48  70  95 125 160 196 235 283
#     4  10  17  29  49  73  98 123 157 196 235 289
#     4   9  15  23  40  70  99 120 147 189 236 280
#     4   9  18  33  51  69  91 126 169 203 232 275
#     4  10  16  27  47  73  96 123 157 198 236 280
#     4  10  20  33  48  70 101 131 158 193 241 294
#     4   9  18  32  49  69  95 127 163 200 238 281
#
# _framework density 16.425034
#
# number of rings (size 3 to 8) (size 9 to 14) (size 15 to 20)
#    0.000    2.429    2.857    1.286    0.000    3.429 
#    2.571    0.000    0.000    2.571    0.000    0.000 
#    0.000    0.000    0.000    0.000    0.000    0.000 
#
# Total GULP energy -346868.512525 kJ/mol
# GULP energy per Si atom -12388.161162 kJ/mol
# Density = 1.638765 g / cm^3
# Si number density = 16.425034 Si / 1000 Ang^3
#
#
#
# Elastic Constant Matrix: (Units=GPa)
#
#
# Indices 1 2 3 4 5 6 
#
# 1 48.4817 20.0927 33.2997 0.0000 1.9066 0.0000
# 2 20.0927 108.8875 57.7103 0.0000 7.1153 0.0000
# 3 33.2997 57.7103 96.4883 0.0000 17.4891 0.0000
# 4 0.0000 0.0000 0.0000 35.2367 0.0000 0.5809
# 5 1.9066 7.1153 17.4891 0.0000 22.7849 0.0000
# 6 0.0000 0.0000 0.0000 0.5809 0.0000 17.2661
#
#
#
# Elastic Compliance Matrix: (Units=1/GPa)
#
#
# Indices 1 2 3 4 5 6 
#
# 1 0.027688 0.000198 -0.010737 0.000000 0.005862 0.000000
# 2 0.000198 0.013552 -0.008600 0.000000 0.002353 0.000000
# 3 -0.010737 -0.008600 0.021564 0.000000 -0.012968 0.000000
# 4 0.000000 0.000000 0.000000 0.028395 0.000000 -0.000955
# 5 0.005862 0.002353 -0.012968 0.000000 0.052617 0.000000
# 6 0.000000 0.000000 0.000000 -0.000955 0.000000 0.057949
#
#
# Mechanical properties :
#
#
# Convention : Reuss Voigt Hill
#
# Bulk Modulus (GPa) = 40.77313 52.89587 46.83450
# Shear Modulus (GPa) = 20.14360 24.57452 22.35906
#
# Velocity S-wave (km/s) = 3.50579 3.87222 3.69355
# Velocity P-wave (km/s) = 6.42379 7.22956 6.83855
#
# Compressibility (1/GPa) = 0.02452596
#
# Stress axis : x y z
#
# Youngs Moduli (GPa) = 36.11636 73.79245 46.37429
#
# Poissons Ratio (x) = -0.01463 0.49791
# Poissons Ratio (y) = -0.00716 0.39882
# Poissons Ratio (z) = 0.38778 0.63462
#
# Static dielectric constant tensor:
#      x y z
#    x 2.833260 0.000000 0.096530 
#    y 0.000000 3.497710 0.000000 
#    z 0.096530 0.000000 2.960740 
# 
# 
# High freq. dielectric constant tensor:
#      x y z
#    x 1.612050 0.000000 0.009660 
#    y 0.000000 1.638160 0.000000 
#    z 0.009660 0.000000 1.602280 
# 
# From -- ./inp_files/61481.got.cif
#   From: 2010.06.25/outbox.cif.g09.slc.cpg/sg10_31_cif.got.tgz:61481.got - 2010.06.27 22:07:45.
