data_PCOD8056326
_publ_section_title
;
Structure prediction by ZEFSAII (Michael W. Deem and Ramdas Pophale) SiO2 
 PCOD8056326
Probable space group: C C
;
_chemical_formula_sum "Si O2"
_cell_formula_units_Z 32
_cell_length_a 14.538988
_cell_length_b 11.398689
_cell_length_c 7.989402
_cell_angle_alpha 90.000000
_cell_angle_beta 76.949125
_cell_angle_gamma 90.000000
_cell_volume 1289.846651
_symmetry_space_group_name_H-M "C C"
_symmetry_group_IT_number 9
_symmetry_cell_setting 'monoclinic'
loop_
_space_group_symop_operation_xyz
x,y,z
x,-y,1/2+z
1/2+x,1/2+y,z
1/2+x,1/2-y,1/2+z
loop_
_atom_site_type_symbol
_atom_site_label
_atom_site_fract_x
_atom_site_fract_y
_atom_site_fract_z
Si Si1 0.242240 0.651930 0.507640
Si Si2 0.634267 0.468447 0.876731
Si Si3 0.065297 0.763754 0.096103
Si Si4 0.908159 0.323625 0.469716
Si Si5 0.352801 0.032323 0.294888
Si Si6 0.739843 0.110963 0.119295
Si Si7 0.914636 0.746601 0.451747
Si Si8 0.574000 0.677434 0.100924
O O1 0.330620 0.724993 0.540024
O O2 0.253280 0.640912 0.306193
O O3 0.239473 0.528035 0.600076
O O4 0.147362 0.718353 0.599629
O O5 0.743953 0.465496 0.785803
O O6 0.572081 0.414649 0.753081
O O7 0.617524 0.388283 0.050015
O O8 0.604139 0.602224 0.923739
O O9 0.140231 0.661727 0.099433
O O10 0.012719 0.733758 0.937478
O O11 0.986648 0.774330 0.271559
O O12 0.885507 0.398065 0.312690
O O13 0.911637 0.417467 0.618391
O O14 0.373876 0.114254 0.450295
O O15 0.826515 0.164501 0.978175
O O16 0.970429 0.766747 0.605835
#
# Coordination Sequence:
#
# PCOD8056326 Si02
#       8
#     4   4   4   4   4   4   4   4
#     4  12  29  50  75 114 152 204 249 311 385 457
#     4  12  24  46  77 107 151 198 254 319 371 442
#     4  11  27  49  77 111 151 205 252 312 383 446
#     4  11  27  45  75 112 148 192 256 305 376 450
#     4  11  23  46  76 104 149 194 247 316 365 436
#     4  12  30  49  78 106 161 199 251 315 380 455
#     4  11  27  49  73 111 151 204 255 312 373 454
#     4  12  27  46  77 113 151 196 260 308 381 452
#
# _framework density 24.809152000000001
#
# number of rings (size 3 to 8) (size 9 to 14) (size 15 to 20)
#    0.000    0.500    5.000    0.750   12.250    0.000 
#    0.000    0.000    0.000    0.000    0.000    0.000 
#    0.000    0.000    0.000    0.000    0.000    0.000 
#
# Total GULP energy -198454.435705 kJ/mol
# GULP energy per Si atom -12403.402232 kJ/mol
# Density = 2.475269 g / cm^3
# Si number density = 24.809152 Si / 1000 Ang^3
#
#
#
# Elastic Constant Matrix: (Units=GPa)
#
#
# Indices 1 2 3 4 5 6 
#
# 1 131.4175 31.7956 16.8344 0.0000 -1.5242 0.0000
# 2 31.7956 132.7904 4.8416 0.0000 -11.7424 0.0000
# 3 16.8344 4.8416 20.0790 0.0000 -2.9345 0.0000
# 4 0.0000 0.0000 0.0000 41.0719 0.0000 1.5657
# 5 -1.5242 -11.7424 -2.9345 0.0000 37.8527 0.0000
# 6 0.0000 0.0000 0.0000 1.5657 0.0000 32.2550
#
#
#
# Elastic Compliance Matrix: (Units=1/GPa)
#
#
# Indices 1 2 3 4 5 6 
#
# 1 0.008995 -0.001963 -0.007186 0.000000 -0.000804 0.000000
# 2 -0.001963 0.008218 0.000025 0.000000 0.002472 0.000000
# 3 -0.007186 0.000025 0.056420 0.000000 0.004093 0.000000
# 4 0.000000 0.000000 0.000000 0.024393 0.000000 -0.001184
# 5 -0.000804 0.002472 0.004093 0.000000 0.027470 0.000000
# 6 0.000000 0.000000 0.000000 -0.001184 0.000000 0.031060
#
#
# Mechanical properties :
#
#
# Convention : Reuss Voigt Hill
#
# Bulk Modulus (GPa) = 18.05486 43.46999 30.76243
# Shear Modulus (GPa) = 25.87104 37.62361 31.74733
#
# Velocity S-wave (km/s) = 3.23275 3.89848 3.58112
# Velocity P-wave (km/s) = 4.60733 6.15012 5.43376
#
# Compressibility (1/GPa) = 0.05538675
#
# Stress axis : x y z
#
# Youngs Moduli (GPa) = 111.16726 121.67841 17.72423
#
# Poissons Ratio (x) = 0.23885 0.12737
# Poissons Ratio (y) = 0.21822 -0.00045
# Poissons Ratio (z) = 0.79885 -0.00310
#
# Static dielectric constant tensor:
#      x y z
#    x 4.668090 0.000000 0.253630 
#    y 0.000000 4.900600 0.000000 
#    z 0.253630 0.000000 4.406860 
# 
# 
# High freq. dielectric constant tensor:
#      x y z
#    x 1.995040 0.000000 0.009950 
#    y 0.000000 2.002750 0.000000 
#    z 0.009950 0.000000 1.995420 
# 
# From -- ./inp_files/9264.got.cif
#   From: 2010.06.25/outbox.cif.g09.slc.cpg/sg9_5_cif.got.tgz:9264.got - 2010.06.27 21:40:51.
