data_PCOD8056916
_publ_section_title
;
Structure prediction by ZEFSAII (Michael W. Deem and Ramdas Pophale) SiO2 
 PCOD8056916
Probable space group: P 2/M
;
_chemical_formula_sum "Si O2"
_cell_formula_units_Z 30
_cell_length_a 14.769809
_cell_length_b 9.312260
_cell_length_c 11.460471
_cell_angle_alpha 90.000000
_cell_angle_beta 69.597900
_cell_angle_gamma 90.000000
_cell_volume 1477.395563
_symmetry_space_group_name_H-M "P 2/M"
_symmetry_group_IT_number 10
_symmetry_cell_setting 'monoclinic'
loop_
_space_group_symop_operation_xyz
x,y,z
-x,y,-z
-x,-y,-z
x,-y,z
loop_
_atom_site_type_symbol
_atom_site_label
_atom_site_fract_x
_atom_site_fract_y
_atom_site_fract_z
Si Si1 0.222288 0.329286 0.403490
Si Si2 0.500000 0.750815 0.000000
Si Si3 0.028461 0.832197 0.861828
Si Si4 0.214645 0.166706 0.640322
Si Si5 0.441464 0.339966 0.273274
Si Si6 0.613203 0.831641 0.276808
Si Si7 0.692497 0.158732 0.005601
Si Si8 0.139890 0.828356 0.228461
O O1 0.208750 0.500000 0.403921
O O2 0.193215 0.271327 0.543286
O O3 0.332118 0.281036 0.326165
O O4 0.149124 0.253282 0.346810
O O5 0.520022 0.654902 0.876872
O O6 0.592865 0.850280 0.978330
O O7 0.138699 0.796575 0.777660
O O8 0.959506 0.779361 0.787699
O O9 0.011282 0.000000 0.882517
O O10 0.000000 0.760707 0.000000
O O11 0.323481 0.197452 0.636786
O O12 0.203745 0.000000 0.607527
O O13 0.444356 0.500000 0.323111
O O14 0.508713 0.244032 0.328299
O O15 0.593548 0.000000 0.266506
O O16 0.673207 0.767101 0.139421
O O17 0.775057 0.235359 0.892998
O O18 0.732245 0.000000 0.012651
O O19 0.147592 0.000000 0.246113
#
# Coordination Sequence:
#
# PCOD8056916 Si02
#       8
#     4   2   4   4   4   4   4   4
#     4  11  24  40  55  78 115 157 191 229 278 331
#     4  10  16  30  50  76 109 144 187 222 275 322
#     4   9  18  35  64  94 117 140 178 234 288 334
#     4  10  21  39  60  84 112 147 189 233 280 335
#     4  10  21  35  53  78 110 150 193 232 277 331
#     4   9  19  34  55  82 112 144 184 234 285 333
#     4   9  16  27  49  82 114 140 173 224 281 329
#     4  10  19  34  58  87 114 147 187 228 276 335
#
# _framework density 20.306004000000001
#
# number of rings (size 3 to 8) (size 9 to 14) (size 15 to 20)
#    0.000    2.267    1.333    1.600    0.000    6.400 
#    0.000    6.000    0.000    3.200    0.000    0.000 
#    0.000    0.000    0.000    0.000    0.000    0.000 
#
# Total GULP energy -371861.251302 kJ/mol
# GULP energy per Si atom -12395.375043 kJ/mol
# Density = 2.025979 g / cm^3
# Si number density = 20.306004 Si / 1000 Ang^3
#
#
#
# Elastic Constant Matrix: (Units=GPa)
#
#
# Indices 1 2 3 4 5 6 
#
# 1 116.5563 34.1566 33.7526 0.0000 16.3861 0.0000
# 2 34.1566 59.6457 30.9277 0.0000 10.0106 0.0000
# 3 33.7526 30.9277 78.9163 0.0000 14.7328 0.0000
# 4 0.0000 0.0000 0.0000 17.4919 0.0000 -2.6550
# 5 16.3861 10.0106 14.7328 0.0000 31.5733 0.0000
# 6 0.0000 0.0000 0.0000 -2.6550 0.0000 15.4116
#
#
#
# Elastic Compliance Matrix: (Units=1/GPa)
#
#
# Indices 1 2 3 4 5 6 
#
# 1 0.011046 -0.004580 -0.002334 0.000000 -0.003192 0.000000
# 2 -0.004580 0.023220 -0.006803 0.000000 -0.001811 0.000000
# 3 -0.002334 -0.006803 0.017206 0.000000 -0.004661 0.000000
# 4 0.000000 0.000000 0.000000 0.058704 0.000000 0.010113
# 5 -0.003192 -0.001811 -0.004661 0.000000 0.036078 0.000000
# 6 0.000000 0.000000 0.000000 0.010113 0.000000 0.066628
#
#
# Mechanical properties :
#
#
# Convention : Reuss Voigt Hill
#
# Bulk Modulus (GPa) = 41.59977 50.31023 45.95500
# Shear Modulus (GPa) = 20.13461 23.31413 21.72437
#
# Velocity S-wave (km/s) = 3.15232 3.39210 3.27440
# Velocity P-wave (km/s) = 5.81209 6.33811 6.08079
#
# Compressibility (1/GPa) = 0.02403860
#
# Stress axis : x y z
#
# Youngs Moduli (GPa) = 90.52894 43.06662 58.11913
#
# Poissons Ratio (x) = 0.19724 0.13563
# Poissons Ratio (y) = 0.41462 0.39539
# Poissons Ratio (z) = 0.21127 0.29299
#
# Static dielectric constant tensor:
#      x y z
#    x 3.769300 0.000000 0.015330 
#    y 0.000000 3.205710 0.000000 
#    z 0.015330 0.000000 3.652010 
# 
# 
# High freq. dielectric constant tensor:
#      x y z
#    x 1.800640 0.000000 0.002650 
#    y 0.000000 1.745700 0.000000 
#    z 0.002650 0.000000 1.792040 
# 
# From -- ./inp_files/49764.got.cif
#   From: 2010.06.25/outbox.cif.g09.slc.cpg/sg10_25_cif.got.tgz:49764.got - 2010.06.27 22:07:45.
