data_PCOD8056729
_publ_section_title
;
Structure prediction by ZEFSAII (Michael W. Deem and Ramdas Pophale) SiO2 
 PCOD8056729
Probable space group: C C
;
_chemical_formula_sum "Si O2"
_cell_formula_units_Z 32
_cell_length_a 14.446811
_cell_length_b 11.285591
_cell_length_c 9.789711
_cell_angle_alpha 90.000000
_cell_angle_beta 58.970231
_cell_angle_gamma 90.000000
_cell_volume 1367.716555
_symmetry_space_group_name_H-M "C C"
_symmetry_group_IT_number 9
_symmetry_cell_setting 'monoclinic'
loop_
_space_group_symop_operation_xyz
x,y,z
x,-y,1/2+z
1/2+x,1/2+y,z
1/2+x,1/2-y,1/2+z
loop_
_atom_site_type_symbol
_atom_site_label
_atom_site_fract_x
_atom_site_fract_y
_atom_site_fract_z
Si Si1 0.823050 0.463874 0.703010
Si Si2 0.301113 0.302809 0.206890
Si Si3 0.956120 0.466484 0.345071
Si Si4 0.151165 0.611404 0.286226
Si Si5 0.472549 0.439355 0.916516
Si Si6 0.263602 0.494527 0.443093
Si Si7 0.624793 0.638963 0.878033
Si Si8 0.104942 0.249372 0.183570
O O1 0.806595 0.329054 0.761056
O O2 0.849598 0.463160 0.521371
O O3 0.925101 0.506426 0.713322
O O4 0.722414 0.547123 0.814421
O O5 0.250602 0.373369 0.370511
O O6 0.221377 0.304305 0.135262
O O7 0.415135 0.363145 0.079887
O O8 0.029995 0.567971 0.354230
O O9 0.011306 0.338904 0.299577
O O10 0.189133 0.588314 0.415873
O O11 0.153295 0.753184 0.251496
O O12 0.226342 0.534707 0.126608
O O13 0.386602 0.458410 0.858851
O O14 0.514138 0.569066 0.930212
O O15 0.579839 0.370661 0.786616
O O16 0.601939 0.713486 0.030222
#
# Coordination Sequence:
#
# PCOD8056729 Si02
#       8
#     4   4   4   4   4   4   4   4
#     4  12  28  46  75 110 152 191 249 319 383 449
#     4  12  25  50  75 109 148 197 251 314 378 460
#     4  12  26  49  75 109 147 203 251 302 388 452
#     4  12  27  48  75 109 153 198 255 313 372 456
#     4  12  26  48  77 110 149 201 251 311 387 452
#     4  12  26  48  77 108 152 204 252 310 376 457
#     4  12  29  47  74 115 150 194 257 321 380 452
#     4  12  25  50  80 104 155 204 250 314 384 466
#
# _framework density 23.396661000000002
#
# number of rings (size 3 to 8) (size 9 to 14) (size 15 to 20)
#    0.000    0.000    5.000    4.500    5.250    0.000 
#    0.000    0.000    0.000    0.000    0.000    0.000 
#    0.000    0.000    0.000    0.000    0.000    0.000 
#
# Total GULP energy -198416.632750 kJ/mol
# GULP energy per Si atom -12401.039547 kJ/mol
# Density = 2.334341 g / cm^3
# Si number density = 23.396661 Si / 1000 Ang^3
#
#
#
# Elastic Constant Matrix: (Units=GPa)
#
#
# Indices 1 2 3 4 5 6 
#
# 1 107.1105 46.1677 22.2111 0.0000 1.5499 0.0000
# 2 46.1677 172.5447 20.9693 0.0000 -4.0441 0.0000
# 3 22.2111 20.9693 72.8560 0.0000 3.2810 0.0000
# 4 0.0000 0.0000 0.0000 30.2447 0.0000 0.7785
# 5 1.5499 -4.0441 3.2810 0.0000 33.1386 0.0000
# 6 0.0000 0.0000 0.0000 0.7785 0.0000 41.2974
#
#
#
# Elastic Compliance Matrix: (Units=1/GPa)
#
#
# Indices 1 2 3 4 5 6 
#
# 1 0.011020 -0.002650 -0.002571 0.000000 -0.000584 0.000000
# 2 -0.002650 0.006670 -0.001159 0.000000 0.001053 0.000000
# 3 -0.002571 -0.001159 0.014910 0.000000 -0.001498 0.000000
# 4 0.000000 0.000000 0.000000 0.033080 0.000000 -0.000624
# 5 -0.000584 0.001053 -0.001498 0.000000 0.030480 0.000000
# 6 0.000000 0.000000 0.000000 -0.000624 0.000000 0.024226
#
#
# Mechanical properties :
#
#
# Convention : Reuss Voigt Hill
#
# Bulk Modulus (GPa) = 50.40079 59.02305 54.71192
# Shear Modulus (GPa) = 35.77559 38.48035 37.12797
#
# Velocity S-wave (km/s) = 3.91460 4.05988 3.98790
# Velocity P-wave (km/s) = 6.48234 6.87450 6.68130
#
# Compressibility (1/GPa) = 0.01984096
#
# Stress axis : x y z
#
# Youngs Moduli (GPa) = 90.74563 149.92061 67.06688
#
# Poissons Ratio (x) = 0.39727 0.17240
# Poissons Ratio (y) = 0.24046 0.07776
# Poissons Ratio (z) = 0.23326 0.17381
#
# Static dielectric constant tensor:
#      x y z
#    x 4.151170 0.000000 0.034990 
#    y 0.000000 4.604570 0.000000 
#    z 0.034990 0.000000 4.021560 
# 
# 
# High freq. dielectric constant tensor:
#      x y z
#    x 1.922950 0.000000 -0.000020 
#    y 0.000000 1.955210 0.000000 
#    z -0.000020 0.000000 1.920230 
# 
# From -- ./inp_files/9266.got.cif
#   From: 2010.06.25/outbox.cif.g09.slc.cpg/sg9_5_cif.got.tgz:9266.got - 2010.06.27 21:40:51.
