data_PCOD8056125
_publ_section_title
;
Structure prediction by ZEFSAII (Michael W. Deem and Ramdas Pophale) SiO2 
 PCOD8056125
Probable space group: C C
;
_chemical_formula_sum "Si O2"
_cell_formula_units_Z 32
_cell_length_a 20.360573
_cell_length_b 10.829848
_cell_length_c 15.323021
_cell_angle_alpha 90.000000
_cell_angle_beta 26.605593
_cell_angle_gamma 90.000000
_cell_volume 1513.163344
_symmetry_space_group_name_H-M "C C"
_symmetry_group_IT_number 9
_symmetry_cell_setting 'monoclinic'
loop_
_space_group_symop_operation_xyz
x,y,z
x,-y,1/2+z
1/2+x,1/2+y,z
1/2+x,1/2-y,1/2+z
loop_
_atom_site_type_symbol
_atom_site_label
_atom_site_fract_x
_atom_site_fract_y
_atom_site_fract_z
Si Si1 0.765260 0.614595 0.847520
Si Si2 0.679930 0.502280 0.778129
Si Si3 0.164643 0.492010 0.291352
Si Si4 0.509456 0.008864 0.151677
Si Si5 0.407549 0.328047 0.564465
Si Si6 0.780934 0.252039 0.587176
Si Si7 0.594319 0.785393 0.149951
Si Si8 0.970181 0.615558 0.375754
O O1 0.728961 0.509828 0.820470
O O2 0.867606 0.725167 0.685396
O O3 0.848714 0.551090 0.829551
O O4 0.610070 0.666922 0.067553
O O5 0.679077 0.358784 0.750769
O O6 0.800313 0.574716 0.578636
O O7 0.520437 0.566167 0.960366
O O8 0.062599 0.449495 0.493379
O O9 0.258777 0.611098 0.205744
O O10 0.269170 0.374731 0.154322
O O11 0.068590 0.522631 0.319015
O O12 0.615659 0.904520 0.064603
O O13 0.512277 0.115211 0.222727
O O14 0.485037 0.254964 0.392552
O O15 0.735454 0.222208 0.543207
O O16 0.950479 0.291861 0.381420
#
# Coordination Sequence:
#
# PCOD8056125 Si02
#       8
#     4   4   4   4   4   4   4   4
#     4  11  22  39  71 104 125 173 232 275 320 392
#     4  11  22  42  66  98 135 170 218 273 334 392
#     4  12  24  43  67  98 135 173 219 273 336 397
#     4  12  22  40  68  97 127 175 222 264 329 398
#     4  11  23  39  70  99 132 163 227 279 327 385
#     4  12  25  42  65  98 139 175 209 275 345 390
#     4  12  22  41  67  97 128 173 230 269 316 401
#     4  11  22  42  68  95 129 178 217 270 331 391
#
# _framework density 21.147749000000001
#
# number of rings (size 3 to 8) (size 9 to 14) (size 15 to 20)
#    0.000    0.500    7.500    3.000    0.000    0.000 
#    0.000    5.000    0.000    0.000    0.000    0.000 
#    0.000    0.000    0.000    0.000    0.000    0.000 
#
# Total GULP energy -198319.711564 kJ/mol
# GULP energy per Si atom -12394.981973 kJ/mol
# Density = 2.109962 g / cm^3
# Si number density = 21.147749 Si / 1000 Ang^3
#
#
#
# Elastic Constant Matrix: (Units=GPa)
#
#
# Indices 1 2 3 4 5 6 
#
# 1 100.3704 26.1094 24.9366 0.0000 10.6610 0.0000
# 2 26.1094 74.4712 12.7299 0.0000 7.3001 0.0000
# 3 24.9366 12.7299 68.8757 0.0000 3.2321 0.0000
# 4 0.0000 0.0000 0.0000 32.7268 0.0000 7.2498
# 5 10.6610 7.3001 3.2321 0.0000 34.6043 0.0000
# 6 0.0000 0.0000 0.0000 7.2498 0.0000 27.4645
#
#
#
# Elastic Compliance Matrix: (Units=1/GPa)
#
#
# Indices 1 2 3 4 5 6 
#
# 1 0.012009 -0.003333 -0.003607 0.000000 -0.002660 0.000000
# 2 -0.003333 0.015046 -0.001480 0.000000 -0.002009 0.000000
# 3 -0.003607 -0.001480 0.016102 0.000000 -0.000080 0.000000
# 4 0.000000 0.000000 0.000000 0.032454 0.000000 -0.008567
# 5 -0.002660 -0.002009 -0.000080 0.000000 0.030149 0.000000
# 6 0.000000 0.000000 0.000000 -0.008567 0.000000 0.038672
#
#
# Mechanical properties :
#
#
# Convention : Reuss Voigt Hill
#
# Bulk Modulus (GPa) = 37.99748 41.25214 39.62481
# Shear Modulus (GPa) = 29.40410 30.95522 30.17966
#
# Velocity S-wave (km/s) = 3.73287 3.83006 3.78178
# Velocity P-wave (km/s) = 6.04861 6.25365 6.15199
#
# Compressibility (1/GPa) = 0.02631753
#
# Stress axis : x y z
#
# Youngs Moduli (GPa) = 83.27272 66.46085 62.10362
#
# Poissons Ratio (x) = 0.22151 0.22401
# Poissons Ratio (y) = 0.27754 0.09191
# Poissons Ratio (z) = 0.30036 0.09836
#
# Static dielectric constant tensor:
#      x y z
#    x 3.853200 0.000000 0.087930 
#    y 0.000000 3.765660 0.000000 
#    z 0.087930 0.000000 3.790720 
# 
# 
# High freq. dielectric constant tensor:
#      x y z
#    x 1.839160 0.000000 -0.000780 
#    y 0.000000 1.811660 0.000000 
#    z -0.000780 0.000000 1.820120 
# 
# From -- ./inp_files/9092.got.cif
#   From: 2010.06.25/outbox.cif.g09.slc.cpg/sg9_5_cif.got.tgz:9092.got - 2010.06.27 21:40:51.
