data_PCOD8056709
_publ_section_title
;
Structure prediction by ZEFSAII (Michael W. Deem and Ramdas Pophale) SiO2 
 PCOD8056709
Probable space group: C C
;
_chemical_formula_sum "Si O2"
_cell_formula_units_Z 28
_cell_length_a 4.830992
_cell_length_b 14.105247
_cell_length_c 17.745888
_cell_angle_alpha 90.000000
_cell_angle_beta 65.899047
_cell_angle_gamma 90.000000
_cell_volume 1103.833095
_symmetry_space_group_name_H-M "C C"
_symmetry_group_IT_number 9
_symmetry_cell_setting 'monoclinic'
loop_
_space_group_symop_operation_xyz
x,y,z
x,-y,1/2+z
1/2+x,1/2+y,z
1/2+x,1/2-y,1/2+z
loop_
_atom_site_type_symbol
_atom_site_label
_atom_site_fract_x
_atom_site_fract_y
_atom_site_fract_z
Si Si1 0.286310 0.052926 0.820100
Si Si2 0.754787 0.927413 0.843200
Si Si3 0.789786 0.802926 0.984451
Si Si4 0.868682 0.423110 0.613467
Si Si5 0.327562 0.322586 0.461351
Si Si6 0.252255 0.326889 0.691085
Si Si7 0.452826 0.125000 0.652275
O O1 0.519567 0.096952 0.732196
O O2 0.072887 0.133912 0.877891
O O3 0.477653 0.002297 0.864824
O O4 0.072605 0.981030 0.797413
O O5 0.749735 0.883912 0.926660
O O6 0.727249 0.846197 0.783310
O O7 0.508020 0.731030 0.007138
O O8 0.115302 0.752298 0.939726
O O9 0.759330 0.846952 0.072355
O O10 0.565304 0.369087 0.623405
O O11 0.805117 0.535516 0.625195
O O12 0.120351 0.403802 0.521241
O O13 0.978692 0.380913 0.681147
O O14 0.223874 0.214483 0.679356
#
# Coordination Sequence:
#
# PCOD8056709 Si02
#       7
#     4   4   4   4   4   4   4
#     4  12  27  46  78 109 160 200 266 318 404 458
#     4  12  25  50  71 115 154 206 257 331 382 479
#     4  12  27  46  78 109 160 200 266 318 404 458
#     4  12  25  47  74 107 154 191 257 315 375 465
#     4  12  25  50  71 115 154 206 257 331 382 479
#     4  12  25  47  74 107 154 191 257 315 375 465
#     4  12  26  48  78 114 148 210 244 326 386 468
#
# _framework density 25.366156
#
# number of rings (size 3 to 8) (size 9 to 14) (size 15 to 20)
#    0.000    0.000    5.714    3.429    0.000    6.857 
#    0.000    0.000    0.000    0.000    0.000    0.000 
#    0.000    0.000    0.000    0.000    0.000    0.000 
#
# Total GULP energy -173620.274488 kJ/mol
# GULP energy per Si atom -12401.448178 kJ/mol
# Density = 2.530842 g / cm^3
# Si number density = 25.366156 Si / 1000 Ang^3
#
#
#
# Elastic Constant Matrix: (Units=GPa)
#
#
# Indices 1 2 3 4 5 6 
#
# 1 123.4246 57.9452 29.2739 0.0000 1.9291 0.0000
# 2 57.9452 178.4133 63.9581 0.0000 -0.4644 0.0000
# 3 29.2739 63.9581 165.8277 0.0000 -5.2043 0.0000
# 4 0.0000 0.0000 0.0000 29.6148 0.0000 0.7005
# 5 1.9291 -0.4644 -5.2043 0.0000 35.1389 0.0000
# 6 0.0000 0.0000 0.0000 0.7005 0.0000 38.6812
#
#
#
# Elastic Compliance Matrix: (Units=1/GPa)
#
#
# Indices 1 2 3 4 5 6 
#
# 1 0.009621 -0.002913 -0.000595 0.000000 -0.000655 0.000000
# 2 -0.002913 0.007389 -0.002338 0.000000 -0.000089 0.000000
# 3 -0.000595 -0.002338 0.007070 0.000000 0.001049 0.000000
# 4 0.000000 0.000000 0.000000 0.033781 0.000000 -0.000612
# 5 -0.000655 -0.000089 0.001049 0.000000 0.028649 0.000000
# 6 0.000000 0.000000 0.000000 -0.000612 0.000000 0.025863
#
#
# Mechanical properties :
#
#
# Convention : Reuss Voigt Hill
#
# Bulk Modulus (GPa) = 80.73162 85.55779 83.14470
# Shear Modulus (GPa) = 39.00253 41.78622 40.39437
#
# Velocity S-wave (km/s) = 3.92545 4.06312 3.99488
# Velocity P-wave (km/s) = 7.24163 7.47090 7.35716
#
# Compressibility (1/GPa) = 0.01238672
#
# Stress axis : x y z
#
# Youngs Moduli (GPa) = 103.93739 135.33419 141.43636
#
# Poissons Ratio (x) = 0.39423 0.08422
# Poissons Ratio (y) = 0.30277 0.33074
# Poissons Ratio (z) = 0.06189 0.31647
#
# Static dielectric constant tensor:
#      x y z
#    x 4.407670 0.000000 -0.003790 
#    y 0.000000 4.804150 0.000000 
#    z -0.003790 0.000000 4.456590 
# 
# 
# High freq. dielectric constant tensor:
#      x y z
#    x 1.992860 0.000000 -0.002670 
#    y 0.000000 2.023570 0.000000 
#    z -0.002670 0.000000 2.027380 
# 
# From -- ./inp_files/28510.got.cif
#   From: 2010.06.25/outbox.cif.g09.slc.cpg/sg9_15_cif.got.tgz:28510.got - 2010.06.27 21:40:51.
