data_PCOD8056029
_publ_section_title
;
Structure prediction by ZEFSAII (Michael W. Deem and Ramdas Pophale) SiO2 
 PCOD8056029
Probable space group: C C
;
_chemical_formula_sum "Si O2"
_cell_formula_units_Z 32
_cell_length_a 25.001875
_cell_length_b 5.808478
_cell_length_c 9.331080
_cell_angle_alpha 90.000000
_cell_angle_beta 71.141610
_cell_angle_gamma 90.000000
_cell_volume 1282.345405
_symmetry_space_group_name_H-M "C C"
_symmetry_group_IT_number 9
_symmetry_cell_setting 'monoclinic'
loop_
_space_group_symop_operation_xyz
x,y,z
x,-y,1/2+z
1/2+x,1/2+y,z
1/2+x,1/2-y,1/2+z
loop_
_atom_site_type_symbol
_atom_site_label
_atom_site_fract_x
_atom_site_fract_y
_atom_site_fract_z
Si Si1 0.033010 0.717319 0.079060
Si Si2 0.165182 0.720474 0.982907
Si Si3 0.480232 0.058020 0.864529
Si Si4 0.342465 0.290259 0.348157
Si Si5 0.448604 0.434415 0.695934
Si Si6 0.870452 0.578044 0.596896
Si Si7 0.721586 0.505089 0.185588
Si Si8 0.249371 0.676436 0.411699
O O1 0.098343 0.731687 0.055454
O O2 0.998548 0.652505 0.250688
O O3 0.998454 0.946379 0.058356
O O4 0.022904 0.534996 0.961296
O O5 0.187506 0.849145 0.103822
O O6 0.189171 0.458493 0.962179
O O7 0.180267 0.844237 0.821005
O O8 0.486367 0.298962 0.777737
O O9 0.414330 0.066654 0.964115
O O10 0.406808 0.376200 0.302008
O O11 0.326260 0.187757 0.519549
O O12 0.298997 0.491512 0.348964
O O13 0.336453 0.089096 0.234075
O O14 0.407960 0.269862 0.641102
O O15 0.756204 0.343208 0.267487
O O16 0.757699 0.682723 0.053920
#
# Coordination Sequence:
#
# PCOD8056029 Si02
#       8
#     4   4   4   4   4   4   4   4
#     4  12  28  42  79 111 158 206 256 317 393 456
#     4  11  27  48  79 117 155 206 259 330 389 466
#     4  12  24  47  68 111 156 199 261 313 382 469
#     4  12  28  48  78 111 154 210 258 327 390 468
#     4  12  24  45  73 108 155 207 256 321 375 459
#     4  12  24  50  73 114 155 203 268 309 388 472
#     4  10  26  54  76 113 153 195 271 321 400 480
#     4  11  27  54  80 111 154 204 263 334 397 472
#
# _framework density 24.954277999999999
#
# number of rings (size 3 to 8) (size 9 to 14) (size 15 to 20)
#    0.000    0.500    5.000    1.500    5.250    6.000 
#    2.250    2.500    0.000    0.000    0.000    0.000 
#    0.000    0.000    0.000    0.000    0.000    0.000 
#
# Total GULP energy -198324.927488 kJ/mol
# GULP energy per Si atom -12395.307968 kJ/mol
# Density = 2.489748 g / cm^3
# Si number density = 24.954278 Si / 1000 Ang^3
#
#
#
# Elastic Constant Matrix: (Units=GPa)
#
#
# Indices 1 2 3 4 5 6 
#
# 1 138.9378 58.7388 58.3006 0.0000 -9.2294 0.0000
# 2 58.7388 130.3816 68.5582 0.0000 -1.4558 0.0000
# 3 58.3006 68.5582 172.4276 0.0000 15.6305 0.0000
# 4 0.0000 0.0000 0.0000 32.5588 0.0000 6.1193
# 5 -9.2294 -1.4558 15.6305 0.0000 34.5092 0.0000
# 6 0.0000 0.0000 0.0000 6.1193 0.0000 36.8244
#
#
#
# Elastic Compliance Matrix: (Units=1/GPa)
#
#
# Indices 1 2 3 4 5 6 
#
# 1 0.009744 -0.003095 -0.002386 0.000000 0.003556 0.000000
# 2 -0.003095 0.010851 -0.003373 0.000000 0.001158 0.000000
# 3 -0.002386 -0.003373 0.008361 0.000000 -0.004568 0.000000
# 4 0.000000 0.000000 0.000000 0.031704 0.000000 -0.005268
# 5 0.003556 0.001158 -0.004568 0.000000 0.032047 0.000000
# 6 0.000000 0.000000 0.000000 -0.005268 0.000000 0.028031
#
#
# Mechanical properties :
#
#
# Convention : Reuss Voigt Hill
#
# Bulk Modulus (GPa) = 88.90856 90.32689 89.61773
# Shear Modulus (GPa) = 35.16316 37.85512 36.50914
#
# Velocity S-wave (km/s) = 3.75788 3.89907 3.82912
# Velocity P-wave (km/s) = 7.38477 7.51970 7.45254
#
# Compressibility (1/GPa) = 0.01124751
#
# Stress axis : x y z
#
# Youngs Moduli (GPa) = 102.63251 92.16100 119.59774
#
# Poissons Ratio (x) = 0.28526 0.28538
# Poissons Ratio (y) = 0.31767 0.40336
# Poissons Ratio (z) = 0.24489 0.31083
#
# Static dielectric constant tensor:
#      x y z
#    x 4.354500 0.000000 -0.024850 
#    y 0.000000 4.843260 0.000000 
#    z -0.024850 0.000000 4.931730 
# 
# 
# High freq. dielectric constant tensor:
#      x y z
#    x 1.987410 0.000000 0.008080 
#    y 0.000000 2.008020 0.000000 
#    z 0.008080 0.000000 2.014720 
# 
# From -- ./inp_files/12576.got.cif
#   From: 2010.06.25/outbox.cif.g09.slc.cpg/sg9_7_cif.got.tgz:12576.got - 2010.06.27 21:40:51.
