data_PCOD8056620
_publ_section_title
;
Structure prediction by ZEFSAII (Michael W. Deem and Ramdas Pophale) SiO2 
 PCOD8056620
Probable space group: C C
;
_chemical_formula_sum "Si O2"
_cell_formula_units_Z 24
_cell_length_a 10.865420
_cell_length_b 11.964419
_cell_length_c 9.071029
_cell_angle_alpha 90.000000
_cell_angle_beta 60.891190
_cell_angle_gamma 90.000000
_cell_volume 1030.281133
_symmetry_space_group_name_H-M "C C"
_symmetry_group_IT_number 9
_symmetry_cell_setting 'monoclinic'
loop_
_space_group_symop_operation_xyz
x,y,z
x,-y,1/2+z
1/2+x,1/2+y,z
1/2+x,1/2-y,1/2+z
loop_
_atom_site_type_symbol
_atom_site_label
_atom_site_fract_x
_atom_site_fract_y
_atom_site_fract_z
Si Si1 0.342120 0.219646 0.843000
Si Si2 0.501072 0.782377 0.541126
Si Si3 0.839491 0.492941 0.727422
Si Si4 0.350554 0.564939 0.153015
Si Si5 0.160898 0.043662 0.073060
Si Si6 0.802066 0.862328 0.351308
O O1 0.302468 0.323847 0.764976
O O2 0.402053 0.119916 0.701624
O O3 0.453202 0.255718 0.905430
O O4 0.200799 0.173244 0.007200
O O5 0.457815 0.911083 0.596976
O O6 0.670323 0.778451 0.449302
O O7 0.434298 0.705886 0.707703
O O8 0.691649 0.484693 0.723574
O O9 0.776087 0.462384 0.924889
O O10 0.502406 0.522093 0.119653
O O11 0.254817 0.460745 0.264022
O O12 0.345415 0.582221 0.981534
#
# Coordination Sequence:
#
# PCOD8056620 Si02
#       6
#     4   4   4   4   4   4
#     4   9  24  42  74 100 142 184 238 295 354 424
#     4  11  27  46  72 106 143 190 239 296 359 423
#     4   9  21  41  69 101 133 185 229 286 350 425
#     4  12  26  45  71 106 145 184 241 298 356 419
#     4   9  21  39  69  98 135 181 226 282 352 415
#     4  12  31  45  75 103 150 186 243 297 355 428
#
# _framework density 23.294611
#
# number of rings (size 3 to 8) (size 9 to 14) (size 15 to 20)
#    1.000    0.667    0.000    2.000   14.000    1.333 
#    0.000    0.000    0.000    0.000    0.000    0.000 
#    0.000    0.000    0.000    0.000    0.000    0.000 
#
# Total GULP energy -148671.344950 kJ/mol
# GULP energy per Si atom -12389.278746 kJ/mol
# Density = 2.324159 g / cm^3
# Si number density = 23.294611 Si / 1000 Ang^3
#
#
#
# Elastic Constant Matrix: (Units=GPa)
#
#
# Indices 1 2 3 4 5 6 
#
# 1 74.0181 21.5541 31.1805 0.0000 7.7347 0.0000
# 2 21.5541 100.7627 61.4812 0.0000 4.2439 0.0000
# 3 31.1805 61.4812 104.3151 0.0000 11.0274 0.0000
# 4 0.0000 0.0000 0.0000 48.3375 0.0000 1.4479
# 5 7.7347 4.2439 11.0274 0.0000 34.1266 0.0000
# 6 0.0000 0.0000 0.0000 1.4479 0.0000 24.0617
#
#
#
# Elastic Compliance Matrix: (Units=1/GPa)
#
#
# Indices 1 2 3 4 5 6 
#
# 1 0.015646 -0.000846 -0.003949 0.000000 -0.002165 0.000000
# 2 -0.000846 0.015580 -0.009055 0.000000 0.001180 0.000000
# 3 -0.003949 -0.009055 0.016452 0.000000 -0.003295 0.000000
# 4 0.000000 0.000000 0.000000 0.020725 0.000000 -0.001247
# 5 -0.002165 0.001180 -0.003295 0.000000 0.030711 0.000000
# 6 0.000000 0.000000 0.000000 -0.001247 0.000000 0.041635
#
#
# Mechanical properties :
#
#
# Convention : Reuss Voigt Hill
#
# Bulk Modulus (GPa) = 50.05357 56.39196 53.22276
# Shear Modulus (GPa) = 28.55358 32.29717 30.42538
#
# Velocity S-wave (km/s) = 3.50488 3.72757 3.61794
# Velocity P-wave (km/s) = 6.15733 6.54118 6.35216
#
# Compressibility (1/GPa) = 0.01997860
#
# Stress axis : x y z
#
# Youngs Moduli (GPa) = 63.91213 64.18360 60.78384
#
# Poissons Ratio (x) = 0.05430 0.24006
# Poissons Ratio (y) = 0.05407 0.55037
# Poissons Ratio (z) = 0.25241 0.58116
#
# Static dielectric constant tensor:
#      x y z
#    x 3.842080 0.000000 0.153750 
#    y 0.000000 4.115390 0.000000 
#    z 0.153750 0.000000 4.198760 
# 
# 
# High freq. dielectric constant tensor:
#      x y z
#    x 1.896430 0.000000 0.010790 
#    y 0.000000 1.921750 0.000000 
#    z 0.010790 0.000000 1.930500 
# 
# From -- ./inp_files/7098.got.cif
#   From: 2010.06.25/outbox.cif.g09.slc.cpg/sg9_4_cif.got.tgz:7098.got - 2010.06.27 21:40:51.
