data_PCOD8056196
_publ_section_title
;
Structure prediction by ZEFSAII (Michael W. Deem and Ramdas Pophale) SiO2 
 PCOD8056196
Probable space group: C C
;
_chemical_formula_sum "Si O2"
_cell_formula_units_Z 24
_cell_length_a 15.715091
_cell_length_b 11.135693
_cell_length_c 9.929702
_cell_angle_alpha 90.000000
_cell_angle_beta 31.903002
_cell_angle_gamma 90.000000
_cell_volume 918.335208
_symmetry_space_group_name_H-M "C C"
_symmetry_group_IT_number 9
_symmetry_cell_setting 'monoclinic'
loop_
_space_group_symop_operation_xyz
x,y,z
x,-y,1/2+z
1/2+x,1/2+y,z
1/2+x,1/2-y,1/2+z
loop_
_atom_site_type_symbol
_atom_site_label
_atom_site_fract_x
_atom_site_fract_y
_atom_site_fract_z
Si Si1 0.376550 0.698929 0.440530
Si Si2 0.351030 0.728060 0.965082
Si Si3 0.159991 0.091452 0.218210
Si Si4 0.141011 0.493873 0.696518
Si Si5 0.049678 0.146073 0.945232
Si Si6 0.439129 0.035306 0.216203
O O1 0.292126 0.820716 0.609167
O O2 0.532823 0.678993 0.319727
O O3 0.249988 0.592693 0.621210
O O4 0.429350 0.705953 0.213377
O O5 0.248075 0.624954 0.029733
O O6 0.227955 0.801714 0.224634
O O7 0.486478 0.671762 0.879217
O O8 0.435739 0.818855 0.743108
O O9 0.065869 0.999767 0.444746
O O10 0.255920 0.010130 0.981117
O O11 0.062626 0.525572 0.658266
O O12 0.992730 0.482993 0.000219
#
# Coordination Sequence:
#
# PCOD8056196 Si02
#       6
#     4   4   4   4   4   4
#     4  12  25  44  73 103 151 191 244 306 370 439
#     4  11  22  45  74 101 140 198 242 302 367 437
#     4  11  26  46  71 109 141 195 245 306 367 444
#     4  12  25  48  73 106 151 192 243 306 372 438
#     4  11  23  44  75 102 143 195 246 298 373 436
#     4  11  27  47  74 107 146 193 250 302 369 442
#
# _framework density 26.134247999999999
#
# number of rings (size 3 to 8) (size 9 to 14) (size 15 to 20)
#    0.000    0.667    3.333    4.000    4.667    1.333 
#    3.000    0.000    0.000    0.000    0.000    0.000 
#    0.000    0.000    0.000    0.000    0.000    0.000 
#
# Total GULP energy -148778.102654 kJ/mol
# GULP energy per Si atom -12398.175221 kJ/mol
# Density = 2.607477 g / cm^3
# Si number density = 26.134248 Si / 1000 Ang^3
#
#
#
# Elastic Constant Matrix: (Units=GPa)
#
#
# Indices 1 2 3 4 5 6 
#
# 1 71.3899 12.2063 15.8888 0.0000 -18.5051 0.0000
# 2 12.2063 120.7892 13.1531 0.0000 -25.2635 0.0000
# 3 15.8888 13.1531 72.3209 0.0000 -16.8537 0.0000
# 4 0.0000 0.0000 0.0000 50.5681 0.0000 -28.2335
# 5 -18.5051 -25.2635 -16.8537 0.0000 34.2838 0.0000
# 6 0.0000 0.0000 0.0000 -28.2335 0.0000 30.5900
#
#
#
# Elastic Compliance Matrix: (Units=1/GPa)
#
#
# Indices 1 2 3 4 5 6 
#
# 1 0.016486 0.000243 -0.001751 0.000000 0.008217 0.000000
# 2 0.000243 0.009792 -0.000138 0.000000 0.007279 0.000000
# 3 -0.001751 -0.000138 0.015804 0.000000 0.006722 0.000000
# 4 0.000000 0.000000 0.000000 0.040800 0.000000 0.037658
# 5 0.008217 0.007279 0.006722 0.000000 0.042272 0.000000
# 6 0.000000 0.000000 0.000000 0.037658 0.000000 0.067447
#
#
# Mechanical properties :
#
#
# Convention : Reuss Voigt Hill
#
# Bulk Modulus (GPa) = 25.78054 38.55516 32.16785
# Shear Modulus (GPa) = 23.94386 37.97183 30.95784
#
# Velocity S-wave (km/s) = 3.03014 3.81590 3.44549
# Velocity P-wave (km/s) = 4.70409 5.84804 5.30697
#
# Compressibility (1/GPa) = 0.03878895
#
# Stress axis : x y z
#
# Youngs Moduli (GPa) = 60.65896 102.12681 63.27666
#
# Poissons Ratio (x) = -0.02485 0.11082
# Poissons Ratio (y) = -0.01476 0.00873
# Poissons Ratio (z) = 0.10623 0.01409
#
# Static dielectric constant tensor:
#      x y z
#    x 4.227170 0.000000 -0.354200 
#    y 0.000000 5.087440 0.000000 
#    z -0.354200 0.000000 4.797140 
# 
# 
# High freq. dielectric constant tensor:
#      x y z
#    x 2.024410 0.000000 -0.031600 
#    y 0.000000 2.062360 0.000000 
#    z -0.031600 0.000000 2.049710 
# 
# From -- ./inp_files/6864.got.cif
#   From: 2010.06.25/outbox.cif.g09.slc.cpg/sg9_4_cif.got.tgz:6864.got - 2010.06.27 21:40:51.
