data_PCOD8056274
_publ_section_title
;
Structure prediction by ZEFSAII (Michael W. Deem and Ramdas Pophale) SiO2 
 PCOD8056274
Probable space group: C C
;
_chemical_formula_sum "Si O2"
_cell_formula_units_Z 32
_cell_length_a 12.955267
_cell_length_b 11.574936
_cell_length_c 16.918460
_cell_angle_alpha 90.000000
_cell_angle_beta 146.330357
_cell_angle_gamma 90.000000
_cell_volume 1406.539076
_symmetry_space_group_name_H-M "C C"
_symmetry_group_IT_number 9
_symmetry_cell_setting 'monoclinic'
loop_
_space_group_symop_operation_xyz
x,y,z
x,-y,1/2+z
1/2+x,1/2+y,z
1/2+x,1/2-y,1/2+z
loop_
_atom_site_type_symbol
_atom_site_label
_atom_site_fract_x
_atom_site_fract_y
_atom_site_fract_z
Si Si1 0.421640 0.528062 0.871830
Si Si2 0.835116 0.479304 0.154120
Si Si3 0.381961 0.751885 0.096492
Si Si4 0.836318 0.512636 0.834220
Si Si5 0.696703 0.870404 0.615040
Si Si6 0.556070 0.305235 0.151146
Si Si7 0.700865 0.882097 0.854308
Si Si8 0.295753 0.242614 0.363952
O O1 0.351182 0.458036 0.749775
O O2 0.356237 0.449926 0.903147
O O3 0.330906 0.655020 0.823382
O O4 0.644644 0.550849 0.016434
O O5 0.814161 0.379059 0.076136
O O6 0.843042 0.441409 0.249293
O O7 0.037033 0.536854 0.278211
O O8 0.253795 0.659446 0.061097
O O9 0.586465 0.736337 0.261484
O O10 0.401825 0.735887 0.014522
O O11 0.645073 0.574124 0.739317
O O12 0.843386 0.375332 0.848810
O O13 0.003646 0.561660 0.992809
O O14 0.658595 0.751276 0.638842
O O15 0.584118 0.214872 0.237367
O O16 0.332581 0.323367 0.004054
#
# Coordination Sequence:
#
# PCOD8056274 Si02
#       8
#     4   4   4   4   4   4   4   4
#     4  11  24  47  68 104 148 189 231 309 376 428
#     4  12  25  43  74 104 143 189 243 296 373 443
#     4  12  24  44  71 109 133 187 256 299 345 450
#     4  12  25  44  69 105 144 193 235 299 381 435
#     4  11  24  44  75 104 137 187 255 305 354 433
#     4  11  23  44  72 102 141 187 239 303 363 427
#     4  11  24  44  73 104 140 184 244 305 359 434
#     4  12  27  44  70 102 152 186 233 302 381 434
#
# _framework density 22.750879000000001
#
# number of rings (size 3 to 8) (size 9 to 14) (size 15 to 20)
#    0.000    0.500    5.000    3.000    3.500    1.000 
#    0.000    2.500    0.000    0.000    0.000    0.000 
#    0.000    0.000    0.000    0.000    0.000    0.000 
#
# Total GULP energy -198246.942112 kJ/mol
# GULP energy per Si atom -12390.433882 kJ/mol
# Density = 2.269910 g / cm^3
# Si number density = 22.750879 Si / 1000 Ang^3
#
#
#
# Elastic Constant Matrix: (Units=GPa)
#
#
# Indices 1 2 3 4 5 6 
#
# 1 58.2062 28.9460 33.0418 0.0008 10.5014 0.0009
# 2 28.9460 137.0377 40.0233 -0.0014 1.7350 -0.0006
# 3 33.0418 40.0233 155.9236 -0.0041 5.7310 -0.0026
# 4 0.0008 -0.0014 -0.0041 40.2860 -0.0014 10.0974
# 5 10.5014 1.7350 5.7310 -0.0014 27.6809 -0.0015
# 6 0.0009 -0.0006 -0.0026 10.0974 -0.0015 47.0100
#
#
#
# Elastic Compliance Matrix: (Units=1/GPa)
#
#
# Indices 1 2 3 4 5 6 
#
# 1 0.022327 -0.003589 -0.003534 -0.000001 -0.007514 -0.000001
# 2 -0.003589 0.008466 -0.001454 0.000000 0.001132 0.000000
# 3 -0.003534 -0.001454 0.007540 0.000001 -0.000129 0.000000
# 4 -0.000001 0.000000 0.000001 0.026235 0.000001 -0.005635
# 5 -0.007514 0.001132 -0.000129 0.000001 0.038932 0.000001
# 6 -0.000001 0.000000 0.000000 -0.005635 0.000001 0.022482
#
#
# Mechanical properties :
#
#
# Convention : Reuss Voigt Hill
#
# Bulk Modulus (GPa) = 47.21650 61.68777 54.45214
# Shear Modulus (GPa) = 33.28997 39.60581 36.44789
#
# Velocity S-wave (km/s) = 3.82938 4.17687 4.00690
# Velocity P-wave (km/s) = 6.35224 7.10176 6.73743
#
# Compressibility (1/GPa) = 0.02117904
#
# Stress axis : x y z
#
# Youngs Moduli (GPa) = 44.78953 118.12429 132.62119
#
# Poissons Ratio (x) = 0.42392 0.46867
# Poissons Ratio (y) = 0.16074 0.19285
# Poissons Ratio (z) = 0.15828 0.17177
#
# Static dielectric constant tensor:
#      x y z
#    x 3.764030 0.000000 0.066380 
#    y 0.000000 3.950450 0.000000 
#    z 0.066380 0.000000 4.143610 
# 
# 
# High freq. dielectric constant tensor:
#      x y z
#    x 1.874920 0.000000 0.011280 
#    y 0.000000 1.902070 0.000000 
#    z 0.011280 0.000000 1.916390 
# 
# From -- ./inp_files/11569.got.cif
#   From: 2010.06.25/outbox.cif.g09.slc.cpg/sg9_6_cif.got.tgz:11569.got - 2010.06.27 21:40:51.
