data_PCOD8056503
_publ_section_title
;
Structure prediction by ZEFSAII (Michael W. Deem and Ramdas Pophale) SiO2 
 PCOD8056503
Probable space group: C C
;
_chemical_formula_sum "Si O2"
_cell_formula_units_Z 24
_cell_length_a 11.112683
_cell_length_b 11.235547
_cell_length_c 9.462253
_cell_angle_alpha 90.000000
_cell_angle_beta 49.254019
_cell_angle_gamma 90.000000
_cell_volume 895.063490
_symmetry_space_group_name_H-M "C C"
_symmetry_group_IT_number 9
_symmetry_cell_setting 'monoclinic'
loop_
_space_group_symop_operation_xyz
x,y,z
x,-y,1/2+z
1/2+x,1/2+y,z
1/2+x,1/2-y,1/2+z
loop_
_atom_site_type_symbol
_atom_site_label
_atom_site_fract_x
_atom_site_fract_y
_atom_site_fract_z
Si Si1 0.696400 0.833185 0.380400
Si Si2 0.162782 0.029836 0.822624
Si Si3 0.936583 0.178507 0.470026
Si Si4 0.451689 0.708447 0.139507
Si Si5 0.338524 0.119987 0.410436
Si Si6 0.124279 0.408901 0.863291
O O1 0.530700 0.763871 0.506206
O O2 0.812891 0.764144 0.402832
O O3 0.668549 0.974385 0.422260
O O4 0.761823 0.826654 0.169008
O O5 0.227510 0.080415 0.626018
O O6 0.290429 0.946851 0.803104
O O7 0.007767 0.953038 0.904384
O O8 0.103791 0.130648 0.977093
O O9 0.927101 0.230756 0.322605
O O10 0.285581 0.660874 0.204206
O O11 0.486533 0.839599 0.055783
O O12 0.524769 0.081790 0.291409
#
# Coordination Sequence:
#
# PCOD8056503 Si02
#       6
#     4   4   4   4   4   4
#     4  11  28  53  81 119 166 226 278 348 429 507
#     4  11  24  53  87 119 172 217 284 360 418 511
#     4  11  25  51  82 119 167 225 280 347 435 502
#     4  12  26  52  82 120 168 221 286 355 424 505
#     4  11  28  52  85 127 169 226 286 350 433 506
#     4  12  29  51  83 124 174 223 286 356 425 509
#
# _framework density 26.813739999999999
#
# number of rings (size 3 to 8) (size 9 to 14) (size 15 to 20)
#    0.000    0.667    3.333    2.000    4.667   10.667 
#    9.000    0.000    0.000    0.000    0.000    0.000 
#    0.000    0.000    0.000    0.000    0.000    0.000 
#
# Total GULP energy -148741.605535 kJ/mol
# GULP energy per Si atom -12395.133795 kJ/mol
# Density = 2.675271 g / cm^3
# Si number density = 26.813740 Si / 1000 Ang^3
#
#
#
# Elastic Constant Matrix: (Units=GPa)
#
#
# Indices 1 2 3 4 5 6 
#
# 1 104.5118 36.1191 23.6409 0.0000 -7.3928 0.0000
# 2 36.1191 172.1454 40.2207 0.0000 -2.2495 0.0000
# 3 23.6409 40.2207 105.1899 0.0000 -0.9712 0.0000
# 4 0.0000 0.0000 0.0000 41.8773 0.0000 3.1346
# 5 -7.3928 -2.2495 -0.9712 0.0000 39.5702 0.0000
# 6 0.0000 0.0000 0.0000 3.1346 0.0000 47.3831
#
#
#
# Elastic Compliance Matrix: (Units=1/GPa)
#
#
# Indices 1 2 3 4 5 6 
#
# 1 0.010714 -0.001829 -0.001692 0.000000 0.001856 0.000000
# 2 -0.001829 0.006695 -0.002149 0.000000 -0.000014 0.000000
# 3 -0.001692 -0.002149 0.010707 0.000000 -0.000175 0.000000
# 4 0.000000 0.000000 0.000000 0.023998 0.000000 -0.001588
# 5 0.001856 -0.000014 -0.000175 0.000000 0.025613 0.000000
# 6 0.000000 0.000000 0.000000 -0.001588 0.000000 0.021210
#
#
# Mechanical properties :
#
#
# Convention : Reuss Voigt Hill
#
# Bulk Modulus (GPa) = 59.60397 64.64539 62.12468
# Shear Modulus (GPa) = 43.15277 44.55721 43.85499
#
# Velocity S-wave (km/s) = 4.01603 4.08086 4.04857
# Velocity P-wave (km/s) = 6.61678 6.80925 6.71370
#
# Compressibility (1/GPa) = 0.01677741
#
# Stress axis : x y z
#
# Youngs Moduli (GPa) = 93.33412 149.37406 93.39801
#
# Poissons Ratio (x) = 0.27313 0.15800
# Poissons Ratio (y) = 0.17066 0.20071
# Poissons Ratio (z) = 0.15789 0.32100
#
# Static dielectric constant tensor:
#      x y z
#    x 4.840380 0.000000 -0.178620 
#    y 0.000000 5.100460 0.000000 
#    z -0.178620 0.000000 4.810810 
# 
# 
# High freq. dielectric constant tensor:
#      x y z
#    x 2.072550 0.000000 -0.003240 
#    y 0.000000 2.081330 0.000000 
#    z -0.003240 0.000000 2.095920 
# 
# From -- ./inp_files/16337.got.cif
#   From: 2010.06.25/outbox.cif.g09.slc.cpg/sg9_9_cif.got.tgz:16337.got - 2010.06.27 21:40:51.
