data_PCOD8056004
_publ_section_title
;
Structure prediction by ZEFSAII (Michael W. Deem and Ramdas Pophale) SiO2 
 PCOD8056004
Probable space group: C C
;
_chemical_formula_sum "Si O2"
_cell_formula_units_Z 32
_cell_length_a 8.523891
_cell_length_b 22.225350
_cell_length_c 12.784215
_cell_angle_alpha 90.000000
_cell_angle_beta 34.516701
_cell_angle_gamma 90.000000
_cell_volume 1372.374763
_symmetry_space_group_name_H-M "C C"
_symmetry_group_IT_number 9
_symmetry_cell_setting 'monoclinic'
loop_
_space_group_symop_operation_xyz
x,y,z
x,-y,1/2+z
1/2+x,1/2+y,z
1/2+x,1/2-y,1/2+z
loop_
_atom_site_type_symbol
_atom_site_label
_atom_site_fract_x
_atom_site_fract_y
_atom_site_fract_z
Si Si1 0.664310 0.328777 0.528640
Si Si2 0.169298 0.020118 0.766328
Si Si3 0.113824 0.479069 0.677097
Si Si4 0.417502 0.056011 0.966210
Si Si5 0.389365 0.625986 0.817351
Si Si6 0.080933 0.219674 0.291123
Si Si7 0.581361 0.299927 0.013820
Si Si8 0.164966 0.338749 0.646547
O O1 0.540582 0.321982 0.713212
O O2 0.421466 0.324071 0.579560
O O3 0.803365 0.394289 0.448045
O O4 0.895674 0.279041 0.378567
O O5 0.448766 0.014664 0.678424
O O6 0.131927 0.087345 0.739372
O O7 0.170306 0.972580 0.670263
O O8 0.930250 0.005515 0.979889
O O9 0.054841 0.502862 0.824840
O O10 0.058012 0.407446 0.709782
O O11 0.638708 0.082016 0.926319
O O12 0.498484 0.654853 0.650768
O O13 0.272862 0.673783 0.967709
O O14 0.406594 0.238441 0.127287
O O15 0.995511 0.180926 0.441204
O O16 0.917342 0.294861 0.823308
#
# Coordination Sequence:
#
# PCOD8056004 Si02
#       8
#     4   4   4   4   4   4   4   4
#     4  11  25  48  71 101 143 180 240 295 352 420
#     4  11  24  42  63 102 143 178 235 275 335 424
#     4  11  26  41  68 103 143 186 227 278 347 419
#     4  12  23  41  72  98 140 185 227 282 347 419
#     4  11  24  44  68 105 139 188 230 282 351 418
#     4  10  25  48  73 103 131 190 237 296 357 409
#     4  11  24  46  74  99 140 180 238 291 354 415
#     4  11  25  46  71 105 143 181 234 289 353 424
#
# _framework density 23.317246000000001
#
# number of rings (size 3 to 8) (size 9 to 14) (size 15 to 20)
#    0.000    1.000    3.750    3.000    7.000    2.000 
#    4.500    0.000    0.000    0.000    0.000    0.000 
#    0.000    0.000    0.000    0.000    0.000    0.000 
#
# Total GULP energy -198295.426524 kJ/mol
# GULP energy per Si atom -12393.464158 kJ/mol
# Density = 2.326417 g / cm^3
# Si number density = 23.317246 Si / 1000 Ang^3
#
#
#
# Elastic Constant Matrix: (Units=GPa)
#
#
# Indices 1 2 3 4 5 6 
#
# 1 127.8399 40.2167 59.8060 0.0000 9.2161 0.0000
# 2 40.2167 53.1430 35.4275 0.0000 11.6227 0.0000
# 3 59.8060 35.4275 122.5045 0.0000 25.9687 0.0000
# 4 0.0000 0.0000 0.0000 35.7892 0.0000 5.7813
# 5 9.2161 11.6227 25.9687 0.0000 39.8371 0.0000
# 6 0.0000 0.0000 0.0000 5.7813 0.0000 41.8124
#
#
#
# Elastic Compliance Matrix: (Units=1/GPa)
#
#
# Indices 1 2 3 4 5 6 
#
# 1 0.011702 -0.006440 -0.004264 0.000000 0.001951 0.000000
# 2 -0.006440 0.027126 -0.003874 0.000000 -0.003899 0.000000
# 3 -0.004264 -0.003874 0.012667 0.000000 -0.006140 0.000000
# 4 0.000000 0.000000 0.000000 0.028580 0.000000 -0.003952
# 5 0.001951 -0.003899 -0.006140 0.000000 0.029791 0.000000
# 6 0.000000 0.000000 0.000000 -0.003952 0.000000 0.024463
#
#
# Mechanical properties :
#
#
# Convention : Reuss Voigt Hill
#
# Bulk Modulus (GPa) = 44.76623 63.82085 54.29354
# Shear Modulus (GPa) = 29.25138 34.69023 31.97081
#
# Velocity S-wave (km/s) = 3.54573 3.86132 3.70688
# Velocity P-wave (km/s) = 6.00028 6.87821 6.45419
#
# Compressibility (1/GPa) = 0.02233827
#
# Stress axis : x y z
#
# Youngs Moduli (GPa) = 85.45188 36.86480 78.94638
#
# Poissons Ratio (x) = 0.23741 0.33665
# Poissons Ratio (y) = 0.55031 0.30586
# Poissons Ratio (z) = 0.36440 0.14282
#
# Static dielectric constant tensor:
#      x y z
#    x 4.247880 0.000000 0.210000 
#    y 0.000000 4.067820 0.000000 
#    z 0.210000 0.000000 4.456590 
# 
# 
# High freq. dielectric constant tensor:
#      x y z
#    x 1.935320 0.000000 0.016650 
#    y 0.000000 1.907110 0.000000 
#    z 0.016650 0.000000 1.932390 
# 
# From -- ./inp_files/23836.got.cif
#   From: 2010.06.25/outbox.cif.g09.slc.cpg/sg9_12_cif.got.tgz:23836.got - 2010.06.27 21:40:51.
