data_PCOD8056932
_publ_section_title
;
Structure prediction by ZEFSAII (Michael W. Deem and Ramdas Pophale) SiO2 
 PCOD8056932
Probable space group: P 2/M
;
_chemical_formula_sum "Si O2"
_cell_formula_units_Z 30
_cell_length_a 32.192893
_cell_length_b 8.956990
_cell_length_c 12.494978
_cell_angle_alpha 90.000000
_cell_angle_beta 26.039302
_cell_angle_gamma 90.000000
_cell_volume 1581.647923
_symmetry_space_group_name_H-M "P 2/M"
_symmetry_group_IT_number 10
_symmetry_cell_setting 'monoclinic'
loop_
_space_group_symop_operation_xyz
x,y,z
-x,y,-z
-x,-y,-z
x,-y,z
loop_
_atom_site_type_symbol
_atom_site_label
_atom_site_fract_x
_atom_site_fract_y
_atom_site_fract_z
Si Si1 0.670142 0.178984 0.424464
Si Si2 0.484457 0.324410 0.911474
Si Si3 0.712358 0.176702 0.690776
Si Si4 0.004494 0.664756 0.252679
Si Si5 0.182426 0.174846 0.339443
Si Si6 0.793608 0.834714 0.946631
Si Si7 0.798600 0.678184 0.298343
Si Si8 0.000000 0.749083 0.500000
O O1 0.563341 0.237362 0.659596
O O2 0.710998 0.253857 0.436385
O O3 0.674145 0.000000 0.425065
O O4 0.731018 0.244382 0.183196
O O5 0.488358 0.500000 0.877838
O O6 0.500000 0.290501 0.000000
O O7 0.385614 0.258629 0.102259
O O8 0.743093 0.212658 0.741036
O O9 0.792884 0.248900 0.429032
O O10 0.703790 0.000000 0.690013
O O11 0.992598 0.500000 0.232692
O O12 0.001753 0.651781 0.387996
O O13 0.921272 0.762159 0.394227
O O14 0.104184 0.731190 0.981815
O O15 0.218874 0.243704 0.141147
O O16 0.167631 0.000000 0.358876
O O17 0.904450 0.846478 0.721382
O O18 0.751815 0.000000 0.035409
O O19 0.787707 0.500000 0.328980
#
# Coordination Sequence:
#
# PCOD8056932 Si02
#       8
#     4   4   4   4   4   4   4   2
#     4  11  21  35  58  89 116 145 186 233 282 335
#     4  11  23  39  60  86 114 148 182 229 290 342
#     4  11  23  40  62  85 109 147 193 238 280 334
#     4  10  21  34  53  82 116 155 194 230 277 332
#     4   9  21  40  59  81 114 152 193 234 278 330
#     4   9  18  33  56  85 116 149 186 232 283 329
#     4  11  22  36  54  83 120 153 184 231 286 335
#     4  10  16  32  52  82 115 152 193 230 277 324
#
# _framework density 18.967559000000001
#
# number of rings (size 3 to 8) (size 9 to 14) (size 15 to 20)
#    0.000    1.733    2.667    2.000    0.000    3.733 
#    0.000    4.000    0.000    4.000    0.000    0.000 
#    0.000    0.000    0.000    0.000    0.000    0.000 
#
# Total GULP energy -371905.877100 kJ/mol
# GULP energy per Si atom -12396.862570 kJ/mol
# Density = 1.892439 g / cm^3
# Si number density = 18.967559 Si / 1000 Ang^3
#
#
#
# Elastic Constant Matrix: (Units=GPa)
#
#
# Indices 1 2 3 4 5 6 
#
# 1 110.9813 39.7868 49.3748 0.0000 -3.5812 0.0000
# 2 39.7868 73.4862 32.0407 0.0000 0.2074 0.0000
# 3 49.3748 32.0407 124.7636 0.0000 4.7888 0.0000
# 4 0.0000 0.0000 0.0000 29.5791 0.0000 -5.0141
# 5 -3.5812 0.2074 4.7888 0.0000 26.4484 0.0000
# 6 0.0000 0.0000 0.0000 -5.0141 0.0000 16.5985
#
#
#
# Elastic Compliance Matrix: (Units=1/GPa)
#
#
# Indices 1 2 3 4 5 6 
#
# 1 0.012625 -0.005206 -0.003753 0.000000 0.002430 0.000000
# 2 -0.005206 0.017480 -0.002413 0.000000 -0.000405 0.000000
# 3 -0.003753 -0.002413 0.010210 0.000000 -0.002338 0.000000
# 4 0.000000 0.000000 0.000000 0.035632 0.000000 0.010764
# 5 0.002430 -0.000405 -0.002338 0.000000 0.038565 0.000000
# 6 0.000000 0.000000 0.000000 0.010764 0.000000 0.063498
#
#
# Mechanical properties :
#
#
# Convention : Reuss Voigt Hill
#
# Bulk Modulus (GPa) = 56.91236 61.29289 59.10262
# Shear Modulus (GPa) = 24.20017 27.06043 25.63030
#
# Velocity S-wave (km/s) = 3.57581 3.78123 3.67995
# Velocity P-wave (km/s) = 6.86431 7.17275 7.02022
#
# Compressibility (1/GPa) = 0.01757088
#
# Stress axis : x y z
#
# Youngs Moduli (GPa) = 79.20954 57.20834 97.94627
#
# Poissons Ratio (x) = 0.29783 0.36754
# Poissons Ratio (y) = 0.41237 0.23637
# Poissons Ratio (z) = 0.29723 0.13806
#
# Static dielectric constant tensor:
#      x y z
#    x 3.495350 0.000000 0.190820 
#    y 0.000000 3.334930 0.000000 
#    z 0.190820 0.000000 3.669860 
# 
# 
# High freq. dielectric constant tensor:
#      x y z
#    x 1.726210 0.000000 0.007100 
#    y 0.000000 1.729850 0.000000 
#    z 0.007100 0.000000 1.745280 
# 
# From -- ./inp_files/58005.got.cif
#   From: 2010.06.25/outbox.cif.g09.slc.cpg/sg10_30_cif.got.tgz:58005.got - 2010.06.27 22:07:45.
