data_PCOD8056824
_publ_section_title
;
Structure prediction by ZEFSAII (Michael W. Deem and Ramdas Pophale) SiO2 
 PCOD8056824
Probable space group: P 2/M
;
_chemical_formula_sum "Si O2"
_cell_formula_units_Z 32
_cell_length_a 24.920717
_cell_length_b 8.951221
_cell_length_c 10.441652
_cell_angle_alpha 90.000000
_cell_angle_beta 55.019461
_cell_angle_gamma 90.000000
_cell_volume 1908.445662
_symmetry_space_group_name_H-M "P 2/M"
_symmetry_group_IT_number 10
_symmetry_cell_setting 'monoclinic'
loop_
_space_group_symop_operation_xyz
x,y,z
-x,y,-z
-x,-y,-z
x,-y,z
loop_
_atom_site_type_symbol
_atom_site_label
_atom_site_fract_x
_atom_site_fract_y
_atom_site_fract_z
Si Si1 0.200708 0.829915 0.102039
Si Si2 0.669792 0.676160 0.050409
Si Si3 0.677673 0.675104 0.746586
Si Si4 0.456443 0.321713 0.176776
Si Si5 0.804490 0.166401 0.585789
Si Si6 0.471787 0.677725 0.671094
Si Si7 0.071243 0.321820 0.269968
Si Si8 0.944722 0.822356 0.431508
O O1 0.195948 0.818190 0.260936
O O2 0.140464 0.738553 0.120320
O O3 0.197325 0.000000 0.058836
O O4 0.269359 0.757412 0.963616
O O5 0.681101 0.500000 0.045008
O O6 0.603554 0.727872 0.211522
O O7 0.664226 0.726989 0.910271
O O8 0.680220 0.500000 0.735004
O O9 0.618314 0.735360 0.739409
O O10 0.748107 0.732492 0.599741
O O11 0.459209 0.500000 0.172501
O O12 0.484799 0.257985 0.271211
O O13 0.500000 0.260173 0.000000
O O14 0.878568 0.208819 0.438540
O O15 0.787379 0.000000 0.565989
O O16 0.500000 0.743433 0.500000
O O17 0.475959 0.500000 0.666843
O O18 0.068947 0.500000 0.264833
O O19 0.063985 0.264352 0.423864
O O20 0.009673 0.248149 0.275508
O O21 0.952481 0.000000 0.445355
#
# Coordination Sequence:
#
# PCOD8056824 Si02
#       8
#     4   4   4   4   4   4   4   4
#     4   9  16  25  35  48  69  98 130 164 204 246
#     4   9  15  24  38  56  75  97 130 169 206 242
#     4   9  15  22  37  56  73  98 131 169 203 239
#     4   9  14  23  38  57  80 105 134 168 208 250
#     4   8  15  24  33  47  70  98 127 163 202 241
#     4   9  16  25  39  60  84 107 133 169 213 255
#     4  10  16  21  31  48  68  94 131 171 202 235
#     4   9  15  23  32  43  66 101 133 162 201 245
#
# _framework density 16.767572000000001
#
# number of rings (size 3 to 8) (size 9 to 14) (size 15 to 20)
#    0.000    3.000    1.250    3.375    0.000    3.500 
#    0.000    0.000    0.000    1.500    0.000    0.000 
#    0.000    0.000    0.000    1.125    0.000   24.750 
#
# Total GULP energy -396453.299016 kJ/mol
# GULP energy per Si atom -12389.165594 kJ/mol
# Density = 1.672941 g / cm^3
# Si number density = 16.767572 Si / 1000 Ang^3
#
#
#
# Elastic Constant Matrix: (Units=GPa)
#
#
# Indices 1 2 3 4 5 6 
#
# 1 126.2529 38.0519 70.4059 0.0000 -45.1320 0.0000
# 2 38.0519 55.1187 27.3100 0.0000 -17.4252 0.0000
# 3 70.4059 27.3100 67.2242 0.0000 -24.9135 0.0000
# 4 0.0000 0.0000 0.0000 8.3715 0.0000 -7.0968
# 5 -45.1320 -17.4252 -24.9135 0.0000 36.1105 0.0000
# 6 0.0000 0.0000 0.0000 -7.0968 0.0000 13.1218
#
#
#
# Elastic Compliance Matrix: (Units=1/GPa)
#
#
# Indices 1 2 3 4 5 6 
#
# 1 0.025912 -0.002635 -0.019530 0.000000 0.017639 0.000000
# 2 -0.002635 0.024055 -0.005282 0.000000 0.004670 0.000000
# 3 -0.019530 -0.005282 0.036927 0.000000 -0.001481 0.000000
# 4 0.000000 0.000000 0.000000 0.220592 0.000000 0.119306
# 5 0.017639 0.004670 -0.001481 0.000000 0.050970 0.000000
# 6 0.000000 0.000000 0.000000 0.119306 0.000000 0.140735
#
#
# Mechanical properties :
#
#
# Convention : Reuss Voigt Hill
#
# Bulk Modulus (GPa) = 31.25065 57.79238 44.52151
# Shear Modulus (GPa) = 8.85344 19.04261 13.94803
#
# Velocity S-wave (km/s) = 2.30034 3.37364 2.88730
# Velocity P-wave (km/s) = 5.07281 7.05102 6.14208
#
# Compressibility (1/GPa) = 0.03199933
#
# Stress axis : x y z
#
# Youngs Moduli (GPa) = 38.59287 41.57066 27.08045
#
# Poissons Ratio (x) = 0.10955 0.52889
# Poissons Ratio (y) = 0.10170 0.14303
# Poissons Ratio (z) = 0.75373 0.21957
#
# Static dielectric constant tensor:
#      x y z
#    x 3.590170 0.000000 -0.652910 
#    y 0.000000 2.924260 0.000000 
#    z -0.652910 0.000000 2.998260 
# 
# 
# High freq. dielectric constant tensor:
#      x y z
#    x 1.642320 0.000000 -0.058490 
#    y 0.000000 1.624580 0.000000 
#    z -0.058490 0.000000 1.591710 
# 
# From -- ./inp_files/57172.got.cif
#   From: 2010.06.25/outbox.cif.g09.slc.cpg/sg10_29_cif.got.tgz:57172.got - 2010.06.27 22:07:45.
