data_PCOD8056477
_publ_section_title
;
Structure prediction by ZEFSAII (Michael W. Deem and Ramdas Pophale) SiO2 
 PCOD8056477
Probable space group: C C
;
_chemical_formula_sum "Si O2"
_cell_formula_units_Z 28
_cell_length_a 16.141565
_cell_length_b 8.881837
_cell_length_c 22.444526
_cell_angle_alpha 90.000000
_cell_angle_beta 21.087620
_cell_angle_gamma 90.000000
_cell_volume 1157.748586
_symmetry_space_group_name_H-M "C C"
_symmetry_group_IT_number 9
_symmetry_cell_setting 'monoclinic'
loop_
_space_group_symop_operation_xyz
x,y,z
x,-y,1/2+z
1/2+x,1/2+y,z
1/2+x,1/2-y,1/2+z
loop_
_atom_site_type_symbol
_atom_site_label
_atom_site_fract_x
_atom_site_fract_y
_atom_site_fract_z
Si Si1 0.631600 0.864561 0.921270
Si Si2 0.001954 0.928818 0.568971
Si Si3 0.323020 0.795113 0.500452
Si Si4 0.690789 0.960735 0.008495
Si Si5 0.149135 0.083141 0.677592
Si Si6 0.426885 0.888544 0.781265
Si Si7 0.715862 0.086628 0.671379
O O1 0.833541 0.888476 0.737363
O O2 0.657052 0.979819 0.959702
O O3 0.659610 0.708795 0.939640
O O4 0.380116 0.878909 0.059410
O O5 0.854968 0.954459 0.608353
O O6 0.153087 0.082476 0.476671
O O7 0.179861 0.709526 0.543813
O O8 0.587338 0.817725 0.307479
O O9 0.361476 0.703138 0.535108
O O10 0.197600 0.955672 0.595061
O O11 0.946762 0.019678 0.856176
O O12 0.496886 0.068243 0.166830
O O13 0.032006 0.226238 0.724374
O O14 0.528035 0.014427 0.755610
#
# Coordination Sequence:
#
# PCOD8056477 Si02
#       7
#     4   4   4   4   4   4   4
#     4  12  28  48  84 115 162 218 268 325 407 486
#     4  12  27  48  80 117 160 208 273 332 400 477
#     4  11  24  47  77 106 156 205 253 321 396 471
#     4  11  28  49  79 114 156 212 268 322 406 477
#     4  12  27  49  81 119 157 209 267 332 396 471
#     4  11  28  49  78 113 157 202 269 338 391 469
#     4  11  24  48  75 110 150 208 262 324 390 473
#
# _framework density 24.184871999999999
#
# number of rings (size 3 to 8) (size 9 to 14) (size 15 to 20)
#    0.000    0.571    4.286    1.714   10.000    3.429 
#    2.571    0.000    0.000    0.000    0.000    0.000 
#    0.000    0.000    0.000    0.000    0.000    0.000 
#
# Total GULP energy -173440.698259 kJ/mol
# GULP energy per Si atom -12388.621304 kJ/mol
# Density = 2.412983 g / cm^3
# Si number density = 24.184872 Si / 1000 Ang^3
#
#
#
# Elastic Constant Matrix: (Units=GPa)
#
#
# Indices 1 2 3 4 5 6 
#
# 1 110.1417 50.7935 71.3005 0.1234 17.2218 0.0113
# 2 50.7935 113.4347 48.4698 0.0607 21.6090 0.0261
# 3 71.3005 48.4698 147.1864 0.1844 28.0063 0.0373
# 4 0.1234 0.0607 0.1844 39.5940 0.0545 -4.1593
# 5 17.2218 21.6090 28.0063 0.0545 37.6659 0.0043
# 6 0.0113 0.0261 0.0373 -4.1593 0.0043 31.3641
#
#
#
# Elastic Compliance Matrix: (Units=1/GPa)
#
#
# Indices 1 2 3 4 5 6 
#
# 1 0.014717 -0.004113 -0.005758 -0.000012 -0.000088 0.000003
# 2 -0.004113 0.011934 -0.001156 0.000005 -0.004106 -0.000006
# 3 -0.005758 -0.001156 0.010876 -0.000026 -0.004791 -0.000013
# 4 -0.000012 0.000005 -0.000026 0.025613 -0.000016 0.003397
# 5 -0.000088 -0.004106 -0.004791 -0.000016 0.032507 0.000003
# 6 0.000003 -0.000006 -0.000013 0.003397 0.000003 0.032334
#
#
# Mechanical properties :
#
#
# Convention : Reuss Voigt Hill
#
# Bulk Modulus (GPa) = 64.63224 79.09897 71.86560
# Shear Modulus (GPa) = 32.21794 35.07140 33.64467
#
# Velocity S-wave (km/s) = 3.65383 3.81220 3.73385
# Velocity P-wave (km/s) = 6.67704 7.22178 6.95475
#
# Compressibility (1/GPa) = 0.01547215
#
# Stress axis : x y z
#
# Youngs Moduli (GPa) = 67.94720 83.79769 91.94703
#
# Poissons Ratio (x) = 0.34465 0.52945
# Poissons Ratio (y) = 0.27946 0.10630
# Poissons Ratio (z) = 0.39126 0.09688
#
# Static dielectric constant tensor:
#      x y z
#    x 4.311840 0.000030 0.147040 
#    y 0.000030 4.454380 0.000020 
#    z 0.147040 0.000020 4.794150 
# 
# 
# High freq. dielectric constant tensor:
#      x y z
#    x 1.958280 0.000000 0.008640 
#    y 0.000000 1.961830 0.000010 
#    z 0.008640 0.000010 1.974320 
# 
# From -- ./inp_files/35808.got.cif
#   From: 2010.06.25/outbox.cif.g09.slc.cpg/sg9_18_cif.got.tgz:35808.got - 2010.06.27 21:40:51.
