data_PCOD8056874
_publ_section_title
;
Structure prediction by ZEFSAII (Michael W. Deem and Ramdas Pophale) SiO2 
 PCOD8056874
Probable space group: P 2/M
;
_chemical_formula_sum "Si O2"
_cell_formula_units_Z 30
_cell_length_a 5.130372
_cell_length_b 25.286958
_cell_length_c 13.648086
_cell_angle_alpha 90.000000
_cell_angle_beta 103.589474
_cell_angle_gamma 90.000000
_cell_volume 1721.017665
_symmetry_space_group_name_H-M "P 2/M"
_symmetry_group_IT_number 10
_symmetry_cell_setting 'monoclinic'
loop_
_space_group_symop_operation_xyz
x,y,z
-x,y,-z
-x,-y,-z
x,-y,z
loop_
_atom_site_type_symbol
_atom_site_label
_atom_site_fract_x
_atom_site_fract_y
_atom_site_fract_z
Si Si1 0.376702 0.835310 0.880463
Si Si2 0.873504 0.109030 0.882664
Si Si3 0.446986 0.374735 0.387799
Si Si4 0.714633 0.000000 0.928620
Si Si5 0.877140 0.625110 0.264781
Si Si6 0.202015 0.559589 0.934726
Si Si7 0.447622 0.750308 0.387875
Si Si8 0.873347 0.749900 0.265689
O O1 0.633797 0.849897 0.836116
O O2 0.251415 0.778682 0.840640
O O3 0.137816 0.879243 0.840213
O O4 0.500000 0.833505 0.000000
O O5 0.717623 0.052405 0.860940
O O6 0.000000 0.118192 0.000000
O O7 0.500000 0.399476 0.500000
O O8 0.677299 0.392254 0.333387
O O9 0.427286 0.312254 0.396190
O O10 0.166792 0.396019 0.322183
O O11 0.500000 0.000000 0.000000
O O12 0.000000 0.000000 0.000000
O O13 0.800741 0.597388 0.158068
O O14 0.865340 0.687685 0.244229
O O15 0.116065 0.500000 0.897356
O O16 0.500000 0.560386 0.000000
O O17 0.000000 0.581448 0.000000
O O18 0.500000 0.775189 0.500000
O O19 0.696781 0.766518 0.343250
O O20 0.171583 0.770803 0.315302
#
# Coordination Sequence:
#
# PCOD8056874 Si02
#       8
#     4   4   4   2   4   4   4   4
#     4  10  19  30  41  60  94 130 154 177 220 271
#     4   9  17  28  42  59  83 119 158 191 222 258
#     4   9  17  30  50  74  98 122 149 186 234 288
#     4  10  16  26  44  62  78 108 161 206 223 250
#     4  10  19  32  51  73  95 122 160 196 230 280
#     4  10  21  37  55  72  92 122 161 205 245 270
#     4   9  17  30  47  67  90 118 155 194 229 268
#     4  10  19  30  46  69  94 125 155 183 227 279
#
# _framework density 17.431546000000001
#
# number of rings (size 3 to 8) (size 9 to 14) (size 15 to 20)
#    0.000    2.400    0.000    4.400    0.000    3.733 
#    0.000    2.000    0.000    2.400    0.000    0.000 
#    0.000    0.000    0.000   42.000    0.000    4.667 
#
# Total GULP energy -371670.800545 kJ/mol
# GULP energy per Si atom -12389.026685 kJ/mol
# Density = 1.739187 g / cm^3
# Si number density = 17.431546 Si / 1000 Ang^3
#
#
#
# Elastic Constant Matrix: (Units=GPa)
#
#
# Indices 1 2 3 4 5 6 
#
# 1 86.9373 24.3340 9.2052 0.0000 9.6413 0.0000
# 2 24.3340 52.0076 34.0475 0.0000 0.6113 0.0000
# 3 9.2052 34.0475 55.2751 0.0000 6.3121 0.0000
# 4 0.0000 0.0000 0.0000 -0.4371 0.0000 -2.5017
# 5 9.6413 0.6113 6.3121 0.0000 23.5341 0.0000
# 6 0.0000 0.0000 0.0000 -2.5017 0.0000 11.5865
#
#
#
# Elastic Compliance Matrix: (Units=1/GPa)
#
#
# Indices 1 2 3 4 5 6 
#
# 1 0.014447 -0.009405 0.004163 0.000000 -0.006791 0.000000
# 2 -0.009405 0.038840 -0.023399 0.000000 0.009120 0.000000
# 3 0.004163 -0.023399 0.032946 0.000000 -0.009934 0.000000
# 4 0.000000 0.000000 0.000000 -1.023320 0.000000 -0.220950
# 5 -0.006791 0.009120 -0.009934 0.000000 0.047701 0.000000
# 6 0.000000 0.000000 0.000000 -0.220950 0.000000 0.038601
#
#
# Mechanical properties :
#
#
# Convention : Reuss Voigt Hill
#
# Bulk Modulus (GPa) = 34.54273 36.59927 35.57100
# Shear Modulus (GPa) = -6.37876 15.37893 4.50008
#
# Velocity S-wave (km/s) = -1.91501 2.97349 1.60847
# Velocity P-wave (km/s) = 3.86905 5.72978 4.88876
#
# Compressibility (1/GPa) = 0.02894965
#
# Stress axis : x y z
#
# Youngs Moduli (GPa) = 69.21631 25.74654 30.35302
#
# Poissons Ratio (x) = 0.24215 -0.12635
# Poissons Ratio (y) = 0.65100 0.71024
# Poissons Ratio (z) = -0.28814 0.60245
#
# Static dielectric constant tensor:
#      x y z
#    x 3.716530 0.000000 0.023400 
#    y 0.000000 4.046850 0.000000 
#    z 0.023400 0.000000 3.047230 
# 
# 
# High freq. dielectric constant tensor:
#      x y z
#    x 1.705140 0.000000 0.005700 
#    y 0.000000 1.638170 0.000000 
#    z 0.005700 0.000000 1.643170 
# 
# From -- ./inp_files/39974.got.cif
#   From: 2010.06.25/outbox.cif.g09.slc.cpg/sg10_20_cif.got.tgz:39974.got - 2010.06.27 22:07:45.
