data_PCOD8056160
_publ_section_title
;
Structure prediction by ZEFSAII (Michael W. Deem and Ramdas Pophale) SiO2 
 PCOD8056160
Probable space group: C C
;
_chemical_formula_sum "Si O2"
_cell_formula_units_Z 32
_cell_length_a 27.208278
_cell_length_b 8.929476
_cell_length_c 9.046750
_cell_angle_alpha 90.000000
_cell_angle_beta 140.000447
_cell_angle_gamma 90.000000
_cell_volume 1412.807783
_symmetry_space_group_name_H-M "C C"
_symmetry_group_IT_number 9
_symmetry_cell_setting 'monoclinic'
loop_
_space_group_symop_operation_xyz
x,y,z
x,-y,1/2+z
1/2+x,1/2+y,z
1/2+x,1/2-y,1/2+z
loop_
_atom_site_type_symbol
_atom_site_label
_atom_site_fract_x
_atom_site_fract_y
_atom_site_fract_z
Si Si1 0.017920 0.188292 0.842290
Si Si2 0.789254 0.661601 0.114097
Si Si3 0.205740 0.402391 0.066084
Si Si4 0.181826 0.686954 0.828661
Si Si5 0.545953 0.638274 0.348748
Si Si6 0.542506 0.166349 0.115705
Si Si7 0.717411 0.584473 0.637529
Si Si8 0.459134 0.149184 0.448001
O O1 0.001788 0.218869 0.632626
O O2 0.949598 0.284885 0.760425
O O3 0.011485 0.009234 0.847908
O O4 0.097075 0.258973 0.089541
O O5 0.774719 0.835464 0.124392
O O6 0.767508 0.631518 0.893939
O O7 0.741298 0.578866 0.134037
O O8 0.878074 0.618467 0.337786
O O9 0.183517 0.570126 0.968457
O O10 0.130534 0.308674 0.857711
O O11 0.223826 0.387057 0.283419
O O12 0.229866 0.821208 0.014303
O O13 0.535804 0.780775 0.432788
O O14 0.630373 0.592316 0.491150
O O15 0.500211 0.701129 0.105387
O O16 0.510847 0.999210 0.067220
#
# Coordination Sequence:
#
# PCOD8056160 Si02
#       8
#     4   4   4   4   4   4   4   4
#     4  11  23  43  70 108 140 185 251 306 365 438
#     4  12  28  45  71 106 153 189 247 309 382 439
#     4  11  22  43  68 108 140 188 243 305 361 439
#     4  11  23  42  76 105 139 189 254 304 357 442
#     4  12  24  45  76 102 142 200 252 307 365 452
#     4  11  23  41  73 103 141 191 246 302 361 446
#     4  12  24  47  71 105 142 200 248 302 370 454
#     4  12  27  46  71 109 147 188 249 309 381 444
#
# _framework density 22.649930999999999
#
# number of rings (size 3 to 8) (size 9 to 14) (size 15 to 20)
#    0.000    0.500    3.750    5.250    5.250    0.000 
#    4.500    0.000    0.000    0.000    0.000    0.000 
#    0.000    0.000    0.000    0.000    0.000    0.000 
#
# Total GULP energy -198226.135674 kJ/mol
# GULP energy per Si atom -12389.133480 kJ/mol
# Density = 2.259838 g / cm^3
# Si number density = 22.649931 Si / 1000 Ang^3
#
#
#
# Elastic Constant Matrix: (Units=GPa)
#
#
# Indices 1 2 3 4 5 6 
#
# 1 97.6133 37.8061 38.1102 0.0000 2.9405 0.0000
# 2 37.8061 116.3889 23.8896 0.0000 2.0852 0.0000
# 3 38.1102 23.8896 46.5593 0.0000 3.0933 0.0000
# 4 0.0000 0.0000 0.0000 26.2221 0.0000 -14.2439
# 5 2.9405 2.0852 3.0933 0.0000 33.7679 0.0000
# 6 0.0000 0.0000 0.0000 -14.2439 0.0000 50.7367
#
#
#
# Elastic Compliance Matrix: (Units=1/GPa)
#
#
# Indices 1 2 3 4 5 6 
#
# 1 0.015819 -0.002772 -0.011516 0.000000 -0.000151 0.000000
# 2 -0.002772 0.010090 -0.002900 0.000000 -0.000116 0.000000
# 3 -0.011516 -0.002900 0.032511 0.000000 -0.001796 0.000000
# 4 0.000000 0.000000 0.000000 0.044998 0.000000 0.012633
# 5 -0.000151 -0.000116 -0.001796 0.000000 0.029799 0.000000
# 6 0.000000 0.000000 0.000000 0.012633 0.000000 0.023256
#
#
# Mechanical properties :
#
#
# Convention : Reuss Voigt Hill
#
# Bulk Modulus (GPa) = 41.59087 51.13035 46.36061
# Shear Modulus (GPa) = 25.14289 32.86237 29.00263
#
# Velocity S-wave (km/s) = 3.33538 3.81318 3.58225
# Velocity P-wave (km/s) = 5.76501 6.48153 6.13374
#
# Compressibility (1/GPa) = 0.02404374
#
# Stress axis : x y z
#
# Youngs Moduli (GPa) = 63.21679 99.11120 30.75838
#
# Poissons Ratio (x) = 0.27473 0.35420
# Poissons Ratio (y) = 0.17523 0.08921
# Poissons Ratio (z) = 0.72798 0.28747
#
# Static dielectric constant tensor:
#      x y z
#    x 4.313610 0.000000 -0.339680 
#    y 0.000000 4.061020 0.000000 
#    z -0.339680 0.000000 3.867530 
# 
# 
# High freq. dielectric constant tensor:
#      x y z
#    x 1.899240 0.000000 -0.033550 
#    y 0.000000 1.904870 0.000000 
#    z -0.033550 0.000000 1.866710 
# 
# From -- ./inp_files/12438.got.cif
#   From: 2010.06.25/outbox.cif.g09.slc.cpg/sg9_7_cif.got.tgz:12438.got - 2010.06.27 21:40:51.
