data_PCOD8056827
_publ_section_title
;
Structure prediction by ZEFSAII (Michael W. Deem and Ramdas Pophale) SiO2 
 PCOD8056827
Probable space group: P 2/M
;
_chemical_formula_sum "Si O2"
_cell_formula_units_Z 24
_cell_length_a 9.623222
_cell_length_b 8.890462
_cell_length_c 21.405768
_cell_angle_alpha 90.000000
_cell_angle_beta 47.848270
_cell_angle_gamma 90.000000
_cell_volume 1357.721816
_symmetry_space_group_name_H-M "P 2/M"
_symmetry_group_IT_number 10
_symmetry_cell_setting 'monoclinic'
loop_
_space_group_symop_operation_xyz
x,y,z
-x,y,-z
-x,-y,-z
x,-y,z
loop_
_atom_site_type_symbol
_atom_site_label
_atom_site_fract_x
_atom_site_fract_y
_atom_site_fract_z
Si Si1 0.763598 0.678186 0.921098
Si Si2 0.054295 0.332968 0.739631
Si Si3 0.710783 0.329696 0.748120
Si Si4 0.294876 0.176939 0.574482
Si Si5 0.529562 0.821342 0.084656
Si Si6 0.972841 0.177814 0.579030
O O1 0.718838 0.500000 0.931405
O O2 0.626972 0.769780 0.916940
O O3 0.977466 0.708312 0.832532
O O4 0.726782 0.745008 0.001881
O O5 0.139095 0.500000 0.713537
O O6 0.218882 0.224241 0.665920
O O7 0.875470 0.322424 0.748778
O O8 0.650021 0.500000 0.752116
O O9 0.529437 0.240061 0.829130
O O10 0.783415 0.252904 0.662497
O O11 0.500000 0.247713 0.500000
O O12 0.153692 0.234648 0.563397
O O13 0.308966 0.000000 0.569341
O O14 0.549238 0.000000 0.080858
O O15 0.000000 0.230738 0.500000
O O16 0.949265 0.000000 0.591767
#
# Coordination Sequence:
#
# PCOD8056827 Si02
#       6
#     4   4   4   4   4   4
#     4   9  15  23  33  48  73 103 134 166 202 243
#     4   8  15  25  37  53  74 103 135 166 201 240
#     4   9  16  26  38  53  76 105 135 167 204 244
#     4   9  17  28  42  60  82 108 137 169 205 243
#     4  10  16  21  32  51  74 102 135 166 200 243
#     4   9  17  29  44  61  82 108 138 172 207 242
#
# _framework density 17.676670000000001
#
# number of rings (size 3 to 8) (size 9 to 14) (size 15 to 20)
#    0.000    3.000    0.000    4.500    0.000    5.333 
#    0.000    0.000    0.000    0.000    0.000    0.000 
#    0.000    1.333    0.000   15.333    0.000   15.833 
#
# Total GULP energy -297347.031910 kJ/mol
# GULP energy per Si atom -12389.459663 kJ/mol
# Density = 1.763644 g / cm^3
# Si number density = 17.676670 Si / 1000 Ang^3
#
#
#
# Elastic Constant Matrix: (Units=GPa)
#
#
# Indices 1 2 3 4 5 6 
#
# 1 19.3317 14.6993 33.6444 0.0000 -0.7563 0.0000
# 2 14.6993 69.9665 58.7844 0.0000 2.3173 0.0000
# 3 33.6444 58.7844 205.7126 0.0000 2.5832 0.0000
# 4 0.0000 0.0000 0.0000 37.8791 0.0000 0.4396
# 5 -0.7563 2.3173 2.5832 0.0000 16.8951 0.0000
# 6 0.0000 0.0000 0.0000 0.4396 0.0000 6.2363
#
#
#
# Elastic Compliance Matrix: (Units=1/GPa)
#
#
# Indices 1 2 3 4 5 6 
#
# 1 0.075542 -0.007402 -0.010315 0.000000 0.005974 0.000000
# 2 -0.007402 0.019586 -0.004357 0.000000 -0.002352 0.000000
# 3 -0.010315 -0.004357 0.007806 0.000000 -0.001058 0.000000
# 4 0.000000 0.000000 0.000000 0.026421 0.000000 -0.001863
# 5 0.005974 -0.002352 -0.001058 0.000000 0.059940 0.000000
# 6 0.000000 0.000000 0.000000 -0.001863 0.000000 0.160482
#
#
# Mechanical properties :
#
#
# Convention : Reuss Voigt Hill
#
# Bulk Modulus (GPa) = 17.01051 56.58521 36.79786
# Shear Modulus (GPa) = 12.09125 24.72762 18.40943
#
# Velocity S-wave (km/s) = 2.61822 3.74422 3.23066
# Velocity P-wave (km/s) = 4.33407 7.12552 5.89734
#
# Compressibility (1/GPa) = 0.05878717
#
# Stress axis : x y z
#
# Youngs Moduli (GPa) = 13.23761 51.05677 128.10043
#
# Poissons Ratio (x) = 0.37794 1.32132
# Poissons Ratio (y) = 0.09799 0.55810
# Poissons Ratio (z) = 0.13654 0.22244
#
# Static dielectric constant tensor:
#      x y z
#    x 2.596480 0.000000 -0.039410 
#    y 0.000000 3.239190 0.000000 
#    z -0.039410 0.000000 4.223820 
# 
# 
# High freq. dielectric constant tensor:
#      x y z
#    x 1.582380 0.000000 -0.000480 
#    y 0.000000 1.685710 0.000000 
#    z -0.000480 0.000000 1.718540 
# 
# From -- ./inp_files/52395.got.cif
#   From: 2010.06.25/outbox.cif.g09.slc.cpg/sg10_27_cif.got.tgz:52395.got - 2010.06.27 22:07:45.
