data_PCOD8056379
_publ_section_title
;
Structure prediction by ZEFSAII (Michael W. Deem and Ramdas Pophale) SiO2 
 PCOD8056379
Probable space group: C C
;
_chemical_formula_sum "Si O2"
_cell_formula_units_Z 32
_cell_length_a 11.560642
_cell_length_b 9.473745
_cell_length_c 28.573092
_cell_angle_alpha 90.000000
_cell_angle_beta 150.874507
_cell_angle_gamma 90.000000
_cell_volume 1523.153731
_symmetry_space_group_name_H-M "C C"
_symmetry_group_IT_number 9
_symmetry_cell_setting 'monoclinic'
loop_
_space_group_symop_operation_xyz
x,y,z
x,-y,1/2+z
1/2+x,1/2+y,z
1/2+x,1/2-y,1/2+z
loop_
_atom_site_type_symbol
_atom_site_label
_atom_site_fract_x
_atom_site_fract_y
_atom_site_fract_z
Si Si1 0.878780 0.582554 0.063210
Si Si2 0.962787 0.076421 0.174902
Si Si3 0.842694 0.062356 0.869954
Si Si4 0.134520 0.279180 0.817872
Si Si5 0.428250 0.068756 0.975571
Si Si6 0.198136 0.652494 0.720155
Si Si7 0.154758 0.207716 0.718548
Si Si8 0.599582 0.331240 0.822423
O O1 0.058033 0.454355 0.137296
O O2 0.943086 0.724242 0.113771
O O3 0.612576 0.533288 0.980626
O O4 0.892904 0.629596 0.014653
O O5 0.015883 0.232512 0.175248
O O6 0.978999 0.078406 0.237619
O O7 0.703015 0.029186 0.065937
O O8 0.141811 0.963150 0.214651
O O9 0.811006 0.059335 0.802140
O O10 0.771845 0.216461 0.861533
O O11 0.682858 0.946448 0.840265
O O12 0.361676 0.191423 0.915697
O O13 0.103849 0.256847 0.752557
O O14 0.902140 0.232669 0.763848
O O15 0.261799 0.932803 0.910707
O O16 0.406937 0.257921 0.787645
#
# Coordination Sequence:
#
# PCOD8056379 Si02
#       8
#     4   4   4   4   4   4   4   4
#     4  12  23  43  68  99 133 181 229 273 340 413
#     4  11  24  43  68  98 139 173 229 281 338 407
#     4  11  24  43  68  98 139 173 229 281 338 407
#     4  12  23  43  70  98 134 181 223 281 343 398
#     4  12  23  43  68  99 133 181 229 273 340 413
#     4  11  24  44  67  99 136 180 222 285 341 401
#     4  12  23  43  70  98 134 181 223 281 343 398
#     4  11  24  44  67  99 136 180 222 285 341 401
#
# _framework density 21.009042000000001
#
# number of rings (size 3 to 8) (size 9 to 14) (size 15 to 20)
#    0.000    0.500    5.000    4.500    0.000    0.000 
#    0.000    1.250    0.000    0.000    0.000    0.000 
#    0.000    0.000    0.000    0.000    0.000    0.000 
#
# Total GULP energy -198445.003838 kJ/mol
# GULP energy per Si atom -12402.812740 kJ/mol
# Density = 2.096122 g / cm^3
# Si number density = 21.009042 Si / 1000 Ang^3
#
#
#
# Elastic Constant Matrix: (Units=GPa)
#
#
# Indices 1 2 3 4 5 6 
#
# 1 92.4984 20.6998 31.8951 0.0000 6.6383 0.0000
# 2 20.6998 102.5000 33.3777 0.0000 -0.2639 0.0000
# 3 31.8951 33.3777 114.0009 0.0004 9.9186 0.0000
# 4 0.0000 0.0000 0.0004 35.2509 0.0000 2.5027
# 5 6.6383 -0.2639 9.9186 0.0000 35.0060 0.0000
# 6 0.0000 0.0000 0.0000 2.5027 0.0000 42.4730
#
#
#
# Elastic Compliance Matrix: (Units=1/GPa)
#
#
# Indices 1 2 3 4 5 6 
#
# 1 0.012247 -0.001553 -0.002839 0.000000 -0.001530 0.000000
# 2 -0.001553 0.011015 -0.002895 0.000000 0.001198 0.000000
# 3 -0.002839 -0.002895 0.010631 0.000000 -0.002496 0.000000
# 4 0.000000 0.000000 0.000000 0.028487 0.000000 -0.001679
# 5 -0.001530 0.001198 -0.002496 0.000000 0.029573 0.000000
# 6 0.000000 0.000000 0.000000 -0.001679 0.000000 0.023643
#
#
# Mechanical properties :
#
#
# Convention : Reuss Voigt Hill
#
# Bulk Modulus (GPa) = 51.75874 53.43826 52.59850
# Shear Modulus (GPa) = 36.60059 37.41443 37.00751
#
# Velocity S-wave (km/s) = 4.17842 4.22462 4.20158
# Velocity P-wave (km/s) = 6.92595 7.02051 6.97339
#
# Compressibility (1/GPa) = 0.01932041
#
# Stress axis : x y z
#
# Youngs Moduli (GPa) = 81.65168 90.78146 94.06625
#
# Poissons Ratio (x) = 0.14097 0.26703
# Poissons Ratio (y) = 0.12679 0.27231
# Poissons Ratio (z) = 0.23179 0.26280
#
# Static dielectric constant tensor:
#      x y z
#    x 3.806460 0.000000 -0.065710 
#    y 0.000000 3.989000 0.000000 
#    z -0.065710 0.000000 3.940580 
# 
# 
# High freq. dielectric constant tensor:
#      x y z
#    x 1.825250 0.000000 -0.000160 
#    y 0.000000 1.832990 0.000000 
#    z -0.000160 0.000000 1.831000 
# 
# From -- ./inp_files/24254.got.cif
#   From: 2010.06.25/outbox.cif.g09.slc.cpg/sg9_13_cif.got.tgz:24254.got - 2010.06.27 21:40:51.
