data_PCOD8056512
_publ_section_title
;
Structure prediction by ZEFSAII (Michael W. Deem and Ramdas Pophale) SiO2 
 PCOD8056512
Probable space group: C C
;
_chemical_formula_sum "Si O2"
_cell_formula_units_Z 32
_cell_length_a 11.796363
_cell_length_b 14.327681
_cell_length_c 8.744412
_cell_angle_alpha 90.000000
_cell_angle_beta 101.018733
_cell_angle_gamma 90.000000
_cell_volume 1450.686585
_symmetry_space_group_name_H-M "C C"
_symmetry_group_IT_number 9
_symmetry_cell_setting 'monoclinic'
loop_
_space_group_symop_operation_xyz
x,y,z
x,-y,1/2+z
1/2+x,1/2+y,z
1/2+x,1/2-y,1/2+z
loop_
_atom_site_type_symbol
_atom_site_label
_atom_site_fract_x
_atom_site_fract_y
_atom_site_fract_z
Si Si1 0.954210 0.315269 0.939130
Si Si2 0.280357 0.875754 0.435904
Si Si3 0.748317 0.004597 0.945796
Si Si4 0.371640 0.977918 0.736834
Si Si5 0.591492 0.053088 0.647299
Si Si6 0.098383 0.777835 0.215525
Si Si7 0.821535 0.184922 0.116070
Si Si8 0.398310 0.317779 0.952552
O O1 0.877106 0.405534 0.878445
O O2 0.018831 0.286719 0.800769
O O3 0.863292 0.240615 0.978363
O O4 0.042197 0.342809 0.100463
O O5 0.279871 0.942527 0.584510
O O6 0.150487 0.854633 0.345342
O O7 0.340179 0.777871 0.498160
O O8 0.338838 0.922425 0.300946
O O9 0.711120 0.051906 0.775034
O O10 0.817409 0.907895 0.955551
O O11 0.819246 0.077940 0.064020
O O12 0.623720 0.987349 0.989765
O O13 0.495461 0.984398 0.688386
O O14 0.197932 0.718903 0.153480
O O15 0.020318 0.830133 0.068843
O O16 0.916781 0.192239 0.274999
#
# Coordination Sequence:
#
# PCOD8056512 Si02
#       8
#     4   4   4   4   4   4   4   4
#     4  12  25  44  75 108 140 189 242 292 359 427
#     4  11  25  45  72 102 146 183 238 297 355 422
#     4  12  25  43  71 104 144 188 236 298 361 427
#     4  12  23  43  71 109 138 187 243 298 349 427
#     4  12  22  40  73 105 138 179 245 300 352 411
#     4  11  26  49  72 104 150 190 230 301 367 416
#     4  11  27  46  70 109 142 191 242 292 356 433
#     4  11  25  48  70 101 152 183 230 306 357 423
#
# _framework density 22.058520999999999
#
# number of rings (size 3 to 8) (size 9 to 14) (size 15 to 20)
#    0.000    0.500    5.000    3.750    5.250    1.000 
#    4.500    0.000    0.000    0.000    0.000    0.000 
#    0.000    0.000    0.000    0.000    0.000    0.000 
#
# Total GULP energy -198320.062508 kJ/mol
# GULP energy per Si atom -12395.003907 kJ/mol
# Density = 2.200831 g / cm^3
# Si number density = 22.058521 Si / 1000 Ang^3
#
#
#
# Elastic Constant Matrix: (Units=GPa)
#
#
# Indices 1 2 3 4 5 6 
#
# 1 79.8020 42.4904 49.0469 0.0000 12.7667 0.0000
# 2 42.4904 112.1815 44.2425 0.0000 -1.4338 0.0000
# 3 49.0469 44.2425 109.2182 0.0000 20.9360 0.0000
# 4 0.0000 0.0000 0.0000 44.3309 0.0000 2.8471
# 5 12.7667 -1.4338 20.9360 0.0000 52.2105 0.0000
# 6 0.0000 0.0000 0.0000 2.8471 0.0000 25.4599
#
#
#
# Elastic Compliance Matrix: (Units=1/GPa)
#
#
# Indices 1 2 3 4 5 6 
#
# 1 0.019362 -0.004895 -0.006260 0.000000 -0.002359 0.000000
# 2 -0.004895 0.012081 -0.003238 0.000000 0.002827 0.000000
# 3 -0.006260 -0.003238 0.014085 0.000000 -0.004206 0.000000
# 4 0.000000 0.000000 0.000000 0.022721 0.000000 -0.002541
# 5 -0.002359 0.002827 -0.004206 0.000000 0.021494 0.000000
# 6 0.000000 0.000000 0.000000 -0.002541 0.000000 0.039562
#
#
# Mechanical properties :
#
#
# Convention : Reuss Voigt Hill
#
# Bulk Modulus (GPa) = 59.72601 63.64014 61.68307
# Shear Modulus (GPa) = 30.54909 35.42839 32.98874
#
# Velocity S-wave (km/s) = 3.72548 4.01198 3.87138
# Velocity P-wave (km/s) = 6.75578 7.09750 6.92874
#
# Compressibility (1/GPa) = 0.01674313
#
# Stress axis : x y z
#
# Youngs Moduli (GPa) = 51.64717 82.77358 70.99786
#
# Poissons Ratio (x) = 0.40518 0.44445
# Poissons Ratio (y) = 0.25281 0.22986
# Poissons Ratio (z) = 0.32331 0.26798
#
# Static dielectric constant tensor:
#      x y z
#    x 3.703320 0.000000 0.143720 
#    y 0.000000 3.938440 0.000000 
#    z 0.143720 0.000000 4.269130 
# 
# 
# High freq. dielectric constant tensor:
#      x y z
#    x 1.837480 0.000000 0.009080 
#    y 0.000000 1.867960 0.000000 
#    z 0.009080 0.000000 1.892390 
# 
# From -- ./inp_files/7598.got.cif
#   From: 2010.06.25/outbox.cif.g09.slc.cpg/sg9_4_cif.got.tgz:7598.got - 2010.06.27 21:40:51.
