data_PCOD8056218
_publ_section_title
;
Structure prediction by ZEFSAII (Michael W. Deem and Ramdas Pophale) SiO2 
 PCOD8056218
Probable space group: C C
;
_chemical_formula_sum "Si O2"
_cell_formula_units_Z 32
_cell_length_a 24.732385
_cell_length_b 6.573898
_cell_length_c 21.628633
_cell_angle_alpha 90.000000
_cell_angle_beta 24.281590
_cell_angle_gamma 90.000000
_cell_volume 1446.085040
_symmetry_space_group_name_H-M "C C"
_symmetry_group_IT_number 9
_symmetry_cell_setting 'monoclinic'
loop_
_space_group_symop_operation_xyz
x,y,z
x,-y,1/2+z
1/2+x,1/2+y,z
1/2+x,1/2-y,1/2+z
loop_
_atom_site_type_symbol
_atom_site_label
_atom_site_fract_x
_atom_site_fract_y
_atom_site_fract_z
Si Si1 0.898910 0.053694 0.427280
Si Si2 0.215065 0.351633 0.817666
Si Si3 0.752183 0.402203 0.391410
Si Si4 0.464461 0.598061 0.221115
Si Si5 0.831700 0.680837 0.577785
Si Si6 0.007763 0.583886 0.973896
Si Si7 0.158830 0.173491 0.222802
Si Si8 0.355710 0.696282 0.739826
O O1 0.908803 0.021067 0.343938
O O2 0.770963 0.190272 0.574205
O O3 0.028803 0.167479 0.316186
O O4 0.887999 0.826261 0.466118
O O5 0.227075 0.148802 0.845304
O O6 0.304957 0.328168 0.663661
O O7 0.248749 0.538983 0.826869
O O8 0.066305 0.391553 0.950386
O O9 0.619009 0.345493 0.567458
O O10 0.877841 0.289619 0.289488
O O11 0.783203 0.640980 0.359166
O O12 0.459379 0.419247 0.175471
O O13 0.930766 0.502486 0.494904
O O14 0.703663 0.560506 0.686588
O O15 0.123072 0.727816 0.826610
O O16 0.921139 0.712115 0.110851
#
# Coordination Sequence:
#
# PCOD8056218 Si02
#       8
#     4   4   4   4   4   4   4   4
#     4  12  27  48  70 106 144 194 245 293 358 429
#     4  11  23  38  67 104 138 173 229 285 357 421
#     4  11  24  47  70 104 139 189 236 296 354 414
#     4  11  27  46  72 102 142 190 241 290 351 427
#     4  12  25  44  70 107 140 186 233 297 362 423
#     4  12  22  43  69 104 140 180 229 296 360 425
#     4  12  26  47  72 105 144 189 243 298 361 428
#     4  11  24  43  68 104 141 181 230 293 357 419
#
# _framework density 22.128712
#
# number of rings (size 3 to 8) (size 9 to 14) (size 15 to 20)
#    0.000    0.500    3.750    4.500    3.500    3.000 
#    0.000    0.000    0.000    0.000    0.000    0.000 
#    0.000    0.000    0.000    0.000    0.000    0.000 
#
# Total GULP energy -198433.630544 kJ/mol
# GULP energy per Si atom -12402.101909 kJ/mol
# Density = 2.207835 g / cm^3
# Si number density = 22.128712 Si / 1000 Ang^3
#
#
#
# Elastic Constant Matrix: (Units=GPa)
#
#
# Indices 1 2 3 4 5 6 
#
# 1 77.7972 36.5743 36.3047 -0.0050 7.4267 -0.0043
# 2 36.5743 111.6995 44.6869 -0.0105 -0.3887 0.0152
# 3 36.3047 44.6869 123.9750 0.0342 -3.4492 -0.0081
# 4 -0.0050 -0.0105 0.0342 36.4030 -0.0038 -2.3234
# 5 7.4267 -0.3887 -3.4492 -0.0038 42.1341 0.0011
# 6 -0.0043 0.0152 -0.0081 -2.3234 0.0011 27.5907
#
#
#
# Elastic Compliance Matrix: (Units=1/GPa)
#
#
# Indices 1 2 3 4 5 6 
#
# 1 0.016727 -0.004081 -0.003518 0.000004 -0.003274 0.000004
# 2 -0.004081 0.011459 -0.002919 0.000005 0.000586 -0.000007
# 3 -0.003518 -0.002919 0.010188 -0.000011 0.001427 0.000003
# 4 0.000004 0.000005 -0.000011 0.027619 0.000001 0.002326
# 5 -0.003274 0.000586 0.001427 0.000001 0.024433 -0.000001
# 6 0.000004 -0.000007 0.000003 0.002326 -0.000001 0.036440
#
#
# Mechanical properties :
#
#
# Convention : Reuss Voigt Hill
#
# Bulk Modulus (GPa) = 57.67853 60.95592 59.31723
# Shear Modulus (GPa) = 32.53491 34.28593 33.41042
#
# Velocity S-wave (km/s) = 3.83855 3.94049 3.88986
# Velocity P-wave (km/s) = 6.76518 6.95048 6.85846
#
# Compressibility (1/GPa) = 0.01733747
#
# Stress axis : x y z
#
# Youngs Moduli (GPa) = 59.78408 87.27089 98.15145
#
# Poissons Ratio (x) = 0.35613 0.34534
# Poissons Ratio (y) = 0.24396 0.28650
# Poissons Ratio (z) = 0.21035 0.25474
#
# Static dielectric constant tensor:
#      x y z
#    x 4.000250 -0.000050 -0.067980 
#    y -0.000050 4.068290 0.000080 
#    z -0.067980 0.000080 3.955170 
# 
# 
# High freq. dielectric constant tensor:
#      x y z
#    x 1.872810 0.000000 -0.008080 
#    y 0.000000 1.875500 0.000010 
#    z -0.008080 0.000010 1.872520 
# 
# From -- ./inp_files/19858.got.cif
#   From: 2010.06.25/outbox.cif.g09.slc.cpg/sg9_10_cif.got.tgz:19858.got - 2010.06.27 21:40:51.
