data_PCOD8056926
_publ_section_title
;
Structure prediction by ZEFSAII (Michael W. Deem and Ramdas Pophale) SiO2 
 PCOD8056926
Probable space group: P 2/M
;
_chemical_formula_sum "Si O2"
_cell_formula_units_Z 30
_cell_length_a 13.971936
_cell_length_b 18.503301
_cell_length_c 8.518994
_cell_angle_alpha 90.000000
_cell_angle_beta 52.756851
_cell_angle_gamma 90.000000
_cell_volume 1753.265784
_symmetry_space_group_name_H-M "P 2/M"
_symmetry_group_IT_number 10
_symmetry_cell_setting 'monoclinic'
loop_
_space_group_symop_operation_xyz
x,y,z
-x,y,-z
-x,-y,-z
x,-y,z
loop_
_atom_site_type_symbol
_atom_site_label
_atom_site_fract_x
_atom_site_fract_y
_atom_site_fract_z
Si Si1 0.626316 0.080016 0.788440
Si Si2 0.973117 0.580318 0.858000
Si Si3 0.690256 0.205787 0.912127
Si Si4 0.435878 0.658447 0.400049
Si Si5 0.770821 0.580660 0.548657
Si Si6 0.520353 0.179945 0.648079
Si Si7 0.129289 0.323864 0.291181
Si Si8 0.500000 0.690216 0.000000
O O1 0.716320 0.127860 0.806338
O O2 0.605134 0.121966 0.648011
O O3 0.681174 0.000000 0.705361
O O4 0.500000 0.073696 0.000000
O O5 0.916654 0.500000 0.934382
O O6 0.880162 0.630467 0.858752
O O7 0.094204 0.574284 0.641291
O O8 0.000000 0.615523 0.000000
O O9 0.816763 0.246261 0.814175
O O10 0.611165 0.194859 0.146716
O O11 0.613150 0.255532 0.868796
O O12 0.500000 0.631537 0.500000
O O13 0.311852 0.614148 0.507063
O O14 0.410669 0.743686 0.440805
O O15 0.505992 0.644764 0.159882
O O16 0.724348 0.500000 0.639785
O O17 0.774037 0.633123 0.696858
O O18 0.500000 0.144237 0.500000
O O19 0.000000 0.311438 0.500000
#
# Coordination Sequence:
#
# PCOD8056926 Si02
#       8
#     4   4   4   4   4   4   4   2
#     4   9  15  26  45  69  97 129 158 190 238 289
#     4   9  19  33  48  70  95 120 160 207 254 292
#     4  10  16  31  49  68  99 124 160 202 238 289
#     4  10  19  31  49  69  96 131 165 198 248 297
#     4  10  19  33  49  66  94 125 159 207 249 291
#     4   9  17  28  44  68  96 128 158 194 241 290
#     4  10  19  32  54  73  91 127 167 203 244 290
#     4  10  16  32  50  68  96 130 160 202 244 294
#
# _framework density 17.110925000000002
#
# number of rings (size 3 to 8) (size 9 to 14) (size 15 to 20)
#    0.000    2.400    4.667    0.400    0.000    5.333 
#    0.000    0.333    0.000    0.400    0.000    0.000 
#    0.000    1.600    0.000    0.000    0.000    0.000 
#
# Total GULP energy -371641.740190 kJ/mol
# GULP energy per Si atom -12388.058006 kJ/mol
# Density = 1.707198 g / cm^3
# Si number density = 17.110925 Si / 1000 Ang^3
#
#
#
# Elastic Constant Matrix: (Units=GPa)
#
#
# Indices 1 2 3 4 5 6 
#
# 1 97.3610 54.8730 27.5027 0.0000 21.5143 0.0000
# 2 54.8730 114.4351 29.4158 0.0000 3.6094 0.0000
# 3 27.5027 29.4158 46.9000 0.0000 22.6011 0.0000
# 4 0.0000 0.0000 0.0000 16.2073 0.0000 -1.6407
# 5 21.5143 3.6094 22.6011 0.0000 29.5549 0.0000
# 6 0.0000 0.0000 0.0000 -1.6407 0.0000 26.2332
#
#
#
# Elastic Compliance Matrix: (Units=1/GPa)
#
#
# Indices 1 2 3 4 5 6 
#
# 1 0.017332 -0.008146 0.000864 0.000000 -0.012283 0.000000
# 2 -0.008146 0.014939 -0.010406 0.000000 0.012063 0.000000
# 3 0.000864 -0.010406 0.042808 0.000000 -0.032095 0.000000
# 4 0.000000 0.000000 0.000000 0.062094 0.000000 0.003883
# 5 -0.012283 0.012063 -0.032095 0.000000 0.065847 0.000000
# 6 0.000000 0.000000 0.000000 0.003883 0.000000 0.038363
#
#
# Mechanical properties :
#
#
# Convention : Reuss Voigt Hill
#
# Bulk Modulus (GPa) = 25.18613 53.58657 39.38635
# Shear Modulus (GPa) = 17.24188 24.19272 20.71730
#
# Velocity S-wave (km/s) = 3.17780 3.76423 3.48338
# Velocity P-wave (km/s) = 5.31186 7.09068 6.26473
#
# Compressibility (1/GPa) = 0.03970439
#
# Stress axis : x y z
#
# Youngs Moduli (GPa) = 57.69663 66.93894 23.36006
#
# Poissons Ratio (x) = 0.54527 -0.02019
# Poissons Ratio (y) = 0.46998 0.24309
# Poissons Ratio (z) = -0.04988 0.69658
#
# Static dielectric constant tensor:
#      x y z
#    x 3.157030 0.000000 0.283290 
#    y 0.000000 3.413340 0.000000 
#    z 0.283290 0.000000 3.097250 
# 
# 
# High freq. dielectric constant tensor:
#      x y z
#    x 1.644280 0.000000 0.026270 
#    y 0.000000 1.646420 0.000000 
#    z 0.026270 0.000000 1.640270 
# 
# From -- ./inp_files/29989.got.cif
#   From: 2010.06.25/outbox.cif.g09.slc.cpg/sg10_15_cif.got.tgz:29989.got - 2010.06.27 22:07:45.
