data_PCOD8056189
_publ_section_title
;
Structure prediction by ZEFSAII (Michael W. Deem and Ramdas Pophale) SiO2 
 PCOD8056189
Probable space group: C C
;
_chemical_formula_sum "Si O2"
_cell_formula_units_Z 32
_cell_length_a 19.342178
_cell_length_b 11.215029
_cell_length_c 14.992335
_cell_angle_alpha 90.000000
_cell_angle_beta 152.088151
_cell_angle_gamma 90.000000
_cell_volume 1522.388021
_symmetry_space_group_name_H-M "C C"
_symmetry_group_IT_number 9
_symmetry_cell_setting 'monoclinic'
loop_
_space_group_symop_operation_xyz
x,y,z
x,-y,1/2+z
1/2+x,1/2+y,z
1/2+x,1/2-y,1/2+z
loop_
_atom_site_type_symbol
_atom_site_label
_atom_site_fract_x
_atom_site_fract_y
_atom_site_fract_z
Si Si1 0.805470 0.583562 0.293130
Si Si2 0.704146 0.485472 0.873695
Si Si3 0.963883 0.237627 0.391444
Si Si4 0.357406 0.774444 0.604927
Si Si5 0.164824 0.303470 0.036029
Si Si6 0.113283 0.511826 0.097999
Si Si7 0.692202 0.373756 0.040580
Si Si8 0.908724 0.103556 0.505164
O O1 0.750714 0.562347 0.330812
O O2 0.750994 0.714121 0.201103
O O3 0.734290 0.493880 0.140789
O O4 0.984146 0.567898 0.497178
O O5 0.530965 0.514251 0.681216
O O6 0.807535 0.593242 0.022788
O O7 0.718657 0.384133 0.965336
O O8 0.050564 0.361695 0.496897
O O9 0.026188 0.163001 0.378414
O O10 0.791603 0.262711 0.184707
O O11 0.979876 0.156036 0.496361
O O12 0.230240 0.701511 0.510963
O O13 0.392762 0.714058 0.552394
O O14 0.492127 0.773415 0.828503
O O15 0.177672 0.437871 0.087575
O O16 0.253119 0.534690 0.321539
#
# Coordination Sequence:
#
# PCOD8056189 Si02
#       8
#     4   4   4   4   4   4   4   4
#     4  11  24  47  70  98 142 179 225 291 343 405
#     4  12  25  43  70 101 135 181 229 282 345 412
#     4  11  22  45  69  99 134 178 226 287 336 402
#     4  12  23  43  69 106 131 182 240 287 333 417
#     4  12  25  46  71  96 146 183 225 286 355 408
#     4  11  25  44  68 103 132 187 228 277 351 410
#     4  11  22  45  69  96 136 177 226 280 341 399
#     4  12  24  41  72 101 132 177 237 282 338 403
#
# _framework density 21.019607000000001
#
# number of rings (size 3 to 8) (size 9 to 14) (size 15 to 20)
#    0.000    0.500    6.250    3.000    3.500    1.000 
#    4.500    0.000    0.000    0.000    0.000    0.000 
#    0.000    0.000    0.000    0.000    0.000    0.000 
#
# Total GULP energy -198390.520926 kJ/mol
# GULP energy per Si atom -12399.407558 kJ/mol
# Density = 2.097177 g / cm^3
# Si number density = 21.019607 Si / 1000 Ang^3
#
#
#
# Elastic Constant Matrix: (Units=GPa)
#
#
# Indices 1 2 3 4 5 6 
#
# 1 116.8211 16.1991 23.7661 0.0000 -5.1688 0.0000
# 2 16.1991 37.0031 43.4731 0.0000 9.9634 0.0000
# 3 23.7661 43.4731 94.9408 0.0000 2.4303 0.0000
# 4 0.0000 0.0000 0.0000 17.0175 0.0000 4.9116
# 5 -5.1688 9.9634 2.4303 0.0000 24.0130 0.0000
# 6 0.0000 0.0000 0.0000 4.9116 0.0000 35.9621
#
#
#
# Elastic Compliance Matrix: (Units=1/GPa)
#
#
# Indices 1 2 3 4 5 6 
#
# 1 0.009482 -0.005110 -0.000141 0.000000 0.004176 0.000000
# 2 -0.005110 0.075080 -0.032358 0.000000 -0.028977 0.000000
# 3 -0.000141 -0.032358 0.025107 0.000000 0.010855 0.000000
# 4 0.000000 0.000000 0.000000 0.061175 0.000000 -0.008355
# 5 0.004176 -0.028977 0.010855 0.000000 0.053467 0.000000
# 6 0.000000 0.000000 0.000000 -0.008355 0.000000 0.028948
#
#
# Mechanical properties :
#
#
# Convention : Reuss Voigt Hill
#
# Bulk Modulus (GPa) = 29.02632 46.18242 37.60437
# Shear Modulus (GPa) = 14.70758 26.42029 20.56394
#
# Velocity S-wave (km/s) = 2.64807 3.54917 3.13121
# Velocity P-wave (km/s) = 4.81548 6.23012 5.56791
#
# Compressibility (1/GPa) = 0.03445149
#
# Stress axis : x y z
#
# Youngs Moduli (GPa) = 105.46238 13.31909 39.82976
#
# Poissons Ratio (x) = 0.06806 0.00560
# Poissons Ratio (y) = 0.53894 1.28881
# Poissons Ratio (z) = 0.01482 0.43098
#
# Static dielectric constant tensor:
#      x y z
#    x 3.886240 0.000000 0.157050 
#    y 0.000000 3.697290 0.000000 
#    z 0.157050 0.000000 4.124060 
# 
# 
# High freq. dielectric constant tensor:
#      x y z
#    x 1.833250 0.000000 0.013330 
#    y 0.000000 1.813280 0.000000 
#    z 0.013330 0.000000 1.829680 
# 
# From -- ./inp_files/9075.got.cif
#   From: 2010.06.25/outbox.cif.g09.slc.cpg/sg9_5_cif.got.tgz:9075.got - 2010.06.27 21:40:51.
