data_PCOD8056701
_publ_section_title
;
Structure prediction by ZEFSAII (Michael W. Deem and Ramdas Pophale) SiO2 
 PCOD8056701
Probable space group: C C
;
_chemical_formula_sum "Si O2"
_cell_formula_units_Z 24
_cell_length_a 7.465322
_cell_length_b 17.756493
_cell_length_c 14.254304
_cell_angle_alpha 90.000000
_cell_angle_beta 37.628276
_cell_angle_gamma 90.000000
_cell_volume 1153.620855
_symmetry_space_group_name_H-M "C C"
_symmetry_group_IT_number 9
_symmetry_cell_setting 'monoclinic'
loop_
_space_group_symop_operation_xyz
x,y,z
x,-y,1/2+z
1/2+x,1/2+y,z
1/2+x,1/2-y,1/2+z
loop_
_atom_site_type_symbol
_atom_site_label
_atom_site_fract_x
_atom_site_fract_y
_atom_site_fract_z
Si Si1 0.244350 0.739384 0.656540
Si Si2 0.117367 0.344930 0.633164
Si Si3 0.932528 0.982239 0.408984
Si Si4 0.661250 0.400791 0.965470
Si Si5 0.126436 0.252570 0.000434
Si Si6 0.913027 0.578068 0.563313
O O1 0.428864 0.799500 0.636923
O O2 0.396325 0.657794 0.588179
O O3 0.182637 0.774638 0.581667
O O4 0.928398 0.730888 0.829487
O O5 0.225507 0.419956 0.539589
O O6 0.393255 0.296866 0.544999
O O7 0.932759 0.359024 0.803821
O O8 0.714469 0.031231 0.435339
O O9 0.065715 0.030294 0.439249
O O10 0.191717 0.949012 0.236974
O O11 0.756477 0.431057 0.027744
O O12 0.014152 0.337561 0.041830
#
# Coordination Sequence:
#
# PCOD8056701 Si02
#       6
#     4   4   4   4   4   4
#     4  12  25  46  73 107 151 187 245 309 361 444
#     4  12  27  47  74 110 145 194 251 305 369 437
#     4  12  28  49  73 109 150 195 248 307 365 448
#     4  12  27  50  74 107 153 195 247 306 374 438
#     4  12  26  45  77 107 145 193 248 301 373 436
#     4  12  27  49  75 106 148 198 247 300 374 439
#
# _framework density 20.804061000000001
#
# number of rings (size 3 to 8) (size 9 to 14) (size 15 to 20)
#    0.000    0.000    6.667    2.000    7.000    1.333 
#    0.000    0.000    0.000    0.000    0.000    0.000 
#    0.000    0.000    0.000    0.000    0.000    0.000 
#
# Total GULP energy -148814.945099 kJ/mol
# GULP energy per Si atom -12401.245425 kJ/mol
# Density = 2.075671 g / cm^3
# Si number density = 20.804061 Si / 1000 Ang^3
#
#
#
# Elastic Constant Matrix: (Units=GPa)
#
#
# Indices 1 2 3 4 5 6 
#
# 1 166.4370 34.3046 48.5154 -0.0027 6.9829 0.0004
# 2 34.3046 108.0809 52.6570 -0.0034 -11.3047 0.0039
# 3 48.5154 52.6570 169.5746 0.0159 -9.3578 0.0110
# 4 -0.0027 -0.0034 0.0159 29.0995 -0.0047 32.0514
# 5 6.9829 -11.3047 -9.3578 -0.0047 46.0403 -0.0018
# 6 0.0004 0.0039 0.0110 32.0514 -0.0018 16.7535
#
#
#
# Elastic Compliance Matrix: (Units=1/GPa)
#
#
# Indices 1 2 3 4 5 6 
#
# 1 0.006868 -0.001601 -0.001564 0.000000 -0.001753 0.000001
# 2 -0.001601 0.011462 -0.002966 -0.000003 0.002454 0.000006
# 3 -0.001564 -0.002966 0.007321 0.000000 0.000997 -0.000004
# 4 0.000000 -0.000003 0.000000 -0.031038 -0.000002 0.059379
# 5 -0.001753 0.002454 0.000997 -0.000002 0.022791 0.000004
# 6 0.000001 0.000006 -0.000004 0.059379 0.000004 -0.053910
#
#
# Mechanical properties :
#
#
# Convention : Reuss Voigt Hill
#
# Bulk Modulus (GPa) = 74.69267 79.44962 77.07114
# Shear Modulus (GPa) = -252.76614 38.95303 -106.90656
#
# Velocity S-wave (km/s) = -11.03459 4.33179 -7.17627
# Velocity P-wave (km/s) = 11.24139 7.95560 5.61592
#
# Compressibility (1/GPa) = 0.01338820
#
# Stress axis : x y z
#
# Youngs Moduli (GPa) = 145.60656 87.24396 136.59940
#
# Poissons Ratio (x) = 0.13967 0.21371
# Poissons Ratio (y) = 0.23311 0.40512
# Poissons Ratio (z) = 0.22780 0.25875
#
# Static dielectric constant tensor:
#      x y z
#    x 4.119970 -0.000010 -0.084750 
#    y -0.000010 3.711820 -0.000010 
#    z -0.084750 -0.000010 4.020490 
# 
# 
# High freq. dielectric constant tensor:
#      x y z
#    x 1.840580 0.000000 -0.005880 
#    y 0.000000 1.822630 0.000000 
#    z -0.005880 0.000000 1.835650 
# 
# From -- ./inp_files/23629.got.cif
#   From: 2010.06.25/outbox.cif.g09.slc.cpg/sg9_12_cif.got.tgz:23629.got - 2010.06.27 21:40:51.
