data_PCOD8056287
_publ_section_title
;
Structure prediction by ZEFSAII (Michael W. Deem and Ramdas Pophale) SiO2 
 PCOD8056287
Probable space group: C C
;
_chemical_formula_sum "Si O2"
_cell_formula_units_Z 32
_cell_length_a 16.568619
_cell_length_b 15.245396
_cell_length_c 10.894324
_cell_angle_alpha 90.000000
_cell_angle_beta 147.548513
_cell_angle_gamma 90.000000
_cell_volume 1476.604149
_symmetry_space_group_name_H-M "C C"
_symmetry_group_IT_number 9
_symmetry_cell_setting 'monoclinic'
loop_
_space_group_symop_operation_xyz
x,y,z
x,-y,1/2+z
1/2+x,1/2+y,z
1/2+x,1/2-y,1/2+z
loop_
_atom_site_type_symbol
_atom_site_label
_atom_site_fract_x
_atom_site_fract_y
_atom_site_fract_z
Si Si1 0.643610 0.974597 0.609890
Si Si2 0.540322 0.148858 0.770640
Si Si3 0.906838 0.481642 0.489511
Si Si4 0.616135 0.475985 0.492424
Si Si5 0.307800 0.712180 0.940032
Si Si6 0.955009 0.041445 0.046739
Si Si7 0.488641 0.143058 0.292566
Si Si8 0.710161 0.710746 0.074174
O O1 0.613121 0.894240 0.481942
O O2 0.565662 0.952175 0.637736
O O3 0.582524 0.069419 0.486586
O O4 0.819442 0.973089 0.863059
O O5 0.439188 0.232968 0.678122
O O6 0.682672 0.172918 0.869009
O O7 0.423499 0.080425 0.560378
O O8 0.781222 0.481576 0.221881
O O9 0.878779 0.407622 0.556471
O O10 0.535537 0.532083 0.283039
O O11 0.551217 0.476543 0.547866
O O12 0.620350 0.379367 0.440845
O O13 0.222401 0.774734 0.735538
O O14 0.389384 0.638874 0.962517
O O15 0.610909 0.209692 0.388846
O O16 0.377973 0.202287 0.233741
#
# Coordination Sequence:
#
# PCOD8056287 Si02
#       8
#     4   4   4   4   4   4   4   4
#     4  11  23  45  69  97 137 188 220 278 354 413
#     4  11  24  41  70 101 138 171 236 287 338 400
#     4  11  23  45  69  97 137 188 220 278 354 413
#     4  12  26  43  68 103 140 178 230 286 343 410
#     4  12  22  42  67 104 130 175 234 284 330 400
#     4  12  26  43  68 103 140 178 230 286 343 410
#     4  11  24  41  70 101 138 171 236 287 338 400
#     4  12  22  42  67 104 130 175 234 284 330 400
#
# _framework density 21.671344999999999
#
# number of rings (size 3 to 8) (size 9 to 14) (size 15 to 20)
#    0.000    0.500    5.000    3.750    3.500    0.000 
#    0.000    6.250    0.000    0.000    0.000    0.000 
#    0.000    0.000    0.000    0.000    0.000    0.000 
#
# Total GULP energy -198327.998236 kJ/mol
# GULP energy per Si atom -12395.499890 kJ/mol
# Density = 2.162202 g / cm^3
# Si number density = 21.671345 Si / 1000 Ang^3
#
#
#
# Elastic Constant Matrix: (Units=GPa)
#
#
# Indices 1 2 3 4 5 6 
#
# 1 41.5046 26.8495 -1.5001 0.0000 1.1670 0.0000
# 2 26.8495 80.8179 28.3344 0.0000 4.4790 0.0000
# 3 -1.5001 28.3344 99.8942 0.0000 -6.0261 0.0000
# 4 0.0000 0.0000 0.0000 24.3293 0.0000 5.0909
# 5 1.1670 4.4790 -6.0261 0.0000 33.2892 0.0000
# 6 0.0000 0.0000 0.0000 5.0909 0.0000 22.7203
#
#
#
# Elastic Compliance Matrix: (Units=1/GPa)
#
#
# Indices 1 2 3 4 5 6 
#
# 1 0.032038 -0.012111 0.003990 0.000000 0.001229 0.000000
# 2 -0.012111 0.018541 -0.005627 0.000000 -0.003089 0.000000
# 3 0.003990 -0.005627 0.011833 0.000000 0.002759 0.000000
# 4 0.000000 0.000000 0.000000 0.043125 0.000000 -0.009663
# 5 0.001229 -0.003089 0.002759 0.000000 0.030912 0.000000
# 6 0.000000 0.000000 0.000000 -0.009663 0.000000 0.046179
#
#
# Mechanical properties :
#
#
# Convention : Reuss Voigt Hill
#
# Bulk Modulus (GPa) = 28.63953 36.62049 32.63001
# Shear Modulus (GPa) = 22.54673 27.30330 24.92502
#
# Velocity S-wave (km/s) = 3.22901 3.55333 3.39505
# Velocity P-wave (km/s) = 5.21019 5.81117 5.51887
#
# Compressibility (1/GPa) = 0.03491677
#
# Stress axis : x y z
#
# Youngs Moduli (GPa) = 31.21291 53.93427 84.50858
#
# Poissons Ratio (x) = 0.65319 -0.33723
# Poissons Ratio (y) = 0.37802 0.47555
# Poissons Ratio (z) = -0.12455 0.30350
#
# Static dielectric constant tensor:
#      x y z
#    x 3.894240 0.000000 0.165800 
#    y 0.000000 3.937710 0.000000 
#    z 0.165800 0.000000 3.905830 
# 
# 
# High freq. dielectric constant tensor:
#      x y z
#    x 1.850710 0.000000 0.015980 
#    y 0.000000 1.850170 0.000000 
#    z 0.015980 0.000000 1.852650 
# 
# From -- ./inp_files/7545.got.cif
#   From: 2010.06.25/outbox.cif.g09.slc.cpg/sg9_4_cif.got.tgz:7545.got - 2010.06.27 21:40:51.
