data_PCOD8056408
_publ_section_title
;
Structure prediction by ZEFSAII (Michael W. Deem and Ramdas Pophale) SiO2 
 PCOD8056408
Probable space group: C C
;
_chemical_formula_sum "Si O2"
_cell_formula_units_Z 28
_cell_length_a 16.463055
_cell_length_b 8.454264
_cell_length_c 14.757554
_cell_angle_alpha 90.000000
_cell_angle_beta 37.080623
_cell_angle_gamma 90.000000
_cell_volume 1238.435599
_symmetry_space_group_name_H-M "C C"
_symmetry_group_IT_number 9
_symmetry_cell_setting 'monoclinic'
loop_
_space_group_symop_operation_xyz
x,y,z
x,-y,1/2+z
1/2+x,1/2+y,z
1/2+x,1/2-y,1/2+z
loop_
_atom_site_type_symbol
_atom_site_label
_atom_site_fract_x
_atom_site_fract_y
_atom_site_fract_z
Si Si1 0.622970 0.411925 0.715390
Si Si2 0.071389 0.539351 0.440959
Si Si3 0.531074 0.594622 0.630356
Si Si4 0.406462 0.199724 0.995089
Si Si5 0.239665 0.627227 0.940095
Si Si6 0.761206 0.016439 0.118889
Si Si7 0.014980 0.112140 0.969193
O O1 0.553926 0.457810 0.683073
O O2 0.541590 0.250965 0.818128
O O3 0.782173 0.385069 0.553056
O O4 0.609750 0.552155 0.802010
O O5 0.182304 0.482974 0.412472
O O6 0.120020 0.541927 0.293221
O O7 0.045473 0.720449 0.489390
O O8 0.947654 0.412916 0.544421
O O9 0.389623 0.680099 0.778865
O O10 0.651445 0.718239 0.532873
O O11 0.527774 0.522413 0.533684
O O12 0.336641 0.360300 0.090564
O O13 0.240713 0.520767 0.029760
O O14 0.866639 0.148020 0.059980
#
# Coordination Sequence:
#
# PCOD8056408 Si02
#       7
#     4   4   4   4   4   4   4
#     4  11  25  47  73 103 146 182 242 290 357 421
#     4  12  27  44  76 104 143 185 244 288 359 420
#     4  12  27  46  74 104 150 185 239 293 356 425
#     4  11  24  44  75 100 138 193 229 289 361 411
#     4  12  27  47  72 106 143 190 235 297 353 425
#     4  11  24  47  69 100 145 181 243 290 348 422
#     4  11  26  45  71 105 141 188 234 297 346 422
#
# _framework density 22.609171
#
# number of rings (size 3 to 8) (size 9 to 14) (size 15 to 20)
#    0.000    0.571    5.714    2.571    6.000    0.000 
#    0.000    0.000    0.000    0.000    0.000    0.000 
#    0.000    0.000    0.000    0.000    0.000    0.000 
#
# Total GULP energy -173482.677806 kJ/mol
# GULP energy per Si atom -12391.619843 kJ/mol
# Density = 2.255771 g / cm^3
# Si number density = 22.609171 Si / 1000 Ang^3
#
#
#
# Elastic Constant Matrix: (Units=GPa)
#
#
# Indices 1 2 3 4 5 6 
#
# 1 130.1913 32.3064 41.9493 0.0000 -7.3407 0.0000
# 2 32.3064 103.5296 26.1733 -0.0001 -8.8754 0.0000
# 3 41.9493 26.1733 79.5661 0.0000 -12.8700 0.0000
# 4 0.0000 -0.0001 0.0000 21.0019 0.0000 -6.8394
# 5 -7.3407 -8.8754 -12.8700 0.0000 43.6437 0.0000
# 6 0.0000 0.0000 0.0000 -6.8394 0.0000 35.1474
#
#
#
# Elastic Compliance Matrix: (Units=1/GPa)
#
#
# Indices 1 2 3 4 5 6 
#
# 1 0.009573 -0.001870 -0.004445 0.000000 -0.000081 0.000000
# 2 -0.001870 0.010959 -0.002425 0.000000 0.001199 0.000000
# 3 -0.004445 -0.002425 0.016285 0.000000 0.003562 0.000000
# 4 0.000000 0.000000 0.000000 0.050836 0.000000 0.009892
# 5 -0.000081 0.001199 0.003562 0.000000 0.024193 0.000000
# 6 0.000000 0.000000 0.000000 0.009892 0.000000 0.030377
#
#
# Mechanical properties :
#
#
# Convention : Reuss Voigt Hill
#
# Bulk Modulus (GPa) = 51.71543 57.12725 54.42134
# Shear Modulus (GPa) = 30.09357 34.14911 32.12134
#
# Velocity S-wave (km/s) = 3.65229 3.89062 3.77334
# Velocity P-wave (km/s) = 6.38036 6.74571 6.56558
#
# Compressibility (1/GPa) = 0.01933659
#
# Stress axis : x y z
#
# Youngs Moduli (GPa) = 104.46306 91.25320 61.40495
#
# Poissons Ratio (x) = 0.17068 0.27293
# Poissons Ratio (y) = 0.19539 0.14889
# Poissons Ratio (z) = 0.46432 0.22127
#
# Static dielectric constant tensor:
#      x y z
#    x 4.138320 0.000000 -0.278410 
#    y 0.000000 4.026650 0.000000 
#    z -0.278410 0.000000 4.200440 
# 
# 
# High freq. dielectric constant tensor:
#      x y z
#    x 1.903910 0.000000 -0.014850 
#    y 0.000000 1.889960 0.000000 
#    z -0.014850 0.000000 1.884090 
# 
# From -- ./inp_files/20092.got.cif
#   From: 2010.06.25/outbox.cif.g09.slc.cpg/sg9_11_cif.got.tgz:20092.got - 2010.06.27 21:40:51.
