data_PCOD8056769
_publ_section_title
;
Structure prediction by ZEFSAII (Michael W. Deem and Ramdas Pophale) SiO2 
 PCOD8056769
Probable space group: C C
;
_chemical_formula_sum "Si O2"
_cell_formula_units_Z 16
_cell_length_a 12.844378
_cell_length_b 7.285213
_cell_length_c 9.668855
_cell_angle_alpha 90.000000
_cell_angle_beta 43.191917
_cell_angle_gamma 90.000000
_cell_volume 619.253493
_symmetry_space_group_name_H-M "C C"
_symmetry_group_IT_number 9
_symmetry_cell_setting 'monoclinic'
loop_
_space_group_symop_operation_xyz
x,y,z
x,-y,1/2+z
1/2+x,1/2+y,z
1/2+x,1/2-y,1/2+z
loop_
_atom_site_type_symbol
_atom_site_label
_atom_site_fract_x
_atom_site_fract_y
_atom_site_fract_z
Si Si1 0.500000 0.651817 0.788410
Si Si2 0.438523 0.088579 0.571180
Si Si3 0.763129 0.634106 0.026100
Si Si4 0.699667 0.016357 0.991654
O O1 0.607596 0.477558 0.697562
O O2 0.586074 0.833796 0.661090
O O3 0.365837 0.606719 0.808218
O O4 0.424957 0.712248 0.008386
O O5 0.380341 0.921805 0.532017
O O6 0.617809 0.057798 0.432327
O O7 0.335750 0.094281 0.806899
O O8 0.721664 0.848448 0.079014
#
# Coordination Sequence:
#
# PCOD8056769 Si02
#       4
#     4   4   4   4
#     4  12  27  53  80 121 163 212 275 335 401 496
#     4  12  26  56  78 121 163 214 275 337 404 496
#     4  12  28  54  85 116 164 218 271 340 416 479
#     4  12  27  51  81 118 164 214 269 340 403 485
#
# _framework density 25.837561999999998
#
# number of rings (size 3 to 8) (size 9 to 14) (size 15 to 20)
#    0.000    0.000    5.000    3.000    0.000    4.000 
#    4.500    0.000    0.000    0.000    0.000    0.000 
#    0.000    0.000    0.000    0.000    0.000    0.000 
#
# Total GULP energy -99190.284110 kJ/mol
# GULP energy per Si atom -12398.785514 kJ/mol
# Density = 2.577875 g / cm^3
# Si number density = 25.837562 Si / 1000 Ang^3
#
#
#
# Elastic Constant Matrix: (Units=GPa)
#
#
# Indices 1 2 3 4 5 6 
#
# 1 199.4704 63.6432 45.4938 0.0000 -44.3240 0.0000
# 2 63.6432 174.4151 42.0829 -0.0001 -26.8660 0.0001
# 3 45.4938 42.0829 82.3121 0.0000 -5.7191 0.0000
# 4 0.0000 -0.0001 0.0000 48.7170 0.0000 -13.7623
# 5 -44.3240 -26.8660 -5.7191 0.0000 44.1014 0.0000
# 6 0.0000 0.0001 0.0000 -13.7623 0.0000 49.8833
#
#
#
# Elastic Compliance Matrix: (Units=1/GPa)
#
#
# Indices 1 2 3 4 5 6 
#
# 1 0.007503 -0.000957 -0.003203 0.000000 0.006542 0.000000
# 2 -0.000957 0.007276 -0.002977 0.000000 0.003084 0.000000
# 3 -0.003203 -0.002977 0.015228 0.000000 -0.003058 0.000000
# 4 0.000000 0.000000 0.000000 0.022262 0.000000 0.006142
# 5 0.006542 0.003084 -0.003058 0.000000 0.030733 0.000000
# 6 0.000000 0.000000 0.000000 0.006142 0.000000 0.021741
#
#
# Mechanical properties :
#
#
# Convention : Reuss Voigt Hill
#
# Bulk Modulus (GPa) = 63.55653 84.29308 73.92480
# Shear Modulus (GPa) = 40.23775 48.87218 44.55497
#
# Velocity S-wave (km/s) = 3.95059 4.35388 4.15713
# Velocity P-wave (km/s) = 6.74251 7.61381 7.19137
#
# Compressibility (1/GPa) = 0.01573402
#
# Stress axis : x y z
#
# Youngs Moduli (GPa) = 133.28100 137.43749 65.66635
#
# Poissons Ratio (x) = 0.13156 0.21032
# Poissons Ratio (y) = 0.12758 0.19546
# Poissons Ratio (z) = 0.42689 0.40909
#
# Static dielectric constant tensor:
#      x y z
#    x 5.388530 0.000000 -0.210720 
#    y 0.000000 5.313650 0.000000 
#    z -0.210720 0.000000 4.641050 
# 
# 
# High freq. dielectric constant tensor:
#      x y z
#    x 2.051660 0.000000 -0.019430 
#    y 0.000000 2.047820 0.000000 
#    z -0.019430 0.000000 2.022260 
# 
# From -- ./inp_files/6608.got.cif
#   From: 2010.06.25/outbox.cif.g09.slc.cpg/sg9_4_cif.got.tgz:6608.got - 2010.06.27 21:40:51.
