data_PCOD8056555
_publ_section_title
;
Structure prediction by ZEFSAII (Michael W. Deem and Ramdas Pophale) SiO2 
 PCOD8056555
Probable space group: C C
;
_chemical_formula_sum "Si O2"
_cell_formula_units_Z 24
_cell_length_a 11.455538
_cell_length_b 8.952137
_cell_length_c 9.485082
_cell_angle_alpha 90.000000
_cell_angle_beta 81.830063
_cell_angle_gamma 90.000000
_cell_volume 962.837721
_symmetry_space_group_name_H-M "C C"
_symmetry_group_IT_number 9
_symmetry_cell_setting 'monoclinic'
loop_
_space_group_symop_operation_xyz
x,y,z
x,-y,1/2+z
1/2+x,1/2+y,z
1/2+x,1/2-y,1/2+z
loop_
_atom_site_type_symbol
_atom_site_label
_atom_site_fract_x
_atom_site_fract_y
_atom_site_fract_z
Si Si1 0.960370 0.847311 0.338970
Si Si2 0.183148 0.639448 0.351629
Si Si3 0.892478 0.337384 0.313406
Si Si4 0.141063 0.352234 0.176337
Si Si5 0.751335 0.355576 0.869154
Si Si6 0.002383 0.864039 0.013063
O O1 0.843853 0.763851 0.411757
O O2 0.946198 0.882196 0.175678
O O3 0.073746 0.745985 0.342046
O O4 0.965029 0.000251 0.420735
O O5 0.302171 0.713348 0.272987
O O6 0.170528 0.481093 0.281903
O O7 0.199369 0.616031 0.516421
O O8 0.820143 0.489810 0.340125
O O9 0.953494 0.289838 0.452172
O O10 0.998631 0.347209 0.181651
O O11 0.192305 0.196362 0.230013
O O12 0.645224 0.364715 0.000711
#
# Coordination Sequence:
#
# PCOD8056555 Si02
#       6
#     4   4   4   4   4   4
#     4  12  27  49  77 109 149 195 248 304 374 437
#     4  12  27  49  77 109 149 195 248 304 374 437
#     4  11  25  48  76 107 149 194 244 299 366 439
#     4  11  28  49  74 111 149 193 248 305 368 441
#     4  11  25  48  76 107 149 194 244 299 366 439
#     4  11  28  49  74 111 149 193 248 305 368 441
#
# _framework density 24.92632
#
# number of rings (size 3 to 8) (size 9 to 14) (size 15 to 20)
#    0.000    0.667    3.333    2.000    9.333    4.000 
#    0.000    0.000    0.000    0.000    0.000    0.000 
#    0.000    0.000    0.000    0.000    0.000    0.000 
#
# Total GULP energy -148851.002394 kJ/mol
# GULP energy per Si atom -12404.250200 kJ/mol
# Density = 2.486959 g / cm^3
# Si number density = 24.926320 Si / 1000 Ang^3
#
#
#
# Elastic Constant Matrix: (Units=GPa)
#
#
# Indices 1 2 3 4 5 6 
#
# 1 157.2035 59.7964 -10.7750 0.0000 -14.4196 0.0000
# 2 59.7964 111.0808 10.7145 0.0000 -1.6269 0.0000
# 3 -10.7750 10.7145 35.8579 0.0000 14.0157 0.0000
# 4 0.0000 0.0000 0.0000 30.1599 0.0000 8.9904
# 5 -14.4196 -1.6269 14.0157 0.0000 33.2500 0.0000
# 6 0.0000 0.0000 0.0000 8.9904 0.0000 75.5011
#
#
#
# Elastic Compliance Matrix: (Units=1/GPa)
#
#
# Indices 1 2 3 4 5 6 
#
# 1 0.008661 -0.004943 0.003240 0.000000 0.002148 0.000000
# 2 -0.004943 0.012197 -0.005418 0.000000 0.000737 0.000000
# 3 0.003240 -0.005418 0.035959 0.000000 -0.014018 0.000000
# 4 0.000000 0.000000 0.000000 0.034377 0.000000 -0.004093
# 5 0.002148 0.000737 -0.014018 0.000000 0.036952 0.000000
# 6 0.000000 0.000000 0.000000 -0.004093 0.000000 0.013732
#
#
# Mechanical properties :
#
#
# Convention : Reuss Voigt Hill
#
# Bulk Modulus (GPa) = 23.48841 47.06825 35.27833
# Shear Modulus (GPa) = 29.35799 44.07596 36.71697
#
# Velocity S-wave (km/s) = 3.43562 4.20962 3.84216
# Velocity P-wave (km/s) = 5.01812 6.52317 5.81951
#
# Compressibility (1/GPa) = 0.04257419
#
# Stress axis : x y z
#
# Youngs Moduli (GPa) = 115.46618 81.98873 27.80920
#
# Poissons Ratio (x) = 0.40528 -0.09009
# Poissons Ratio (y) = 0.57076 0.15067
# Poissons Ratio (z) = -0.37408 0.44420
#
# Static dielectric constant tensor:
#      x y z
#    x 5.211330 0.000000 -0.181950 
#    y 0.000000 4.734010 0.000000 
#    z -0.181950 0.000000 4.322670 
# 
# 
# High freq. dielectric constant tensor:
#      x y z
#    x 2.030150 0.000000 -0.007230 
#    y 0.000000 2.002320 0.000000 
#    z -0.007230 0.000000 1.972470 
# 
# From -- ./inp_files/6729.got.cif
#   From: 2010.06.25/outbox.cif.g09.slc.cpg/sg9_4_cif.got.tgz:6729.got - 2010.06.27 21:40:51.
