data_PCOD8056187
_publ_section_title
;
Structure prediction by ZEFSAII (Michael W. Deem and Ramdas Pophale) SiO2 
 PCOD8056187
Probable space group: C C
;
_chemical_formula_sum "Si O2"
_cell_formula_units_Z 28
_cell_length_a 20.845063
_cell_length_b 11.416202
_cell_length_c 13.206202
_cell_angle_alpha 90.000000
_cell_angle_beta 24.256531
_cell_angle_gamma 90.000000
_cell_volume 1291.092353
_symmetry_space_group_name_H-M "C C"
_symmetry_group_IT_number 9
_symmetry_cell_setting 'monoclinic'
loop_
_space_group_symop_operation_xyz
x,y,z
x,-y,1/2+z
1/2+x,1/2+y,z
1/2+x,1/2-y,1/2+z
loop_
_atom_site_type_symbol
_atom_site_label
_atom_site_fract_x
_atom_site_fract_y
_atom_site_fract_z
Si Si1 0.412350 0.557471 0.483760
Si Si2 0.177610 0.115715 0.947805
Si Si3 0.132239 0.316042 0.458090
Si Si4 0.838964 0.494218 0.879197
Si Si5 0.811223 0.200691 0.121909
Si Si6 0.659507 0.729390 0.632983
Si Si7 0.640784 0.576483 0.333745
O O1 0.271095 0.647654 0.685658
O O2 0.319607 0.437205 0.603000
O O3 0.494806 0.552816 0.472684
O O4 0.521711 0.606498 0.237904
O O5 0.194854 0.247148 0.875315
O O6 0.331917 0.082073 0.792811
O O7 0.162614 0.031724 0.875089
O O8 0.202262 0.300156 0.469898
O O9 0.089660 0.190882 0.470820
O O10 0.992993 0.413083 0.659621
O O11 0.686888 0.410067 0.077832
O O12 0.802104 0.572303 0.033353
O O13 0.768417 0.236815 0.069598
O O14 0.977966 0.254985 0.912551
#
# Coordination Sequence:
#
# PCOD8056187 Si02
#       7
#     4   4   4   4   4   4   4
#     4  11  27  44  65 106 139 187 233 288 363 421
#     4  11  23  44  70  97 142 179 232 299 350 418
#     4  12  25  42  71 102 139 184 239 288 357 430
#     4  11  23  43  66 103 134 184 232 293 357 408
#     4  12  24  46  74 103 136 187 239 288 355 423
#     4  12  22  44  74  98 130 185 240 284 351 424
#     4  11  22  45  68  95 140 178 229 294 355 412
#
# _framework density 21.687062000000001
#
# number of rings (size 3 to 8) (size 9 to 14) (size 15 to 20)
#    0.000    0.571    7.143    0.857    4.000    1.143 
#    7.714    0.000    0.000    0.000    0.000    0.000 
#    0.000    0.000    0.000    0.000    0.000    0.000 
#
# Total GULP energy -173448.365562 kJ/mol
# GULP energy per Si atom -12389.168969 kJ/mol
# Density = 2.163770 g / cm^3
# Si number density = 21.687062 Si / 1000 Ang^3
#
#
#
# Elastic Constant Matrix: (Units=GPa)
#
#
# Indices 1 2 3 4 5 6 
#
# 1 80.5560 -1.1178 32.7421 0.0000 10.9068 0.0000
# 2 -1.1178 51.9452 40.7028 0.0000 7.8024 0.0000
# 3 32.7421 40.7028 115.8276 0.0000 13.0796 0.0000
# 4 0.0000 0.0000 0.0000 48.1498 0.0000 4.3578
# 5 10.9068 7.8024 13.0796 0.0000 28.8160 0.0000
# 6 0.0000 0.0000 0.0000 4.3578 0.0000 33.9655
#
#
#
# Elastic Compliance Matrix: (Units=1/GPa)
#
#
# Indices 1 2 3 4 5 6 
#
# 1 0.015496 0.005601 -0.005813 0.000000 -0.004743 0.000000
# 2 0.005601 0.028859 -0.011175 0.000000 -0.004861 0.000000
# 3 -0.005813 -0.011175 0.014349 0.000000 -0.001287 0.000000
# 4 0.000000 0.000000 0.000000 0.021013 0.000000 -0.002696
# 5 -0.004743 -0.004861 -0.001287 0.000000 0.038399 0.000000
# 6 0.000000 0.000000 0.000000 -0.002696 0.000000 0.029788
#
#
# Mechanical properties :
#
#
# Convention : Reuss Voigt Hill
#
# Bulk Modulus (GPa) = 27.83268 43.66475 35.74872
# Shear Modulus (GPa) = 27.37408 33.91970 30.64689
#
# Velocity S-wave (km/s) = 3.55664 3.95910 3.76326
# Velocity P-wave (km/s) = 5.45233 6.40914 5.95000
#
# Compressibility (1/GPa) = 0.03592898
#
# Stress axis : x y z
#
# Youngs Moduli (GPa) = 64.53110 34.65178 69.69019
#
# Poissons Ratio (x) = -0.19408 0.40512
# Poissons Ratio (y) = -0.36143 0.77882
# Poissons Ratio (z) = 0.37512 0.38725
#
# Static dielectric constant tensor:
#      x y z
#    x 3.998030 0.000000 0.114780 
#    y 0.000000 3.925500 0.000000 
#    z 0.114780 0.000000 4.095800 
# 
# 
# High freq. dielectric constant tensor:
#      x y z
#    x 1.858860 0.000000 0.008850 
#    y 0.000000 1.849750 0.000000 
#    z 0.008850 0.000000 1.854420 
# 
# From -- ./inp_files/12180.got.cif
#   From: 2010.06.25/outbox.cif.g09.slc.cpg/sg9_7_cif.got.tgz:12180.got - 2010.06.27 21:40:51.
