data_PCOD8056750
_publ_section_title
;
Structure prediction by ZEFSAII (Michael W. Deem and Ramdas Pophale) SiO2 
 PCOD8056750
Probable space group: C C
;
_chemical_formula_sum "Si O2"
_cell_formula_units_Z 32
_cell_length_a 10.353089
_cell_length_b 11.301425
_cell_length_c 21.686401
_cell_angle_alpha 90.000000
_cell_angle_beta 148.233706
_cell_angle_gamma 90.000000
_cell_volume 1335.834005
_symmetry_space_group_name_H-M "C C"
_symmetry_group_IT_number 9
_symmetry_cell_setting 'monoclinic'
loop_
_space_group_symop_operation_xyz
x,y,z
x,-y,1/2+z
1/2+x,1/2+y,z
1/2+x,1/2-y,1/2+z
loop_
_atom_site_type_symbol
_atom_site_label
_atom_site_fract_x
_atom_site_fract_y
_atom_site_fract_z
Si Si1 0.248040 0.322623 0.315280
Si Si2 0.973657 0.939290 0.107710
Si Si3 0.837397 0.816680 0.586015
Si Si4 0.388938 0.238104 0.986272
Si Si5 0.474305 0.718963 0.720804
Si Si6 0.709082 0.534194 0.976493
Si Si7 0.364516 0.012612 0.173535
Si Si8 0.913365 0.312670 0.999565
O O1 0.443560 0.404549 0.358629
O O2 0.386899 0.241594 0.421173
O O3 0.107982 0.231317 0.213799
O O4 0.063300 0.414431 0.271913
O O5 0.072990 0.849686 0.200155
O O6 0.182997 0.014026 0.157861
O O7 0.810981 0.040046 0.075835
O O8 0.834256 0.863377 0.997973
O O9 0.644272 0.755969 0.553607
O O10 0.788934 0.778134 0.496467
O O11 0.410513 0.137486 0.047691
O O12 0.165521 0.196126 0.852820
O O13 0.478646 0.858749 0.710599
O O14 0.204306 0.670228 0.629025
O O15 0.762594 0.434389 0.946625
O O16 0.735902 0.478713 0.055881
#
# Coordination Sequence:
#
# PCOD8056750 Si02
#       8
#     4   4   4   4   4   4   4   4
#     4  12  27  47  78 111 151 203 258 325 391 459
#     4  12  26  51  74 111 161 198 261 319 385 473
#     4  12  27  48  74 113 156 197 262 317 392 462
#     4  12  28  46  77 116 151 209 255 321 389 466
#     4  12  28  48  77 114 155 206 263 316 395 463
#     4  12  26  50  77 109 156 203 264 323 387 465
#     4  12  26  48  75 107 152 205 254 321 384 463
#     4  12  26  50  74 113 156 203 257 326 389 461
#
# _framework density 23.955072999999999
#
# number of rings (size 3 to 8) (size 9 to 14) (size 15 to 20)
#    0.000    0.000    6.250    1.500    8.750    1.000 
#    0.000    0.000    0.000    0.000    0.000    0.000 
#    0.000    0.000    0.000    0.000    0.000    0.000 
#
# Total GULP energy -198374.699524 kJ/mol
# GULP energy per Si atom -12398.418720 kJ/mol
# Density = 2.390055 g / cm^3
# Si number density = 23.955073 Si / 1000 Ang^3
#
#
#
# Elastic Constant Matrix: (Units=GPa)
#
#
# Indices 1 2 3 4 5 6 
#
# 1 100.8394 45.4874 42.7381 -0.0001 1.1530 0.0000
# 2 45.4874 162.5075 42.7114 -0.0001 0.7193 0.0000
# 3 42.7381 42.7114 109.6364 -0.0006 3.1744 -0.0001
# 4 -0.0001 -0.0001 -0.0006 30.7212 -0.0001 -4.0226
# 5 1.1530 0.7193 3.1744 -0.0001 26.9083 0.0000
# 6 0.0000 0.0000 -0.0001 -4.0226 0.0000 58.4062
#
#
#
# Elastic Compliance Matrix: (Units=1/GPa)
#
#
# Indices 1 2 3 4 5 6 
#
# 1 0.012742 -0.002519 -0.003986 0.000000 -0.000008 0.000000
# 2 -0.002519 0.007354 -0.001887 0.000000 0.000134 0.000000
# 3 -0.003986 -0.001887 0.011442 0.000000 -0.001129 0.000000
# 4 0.000000 0.000000 0.000000 0.032847 0.000000 0.002262
# 5 -0.000008 0.000134 -0.001129 0.000000 0.037293 0.000000
# 6 0.000000 0.000000 0.000000 0.002262 0.000000 0.017277
#
#
# Mechanical properties :
#
#
# Convention : Reuss Voigt Hill
#
# Bulk Modulus (GPa) = 67.77000 70.53970 69.15485
# Shear Modulus (GPa) = 35.54725 39.34357 37.44541
#
# Velocity S-wave (km/s) = 3.85634 4.05704 3.95796
# Velocity P-wave (km/s) = 6.94121 7.17333 7.05822
#
# Compressibility (1/GPa) = 0.01475579
#
# Stress axis : x y z
#
# Youngs Moduli (GPa) = 78.47824 135.98021 87.39418
#
# Poissons Ratio (x) = 0.34256 0.34831
# Poissons Ratio (y) = 0.19770 0.16489
# Poissons Ratio (z) = 0.31278 0.25657
#
# Static dielectric constant tensor:
#      x y z
#    x 4.439060 0.000000 -0.061660 
#    y 0.000000 4.467230 0.000000 
#    z -0.061660 0.000000 4.026560 
# 
# 
# High freq. dielectric constant tensor:
#      x y z
#    x 1.963780 0.000000 -0.007220 
#    y 0.000000 1.971780 0.000000 
#    z -0.007220 0.000000 1.921960 
# 
# From -- ./inp_files/35412.got.cif
#   From: 2010.06.25/outbox.cif.g09.slc.cpg/sg9_18_cif.got.tgz:35412.got - 2010.06.27 21:40:51.
