data_PCOD8056371
_publ_section_title
;
Structure prediction by ZEFSAII (Michael W. Deem and Ramdas Pophale) SiO2 
 PCOD8056371
Probable space group: C C
;
_chemical_formula_sum "Si O2"
_cell_formula_units_Z 24
_cell_length_a 8.179674
_cell_length_b 15.168473
_cell_length_c 8.290838
_cell_angle_alpha 90.000000
_cell_angle_beta 82.781295
_cell_angle_gamma 90.000000
_cell_volume 1020.516986
_symmetry_space_group_name_H-M "C C"
_symmetry_group_IT_number 9
_symmetry_cell_setting 'monoclinic'
loop_
_space_group_symop_operation_xyz
x,y,z
x,-y,1/2+z
1/2+x,1/2+y,z
1/2+x,1/2-y,1/2+z
loop_
_atom_site_type_symbol
_atom_site_label
_atom_site_fract_x
_atom_site_fract_y
_atom_site_fract_z
Si Si1 0.521700 0.103002 0.279100
Si Si2 0.015518 0.057657 0.692745
Si Si3 0.613752 0.721143 0.868285
Si Si4 0.154893 0.561931 0.614393
Si Si5 0.997889 0.728390 0.741471
Si Si6 0.147667 0.101975 0.354949
O O1 0.548805 0.207155 0.245224
O O2 0.603079 0.085048 0.441622
O O3 0.331374 0.082501 0.275728
O O4 0.614015 0.040652 0.142500
O O5 0.848071 0.074153 0.616723
O O6 0.043173 0.125320 0.835396
O O7 0.154636 0.076147 0.542215
O O8 0.025983 0.959539 0.764284
O O9 0.811400 0.725726 0.829557
O O10 0.535115 0.741581 0.052976
O O11 0.063915 0.628018 0.751515
O O12 0.096605 0.796079 0.843097
#
# Coordination Sequence:
#
# PCOD8056371 Si02
#       6
#     4   4   4   4   4   4
#     4  11  24  42  63  93 129 169 214 267 324 385
#     4  12  24  42  67  97 130 173 221 272 327 391
#     4  11  24  44  67  98 133 172 218 271 328 390
#     4  11  24  42  63  93 129 169 214 267 324 385
#     4  11  24  44  67  98 133 172 218 271 328 390
#     4  12  24  42  67  97 130 173 221 272 327 391
#
# _framework density 23.517489999999999
#
# number of rings (size 3 to 8) (size 9 to 14) (size 15 to 20)
#    0.000    0.667    0.000   10.000    0.000    4.000 
#    0.000    0.000    0.000    0.000    0.000    0.000 
#    0.000    0.000    0.000    0.000    0.000    0.000 
#
# Total GULP energy -148772.066814 kJ/mol
# GULP energy per Si atom -12397.672234 kJ/mol
# Density = 2.346396 g / cm^3
# Si number density = 23.517490 Si / 1000 Ang^3
#
#
#
# Elastic Constant Matrix: (Units=GPa)
#
#
# Indices 1 2 3 4 5 6 
#
# 1 117.9823 2.3788 2.7983 0.0000 2.9381 0.0000
# 2 2.3788 65.9265 -9.5682 0.0000 5.1440 0.0000
# 3 2.7983 -9.5682 41.6402 0.0000 -1.5734 0.0000
# 4 0.0000 0.0000 0.0000 34.9327 0.0000 1.7819
# 5 2.9381 5.1440 -1.5734 0.0000 35.7145 0.0000
# 6 0.0000 0.0000 0.0000 1.7819 0.0000 39.5046
#
#
#
# Elastic Compliance Matrix: (Units=1/GPa)
#
#
# Indices 1 2 3 4 5 6 
#
# 1 0.008516 -0.000353 -0.000679 0.000000 -0.000680 0.000000
# 2 -0.000353 0.015866 0.003590 0.000000 -0.002098 0.000000
# 3 -0.000679 0.003590 0.024910 0.000000 0.000636 0.000000
# 4 0.000000 0.000000 0.000000 0.028692 0.000000 -0.001294
# 5 -0.000680 -0.002098 0.000636 0.000000 0.028386 0.000000
# 6 0.000000 0.000000 0.000000 -0.001294 0.000000 0.025372
#
#
# Mechanical properties :
#
#
# Convention : Reuss Voigt Hill
#
# Bulk Modulus (GPa) = 18.37953 24.08520 21.23236
# Shear Modulus (GPa) = 34.53957 37.35972 35.94964
#
# Velocity S-wave (km/s) = 3.83649 3.99004 3.91402
# Velocity P-wave (km/s) = 5.23995 5.61167 5.42899
#
# Compressibility (1/GPa) = 0.05440837
#
# Stress axis : x y z
#
# Youngs Moduli (GPa) = 117.42616 63.02836 40.14470
#
# Poissons Ratio (x) = 0.02224 0.02726
# Poissons Ratio (y) = 0.04143 -0.14412
# Poissons Ratio (z) = 0.07974 -0.22628
#
# Static dielectric constant tensor:
#      x y z
#    x 4.165460 0.000000 -0.088120 
#    y 0.000000 5.095280 0.000000 
#    z -0.088120 0.000000 4.064620 
# 
# 
# High freq. dielectric constant tensor:
#      x y z
#    x 1.938250 0.000000 -0.005690 
#    y 0.000000 1.952100 0.000000 
#    z -0.005690 0.000000 1.920570 
# 
# From -- ./inp_files/4957.got.cif
#   From: 2010.06.25/outbox.cif.g09.slc.cpg/sg9_3_cif.got.tgz:4957.got - 2010.06.27 21:40:51.
