data_PCOD8056066
_publ_section_title
;
Structure prediction by ZEFSAII (Michael W. Deem and Ramdas Pophale) SiO2 
 PCOD8056066
Probable space group: C C
;
_chemical_formula_sum "Si O2"
_cell_formula_units_Z 32
_cell_length_a 6.370227
_cell_length_b 27.158076
_cell_length_c 10.052921
_cell_angle_alpha 90.000000
_cell_angle_beta 109.991412
_cell_angle_gamma 90.000000
_cell_volume 1634.389944
_symmetry_space_group_name_H-M "C C"
_symmetry_group_IT_number 9
_symmetry_cell_setting 'monoclinic'
loop_
_space_group_symop_operation_xyz
x,y,z
x,-y,1/2+z
1/2+x,1/2+y,z
1/2+x,1/2-y,1/2+z
loop_
_atom_site_type_symbol
_atom_site_label
_atom_site_fract_x
_atom_site_fract_y
_atom_site_fract_z
Si Si1 0.806260 0.487049 0.635910
Si Si2 0.679334 0.828247 0.446649
Si Si3 0.505995 0.233934 0.133233
Si Si4 0.551328 0.269379 0.412320
Si Si5 0.216517 0.169859 0.723961
Si Si6 0.484123 0.428888 0.156421
Si Si7 0.406114 0.427826 0.449129
Si Si8 0.594363 0.017179 0.448231
O O1 0.663339 0.528272 0.679314
O O2 0.651166 0.441556 0.557107
O O3 0.921487 0.510756 0.531655
O O4 0.979253 0.467397 0.784222
O O5 0.580206 0.814568 0.569904
O O6 0.483929 0.837647 0.295751
O O7 0.836225 0.875500 0.495482
O O8 0.819878 0.780005 0.435685
O O9 0.527484 0.225697 0.296985
O O10 0.655491 0.281899 0.122106
O O11 0.246029 0.246818 0.053711
O O12 0.618005 0.320478 0.350869
O O13 0.100888 0.121847 0.636387
O O14 0.404820 0.426843 0.290522
O O15 0.268230 0.439003 0.018213
O O16 0.222554 0.466041 0.459749
#
# Coordination Sequence:
#
# PCOD8056066 Si02
#       8
#     4   4   4   4   4   4   4   4
#     4  11  23  39  62  93 133 163 206 263 320 365
#     4  11  21  38  68  88 119 170 211 251 320 374
#     4   9  21  38  58  92 117 154 203 266 301 375
#     4   9  20  37  62  84 118 153 205 252 315 363
#     4   9  21  38  61  91 118 157 214 248 305 382
#     4  11  21  39  65  92 119 165 217 254 310 387
#     4  11  22  37  66  91 119 168 217 255 303 395
#     4  11  23  40  64  91 129 168 203 263 320 369
#
# _framework density 19.579169
#
# number of rings (size 3 to 8) (size 9 to 14) (size 15 to 20)
#    0.750    1.000    3.750    0.750    1.750    0.000 
#    0.000    3.750    0.000    0.000    0.000    0.000 
#    0.000    0.000    0.000    0.000    0.000    0.000 
#
# Total GULP energy -198309.545982 kJ/mol
# GULP energy per Si atom -12394.346624 kJ/mol
# Density = 1.953461 g / cm^3
# Si number density = 19.579169 Si / 1000 Ang^3
#
#
#
# Elastic Constant Matrix: (Units=GPa)
#
#
# Indices 1 2 3 4 5 6 
#
# 1 80.5680 18.0646 23.1218 0.0000 15.5372 0.0000
# 2 18.0646 72.4419 11.9857 0.0000 12.6031 0.0000
# 3 23.1218 11.9857 82.4139 0.0000 21.2429 0.0000
# 4 0.0000 0.0000 0.0000 28.3283 0.0000 4.5605
# 5 15.5372 12.6031 21.2429 0.0000 37.5597 0.0000
# 6 0.0000 0.0000 0.0000 4.5605 0.0000 35.2109
#
#
#
# Elastic Compliance Matrix: (Units=1/GPa)
#
#
# Indices 1 2 3 4 5 6 
#
# 1 0.014461 -0.002527 -0.002770 0.000000 -0.003567 0.000000
# 2 -0.002527 0.015174 -0.000532 0.000000 -0.003745 0.000000
# 3 -0.002770 -0.000532 0.014805 0.000000 -0.007049 0.000000
# 4 0.000000 0.000000 0.000000 0.036052 0.000000 -0.004669
# 5 -0.003567 -0.003745 -0.007049 0.000000 0.033343 0.000000
# 6 0.000000 0.000000 0.000000 -0.004669 0.000000 0.029005
#
#
# Mechanical properties :
#
#
# Convention : Reuss Voigt Hill
#
# Bulk Modulus (GPa) = 30.50530 37.97425 34.23978
# Shear Modulus (GPa) = 30.22456 32.36989 31.29722
#
# Velocity S-wave (km/s) = 3.93327 4.07047 4.00246
# Velocity P-wave (km/s) = 6.02012 6.44430 6.23581
#
# Compressibility (1/GPa) = 0.03278119
#
# Stress axis : x y z
#
# Youngs Moduli (GPa) = 69.14918 65.90219 67.54268
#
# Poissons Ratio (x) = 0.16655 0.18711
# Poissons Ratio (y) = 0.17476 0.03596
# Poissons Ratio (z) = 0.19156 0.03509
#
# Static dielectric constant tensor:
#      x y z
#    x 3.635810 0.000000 0.176940 
#    y 0.000000 3.300740 0.000000 
#    z 0.176940 0.000000 3.485820 
# 
# 
# High freq. dielectric constant tensor:
#      x y z
#    x 1.775660 0.000000 0.012370 
#    y 0.000000 1.739410 0.000000 
#    z 0.012370 0.000000 1.753550 
# 
# From -- ./inp_files/13903.got.cif
#   From: 2010.06.25/outbox.cif.g09.slc.cpg/sg9_7_cif.got.tgz:13903.got - 2010.06.27 21:40:51.
