data_PCOD8056253
_publ_section_title
;
Structure prediction by ZEFSAII (Michael W. Deem and Ramdas Pophale) SiO2 
 PCOD8056253
Probable space group: C C
;
_chemical_formula_sum "Si O2"
_cell_formula_units_Z 32
_cell_length_a 14.580585
_cell_length_b 11.778813
_cell_length_c 10.640748
_cell_angle_alpha 90.000000
_cell_angle_beta 52.710854
_cell_angle_gamma 90.000000
_cell_volume 1453.908254
_symmetry_space_group_name_H-M "C C"
_symmetry_group_IT_number 9
_symmetry_cell_setting 'monoclinic'
loop_
_space_group_symop_operation_xyz
x,y,z
x,-y,1/2+z
1/2+x,1/2+y,z
1/2+x,1/2-y,1/2+z
loop_
_atom_site_type_symbol
_atom_site_label
_atom_site_fract_x
_atom_site_fract_y
_atom_site_fract_z
Si Si1 0.547800 0.318544 0.611740
Si Si2 0.178893 0.389326 0.939281
Si Si3 0.065527 0.561133 0.876440
Si Si4 0.020513 0.823060 0.917801
Si Si5 0.311405 0.542497 0.543626
Si Si6 0.834731 0.558400 0.516946
Si Si7 0.837135 0.196181 0.112248
Si Si8 0.197094 0.010972 0.378254
O O1 0.613034 0.199926 0.581025
O O2 0.535922 0.367637 0.761655
O O3 0.428626 0.284622 0.646459
O O4 0.616788 0.401739 0.462636
O O5 0.096915 0.497944 0.981215
O O6 0.213161 0.325892 0.780766
O O7 0.299005 0.428282 0.905880
O O8 0.023457 0.688915 0.937420
O O9 0.180133 0.555516 0.698251
O O10 0.962574 0.491957 0.895906
O O11 0.117316 0.878721 0.925162
O O12 0.892091 0.870424 0.055648
O O13 0.364920 0.416489 0.508539
O O14 0.835993 0.694989 0.523387
O O15 0.769939 0.525478 0.443818
O O16 0.776622 0.506134 0.690104
#
# Coordination Sequence:
#
# PCOD8056253 Si02
#       8
#     4   4   4   4   4   4   4   4
#     4  12  22  45  72 101 140 191 245 292 363 436
#     4  11  23  43  71 100 142 186 244 292 365 434
#     4  11  28  43  69 106 143 192 238 303 363 429
#     4  12  26  46  72 106 148 189 241 307 363 436
#     4  11  25  44  70 105 141 189 243 296 363 433
#     4  12  28  48  74 106 148 190 247 303 363 433
#     4  11  24  44  70 102 141 187 237 306 357 428
#     4  12  28  47  72 110 143 194 243 301 365 431
#
# _framework density 22.009640000000001
#
# number of rings (size 3 to 8) (size 9 to 14) (size 15 to 20)
#    0.000    0.500    7.500    0.000    8.750    0.000 
#    0.000    2.500    0.000    0.000    0.000    0.000 
#    0.000    0.000    0.000    0.000    0.000    0.000 
#
# Total GULP energy -198378.106534 kJ/mol
# GULP energy per Si atom -12398.631658 kJ/mol
# Density = 2.195955 g / cm^3
# Si number density = 22.009640 Si / 1000 Ang^3
#
#
#
# Elastic Constant Matrix: (Units=GPa)
#
#
# Indices 1 2 3 4 5 6 
#
# 1 126.6226 45.9913 25.4142 0.0000 -3.8923 0.0000
# 2 45.9913 165.2715 20.7973 0.0000 -10.8266 0.0000
# 3 25.4142 20.7973 71.9703 0.0000 -5.6745 0.0000
# 4 0.0000 0.0000 0.0000 29.8532 0.0000 -3.0815
# 5 -3.8923 -10.8266 -5.6745 0.0000 34.4783 0.0000
# 6 0.0000 0.0000 0.0000 -3.0815 0.0000 41.4434
#
#
#
# Elastic Compliance Matrix: (Units=1/GPa)
#
#
# Indices 1 2 3 4 5 6 
#
# 1 0.009236 -0.002247 -0.002620 0.000000 -0.000094 0.000000
# 2 -0.002247 0.006925 -0.001070 0.000000 0.001745 0.000000
# 3 -0.002620 -0.001070 0.015277 0.000000 0.001883 0.000000
# 4 0.000000 0.000000 0.000000 0.033756 0.000000 0.002510
# 5 -0.000094 0.001745 0.001883 0.000000 0.029851 0.000000
# 6 0.000000 0.000000 0.000000 0.002510 0.000000 0.024316
#
#
# Mechanical properties :
#
#
# Convention : Reuss Voigt Hill
#
# Bulk Modulus (GPa) = 51.11071 60.91888 56.01480
# Shear Modulus (GPa) = 36.29583 39.26575 37.78079
#
# Velocity S-wave (km/s) = 4.06530 4.22835 4.14763
# Velocity P-wave (km/s) = 6.73112 7.18171 6.96006
#
# Compressibility (1/GPa) = 0.01956537
#
# Stress axis : x y z
#
# Youngs Moduli (GPa) = 108.26653 144.40779 65.45627
#
# Poissons Ratio (x) = 0.32445 0.17148
# Poissons Ratio (y) = 0.24325 0.07005
# Poissons Ratio (z) = 0.28363 0.15453
#
# Static dielectric constant tensor:
#      x y z
#    x 4.105080 0.000000 -0.061700 
#    y 0.000000 4.113580 0.000000 
#    z -0.061700 0.000000 3.840400 
# 
# 
# High freq. dielectric constant tensor:
#      x y z
#    x 1.878870 0.000000 -0.009430 
#    y 0.000000 1.876000 0.000000 
#    z -0.009430 0.000000 1.854020 
# 
# From -- ./inp_files/18213.got.cif
#   From: 2010.06.25/outbox.cif.g09.slc.cpg/sg9_10_cif.got.tgz:18213.got - 2010.06.27 21:40:51.
