data_PCOD8056049
_publ_section_title
;
Structure prediction by ZEFSAII (Michael W. Deem and Ramdas Pophale) SiO2 
 PCOD8056049
Probable space group: C C
;
_chemical_formula_sum "Si O2"
_cell_formula_units_Z 32
_cell_length_a 23.154108
_cell_length_b 8.183205
_cell_length_c 9.062637
_cell_angle_alpha 90.000000
_cell_angle_beta 56.709628
_cell_angle_gamma 90.000000
_cell_volume 1435.357860
_symmetry_space_group_name_H-M "C C"
_symmetry_group_IT_number 9
_symmetry_cell_setting 'monoclinic'
loop_
_space_group_symop_operation_xyz
x,y,z
x,-y,1/2+z
1/2+x,1/2+y,z
1/2+x,1/2-y,1/2+z
loop_
_atom_site_type_symbol
_atom_site_label
_atom_site_fract_x
_atom_site_fract_y
_atom_site_fract_z
Si Si1 0.067170 0.093885 0.784210
Si Si2 0.435442 0.869904 0.455564
Si Si3 0.223136 0.488726 0.124672
Si Si4 0.127764 0.527065 0.507185
Si Si5 0.722107 0.336725 0.022577
Si Si6 0.036418 0.174508 0.135806
Si Si7 0.775803 0.351837 0.626310
Si Si8 0.998820 0.663565 0.188011
O O1 0.141689 0.182733 0.681921
O O2 0.005838 0.165052 0.764069
O O3 0.080613 0.914130 0.700796
O O4 0.030745 0.070001 0.994183
O O5 0.462819 0.729197 0.306428
O O6 0.353740 0.874977 0.568405
O O7 0.456511 0.834238 0.595514
O O8 0.466469 0.039892 0.353911
O O9 0.201948 0.513271 0.324235
O O10 0.149804 0.455850 0.146525
O O11 0.257585 0.661397 0.020443
O O12 0.269885 0.323702 0.049023
O O13 0.081832 0.675521 0.516343
O O14 0.079587 0.371836 0.544957
O O15 0.756434 0.494598 0.050355
O O16 0.727481 0.356559 0.838652
#
# Coordination Sequence:
#
# PCOD8056049 Si02
#       8
#     4   4   4   4   4   4   4   4
#     4  12  22  41  67 108 134 169 229 302 364 406
#     4  11  25  46  64  98 135 194 230 275 344 430
#     4  12  23  44  68 104 139 181 225 294 355 415
#     4  11  20  41  67 101 132 170 226 287 362 403
#     4  12  26  44  74 107 137 186 233 297 359 419
#     4  11  23  39  67  99 141 177 230 294 354 425
#     4  12  28  48  69 102 147 193 240 280 346 432
#     4  11  21  41  72  93 137 174 227 287 348 412
#
# _framework density 22.294091999999999
#
# number of rings (size 3 to 8) (size 9 to 14) (size 15 to 20)
#    0.000    0.500    3.750    6.000    1.750    0.000 
#    6.750    0.000    0.000    0.000    0.000    0.000 
#    0.000    0.000    0.000    0.000    0.000    0.000 
#
# Total GULP energy -198261.316597 kJ/mol
# GULP energy per Si atom -12391.332287 kJ/mol
# Density = 2.224335 g / cm^3
# Si number density = 22.294092 Si / 1000 Ang^3
#
#
#
# Elastic Constant Matrix: (Units=GPa)
#
#
# Indices 1 2 3 4 5 6 
#
# 1 105.8884 30.1066 22.6440 0.0000 10.3407 0.0000
# 2 30.1066 100.4947 19.8102 0.0000 12.8071 0.0000
# 3 22.6440 19.8102 82.3373 0.0000 16.1873 0.0000
# 4 0.0000 0.0000 0.0000 27.0212 0.0000 13.3311
# 5 10.3407 12.8071 16.1873 0.0000 31.1353 0.0000
# 6 0.0000 0.0000 0.0000 13.3311 0.0000 29.3584
#
#
#
# Elastic Compliance Matrix: (Units=1/GPa)
#
#
# Indices 1 2 3 4 5 6 
#
# 1 0.010772 -0.002642 -0.002046 0.000000 -0.001427 0.000000
# 2 -0.002642 0.011414 -0.001414 0.000000 -0.003083 0.000000
# 3 -0.002046 -0.001414 0.014257 0.000000 -0.006151 0.000000
# 4 0.000000 0.000000 0.000000 0.047692 0.000000 -0.021656
# 5 -0.001427 -0.003083 -0.006151 0.000000 0.037058 0.000000
# 6 0.000000 0.000000 0.000000 -0.021656 0.000000 0.043895
#
#
# Mechanical properties :
#
#
# Convention : Reuss Voigt Hill
#
# Bulk Modulus (GPa) = 41.25464 48.20467 44.72966
# Shear Modulus (GPa) = 26.97280 31.91362 29.44321
#
# Velocity S-wave (km/s) = 3.48208 3.78760 3.63805
# Velocity P-wave (km/s) = 5.89164 6.38725 6.14445
#
# Compressibility (1/GPa) = 0.02423970
#
# Stress axis : x y z
#
# Youngs Moduli (GPa) = 92.83319 87.61380 70.13924
#
# Poissons Ratio (x) = 0.23146 0.14352
# Poissons Ratio (y) = 0.24525 0.09914
# Poissons Ratio (z) = 0.18996 0.12385
#
# Static dielectric constant tensor:
#      x y z
#    x 3.717930 0.000000 0.217720 
#    y 0.000000 4.287590 0.000000 
#    z 0.217720 0.000000 4.027290 
# 
# 
# High freq. dielectric constant tensor:
#      x y z
#    x 1.854570 0.000000 0.024750 
#    y 0.000000 1.892340 0.000000 
#    z 0.024750 0.000000 1.882640 
# 
# From -- ./inp_files/11367.got.cif
#   From: 2010.06.25/outbox.cif.g09.slc.cpg/sg9_6_cif.got.tgz:11367.got - 2010.06.27 21:40:51.
