data_PCOD8056696
_publ_section_title
;
Structure prediction by ZEFSAII (Michael W. Deem and Ramdas Pophale) SiO2 
 PCOD8056696
Probable space group: C C
;
_chemical_formula_sum "Si O2"
_cell_formula_units_Z 24
_cell_length_a 4.921734
_cell_length_b 26.357224
_cell_length_c 8.794924
_cell_angle_alpha 90.000000
_cell_angle_beta 61.953127
_cell_angle_gamma 90.000000
_cell_volume 1006.921758
_symmetry_space_group_name_H-M "C C"
_symmetry_group_IT_number 9
_symmetry_cell_setting 'monoclinic'
loop_
_space_group_symop_operation_xyz
x,y,z
x,-y,1/2+z
1/2+x,1/2+y,z
1/2+x,1/2-y,1/2+z
loop_
_atom_site_type_symbol
_atom_site_label
_atom_site_fract_x
_atom_site_fract_y
_atom_site_fract_z
Si Si1 0.284280 0.294617 0.803780
Si Si2 0.571335 0.451553 0.748308
Si Si3 0.656074 0.353448 0.913935
Si Si4 0.878993 0.873680 0.302471
Si Si5 0.268908 0.814921 0.419790
Si Si6 0.236387 0.531065 0.024478
O O1 0.387328 0.313167 0.944340
O O2 0.238255 0.234439 0.820027
O O3 0.573177 0.306597 0.621694
O O4 0.980910 0.324510 0.832425
O O5 0.665088 0.395324 0.778168
O O6 0.378636 0.447705 0.643568
O O7 0.881434 0.483302 0.642153
O O8 0.386388 0.478788 0.931344
O O9 0.561371 0.379022 0.096642
O O10 0.618265 0.829822 0.370602
O O11 0.746601 0.928280 0.384229
O O12 0.134411 0.861172 0.360043
#
# Coordination Sequence:
#
# PCOD8056696 Si02
#       6
#     4   4   4   4   4   4
#     4  12  25  44  68  98 135 178 225 279 338 402
#     4  12  26  46  71 101 137 181 228 282 342 407
#     4  12  25  44  68  99 135 177 226 279 337 403
#     4  12  25  44  68  99 135 177 226 279 337 403
#     4  12  25  44  68  98 135 178 225 279 338 402
#     4  12  26  46  71 101 137 181 228 282 342 407
#
# _framework density 23.835018000000002
#
# number of rings (size 3 to 8) (size 9 to 14) (size 15 to 20)
#    0.000    0.000    0.000   12.000    0.000    2.667 
#    0.000    0.000    0.000    0.000    0.000    0.000 
#    0.000    0.000    0.000    0.000    0.000    0.000 
#
# Total GULP energy -148881.829555 kJ/mol
# GULP energy per Si atom -12406.819130 kJ/mol
# Density = 2.378077 g / cm^3
# Si number density = 23.835018 Si / 1000 Ang^3
#
#
#
# Elastic Constant Matrix: (Units=GPa)
#
#
# Indices 1 2 3 4 5 6 
#
# 1 109.9437 12.7706 13.6897 0.0000 -7.5100 0.0000
# 2 12.7706 76.6655 9.6724 0.0000 -9.4931 0.0000
# 3 13.6897 9.6724 75.5805 0.0000 -3.1343 0.0000
# 4 0.0000 0.0000 0.0000 23.2505 0.0000 -4.0797
# 5 -7.5100 -9.4931 -3.1343 0.0000 42.4788 0.0000
# 6 0.0000 0.0000 0.0000 -4.0797 0.0000 34.5958
#
#
#
# Elastic Compliance Matrix: (Units=1/GPa)
#
#
# Indices 1 2 3 4 5 6 
#
# 1 0.009516 -0.001234 -0.001512 0.000000 0.001295 0.000000
# 2 -0.001234 0.013770 -0.001424 0.000000 0.002754 0.000000
# 3 -0.001512 -0.001424 0.013705 0.000000 0.000426 0.000000
# 4 0.000000 0.000000 0.000000 0.043919 0.000000 0.005179
# 5 0.001295 0.002754 0.000426 0.000000 0.024417 0.000000
# 6 0.000000 0.000000 0.000000 0.005179 0.000000 0.029516
#
#
# Mechanical properties :
#
#
# Convention : Reuss Voigt Hill
#
# Bulk Modulus (GPa) = 34.90459 37.16170 36.03314
# Shear Modulus (GPa) = 32.73699 35.13549 33.93624
#
# Velocity S-wave (km/s) = 3.71007 3.84358 3.77742
# Velocity P-wave (km/s) = 5.74708 5.94328 5.84600
#
# Compressibility (1/GPa) = 0.02864953
#
# Stress axis : x y z
#
# Youngs Moduli (GPa) = 105.09043 72.62183 72.96751
#
# Poissons Ratio (x) = 0.08961 0.11032
# Poissons Ratio (y) = 0.12968 0.10394
# Poissons Ratio (z) = 0.15889 0.10345
#
# Static dielectric constant tensor:
#      x y z
#    x 4.343990 0.000000 -0.013120 
#    y 0.000000 4.244360 0.000000 
#    z -0.013120 0.000000 4.309760 
# 
# 
# High freq. dielectric constant tensor:
#      x y z
#    x 1.958160 0.000000 -0.000870 
#    y 0.000000 1.947410 0.000000 
#    z -0.000870 0.000000 1.958320 
# 
# From -- ./inp_files/3906.got.cif
#   From: 2010.06.25/outbox.cif.g09.slc.cpg/sg9_2_cif.got.tgz:3906.got - 2010.06.27 21:40:51.
