data_PCOD8056410
_publ_section_title
;
Structure prediction by ZEFSAII (Michael W. Deem and Ramdas Pophale) SiO2 
 PCOD8056410
Probable space group: C C
;
_chemical_formula_sum "Si O2"
_cell_formula_units_Z 24
_cell_length_a 12.210172
_cell_length_b 7.642050
_cell_length_c 24.409866
_cell_angle_alpha 90.000000
_cell_angle_beta 152.259462
_cell_angle_gamma 90.000000
_cell_volume 1060.198588
_symmetry_space_group_name_H-M "C C"
_symmetry_group_IT_number 9
_symmetry_cell_setting 'monoclinic'
loop_
_space_group_symop_operation_xyz
x,y,z
x,-y,1/2+z
1/2+x,1/2+y,z
1/2+x,1/2-y,1/2+z
loop_
_atom_site_type_symbol
_atom_site_label
_atom_site_fract_x
_atom_site_fract_y
_atom_site_fract_z
Si Si1 0.723450 0.828975 0.192970
Si Si2 0.531431 0.010235 0.348322
Si Si3 0.983959 0.879987 0.205522
Si Si4 0.286701 0.684218 0.053957
Si Si5 0.663303 0.787618 0.678057
Si Si6 0.884370 0.227720 0.447852
O O1 0.764516 0.812119 0.145352
O O2 0.450617 0.797676 0.086763
O O3 0.884875 0.687325 0.295387
O O4 0.791924 0.025382 0.242315
O O5 0.732703 0.050651 0.391698
O O6 0.648052 0.958606 0.457040
O O7 0.357839 0.859098 0.249969
O O8 0.021185 0.753816 0.170331
O O9 0.217534 0.876100 0.346983
O O10 0.938529 0.078766 0.166280
O O11 0.101185 0.811088 0.002628
O O12 0.477516 0.801686 0.546619
#
# Coordination Sequence:
#
# PCOD8056410 Si02
#       6
#     4   4   4   4   4   4
#     4  11  26  44  75 105 144 194 243 291 370 431
#     4  11  24  47  72 107 147 189 239 307 354 428
#     4  11  24  48  71 106 149 184 243 304 356 432
#     4  12  22  48  74 103 150 191 241 306 355 430
#     4  12  24  47  74 108 143 188 249 294 365 438
#     4  11  24  44  76 103 147 196 235 296 374 423
#
# _framework density 22.637269
#
# number of rings (size 3 to 8) (size 9 to 14) (size 15 to 20)
#    0.000    0.667    6.667    0.000    0.000    6.667 
#    0.000    6.667    0.000    0.000    0.000    0.000 
#    0.000    0.000    0.000    0.000    0.000    0.000 
#
# Total GULP energy -148770.177552 kJ/mol
# GULP energy per Si atom -12397.514796 kJ/mol
# Density = 2.258575 g / cm^3
# Si number density = 22.637269 Si / 1000 Ang^3
#
#
#
# Elastic Constant Matrix: (Units=GPa)
#
#
# Indices 1 2 3 4 5 6 
#
# 1 220.3235 64.4916 65.4897 -0.0001 35.5791 -0.0001
# 2 64.4916 143.0926 51.1174 0.0000 18.0210 -0.0002
# 3 65.4897 51.1174 119.3325 0.0002 0.2194 -0.0005
# 4 -0.0001 0.0000 0.0002 18.1116 -0.0001 4.4237
# 5 35.5791 18.0210 0.2194 -0.0001 35.2062 0.0000
# 6 -0.0001 -0.0002 -0.0005 4.4237 0.0000 35.4139
#
#
#
# Elastic Compliance Matrix: (Units=1/GPa)
#
#
# Indices 1 2 3 4 5 6 
#
# 1 0.006866 -0.001126 -0.003274 0.000000 -0.006341 0.000000
# 2 -0.001126 0.009108 -0.003277 0.000000 -0.003504 0.000000
# 3 -0.003274 -0.003277 0.011571 0.000000 0.004914 0.000000
# 4 0.000000 0.000000 0.000000 0.056951 0.000000 -0.007114
# 5 -0.006341 -0.003504 0.004914 0.000000 0.036575 0.000000
# 6 0.000000 0.000000 0.000000 -0.007114 0.000000 0.029126
#
#
# Mechanical properties :
#
#
# Convention : Reuss Voigt Hill
#
# Bulk Modulus (GPa) = 82.02811 93.88289 87.95550
# Shear Modulus (GPa) = 29.47860 37.85634 33.66747
#
# Velocity S-wave (km/s) = 3.61254 4.09381 3.86068
# Velocity P-wave (km/s) = 7.32906 7.99428 7.66889
#
# Compressibility (1/GPa) = 0.01219094
#
# Stress axis : x y z
#
# Youngs Moduli (GPa) = 145.65405 109.79433 86.42069
#
# Poissons Ratio (x) = 0.12365 0.28292
# Poissons Ratio (y) = 0.16403 0.28320
# Poissons Ratio (z) = 0.47684 0.35980
#
# Static dielectric constant tensor:
#      x y z
#    x 4.515590 0.000000 0.221370 
#    y 0.000000 3.924360 0.000000 
#    z 0.221370 0.000000 4.137050 
# 
# 
# High freq. dielectric constant tensor:
#      x y z
#    x 1.912280 0.000000 0.011140 
#    y 0.000000 1.871100 0.000000 
#    z 0.011140 0.000000 1.888350 
# 
# From -- ./inp_files/15847.got.cif
#   From: 2010.06.25/outbox.cif.g09.slc.cpg/sg9_8_cif.got.tgz:15847.got - 2010.06.27 21:40:51.
