data_PCOD8056100
_publ_section_title
;
Structure prediction by ZEFSAII (Michael W. Deem and Ramdas Pophale) SiO2 
 PCOD8056100
Probable space group: C C
;
_chemical_formula_sum "Si O2"
_cell_formula_units_Z 28
_cell_length_a 22.657153
_cell_length_b 8.299407
_cell_length_c 8.434489
_cell_angle_alpha 90.000000
_cell_angle_beta 136.838735
_cell_angle_gamma 90.000000
_cell_volume 1084.929815
_symmetry_space_group_name_H-M "C C"
_symmetry_group_IT_number 9
_symmetry_cell_setting 'monoclinic'
loop_
_space_group_symop_operation_xyz
x,y,z
x,-y,1/2+z
1/2+x,1/2+y,z
1/2+x,1/2-y,1/2+z
loop_
_atom_site_type_symbol
_atom_site_label
_atom_site_fract_x
_atom_site_fract_y
_atom_site_fract_z
Si Si1 0.331180 0.053236 0.031180
Si Si2 0.549386 0.669619 0.668072
Si Si3 0.236460 0.272021 0.051271
Si Si4 0.050282 0.156566 0.297700
Si Si5 0.236632 0.179702 0.546576
Si Si6 0.198670 0.540872 0.764606
Si Si7 0.011910 0.490920 0.758174
O O1 0.316027 0.152821 0.168435
O O2 0.430743 0.005245 0.218141
O O3 0.270498 0.897397 0.945068
O O4 0.304370 0.149017 0.820361
O O5 0.545294 0.658299 0.474077
O O6 0.501080 0.507338 0.641565
O O7 0.501298 0.836535 0.621480
O O8 0.648747 0.677478 0.923041
O O9 0.257543 0.392860 0.236351
O O10 0.222535 0.358243 0.852628
O O11 0.144197 0.113634 0.414906
O O12 0.017094 0.334653 0.175627
O O13 0.220523 0.366483 0.471927
O O14 0.097104 0.540739 0.529058
#
# Coordination Sequence:
#
# PCOD8056100 Si02
#       7
#     4   4   4   4   4   4   4
#     4  12  26  45  72 113 155 190 252 330 397 436
#     4  11  25  44  74 108 147 207 260 306 375 477
#     4  11  21  44  72 109 144 199 258 310 378 468
#     4  12  24  47  77 109 149 205 260 310 371 481
#     4  12  24  44  74 106 146 202 252 309 379 469
#     4  11  24  45  77 107 144 205 261 306 373 480
#     4  11  28  47  78 114 155 196 263 325 391 445
#
# _framework density 25.808119999999999
#
# number of rings (size 3 to 8) (size 9 to 14) (size 15 to 20)
#    0.000    0.571    4.286    3.429    8.000    0.000 
#    2.571    1.429    0.000    0.000    0.000    0.000 
#    0.000    0.000    0.000    0.000    0.000    0.000 
#
# Total GULP energy -173441.751395 kJ/mol
# GULP energy per Si atom -12388.696528 kJ/mol
# Density = 2.574938 g / cm^3
# Si number density = 25.808120 Si / 1000 Ang^3
#
#
#
# Elastic Constant Matrix: (Units=GPa)
#
#
# Indices 1 2 3 4 5 6 
#
# 1 126.0270 57.0963 -1.4877 0.0000 19.4782 0.0000
# 2 57.0963 210.1651 17.1086 0.0000 -0.8033 0.0000
# 3 -1.4877 17.1086 25.1927 0.0000 2.7021 0.0000
# 4 0.0000 0.0000 0.0000 25.1718 0.0000 -10.5217
# 5 19.4782 -0.8033 2.7021 0.0000 28.1668 0.0000
# 6 0.0000 0.0000 0.0000 -10.5217 0.0000 31.8132
#
#
#
# Elastic Compliance Matrix: (Units=1/GPa)
#
#
# Indices 1 2 3 4 5 6 
#
# 1 0.010641 -0.003218 0.003650 0.000000 -0.007801 0.000000
# 2 -0.003218 0.006016 -0.004580 0.000000 0.002836 0.000000
# 3 0.003650 -0.004580 0.043755 0.000000 -0.006853 0.000000
# 4 0.000000 0.000000 0.000000 0.046100 0.000000 0.015247
# 5 -0.007801 0.002836 -0.006853 0.000000 0.041636 0.000000
# 6 0.000000 0.000000 0.000000 0.015247 0.000000 0.036476
#
#
# Mechanical properties :
#
#
# Convention : Reuss Voigt Hill
#
# Bulk Modulus (GPa) = 19.18735 56.31324 37.75029
# Shear Modulus (GPa) = 23.77653 36.27487 30.02570
#
# Velocity S-wave (km/s) = 3.03855 3.75315 3.41460
# Velocity P-wave (km/s) = 4.44535 6.37564 5.49591
#
# Compressibility (1/GPa) = 0.05211768
#
# Stress axis : x y z
#
# Youngs Moduli (GPa) = 93.97201 166.22152 22.85465
#
# Poissons Ratio (x) = 0.53490 -0.08343
# Poissons Ratio (y) = 0.30240 0.10467
# Poissons Ratio (z) = -0.34304 0.76126
#
# Static dielectric constant tensor:
#      x y z
#    x 4.784870 0.000000 -0.220420 
#    y 0.000000 6.161770 0.000000 
#    z -0.220420 0.000000 3.993190 
# 
# 
# High freq. dielectric constant tensor:
#      x y z
#    x 2.033200 0.000000 -0.030290 
#    y 0.000000 2.063840 0.000000 
#    z -0.030290 0.000000 1.987360 
# 
# From -- ./inp_files/10421.got.cif
#   From: 2010.06.25/outbox.cif.g09.slc.cpg/sg9_6_cif.got.tgz:10421.got - 2010.06.27 21:40:51.
