data_PCOD8056984
_publ_section_title
;
Structure prediction by ZEFSAII (Michael W. Deem and Ramdas Pophale) SiO2 
 PCOD8056984
Probable space group: P 2/M
;
_chemical_formula_sum "Si O2"
_cell_formula_units_Z 28
_cell_length_a 25.018266
_cell_length_b 9.595598
_cell_length_c 17.339172
_cell_angle_alpha 90.000000
_cell_angle_beta 25.557374
_cell_angle_gamma 90.000000
_cell_volume 1795.777572
_symmetry_space_group_name_H-M "P 2/M"
_symmetry_group_IT_number 10
_symmetry_cell_setting 'monoclinic'
loop_
_space_group_symop_operation_xyz
x,y,z
-x,y,-z
-x,-y,-z
x,-y,z
loop_
_atom_site_type_symbol
_atom_site_label
_atom_site_fract_x
_atom_site_fract_y
_atom_site_fract_z
Si Si1 0.331105 0.655831 0.287438
Si Si2 0.421658 0.339763 0.717625
Si Si3 0.856264 0.837039 0.184010
Si Si4 0.313711 0.340409 0.695270
Si Si5 0.706397 0.840664 0.526959
Si Si6 0.581182 0.838568 0.133256
Si Si7 0.620878 0.657095 0.942958
O O1 0.280041 0.500000 0.366389
O O2 0.259933 0.756461 0.439242
O O3 0.308566 0.702029 0.227791
O O4 0.475706 0.660648 0.116481
O O5 0.418435 0.500000 0.750250
O O6 0.329093 0.318162 0.766627
O O7 0.560110 0.298592 0.512259
O O8 0.376334 0.237905 0.844132
O O9 0.797198 0.756802 0.188861
O O10 0.793449 0.785437 0.345066
O O11 0.831865 0.000000 0.203002
O O12 0.000000 0.800096 0.000000
O O13 0.280266 0.500000 0.720679
O O14 0.565309 0.818928 0.685200
O O15 0.735298 0.000000 0.508505
O O16 0.619651 0.000000 0.086654
O O17 0.653805 0.766150 0.967581
O O18 0.660125 0.500000 0.915929
#
# Coordination Sequence:
#
# PCOD8056984 Si02
#       7
#     4   4   4   4   4   4   4
#     4   8  14  24  38  54  74 106 142 171 204 248
#     4   9  17  29  44  62  85 112 140 176 219 258
#     4  10  20  33  46  61  86 117 147 180 218 255
#     4   9  18  31  46  63  82 108 145 182 217 255
#     4   9  17  27  38  56  81 109 142 176 211 247
#     4  10  17  24  38  61  85 111 143 173 205 250
#     4   8  14  24  36  53  79 109 138 168 205 248
#
# _framework density 15.592131999999999
#
# number of rings (size 3 to 8) (size 9 to 14) (size 15 to 20)
#    0.000    3.000    1.429    2.143    0.000    2.571 
#    0.000    4.286    0.000    0.000    0.000    0.000 
#    0.000    1.143    0.000   12.857    0.000    6.286 
#
# Total GULP energy -347106.334963 kJ/mol
# GULP energy per Si atom -12396.654820 kJ/mol
# Density = 1.555664 g / cm^3
# Si number density = 15.592132 Si / 1000 Ang^3
#
#
#
# Elastic Constant Matrix: (Units=GPa)
#
#
# Indices 1 2 3 4 5 6 
#
# 1 100.1406 66.3950 35.5057 0.0000 21.1619 0.0000
# 2 66.3950 87.7614 28.2635 0.0000 14.2488 0.0000
# 3 35.5057 28.2635 37.4801 0.0000 6.8032 0.0000
# 4 0.0000 0.0000 0.0000 17.2549 0.0000 7.1312
# 5 21.1619 14.2488 6.8032 0.0000 24.6865 0.0000
# 6 0.0000 0.0000 0.0000 7.1312 0.0000 26.6265
#
#
#
# Elastic Compliance Matrix: (Units=1/GPa)
#
#
# Indices 1 2 3 4 5 6 
#
# 1 0.025640 -0.013817 -0.011924 0.000000 -0.010718 0.000000
# 2 -0.013817 0.023344 -0.004440 0.000000 -0.000406 0.000000
# 3 -0.011924 -0.004440 0.041059 0.000000 0.001470 0.000000
# 4 0.000000 0.000000 0.000000 0.065168 0.000000 -0.017453
# 5 -0.010718 -0.000406 0.001470 0.000000 0.049525 0.000000
# 6 0.000000 0.000000 0.000000 -0.017453 0.000000 0.042231
#
#
# Mechanical properties :
#
#
# Convention : Reuss Voigt Hill
#
# Bulk Modulus (GPa) = 33.69444 53.96783 43.83114
# Shear Modulus (GPa) = 15.76185 20.06144 17.91164
#
# Velocity S-wave (km/s) = 3.18289 3.59087 3.39302
# Velocity P-wave (km/s) = 5.92997 7.20276 6.59713
#
# Compressibility (1/GPa) = 0.02967849
#
# Stress axis : x y z
#
# Youngs Moduli (GPa) = 39.00200 42.83815 24.35547
#
# Poissons Ratio (x) = 0.59190 0.29042
# Poissons Ratio (y) = 0.53890 0.10815
# Poissons Ratio (z) = 0.46507 0.19022
#
# Static dielectric constant tensor:
#      x y z
#    x 2.985210 0.000000 0.355080 
#    y 0.000000 3.033410 0.000000 
#    z 0.355080 0.000000 2.655510 
# 
# 
# High freq. dielectric constant tensor:
#      x y z
#    x 1.590860 0.000000 0.035080 
#    y 0.000000 1.602670 0.000000 
#    z 0.035080 0.000000 1.546210 
# 
# From -- ./inp_files/54987.got.cif
#   From: 2010.06.25/outbox.cif.g09.slc.cpg/sg10_28_cif.got.tgz:54987.got - 2010.06.27 22:07:45.
