data_PCOD8056800
_publ_section_title
;
Structure prediction by ZEFSAII (Michael W. Deem and Ramdas Pophale) SiO2 
 PCOD8056800
Probable space group: P 2/M
;
_chemical_formula_sum "Si O2"
_cell_formula_units_Z 28
_cell_length_a 5.264881
_cell_length_b 32.567722
_cell_length_c 9.323880
_cell_angle_alpha 90.000000
_cell_angle_beta 106.399556
_cell_angle_gamma 90.000000
_cell_volume 1533.678674
_symmetry_space_group_name_H-M "P 2/M"
_symmetry_group_IT_number 10
_symmetry_cell_setting 'monoclinic'
loop_
_space_group_symop_operation_xyz
x,y,z
-x,y,-z
-x,-y,-z
x,-y,z
loop_
_atom_site_type_symbol
_atom_site_label
_atom_site_fract_x
_atom_site_fract_y
_atom_site_fract_z
Si Si1 0.912796 0.117138 0.325593
Si Si2 0.299448 0.240016 0.098896
Si Si3 0.203149 0.952629 0.906298
Si Si4 0.298312 0.331422 0.096624
Si Si5 0.826400 0.452137 0.152800
Si Si6 0.660271 0.418041 0.820542
Si Si7 0.412534 0.832593 0.325067
O O1 0.871980 0.073628 0.243961
O O2 0.639265 0.142246 0.278438
O O3 0.000000 0.107084 0.500000
O O4 0.139173 0.142246 0.278438
O O5 0.334723 0.286011 0.169450
O O6 0.369669 0.210162 0.239337
O O7 0.500000 0.232363 0.000000
O O8 0.000000 0.232363 0.000000
O O9 0.178629 0.000000 0.857256
O O10 0.500000 0.941620 0.000000
O O11 0.000000 0.941620 0.000000
O O12 0.357472 0.369044 0.214943
O O13 0.500000 0.336667 0.000000
O O14 0.000000 0.336668 0.000000
O O15 0.807211 0.500000 0.114421
O O16 0.625754 0.439283 0.248646
O O17 0.122892 0.439283 0.248646
O O18 0.749508 0.426554 0.999016
O O19 0.500000 0.822365 0.500000
#
# Coordination Sequence:
#
# PCOD8056800 Si02
#       7
#     4   4   4   4   4   4   4
#     4  10  21  36  56  77 101 135 171 205 245 298
#     4  10  21  32  50  73  96 121 163 207 237 293
#     4  10  21  36  54  80 110 140 171 207 249 293
#     4  10  16  27  38  54  77 107 141 184 226 271
#     4  10  16  20  29  45  65  96 142 175 206 262
#     4  10  14  22  31  42  65  97 131 175 213 254
#     4  10  21  37  53  75 104 132 164 205 257 298
#
# _framework density 18.256755999999999
#
# number of rings (size 3 to 8) (size 9 to 14) (size 15 to 20)
#    0.000    2.000    2.857    3.857    0.000    3.714 
#    0.000    0.000    0.000    5.143    0.000    0.000 
#    0.000    0.000    0.000    0.000    0.000    7.857 
#
# Total GULP energy -347041.934649 kJ/mol
# GULP energy per Si atom -12394.354809 kJ/mol
# Density = 1.821520 g / cm^3
# Si number density = 18.256756 Si / 1000 Ang^3
#
#
#
# Elastic Constant Matrix: (Units=GPa)
#
#
# Indices 1 2 3 4 5 6 
#
# 1 190.2615 56.1667 24.1740 0.0000 0.6465 0.0000
# 2 56.1667 150.6540 51.5554 0.0000 0.0193 0.0000
# 3 24.1740 51.5554 32.9176 0.0000 0.0135 0.0000
# 4 0.0000 0.0000 0.0000 4.0888 0.0000 0.3055
# 5 0.6465 0.0193 0.0135 0.0000 5.9922 0.0000
# 6 0.0000 0.0000 0.0000 0.3055 0.0000 76.8872
#
#
#
# Elastic Compliance Matrix: (Units=1/GPa)
#
#
# Indices 1 2 3 4 5 6 
#
# 1 0.005965 -0.001562 -0.001934 0.000000 -0.000634 0.000000
# 2 -0.001562 0.014713 -0.021897 0.000000 0.000170 0.000000
# 3 -0.001934 -0.021897 0.066094 0.000000 0.000131 0.000000
# 4 0.000000 0.000000 0.000000 0.244642 0.000000 -0.000972
# 5 -0.000634 0.000170 0.000131 0.000000 0.166951 0.000000
# 6 0.000000 0.000000 0.000000 -0.000972 0.000000 0.013010
#
#
# Mechanical properties :
#
#
# Convention : Reuss Voigt Hill
#
# Bulk Modulus (GPa) = 27.78811 70.84725 49.31768
# Shear Modulus (GPa) = 8.70841 33.52279 21.11560
#
# Velocity S-wave (km/s) = 2.18639 4.28972 3.40456
# Velocity P-wave (km/s) = 4.65054 7.96404 6.52125
#
# Compressibility (1/GPa) = 0.03598662
#
# Stress axis : x y z
#
# Youngs Moduli (GPa) = 167.64763 67.96485 15.12987
#
# Poissons Ratio (x) = 0.10616 0.02926
# Poissons Ratio (y) = 0.26185 0.33130
# Poissons Ratio (z) = 0.32422 1.48824
#
# Static dielectric constant tensor:
#      x y z
#    x 4.640930 0.000000 0.008270 
#    y 0.000000 3.545650 0.000000 
#    z 0.008270 0.000000 2.666750 
# 
# 
# High freq. dielectric constant tensor:
#      x y z
#    x 1.748520 0.000000 0.000500 
#    y 0.000000 1.724340 0.000000 
#    z 0.000500 0.000000 1.628230 
# 
# From -- ./inp_files/15841.got.cif
#   From: 2010.06.25/outbox.cif.g09.slc.cpg/sg10_8_cif.got.tgz:15841.got - 2010.06.27 22:07:45.
