data_PCOD8056776
_publ_section_title
;
Structure prediction by ZEFSAII (Michael W. Deem and Ramdas Pophale) SiO2 
 PCOD8056776
Probable space group: C C
;
_chemical_formula_sum "Si O2"
_cell_formula_units_Z 32
_cell_length_a 29.711830
_cell_length_b 8.132154
_cell_length_c 9.778666
_cell_angle_alpha 90.000000
_cell_angle_beta 146.080898
_cell_angle_gamma 90.000000
_cell_volume 1318.456400
_symmetry_space_group_name_H-M "C C"
_symmetry_group_IT_number 9
_symmetry_cell_setting 'monoclinic'
loop_
_space_group_symop_operation_xyz
x,y,z
x,-y,1/2+z
1/2+x,1/2+y,z
1/2+x,1/2-y,1/2+z
loop_
_atom_site_type_symbol
_atom_site_label
_atom_site_fract_x
_atom_site_fract_y
_atom_site_fract_z
Si Si1 0.742100 0.855823 0.101250
Si Si2 0.010499 0.172754 0.424435
Si Si3 0.638865 0.820544 0.329896
Si Si4 0.468692 0.701263 0.825076
Si Si5 0.409773 0.160512 0.898747
Si Si6 0.173562 0.826512 0.200502
Si Si7 0.900445 0.719554 0.424500
Si Si8 0.735018 0.329311 0.846593
O O1 0.839284 0.837524 0.359255
O O2 0.705054 0.790499 0.149914
O O3 0.744893 0.749739 0.968499
O O4 0.693497 0.018782 0.939313
O O5 0.980722 0.303935 0.465798
O O6 0.106672 0.167454 0.652460
O O7 0.987821 0.987274 0.404481
O O8 0.983568 0.228891 0.205736
O O9 0.642478 0.784332 0.498643
O O10 0.681598 0.682506 0.347487
O O11 0.545874 0.823870 0.043891
O O12 0.430435 0.722974 0.579095
O O13 0.400543 0.744704 0.763433
O O14 0.327501 0.209776 0.615191
O O15 0.396140 0.978747 0.925963
O O16 0.212304 0.990433 0.234501
#
# Coordination Sequence:
#
# PCOD8056776 Si02
#       8
#     4   4   4   4   4   4   4   4
#     4  12  29  48  78 111 154 203 261 318 388 462
#     4  12  27  50  76 111 155 208 259 318 383 461
#     4  12  29  49  76 116 152 199 257 321 391 458
#     4  12  29  48  78 113 156 202 260 321 387 456
#     4  12  29  48  80 111 156 204 258 319 384 460
#     4  12  27  49  78 106 157 203 257 316 386 459
#     4  12  27  50  74 113 154 206 261 316 385 462
#     4  12  27  50  76 111 154 203 253 319 392 456
#
# _framework density 24.270806
#
# number of rings (size 3 to 8) (size 9 to 14) (size 15 to 20)
#    0.000    0.000    5.000    3.000   10.500    0.000 
#    0.000    0.000    0.000    0.000    0.000    0.000 
#    0.000    0.000    0.000    0.000    0.000    0.000 
#
# Total GULP energy -198223.367333 kJ/mol
# GULP energy per Si atom -12388.960458 kJ/mol
# Density = 2.421556 g / cm^3
# Si number density = 24.270806 Si / 1000 Ang^3
#
#
#
# Elastic Constant Matrix: (Units=GPa)
#
#
# Indices 1 2 3 4 5 6 
#
# 1 127.3817 20.3794 27.9379 0.0000 -3.8133 0.0000
# 2 20.3794 95.4359 18.8263 0.0000 5.8213 0.0000
# 3 27.9379 18.8263 91.9762 0.0000 -11.4662 0.0000
# 4 0.0000 0.0000 0.0000 36.8536 0.0000 0.2981
# 5 -3.8133 5.8213 -11.4662 0.0000 40.7534 0.0000
# 6 0.0000 0.0000 0.0000 0.2981 0.0000 34.6904
#
#
#
# Elastic Compliance Matrix: (Units=1/GPa)
#
#
# Indices 1 2 3 4 5 6 
#
# 1 0.008585 -0.001407 -0.002274 0.000000 0.000364 0.000000
# 2 -0.001407 0.011356 -0.002193 0.000000 -0.002371 0.000000
# 3 -0.002274 -0.002193 0.012462 0.000000 0.003607 0.000000
# 4 0.000000 0.000000 0.000000 0.027136 0.000000 -0.000233
# 5 0.000364 -0.002371 0.003607 0.000000 0.025925 0.000000
# 6 0.000000 0.000000 0.000000 -0.000233 0.000000 0.028828
#
#
# Mechanical properties :
#
#
# Convention : Reuss Voigt Hill
#
# Bulk Modulus (GPa) = 48.41444 49.89790 49.15617
# Shear Modulus (GPa) = 37.61512 38.96949 38.29230
#
# Velocity S-wave (km/s) = 3.94103 4.01136 3.97635
# Velocity P-wave (km/s) = 6.37965 6.48522 6.43265
#
# Compressibility (1/GPa) = 0.02065500
#
# Stress axis : x y z
#
# Youngs Moduli (GPa) = 116.47904 88.06090 80.24631
#
# Poissons Ratio (x) = 0.12389 0.18251
# Poissons Ratio (y) = 0.16387 0.17595
# Poissons Ratio (z) = 0.26492 0.19308
#
# Static dielectric constant tensor:
#      x y z
#    x 4.278500 0.000000 0.107490 
#    y 0.000000 4.226630 0.000000 
#    z 0.107490 0.000000 4.469940 
# 
# 
# High freq. dielectric constant tensor:
#      x y z
#    x 1.976710 0.000000 -0.003490 
#    y 0.000000 1.956720 0.000000 
#    z -0.003490 0.000000 1.979440 
# 
# From -- ./inp_files/12440.got.cif
#   From: 2010.06.25/outbox.cif.g09.slc.cpg/sg9_7_cif.got.tgz:12440.got - 2010.06.27 21:40:51.
