data_PCOD8056127
_publ_section_title
;
Structure prediction by ZEFSAII (Michael W. Deem and Ramdas Pophale) SiO2 
 PCOD8056127
Probable space group: C C
;
_chemical_formula_sum "Si O2"
_cell_formula_units_Z 32
_cell_length_a 26.027935
_cell_length_b 8.852232
_cell_length_c 19.848332
_cell_angle_alpha 90.000000
_cell_angle_beta 19.844570
_cell_angle_gamma 90.000000
_cell_volume 1552.449787
_symmetry_space_group_name_H-M "C C"
_symmetry_group_IT_number 9
_symmetry_cell_setting 'monoclinic'
loop_
_space_group_symop_operation_xyz
x,y,z
x,-y,1/2+z
1/2+x,1/2+y,z
1/2+x,1/2-y,1/2+z
loop_
_atom_site_type_symbol
_atom_site_label
_atom_site_fract_x
_atom_site_fract_y
_atom_site_fract_z
Si Si1 0.509800 0.860947 0.276880
Si Si2 0.326431 0.798593 0.377759
Si Si3 0.473751 0.694635 0.546685
Si Si4 0.809992 0.193571 0.614494
Si Si5 0.775600 0.410013 0.864780
Si Si6 0.599453 0.799700 0.683009
Si Si7 0.333422 0.586342 0.985324
Si Si8 0.481973 0.513945 0.162183
O O1 0.374495 0.807786 0.395726
O O2 0.439296 0.816819 0.435848
O O3 0.546593 0.036327 0.222847
O O4 0.655058 0.757980 0.082790
O O5 0.441313 0.687887 0.196430
O O6 0.347286 0.966585 0.324954
O O7 0.650587 0.719230 0.313886
O O8 0.371970 0.634637 0.609896
O O9 0.409067 0.853872 0.652235
O O10 0.442351 0.576057 0.644298
O O11 0.797390 0.054065 0.577890
O O12 0.705018 0.273239 0.995274
O O13 0.656738 0.491924 0.962957
O O14 0.682615 0.816506 0.653227
O O15 0.455546 0.691505 0.871558
O O16 0.383370 0.533087 0.849117
#
# Coordination Sequence:
#
# PCOD8056127 Si02
#       8
#     4   4   4   4   4   4   4   4
#     4  12  22  40  65 105 134 179 227 291 345 408
#     4  12  22  40  73  99 137 171 237 296 336 394
#     4  12  25  44  71  97 142 190 223 282 362 422
#     4  12  26  44  68  99 143 185 228 283 363 421
#     4  11  23  42  67 105 135 179 230 286 345 414
#     4  11  22  39  71  99 134 169 236 289 333 399
#     4  11  22  43  67 101 133 175 238 285 335 408
#     4  11  22  44  66 105 134 174 239 284 335 418
#
# _framework density 20.612583000000001
#
# number of rings (size 3 to 8) (size 9 to 14) (size 15 to 20)
#    0.000    0.500    6.250    3.000    1.750    2.000 
#    0.000    3.750    0.000    0.000    0.000    0.000 
#    0.000    0.000    0.000    0.000    0.000    0.000 
#
# Total GULP energy -198369.177475 kJ/mol
# GULP energy per Si atom -12398.073592 kJ/mol
# Density = 2.056567 g / cm^3
# Si number density = 20.612583 Si / 1000 Ang^3
#
#
#
# Elastic Constant Matrix: (Units=GPa)
#
#
# Indices 1 2 3 4 5 6 
#
# 1 117.2613 39.8278 31.6328 0.0000 -8.9233 0.0000
# 2 39.8278 120.8968 53.1461 -0.0005 6.8387 0.0000
# 3 31.6328 53.1461 77.1139 -0.0004 -1.2836 -0.0001
# 4 0.0000 -0.0005 -0.0004 33.6862 0.0000 -10.3454
# 5 -8.9233 6.8387 -1.2836 0.0000 31.3289 0.0000
# 6 0.0000 0.0000 -0.0001 -10.3454 0.0000 30.4052
#
#
#
# Elastic Compliance Matrix: (Units=1/GPa)
#
#
# Indices 1 2 3 4 5 6 
#
# 1 0.010296 -0.002512 -0.002436 0.000000 0.003381 0.000000
# 2 -0.002512 0.012754 -0.007823 0.000000 -0.003820 0.000000
# 3 -0.002436 -0.007823 0.019389 0.000000 0.001808 0.000000
# 4 0.000000 0.000000 0.000000 0.033150 0.000000 0.011279
# 5 0.003381 -0.003820 0.001808 0.000000 0.033790 0.000000
# 6 0.000000 0.000000 0.000000 0.011279 0.000000 0.036727
#
#
# Mechanical properties :
#
#
# Convention : Reuss Voigt Hill
#
# Bulk Modulus (GPa) = 59.18408 62.72060 60.95234
# Shear Modulus (GPa) = 28.20399 31.79507 29.99953
#
# Velocity S-wave (km/s) = 3.70305 3.93174 3.81911
# Velocity P-wave (km/s) = 6.85991 7.14883 7.00586
#
# Compressibility (1/GPa) = 0.01689644
#
# Stress axis : x y z
#
# Youngs Moduli (GPa) = 97.12880 78.40488 51.57649
#
# Poissons Ratio (x) = 0.19698 0.12562
# Poissons Ratio (y) = 0.24402 0.40349
# Poissons Ratio (z) = 0.23657 0.61337
#
# Static dielectric constant tensor:
#      x y z
#    x 3.849250 0.000000 -0.229490 
#    y 0.000000 3.828660 0.000000 
#    z -0.229490 0.000000 3.770250 
# 
# 
# High freq. dielectric constant tensor:
#      x y z
#    x 1.810640 0.000000 -0.025350 
#    y 0.000000 1.810050 0.000000 
#    z -0.025350 0.000000 1.801690 
# 
# From -- ./inp_files/21160.got.cif
#   From: 2010.06.25/outbox.cif.g09.slc.cpg/sg9_11_cif.got.tgz:21160.got - 2010.06.27 21:40:51.
