data_PCOD8056531
_publ_section_title
;
Structure prediction by ZEFSAII (Michael W. Deem and Ramdas Pophale) SiO2 
 PCOD8056531
Probable space group: C C
;
_chemical_formula_sum "Si O2"
_cell_formula_units_Z 32
_cell_length_a 14.993044
_cell_length_b 11.035562
_cell_length_c 8.924695
_cell_angle_alpha 90.000000
_cell_angle_beta 62.987417
_cell_angle_gamma 90.000000
_cell_volume 1315.557780
_symmetry_space_group_name_H-M "C C"
_symmetry_group_IT_number 9
_symmetry_cell_setting 'monoclinic'
loop_
_space_group_symop_operation_xyz
x,y,z
x,-y,1/2+z
1/2+x,1/2+y,z
1/2+x,1/2-y,1/2+z
loop_
_atom_site_type_symbol
_atom_site_label
_atom_site_fract_x
_atom_site_fract_y
_atom_site_fract_z
Si Si1 0.705260 0.938387 0.233840
Si Si2 0.053011 0.144181 0.123999
Si Si3 0.552110 0.404014 0.291404
Si Si4 0.330233 0.099917 0.803570
Si Si5 0.376680 0.721439 0.745664
Si Si6 0.263754 0.902273 0.043382
Si Si7 0.986486 0.333359 0.386769
Si Si8 0.220480 0.335642 0.911860
O O1 0.793351 0.872006 0.255163
O O2 0.597413 0.875864 0.348590
O O3 0.701077 0.080401 0.281330
O O4 0.734535 0.930765 0.037098
O O5 0.977020 0.213469 0.290819
O O6 0.085082 0.035974 0.208632
O O7 0.012371 0.095525 0.993665
O O8 0.131433 0.246988 0.021989
O O9 0.468833 0.350048 0.247569
O O10 0.661710 0.339739 0.188006
O O11 0.334134 0.056738 0.629208
O O12 0.431588 0.067535 0.819569
O O13 0.313602 0.245566 0.818531
O O14 0.242899 0.020836 0.953820
O O15 0.324962 0.803923 0.907067
O O16 0.419527 0.808041 0.583656
#
# Coordination Sequence:
#
# PCOD8056531 Si02
#       8
#     4   4   4   4   4   4   4   4
#     4  11  28  47  75 106 152 198 255 321 388 447
#     4  11  25  46  74 106 152 201 252 320 386 455
#     4  12  24  45  72 109 151 201 259 318 381 461
#     4  12  25  47  77 111 152 200 259 316 384 469
#     4  12  27  45  76 112 153 202 259 312 397 460
#     4  12  26  47  77 111 153 200 257 320 385 459
#     4  11  26  49  72 110 154 200 257 320 385 466
#     4  11  25  48  75 107 153 198 252 317 388 457
#
# _framework density 24.324283000000001
#
# number of rings (size 3 to 8) (size 9 to 14) (size 15 to 20)
#    0.000    0.500    3.750    3.000    3.500    8.000 
#    0.000    0.000    0.000    0.000    0.000    0.000 
#    0.000    0.000    0.000    0.000    0.000    0.000 
#
# Total GULP energy -198236.363643 kJ/mol
# GULP energy per Si atom -12389.772728 kJ/mol
# Density = 2.426892 g / cm^3
# Si number density = 24.324283 Si / 1000 Ang^3
#
#
#
# Elastic Constant Matrix: (Units=GPa)
#
#
# Indices 1 2 3 4 5 6 
#
# 1 116.0655 14.9942 15.7135 0.0000 7.5131 0.0000
# 2 14.9942 106.9848 31.1415 0.0000 9.6271 0.0000
# 3 15.7135 31.1415 107.8196 0.0000 18.0570 0.0000
# 4 0.0000 0.0000 0.0000 50.0219 0.0000 4.9243
# 5 7.5131 9.6271 18.0570 0.0000 40.2165 0.0000
# 6 0.0000 0.0000 0.0000 4.9243 0.0000 27.5064
#
#
#
# Elastic Compliance Matrix: (Units=1/GPa)
#
#
# Indices 1 2 3 4 5 6 
#
# 1 0.008918 -0.000904 -0.000861 0.000000 -0.001063 0.000000
# 2 -0.000904 0.010351 -0.002672 0.000000 -0.001109 0.000000
# 3 -0.000861 -0.002672 0.010854 0.000000 -0.004073 0.000000
# 4 0.000000 0.000000 0.000000 0.020350 0.000000 -0.003643
# 5 -0.001063 -0.001109 -0.004073 0.000000 0.027158 0.000000
# 6 0.000000 0.000000 0.000000 -0.003643 0.000000 0.037007
#
#
# Mechanical properties :
#
#
# Convention : Reuss Voigt Hill
#
# Bulk Modulus (GPa) = 47.05820 50.50757 48.78288
# Shear Modulus (GPa) = 38.28609 41.48369 39.88489
#
# Velocity S-wave (km/s) = 3.97165 4.13418 4.05373
# Velocity P-wave (km/s) = 6.35769 6.60287 6.48144
#
# Compressibility (1/GPa) = 0.02125028
#
# Stress axis : x y z
#
# Youngs Moduli (GPa) = 112.13392 96.60471 92.13072
#
# Poissons Ratio (x) = 0.08730 0.07929
# Poissons Ratio (y) = 0.10133 0.24620
# Poissons Ratio (z) = 0.09650 0.25816
#
# Static dielectric constant tensor:
#      x y z
#    x 4.417000 0.000000 0.024330 
#    y 0.000000 4.473690 0.000000 
#    z 0.024330 0.000000 4.841010 
# 
# 
# High freq. dielectric constant tensor:
#      x y z
#    x 1.967250 0.000000 0.003950 
#    y 0.000000 1.963610 0.000000 
#    z 0.003950 0.000000 1.986510 
# 
# From -- ./inp_files/9253.got.cif
#   From: 2010.06.25/outbox.cif.g09.slc.cpg/sg9_5_cif.got.tgz:9253.got - 2010.06.27 21:40:51.
