data_PCOD8056442
_publ_section_title
;
Structure prediction by ZEFSAII (Michael W. Deem and Ramdas Pophale) SiO2 
 PCOD8056442
Probable space group: C C
;
_chemical_formula_sum "Si O2"
_cell_formula_units_Z 32
_cell_length_a 6.568476
_cell_length_b 25.640386
_cell_length_c 8.716153
_cell_angle_alpha 90.000000
_cell_angle_beta 74.365465
_cell_angle_gamma 90.000000
_cell_volume 1413.645269
_symmetry_space_group_name_H-M "C C"
_symmetry_group_IT_number 9
_symmetry_cell_setting 'monoclinic'
loop_
_space_group_symop_operation_xyz
x,y,z
x,-y,1/2+z
1/2+x,1/2+y,z
1/2+x,1/2-y,1/2+z
loop_
_atom_site_type_symbol
_atom_site_label
_atom_site_fract_x
_atom_site_fract_y
_atom_site_fract_z
Si Si1 0.423470 0.110436 0.980250
Si Si2 0.472162 0.546254 0.475441
Si Si3 0.428586 0.074426 0.315770
Si Si4 0.632347 0.684602 0.877279
Si Si5 0.728103 0.185210 0.775338
Si Si6 0.960931 0.766452 0.717926
Si Si7 0.716000 0.979981 0.309348
Si Si8 0.731322 0.858146 0.939322
O O1 0.212666 0.129215 0.931442
O O2 0.586728 0.158589 0.936901
O O3 0.524737 0.058207 0.891570
O O4 0.363248 0.100417 0.168468
O O5 0.726262 0.545212 0.431517
O O6 0.368633 0.495118 0.419241
O O7 0.373179 0.549750 0.663815
O O8 0.408186 0.597319 0.394083
O O9 0.513253 0.120108 0.410413
O O10 0.609425 0.030972 0.255195
O O11 0.467388 0.675235 0.774988
O O12 0.820263 0.714176 0.752177
O O13 0.524630 0.719437 0.032205
O O14 0.671097 0.247360 0.770003
O O15 0.681528 0.158264 0.621928
O O16 0.829479 0.811710 0.822393
#
# Coordination Sequence:
#
# PCOD8056442 Si02
#       8
#     4   4   4   4   4   4   4   4
#     4  11  24  47  66 105 147 183 235 296 357 430
#     4  11  25  43  72 104 138 191 233 294 362 421
#     4  11  26  45  76 101 145 190 235 301 361 426
#     4  11  26  42  73 102 138 195 232 293 365 417
#     4  11  25  45  71 103 141 187 237 295 353 428
#     4  11  24  46  67 104 142 183 241 291 357 424
#     4  11  24  46  68 106 144 182 244 292 355 439
#     4  11  24  46  69 107 141 183 243 292 350 435
#
# _framework density 22.636513999999998
#
# number of rings (size 3 to 8) (size 9 to 14) (size 15 to 20)
#    0.000    1.000    3.750    1.500    3.500    6.000 
#    0.000    0.000    0.000    0.000    0.000    0.000 
#    0.000    0.000    0.000    0.000    0.000    0.000 
#
# Total GULP energy -198366.504293 kJ/mol
# GULP energy per Si atom -12397.906518 kJ/mol
# Density = 2.258499 g / cm^3
# Si number density = 22.636514 Si / 1000 Ang^3
#
#
#
# Elastic Constant Matrix: (Units=GPa)
#
#
# Indices 1 2 3 4 5 6 
#
# 1 144.6189 53.0353 56.5422 0.0000 3.2689 0.0000
# 2 53.0353 105.5550 36.3793 0.0000 6.2472 0.0000
# 3 56.5422 36.3793 118.0877 0.0000 -2.7680 0.0000
# 4 0.0000 0.0000 0.0000 34.8013 0.0000 -8.8089
# 5 3.2689 6.2472 -2.7680 0.0000 30.9929 0.0000
# 6 0.0000 0.0000 0.0000 -8.8089 0.0000 41.7585
#
#
#
# Elastic Compliance Matrix: (Units=1/GPa)
#
#
# Indices 1 2 3 4 5 6 
#
# 1 0.009617 -0.003585 -0.003515 0.000000 -0.000606 0.000000
# 2 -0.003585 0.012122 -0.002071 0.000000 -0.002250 0.000000
# 3 -0.003515 -0.002071 0.010830 0.000000 0.001755 0.000000
# 4 0.000000 0.000000 0.000000 0.030355 0.000000 0.006403
# 5 -0.000606 -0.002250 0.001755 0.000000 0.032940 0.000000
# 6 0.000000 0.000000 0.000000 0.006403 0.000000 0.025298
#
#
# Mechanical properties :
#
#
# Convention : Reuss Voigt Hill
#
# Bulk Modulus (GPa) = 70.27986 73.35278 71.81632
# Shear Modulus (GPa) = 34.66311 36.33085 35.49698
#
# Velocity S-wave (km/s) = 3.91742 4.01055 3.96426
# Velocity P-wave (km/s) = 7.18165 7.34309 7.26282
#
# Compressibility (1/GPa) = 0.01422883
#
# Stress axis : x y z
#
# Youngs Moduli (GPa) = 103.97987 82.49633 92.33458
#
# Poissons Ratio (x) = 0.29574 0.32453
# Poissons Ratio (y) = 0.37276 0.19118
# Poissons Ratio (z) = 0.36545 0.17081
#
# Static dielectric constant tensor:
#      x y z
#    x 4.103620 0.000000 -0.035040 
#    y 0.000000 4.201990 0.000000 
#    z -0.035040 0.000000 3.977240 
# 
# 
# High freq. dielectric constant tensor:
#      x y z
#    x 1.891070 0.000000 -0.008580 
#    y 0.000000 1.899560 0.000000 
#    z -0.008580 0.000000 1.892930 
# 
# From -- ./inp_files/4487.got.cif
#   From: 2010.06.25/outbox.cif.g09.slc.cpg/sg9_3_cif.got.tgz:4487.got - 2010.06.27 21:40:51.
