data_PCOD8056258
_publ_section_title
;
Structure prediction by ZEFSAII (Michael W. Deem and Ramdas Pophale) SiO2 
 PCOD8056258
Probable space group: C C
;
_chemical_formula_sum "Si O2"
_cell_formula_units_Z 32
_cell_length_a 13.426723
_cell_length_b 12.755612
_cell_length_c 9.081471
_cell_angle_alpha 90.000000
_cell_angle_beta 110.394159
_cell_angle_gamma 90.000000
_cell_volume 1457.854779
_symmetry_space_group_name_H-M "C C"
_symmetry_group_IT_number 9
_symmetry_cell_setting 'monoclinic'
loop_
_space_group_symop_operation_xyz
x,y,z
x,-y,1/2+z
1/2+x,1/2+y,z
1/2+x,1/2-y,1/2+z
loop_
_atom_site_type_symbol
_atom_site_label
_atom_site_fract_x
_atom_site_fract_y
_atom_site_fract_z
Si Si1 0.657570 0.982148 0.213610
Si Si2 0.980306 0.068583 0.957201
Si Si3 0.491131 0.816908 0.235010
Si Si4 0.324576 0.879502 0.935340
Si Si5 0.892964 0.749223 0.209650
Si Si6 0.796879 0.059894 0.524137
Si Si7 0.459179 0.086277 0.013011
Si Si8 0.583054 0.398985 0.804838
O O1 0.596362 0.875288 0.226847
O O2 0.766769 0.964559 0.179153
O O3 0.690064 0.050147 0.373024
O O4 0.580058 0.047781 0.070554
O O5 0.956997 0.175733 0.855497
O O6 0.020455 0.990149 0.854158
O O7 0.074609 0.088596 0.123179
O O8 0.882884 0.021345 0.003306
O O9 0.432512 0.875187 0.337224
O O10 0.526566 0.707705 0.321375
O O11 0.397028 0.799133 0.067731
O O12 0.321220 0.830816 0.769151
O O13 0.203756 0.893191 0.923561
O O14 0.377519 0.991874 0.994209
O O15 0.832628 0.819033 0.054848
O O16 0.961829 0.671527 0.144739
#
# Coordination Sequence:
#
# PCOD8056258 Si02
#       8
#     4   4   4   4   4   4   4   4
#     4  11  23  43  76 105 142 184 242 301 361 425
#     4  12  26  47  70 106 148 186 245 300 355 442
#     4  11  24  46  71 106 142 185 239 300 354 431
#     4  11  26  47  72 104 142 190 243 296 361 436
#     4  12  25  46  74 101 149 194 234 301 370 416
#     4  12  23  45  72 109 142 188 241 305 355 433
#     4  11  26  46  68 107 145 182 239 300 354 437
#     4  12  27  46  73 100 146 193 235 293 368 430
#
# _framework density 21.950061000000002
#
# number of rings (size 3 to 8) (size 9 to 14) (size 15 to 20)
#    0.000    0.500    5.000    3.000    5.250    1.000 
#    4.500    0.000    0.000    0.000    0.000    0.000 
#    0.000    0.000    0.000    0.000    0.000    0.000 
#
# Total GULP energy -198286.065465 kJ/mol
# GULP energy per Si atom -12392.879092 kJ/mol
# Density = 2.190010 g / cm^3
# Si number density = 21.950061 Si / 1000 Ang^3
#
#
#
# Elastic Constant Matrix: (Units=GPa)
#
#
# Indices 1 2 3 4 5 6 
#
# 1 97.6605 40.6398 29.3310 0.0000 -1.0476 0.0000
# 2 40.6398 114.0992 32.1741 0.0000 0.2455 0.0000
# 3 29.3310 32.1741 87.0441 0.0000 8.0532 0.0000
# 4 0.0000 0.0000 0.0000 47.4943 0.0000 -7.7551
# 5 -1.0476 0.2455 8.0532 0.0000 40.9362 0.0000
# 6 0.0000 0.0000 0.0000 -7.7551 0.0000 19.7142
#
#
#
# Elastic Compliance Matrix: (Units=1/GPa)
#
#
# Indices 1 2 3 4 5 6 
#
# 1 0.012679 -0.003672 -0.003002 0.000000 0.000937 0.000000
# 2 -0.003672 0.010865 -0.002815 0.000000 0.000395 0.000000
# 3 -0.003002 -0.002815 0.013797 0.000000 -0.002774 0.000000
# 4 0.000000 0.000000 0.000000 0.022500 0.000000 0.008851
# 5 0.000937 0.000395 -0.002774 0.000000 0.024996 0.000000
# 6 0.000000 0.000000 0.000000 0.008851 0.000000 0.054207
#
#
# Mechanical properties :
#
#
# Convention : Reuss Voigt Hill
#
# Bulk Modulus (GPa) = 54.45555 55.89928 55.17742
# Shear Modulus (GPa) = 30.46122 34.73954 32.60038
#
# Velocity S-wave (km/s) = 3.72929 3.98259 3.85802
# Velocity P-wave (km/s) = 6.58834 6.83153 6.71104
#
# Compressibility (1/GPa) = 0.01836360
#
# Stress axis : x y z
#
# Youngs Moduli (GPa) = 78.87021 92.03800 72.47773
#
# Poissons Ratio (x) = 0.33792 0.21758
# Poissons Ratio (y) = 0.28957 0.20405
# Poissons Ratio (z) = 0.23677 0.25912
#
# Static dielectric constant tensor:
#      x y z
#    x 3.752290 0.000000 0.049400 
#    y 0.000000 4.046910 0.000000 
#    z 0.049400 0.000000 4.247320 
# 
# 
# High freq. dielectric constant tensor:
#      x y z
#    x 1.850740 0.000000 -0.001790 
#    y 0.000000 1.868920 0.000000 
#    z -0.001790 0.000000 1.881810 
# 
# From -- ./inp_files/9254.got.cif
#   From: 2010.06.25/outbox.cif.g09.slc.cpg/sg9_5_cif.got.tgz:9254.got - 2010.06.27 21:40:51.
