data_PCOD8056331
_publ_section_title
;
Structure prediction by ZEFSAII (Michael W. Deem and Ramdas Pophale) SiO2 
 PCOD8056331
Probable space group: C C
;
_chemical_formula_sum "Si O2"
_cell_formula_units_Z 32
_cell_length_a 9.717805
_cell_length_b 10.549025
_cell_length_c 14.117513
_cell_angle_alpha 90.000000
_cell_angle_beta 75.469497
_cell_angle_gamma 90.000000
_cell_volume 1400.942882
_symmetry_space_group_name_H-M "C C"
_symmetry_group_IT_number 9
_symmetry_cell_setting 'monoclinic'
loop_
_space_group_symop_operation_xyz
x,y,z
x,-y,1/2+z
1/2+x,1/2+y,z
1/2+x,1/2-y,1/2+z
loop_
_atom_site_type_symbol
_atom_site_label
_atom_site_fract_x
_atom_site_fract_y
_atom_site_fract_z
Si Si1 0.262130 0.289389 0.372180
Si Si2 0.829813 0.772133 0.810696
Si Si3 0.140554 0.429734 0.578417
Si Si4 0.911535 0.641489 0.610422
Si Si5 0.027890 0.815488 0.429435
Si Si6 0.529249 0.612581 0.429317
Si Si7 0.591280 0.661373 0.624670
Si Si8 0.818981 0.970999 0.209115
O O1 0.204914 0.374493 0.470347
O O2 0.427670 0.258986 0.364115
O O3 0.189523 0.152337 0.372369
O O4 0.231548 0.363230 0.279841
O O5 0.905775 0.678574 0.722304
O O6 0.689775 0.708375 0.876826
O O7 0.787197 0.898319 0.764850
O O8 0.926161 0.803541 0.883195
O O9 0.095508 0.310375 0.653898
O O10 0.260594 0.515402 0.611412
O O11 0.004329 0.515941 0.579622
O O12 0.752559 0.608767 0.599735
O O13 0.981022 0.757833 0.539214
O O14 0.001662 0.964958 0.431528
O O15 0.512145 0.662351 0.537975
O O16 0.485538 0.567320 0.699196
#
# Coordination Sequence:
#
# PCOD8056331 Si02
#       8
#     4   4   4   4   4   4   4   4
#     4  11  23  47  67 102 139 184 230 290 350 410
#     4  12  26  45  73 107 137 187 238 282 355 418
#     4  11  25  47  70 102 141 183 235 286 349 415
#     4  12  25  47  71 104 141 185 236 287 349 418
#     4  12  25  47  72  99 146 182 227 294 348 409
#     4  11  25  45  68 101 142 179 237 284 350 413
#     4  11  25  47  68 102 140 183 232 287 350 412
#     4  12  24  45  75  97 144 181 231 292 347 415
#
# _framework density 22.841760000000001
#
# number of rings (size 3 to 8) (size 9 to 14) (size 15 to 20)
#    0.000    0.500    5.000    3.750    1.750    3.000 
#    4.500    0.000    0.000    0.000    0.000    0.000 
#    0.000    0.000    0.000    0.000    0.000    0.000 
#
# Total GULP energy -198274.310917 kJ/mol
# GULP energy per Si atom -12392.144432 kJ/mol
# Density = 2.278977 g / cm^3
# Si number density = 22.841760 Si / 1000 Ang^3
#
#
#
# Elastic Constant Matrix: (Units=GPa)
#
#
# Indices 1 2 3 4 5 6 
#
# 1 129.9665 37.8549 16.5489 0.0000 0.9793 0.0000
# 2 37.8549 45.1743 -20.9083 0.0000 -19.3627 0.0000
# 3 16.5489 -20.9083 60.6390 0.0000 -10.7137 0.0000
# 4 0.0000 0.0000 0.0000 21.4101 0.0000 -5.8406
# 5 0.9793 -19.3627 -10.7137 0.0000 27.8176 0.0000
# 6 0.0000 0.0000 0.0000 -5.8406 0.0000 39.1810
#
#
#
# Elastic Compliance Matrix: (Units=1/GPa)
#
#
# Indices 1 2 3 4 5 6 
#
# 1 -0.544789 1.467582 0.899798 0.000000 1.387252 0.000000
# 2 1.467582 -3.896177 -2.395175 0.000000 -3.686116 0.000000
# 3 0.899798 -2.395175 -1.454021 0.000000 -2.258864 0.000000
# 4 0.000000 0.000000 0.000000 0.048687 0.000000 0.007258
# 5 1.387252 -3.686116 -2.258864 0.000000 -3.448625 0.000000
# 6 0.000000 0.000000 0.000000 0.007258 0.000000 0.026604
#
#
# Mechanical properties :
#
#
# Convention : Reuss Voigt Hill
#
# Bulk Modulus (GPa) = -0.16805 33.64119 16.73657
# Shear Modulus (GPa) = -0.44658 31.16736 15.36039
#
# Velocity S-wave (km/s) = -0.44264 3.69791 2.59602
# Velocity P-wave (km/s) = 0.57877 5.74392 4.04089
#
# Compressibility (1/GPa) = -5.95057775
#
# Stress axis : x y z
#
# Youngs Moduli (GPa) = -1.83557 -0.25666 -0.68775
#
# Poissons Ratio (x) = 0.37667 0.61883
# Poissons Ratio (y) = 2.69386 -1.64728
# Poissons Ratio (z) = 1.65165 -0.61475
#
# Static dielectric constant tensor:
#      x y z
#    x 4.429130 0.000000 0.065780 
#    y 0.000000 4.341730 0.000000 
#    z 0.065780 0.000000 4.426340 
# 
# 
# High freq. dielectric constant tensor:
#      x y z
#    x 1.911130 0.000000 0.003320 
#    y 0.000000 1.896430 0.000000 
#    z 0.003320 0.000000 1.907080 
# 
# From -- ./inp_files/22885.got.cif
#   From: 2010.06.25/outbox.cif.g09.slc.cpg/sg9_12_cif.got.tgz:22885.got - 2010.06.27 21:40:51.
