data_PCOD8057515
_publ_section_title
;
Structure prediction by ZEFSAII (Michael W. Deem and Ramdas Pophale) SiO2 
 PCOD8057515
Probable space group: P 2/M
;
_chemical_formula_sum "Si O2"
_cell_formula_units_Z 32
_cell_length_a 17.112083
_cell_length_b 8.899709
_cell_length_c 13.855731
_cell_angle_alpha 90.000000
_cell_angle_beta 78.440267
_cell_angle_gamma 90.000000
_cell_volume 2067.323645
_symmetry_space_group_name_H-M "P 2/M"
_symmetry_group_IT_number 10
_symmetry_cell_setting 'monoclinic'
loop_
_space_group_symop_operation_xyz
x,y,z
-x,y,-z
-x,-y,-z
x,-y,z
loop_
_atom_site_type_symbol
_atom_site_label
_atom_site_fract_x
_atom_site_fract_y
_atom_site_fract_z
Si Si1 0.507524 0.833805 0.612632
Si Si2 0.818139 0.677374 0.253383
Si Si3 0.026111 0.322553 0.891741
Si Si4 0.096723 0.176132 0.593743
Si Si5 0.950996 0.673203 0.715913
Si Si6 0.827358 0.328834 0.597918
Si Si7 0.333267 0.177947 0.653440
Si Si8 0.662473 0.326334 0.553834
O O1 0.500000 0.839763 0.500000
O O2 0.421175 0.776318 0.672173
O O3 0.579958 0.725422 0.625144
O O4 0.526235 0.000000 0.648558
O O5 0.807571 0.500000 0.253977
O O6 0.845284 0.729459 0.351929
O O7 0.731932 0.753606 0.256291
O O8 0.884525 0.731773 0.159217
O O9 0.027149 0.500000 0.903071
O O10 0.962303 0.274657 0.824573
O O11 0.000000 0.247668 0.000000
O O12 0.121870 0.214704 0.479169
O O13 0.005963 0.225844 0.633336
O O14 0.106420 0.000000 0.611175
O O15 0.979568 0.500000 0.700926
O O16 0.859825 0.692236 0.700317
O O17 0.843890 0.500000 0.559873
O O18 0.733058 0.294451 0.613604
O O19 0.319203 0.237881 0.548725
O O20 0.324605 0.000000 0.650952
O O21 0.655152 0.500000 0.528647
#
# Coordination Sequence:
#
# PCOD8057515 Si02
#       8
#     4   4   4   4   4   4   4   4
#     4   8  16  28  39  53  78 110 142 174 208 243
#     4  10  18  28  44  64  84 109 140 174 211 251
#     4   8  15  29  48  66  82 103 135 173 212 255
#     4  11  20  28  40  58  82 111 142 175 206 238
#     4   9  18  31  45  59  80 109 138 171 210 249
#     4  10  19  29  40  57  83 113 142 171 204 243
#     4  10  18  28  41  58  82 111 142 175 208 244
#     4  10  18  26  39  57  80 112 147 175 203 241
#
# _framework density 15.478949999999999
#
# number of rings (size 3 to 8) (size 9 to 14) (size 15 to 20)
#    0.000    2.500    1.250    4.125    0.000    5.250 
#    0.000    0.000    0.000    9.375    0.000    0.000 
#    0.000    1.000    0.000   12.500    0.000    2.000 
#
# Total GULP energy -396538.994750 kJ/mol
# GULP energy per Si atom -12391.843586 kJ/mol
# Density = 1.544372 g / cm^3
# Si number density = 15.478950 Si / 1000 Ang^3
#
#
#
# Elastic Constant Matrix: (Units=GPa)
#
#
# Indices 1 2 3 4 5 6 
#
# 1 128.9347 40.9993 56.6561 0.0000 -10.1172 0.0000
# 2 40.9993 57.9873 23.0972 0.0000 -4.9827 0.0000
# 3 56.6561 23.0972 72.9289 0.0000 -6.3135 0.0000
# 4 0.0000 0.0000 0.0000 5.4631 0.0000 -5.8606
# 5 -10.1172 -4.9827 -6.3135 0.0000 14.4101 0.0000
# 6 0.0000 0.0000 0.0000 -5.8606 0.0000 16.9846
#
#
#
# Elastic Compliance Matrix: (Units=1/GPa)
#
#
# Indices 1 2 3 4 5 6 
#
# 1 0.013634 -0.005978 -0.008366 0.000000 0.003840 0.000000
# 2 -0.005978 0.022609 -0.002290 0.000000 0.002618 0.000000
# 3 -0.008366 -0.002290 0.021162 0.000000 0.002606 0.000000
# 4 0.000000 0.000000 0.000000 0.290620 0.000000 0.100280
# 5 0.003840 0.002618 0.002606 0.000000 0.074138 0.000000
# 6 0.000000 0.000000 0.000000 0.100280 0.000000 0.093479
#
#
# Mechanical properties :
#
#
# Convention : Reuss Voigt Hill
#
# Bulk Modulus (GPa) = 41.42952 55.70625 48.56788
# Shear Modulus (GPa) = 8.97736 16.64479 12.81107
#
# Velocity S-wave (km/s) = 2.41087 3.28276 2.88000
# Velocity P-wave (km/s) = 5.87987 7.10178 6.51951
#
# Compressibility (1/GPa) = 0.02413738
#
# Stress axis : x y z
#
# Youngs Moduli (GPa) = 73.34427 44.23105 47.25343
#
# Poissons Ratio (x) = 0.26439 0.39535
# Poissons Ratio (y) = 0.43842 0.10821
# Poissons Ratio (z) = 0.61363 0.10129
#
# Static dielectric constant tensor:
#      x y z
#    x 3.357560 0.000000 -0.187470 
#    y 0.000000 2.931380 0.000000 
#    z -0.187470 0.000000 2.750900 
# 
# 
# High freq. dielectric constant tensor:
#      x y z
#    x 1.600940 0.000000 -0.012200 
#    y 0.000000 1.591400 0.000000 
#    z -0.012200 0.000000 1.530580 
# 
# From -- ./inp_files/68207.got.cif
#   From: 2010.06.25/outbox.cif.g09.slc.cpg/sg10_35_cif.got.tgz:68207.got - 2010.06.27 22:07:45.
