data_PCOD8057188
_publ_section_title
;
Structure prediction by ZEFSAII (Michael W. Deem and Ramdas Pophale) SiO2 
 PCOD8057188
Probable space group: P 2/M
;
_chemical_formula_sum "Si O2"
_cell_formula_units_Z 32
_cell_length_a 21.391817
_cell_length_b 9.228406
_cell_length_c 20.389432
_cell_angle_alpha 90.000000
_cell_angle_beta 151.242833
_cell_angle_gamma 90.000000
_cell_volume 1936.481879
_symmetry_space_group_name_H-M "P 2/M"
_symmetry_group_IT_number 10
_symmetry_cell_setting 'monoclinic'
loop_
_space_group_symop_operation_xyz
x,y,z
-x,y,-z
-x,-y,-z
x,-y,z
loop_
_atom_site_type_symbol
_atom_site_label
_atom_site_fract_x
_atom_site_fract_y
_atom_site_fract_z
Si Si1 0.551747 0.329596 0.876202
Si Si2 0.396043 0.162587 0.201262
Si Si3 0.635747 0.663719 0.706333
Si Si4 0.297757 0.840745 0.494315
Si Si5 0.719382 0.826514 0.377343
Si Si6 0.329503 0.338557 0.404325
Si Si7 0.143515 0.670667 0.608657
Si Si8 0.630899 0.331385 0.090781
O O1 0.527459 0.500000 0.840580
O O2 0.628497 0.259072 0.885915
O O3 0.415278 0.251625 0.764491
O O4 0.641052 0.303635 0.022291
O O5 0.319958 0.234135 0.192847
O O6 0.547713 0.158530 0.355922
O O7 0.342499 0.000000 0.140946
O O8 0.685027 0.500000 0.764399
O O9 0.693837 0.724646 0.690721
O O10 0.481078 0.662426 0.559399
O O11 0.239581 0.785680 0.510082
O O12 0.252591 0.746930 0.390329
O O13 0.245266 0.000000 0.430681
O O14 0.830788 0.762550 0.433434
O O15 0.702860 0.000000 0.354679
O O16 0.274070 0.500000 0.355232
O O17 0.159613 0.500000 0.608578
O O18 0.241631 0.728699 0.755281
O O19 0.000000 0.708426 0.500000
O O20 0.624030 0.500000 0.100219
O O21 0.500000 0.258135 0.000000
#
# Coordination Sequence:
#
# PCOD8057188 Si02
#       8
#     4   4   4   4   4   4   4   4
#     4  10  17  27  45  62  82 111 144 181 221 260
#     4   9  16  24  33  51  78 104 137 177 216 256
#     4   8  13  21  31  45  68 100 137 171 210 254
#     4   8  15  24  33  48  72 102 134 170 210 254
#     4  10  19  30  43  62  88 113 142 180 222 263
#     4   8  13  20  31  47  67  95 135 178 208 245
#     4  10  20  34  51  69  88 114 148 183 221 268
#     4   9  16  29  48  69  89 110 143 184 223 262
#
# _framework density 16.524812000000001
#
# number of rings (size 3 to 8) (size 9 to 14) (size 15 to 20)
#    0.000    3.000    1.250    2.625    0.000    4.250 
#    0.000    4.375    0.000    0.000    0.000    0.000 
#    0.000    0.000    0.000    1.125    0.000   24.000 
#
# Total GULP energy -396520.874521 kJ/mol
# GULP energy per Si atom -12391.277329 kJ/mol
# Density = 1.648720 g / cm^3
# Si number density = 16.524812 Si / 1000 Ang^3
#
#
#
# Elastic Constant Matrix: (Units=GPa)
#
#
# Indices 1 2 3 4 5 6 
#
# 1 151.1781 68.8440 47.8199 0.0000 -29.3854 0.0000
# 2 68.8440 86.3013 23.5963 0.0000 -12.8664 0.0000
# 3 47.8199 23.5963 48.2556 0.0000 -5.1610 0.0000
# 4 0.0000 0.0000 0.0000 4.6306 0.0000 -2.8806
# 5 -29.3854 -12.8664 -5.1610 0.0000 15.8096 0.0000
# 6 0.0000 0.0000 0.0000 -2.8806 0.0000 27.2953
#
#
#
# Elastic Compliance Matrix: (Units=1/GPa)
#
#
# Indices 1 2 3 4 5 6 
#
# 1 0.018953 -0.008115 -0.012178 0.000000 0.024649 0.000000
# 2 -0.008115 0.018234 -0.000933 0.000000 -0.000548 0.000000
# 3 -0.012178 -0.000933 0.031857 0.000000 -0.012995 0.000000
# 4 0.000000 0.000000 0.000000 0.231129 0.000000 0.024392
# 5 0.024649 -0.000548 -0.012995 0.000000 0.104380 0.000000
# 6 0.000000 0.000000 0.000000 0.024392 0.000000 0.039211
#
#
# Mechanical properties :
#
#
# Convention : Reuss Voigt Hill
#
# Bulk Modulus (GPa) = 37.60406 62.91727 50.26066
# Shear Modulus (GPa) = 10.09937 19.24541 14.67239
#
# Velocity S-wave (km/s) = 2.47485 3.41638 2.98300
# Velocity P-wave (km/s) = 5.56525 7.32934 6.50736
#
# Compressibility (1/GPa) = 0.02659287
#
# Stress axis : x y z
#
# Youngs Moduli (GPa) = 52.76122 54.84227 31.38980
#
# Poissons Ratio (x) = 0.44504 0.38226
# Poissons Ratio (y) = 0.42815 0.02929
# Poissons Ratio (z) = 0.64252 0.05118
#
# Static dielectric constant tensor:
#      x y z
#    x 3.369720 0.000000 -0.341920 
#    y 0.000000 3.183830 0.000000 
#    z -0.341920 0.000000 2.611510 
# 
# 
# High freq. dielectric constant tensor:
#      x y z
#    x 1.645950 0.000000 -0.036430 
#    y 0.000000 1.630730 0.000000 
#    z -0.036430 0.000000 1.563700 
# 
# From -- ./inp_files/86172.got.cif
#   From: 2010.06.25/outbox.cif.g09.slc.cpg/sg10_44_cif.got.tgz:86172.got - 2010.06.27 22:07:45.
