data_PCOD8057059
_publ_section_title
;
Structure prediction by ZEFSAII (Michael W. Deem and Ramdas Pophale) SiO2 
 PCOD8057059
Probable space group: P 2/M
;
_chemical_formula_sum "Si O2"
_cell_formula_units_Z 30
_cell_length_a 5.157862
_cell_length_b 12.665517
_cell_length_c 28.937431
_cell_angle_alpha 90.000000
_cell_angle_beta 80.276710
_cell_angle_gamma 90.000000
_cell_volume 1863.239513
_symmetry_space_group_name_H-M "P 2/M"
_symmetry_group_IT_number 10
_symmetry_cell_setting 'monoclinic'
loop_
_space_group_symop_operation_xyz
x,y,z
-x,y,-z
-x,-y,-z
x,-y,z
loop_
_atom_site_type_symbol
_atom_site_label
_atom_site_fract_x
_atom_site_fract_y
_atom_site_fract_z
Si Si1 0.883623 0.117240 0.349509
Si Si2 0.780064 0.500000 0.468155
Si Si3 0.119693 0.126379 0.133305
Si Si4 0.900391 0.664206 0.388556
Si Si5 0.775696 0.874193 0.972857
Si Si6 0.428461 0.878273 0.815908
Si Si7 0.547917 0.615525 0.668146
Si Si8 0.435783 0.170382 0.291779
O O1 0.876555 0.207075 0.389996
O O2 0.626459 0.124623 0.325289
O O3 0.140390 0.131175 0.309822
O O4 0.886837 0.000000 0.372119
O O5 0.500000 0.500000 0.500000
O O6 0.803266 0.608196 0.438068
O O7 0.000000 0.500000 0.500000
O O8 0.174203 0.168717 0.080177
O O9 0.338372 0.173824 0.161358
O O10 0.845110 0.173946 0.160017
O O11 0.118107 0.000000 0.134507
O O12 0.723144 0.622464 0.351930
O O13 0.204250 0.632543 0.373205
O O14 0.775888 0.000000 0.972582
O O15 0.500000 0.830244 0.000000
O O16 0.000000 0.830307 0.000000
O O17 0.471547 0.867998 0.760361
O O18 0.416431 0.000000 0.829716
O O19 0.563730 0.500000 0.690696
O O20 0.554530 0.702138 0.708320
#
# Coordination Sequence:
#
# PCOD8057059 Si02
#       8
#     4   2   4   4   4   4   4   4
#     4  10  19  32  49  69  93 120 154 187 220 260
#     4  12  22  34  54  76 100 120 150 190 232 276
#     4   9  17  25  35  49  69 105 136 171 221 252
#     4  10  20  33  51  73  96 122 148 185 230 263
#     4   9  15  23  34  47  63  86 130 181 215 252
#     4  10  17  26  36  51  81 108 139 173 202 253
#     4  10  17  32  51  68  95 119 148 186 222 259
#     4  10  20  28  45  69  88 121 153 183 220 256
#
# _framework density 16.100991
#
# number of rings (size 3 to 8) (size 9 to 14) (size 15 to 20)
#    0.000    2.133    1.333    3.600    0.000    4.267 
#    0.000    0.000    0.000    0.800    0.000    0.000 
#    0.000    0.000    0.000    0.000    0.000   13.333 
#
# Total GULP energy -371879.532718 kJ/mol
# GULP energy per Si atom -12395.984424 kJ/mol
# Density = 1.606434 g / cm^3
# Si number density = 16.100991 Si / 1000 Ang^3
#
#
#
# Elastic Constant Matrix: (Units=GPa)
#
#
# Indices 1 2 3 4 5 6 
#
# 1 108.3827 14.8656 30.1293 0.0000 -5.9170 0.0000
# 2 14.8656 93.0568 18.1519 0.0000 0.6920 0.0000
# 3 30.1293 18.1519 75.1390 0.0000 -5.4365 0.0000
# 4 0.0000 0.0000 0.0000 5.7901 0.0000 -0.9279
# 5 -5.9170 0.6920 -5.4365 0.0000 28.2477 0.0000
# 6 0.0000 0.0000 0.0000 -0.9279 0.0000 11.1724
#
#
#
# Elastic Compliance Matrix: (Units=1/GPa)
#
#
# Indices 1 2 3 4 5 6 
#
# 1 0.010515 -0.000933 -0.003884 0.000000 0.001478 0.000000
# 2 -0.000933 0.011379 -0.002443 0.000000 -0.000944 0.000000
# 3 -0.003884 -0.002443 0.015619 0.000000 0.002252 0.000000
# 4 0.000000 0.000000 0.000000 0.175039 0.000000 0.014538
# 5 0.001478 -0.000944 0.002252 0.000000 0.036167 0.000000
# 6 0.000000 0.000000 0.000000 0.014538 0.000000 0.090714
#
#
# Mechanical properties :
#
#
# Convention : Reuss Voigt Hill
#
# Bulk Modulus (GPa) = 43.49198 44.76355 44.12777
# Shear Modulus (GPa) = 13.82676 23.27082 18.54879
#
# Velocity S-wave (km/s) = 2.93363 3.80584 3.39784
# Velocity P-wave (km/s) = 6.20850 6.86838 6.54676
#
# Compressibility (1/GPa) = 0.02299274
#
# Stress axis : x y z
#
# Youngs Moduli (GPa) = 95.10290 87.88306 64.02384
#
# Poissons Ratio (x) = 0.08201 0.24866
# Poissons Ratio (y) = 0.08874 0.15641
# Poissons Ratio (z) = 0.36937 0.21470
#
# Static dielectric constant tensor:
#      x y z
#    x 3.404930 0.000000 -0.011240 
#    y 0.000000 3.031860 0.000000 
#    z -0.011240 0.000000 2.859480 
# 
# 
# High freq. dielectric constant tensor:
#      x y z
#    x 1.650410 0.000000 -0.001110 
#    y 0.000000 1.573580 0.000000 
#    z -0.001110 0.000000 1.594150 
# 
# From -- ./inp_files/13464.got.cif
#   From: 2010.06.25/outbox.cif.g09.slc.cpg/sg10_7_cif.got.tgz:13464.got - 2010.06.27 22:07:45.
