data_PCOD8057307
_publ_section_title
;
Structure prediction by ZEFSAII (Michael W. Deem and Ramdas Pophale) SiO2 
 PCOD8057307
Probable space group: P 2/M
;
_chemical_formula_sum "Si O2"
_cell_formula_units_Z 30
_cell_length_a 10.481968
_cell_length_b 17.067810
_cell_length_c 9.256903
_cell_angle_alpha 90.000000
_cell_angle_beta 79.650305
_cell_angle_gamma 90.000000
_cell_volume 1629.153759
_symmetry_space_group_name_H-M "P 2/M"
_symmetry_group_IT_number 10
_symmetry_cell_setting 'monoclinic'
loop_
_space_group_symop_operation_xyz
x,y,z
-x,y,-z
-x,-y,-z
x,-y,z
loop_
_atom_site_type_symbol
_atom_site_label
_atom_site_fract_x
_atom_site_fract_y
_atom_site_fract_z
Si Si1 0.232147 0.264849 0.959538
Si Si2 0.232827 0.412736 0.771202
Si Si3 0.848489 0.085047 0.545106
Si Si4 0.816848 0.195274 0.318042
Si Si5 0.248996 0.331713 0.495198
Si Si6 0.112846 0.233874 0.290409
Si Si7 0.461739 0.411491 0.274945
Si Si8 0.500000 0.313220 0.000000
O O1 0.189899 0.349431 0.901200
O O2 0.201446 0.195260 0.850794
O O3 0.385922 0.259508 0.958663
O O4 0.147926 0.248568 0.117318
O O5 0.186614 0.500000 0.827138
O O6 0.177086 0.391618 0.622570
O O7 0.387272 0.409166 0.721199
O O8 0.794701 0.110645 0.396600
O O9 0.817695 0.153028 0.669135
O O10 0.000000 0.073257 0.500000
O O11 0.786415 0.000000 0.599584
O O12 0.716449 0.256004 0.412527
O O13 0.959097 0.226384 0.337038
O O14 0.159433 0.307659 0.377229
O O15 0.383591 0.368530 0.416482
O O16 0.410294 0.500000 0.271680
O O17 0.431106 0.368171 0.131387
#
# Coordination Sequence:
#
# PCOD8057307 Si02
#       8
#     4   4   4   4   4   4   4   2
#     4  10  19  33  51  72 102 130 167 205 251 289
#     4   9  19  32  47  69  98 127 165 219 265 286
#     4   8  15  30  53  80 106 124 153 201 244 284
#     4   9  19  32  52  74 101 133 162 191 243 296
#     4  10  17  29  47  70  94 125 164 201 242 298
#     4  10  18  32  51  77 100 133 163 192 245 298
#     4  10  18  29  47  69  96 124 161 216 268 294
#     4  10  19  32  46  76  97 120 166 214 257 286
#
# _framework density 18.414466999999998
#
# number of rings (size 3 to 8) (size 9 to 14) (size 15 to 20)
#    0.000    2.533    1.333    2.600    0.000    1.600 
#    0.000    0.667    0.000   25.600    0.000    2.800 
#    0.000    0.000    0.000    0.000    0.000    0.000 
#
# Total GULP energy -371710.170809 kJ/mol
# GULP energy per Si atom -12390.339027 kJ/mol
# Density = 1.837256 g / cm^3
# Si number density = 18.414467 Si / 1000 Ang^3
#
#
#
# Elastic Constant Matrix: (Units=GPa)
#
#
# Indices 1 2 3 4 5 6 
#
# 1 28.8309 18.6713 5.5888 0.0000 9.1467 0.0000
# 2 18.6713 106.4933 44.5155 0.0000 4.8877 0.0000
# 3 5.5888 44.5155 119.0311 0.0000 11.5486 0.0000
# 4 0.0000 0.0000 0.0000 20.3211 0.0000 1.3640
# 5 9.1467 4.8877 11.5486 0.0000 29.7323 0.0000
# 6 0.0000 0.0000 0.0000 1.3640 0.0000 6.9395
#
#
#
# Elastic Compliance Matrix: (Units=1/GPa)
#
#
# Indices 1 2 3 4 5 6 
#
# 1 0.043510 -0.007948 0.002184 0.000000 -0.012927 0.000000
# 2 -0.007948 0.012584 -0.004540 0.000000 0.002140 0.000000
# 3 0.002184 -0.004540 0.010381 0.000000 -0.003957 0.000000
# 4 0.000000 0.000000 0.000000 0.049868 0.000000 -0.009802
# 5 -0.012927 0.002140 -0.003957 0.000000 0.038795 0.000000
# 6 0.000000 0.000000 0.000000 -0.009802 0.000000 0.146030
#
#
# Mechanical properties :
#
#
# Convention : Reuss Voigt Hill
#
# Bulk Modulus (GPa) = 21.80328 43.54514 32.67421
# Shear Modulus (GPa) = 14.83391 23.77056 19.30224
#
# Velocity S-wave (km/s) = 2.84131 3.59676 3.24112
# Velocity P-wave (km/s) = 4.75711 6.39902 5.63815
#
# Compressibility (1/GPa) = 0.04586466
#
# Stress axis : x y z
#
# Youngs Moduli (GPa) = 22.98317 79.46890 96.33307
#
# Poissons Ratio (x) = 0.63162 -0.21037
# Poissons Ratio (y) = 0.18267 0.43740
# Poissons Ratio (z) = -0.05019 0.36083
#
# Static dielectric constant tensor:
#      x y z
#    x 3.099120 0.000000 0.170790 
#    y 0.000000 3.612670 0.000000 
#    z 0.170790 0.000000 3.538730 
# 
# 
# High freq. dielectric constant tensor:
#      x y z
#    x 1.678740 0.000000 0.012910 
#    y 0.000000 1.691980 0.000000 
#    z 0.012910 0.000000 1.727370 
# 
# From -- ./inp_files/25680.got.cif
#   From: 2010.06.25/outbox.cif.g09.slc.cpg/sg10_13_cif.got.tgz:25680.got - 2010.06.27 22:07:45.
