data_PCOD8057439
_publ_section_title
;
Structure prediction by ZEFSAII (Michael W. Deem and Ramdas Pophale) SiO2 
 PCOD8057439
Probable space group: P 2/M
;
_chemical_formula_sum "Si O2"
_cell_formula_units_Z 26
_cell_length_a 12.600881
_cell_length_b 17.605058
_cell_length_c 11.155620
_cell_angle_alpha 90.000000
_cell_angle_beta 144.309507
_cell_angle_gamma 90.000000
_cell_volume 1443.787618
_symmetry_space_group_name_H-M "P 2/M"
_symmetry_group_IT_number 10
_symmetry_cell_setting 'monoclinic'
loop_
_space_group_symop_operation_xyz
x,y,z
-x,y,-z
-x,-y,-z
x,-y,z
loop_
_atom_site_type_symbol
_atom_site_label
_atom_site_fract_x
_atom_site_fract_y
_atom_site_fract_z
Si Si1 0.000000 0.148316 0.000000
Si Si2 0.372122 0.915836 0.267809
Si Si3 0.287190 0.585454 0.695139
Si Si4 0.215864 0.274504 0.294929
Si Si5 0.956331 0.413384 0.750852
Si Si6 0.432860 0.241894 0.251980
Si Si7 0.322098 0.634721 0.982867
O O1 0.839722 0.092922 0.894582
O O2 0.929005 0.205013 0.828433
O O3 0.500000 0.903611 0.500000
O O4 0.426322 0.849226 0.225114
O O5 0.402911 0.000000 0.241095
O O6 0.245360 0.500000 0.700110
O O7 0.143808 0.610256 0.463807
O O8 0.264350 0.639484 0.790294
O O9 0.491690 0.587675 0.830778
O O10 0.112830 0.355575 0.209928
O O11 0.310304 0.267039 0.252311
O O12 0.360565 0.268001 0.535077
O O13 0.909421 0.500000 0.746461
O O14 0.171145 0.405848 0.926195
O O15 0.356642 0.279925 0.061701
#
# Coordination Sequence:
#
# PCOD8057439 Si02
#       7
#     2   4   4   4   4   4   4
#     4  10  17  32  51  70 104 138 166 202 243 298
#     4  10  18  30  50  78 105 130 162 201 247 301
#     4  10  21  36  52  76 100 126 171 225 263 296
#     4  10  19  35  51  74 103 140 173 206 247 302
#     4  11  21  34  52  75 102 133 173 219 259 297
#     4  10  19  36  53  71 106 139 168 204 249 306
#     4  11  20  34  54  71  98 135 169 208 261 302
#
# _framework density 18.008188000000001
#
# number of rings (size 3 to 8) (size 9 to 14) (size 15 to 20)
#    0.000    1.692    4.615    4.385    0.000    1.231 
#    0.000    6.538    0.000    0.000    0.000    2.154 
#    0.000    2.769    0.000    0.000    0.000    0.000 
#
# Total GULP energy -322268.228689 kJ/mol
# GULP energy per Si atom -12394.931873 kJ/mol
# Density = 1.796720 g / cm^3
# Si number density = 18.008188 Si / 1000 Ang^3
#
#
#
# Elastic Constant Matrix: (Units=GPa)
#
#
# Indices 1 2 3 4 5 6 
#
# 1 48.0439 40.2686 22.1538 0.0000 8.7071 0.0000
# 2 40.2686 130.6226 24.4473 0.0000 -8.4801 0.0000
# 3 22.1538 24.4473 72.3862 0.0000 8.6600 0.0000
# 4 0.0000 0.0000 0.0000 -16.9657 0.0000 -23.5957
# 5 8.7071 -8.4801 8.6600 0.0000 29.8897 0.0000
# 6 0.0000 0.0000 0.0000 -23.5957 0.0000 7.9581
#
#
#
# Elastic Compliance Matrix: (Units=1/GPa)
#
#
# Indices 1 2 3 4 5 6 
#
# 1 0.033909 -0.010122 -0.005629 0.000000 -0.011119 0.000000
# 2 -0.010122 0.011506 -0.001587 0.000000 0.006673 0.000000
# 3 -0.005629 -0.001587 0.016503 0.000000 -0.003592 0.000000
# 4 0.000000 0.000000 0.000000 -0.011504 0.000000 -0.034109
# 5 -0.011119 0.006673 -0.003592 0.000000 0.039629 0.000000
# 6 0.000000 0.000000 0.000000 -0.034109 0.000000 0.024525
#
#
# Mechanical properties :
#
#
# Convention : Reuss Voigt Hill
#
# Bulk Modulus (GPa) = 36.70645 47.19913 41.95279
# Shear Modulus (GPa) = 31.58079 15.12195 23.35137
#
# Velocity S-wave (km/s) = 4.19225 2.90095 3.60489
# Velocity P-wave (km/s) = 6.62275 6.12269 6.37762
#
# Compressibility (1/GPa) = 0.02724317
#
# Stress axis : x y z
#
# Youngs Moduli (GPa) = 29.49091 86.91010 60.59458
#
# Poissons Ratio (x) = 0.87968 0.34109
# Poissons Ratio (y) = 0.29850 0.09614
# Poissons Ratio (z) = 0.16601 0.13789
#
# Static dielectric constant tensor:
#      x y z
#    x 3.031870 0.000000 0.279760 
#    y 0.000000 3.392020 0.000000 
#    z 0.279760 0.000000 3.639040 
# 
# 
# High freq. dielectric constant tensor:
#      x y z
#    x 1.655400 0.000000 0.028710 
#    y 0.000000 1.687530 0.000000 
#    z 0.028710 0.000000 1.716060 
# 
# From -- ./inp_files/47851.got.cif
#   From: 2010.06.25/outbox.cif.g09.slc.cpg/sg10_24_cif.got.tgz:47851.got - 2010.06.27 22:07:45.
