data_PCOD8057772
_publ_section_title
;
Structure prediction by ZEFSAII (Michael W. Deem and Ramdas Pophale) SiO2 
 PCOD8057772
Probable space group: P 2/M
;
_chemical_formula_sum "Si O2"
_cell_formula_units_Z 32
_cell_length_a 12.134794
_cell_length_b 8.859151
_cell_length_c 21.504655
_cell_angle_alpha 90.000000
_cell_angle_beta 128.271271
_cell_angle_gamma 90.000000
_cell_volume 1814.992352
_symmetry_space_group_name_H-M "P 2/M"
_symmetry_group_IT_number 10
_symmetry_cell_setting 'monoclinic'
loop_
_space_group_symop_operation_xyz
x,y,z
-x,y,-z
-x,-y,-z
x,-y,z
loop_
_atom_site_type_symbol
_atom_site_label
_atom_site_fract_x
_atom_site_fract_y
_atom_site_fract_z
Si Si1 0.223419 0.823594 0.657107
Si Si2 0.714068 0.179050 0.458332
Si Si3 0.875242 0.675945 0.731318
Si Si4 0.012480 0.677019 0.095787
Si Si5 0.531651 0.825575 0.779891
Si Si6 0.954997 0.179110 0.633808
Si Si7 0.430820 0.677432 0.336540
Si Si8 0.199603 0.824204 0.057349
O O1 0.230379 0.760396 0.589027
O O2 0.371246 0.787680 0.743331
O O3 0.094874 0.750831 0.650493
O O4 0.194368 0.000000 0.642857
O O5 0.819830 0.237162 0.548228
O O6 0.559703 0.245048 0.417837
O O7 0.701834 0.000000 0.453414
O O8 0.884467 0.500000 0.719999
O O9 0.961433 0.716707 0.823519
O O10 0.948797 0.765199 0.701825
O O11 0.713523 0.727249 0.680938
O O12 0.034191 0.500000 0.090399
O O13 0.119855 0.771764 0.091559
O O14 0.854871 0.728833 0.021166
O O15 0.578383 0.724749 0.738384
O O16 0.634303 0.793591 0.874088
O O17 0.542045 0.000000 0.762103
O O18 0.960505 0.000000 0.635739
O O19 0.451251 0.500000 0.346677
O O20 0.169678 0.000000 0.035337
#
# Coordination Sequence:
#
# PCOD8057772 Si02
#       8
#     4   4   4   4   4   4   4   4
#     4   8  15  31  53  75  97 124 159 201 248 292
#     4   9  18  33  52  75  99 122 156 208 256 291
#     4  10  22  36  48  66 100 137 166 199 239 286
#     4  10  19  32  48  68  99 137 164 191 234 290
#     4   9  17  30  51  76 103 127 153 200 251 289
#     4  10  20  33  53  74  93 127 170 204 241 293
#     4  10  19  32  49  70  97 132 167 197 239 293
#     4  10  18  28  48  79 104 123 154 200 245 284
#
# _framework density 17.630928999999998
#
# number of rings (size 3 to 8) (size 9 to 14) (size 15 to 20)
#    0.000    2.500    1.250    3.000    0.000    5.000 
#    0.000    5.000    0.000    4.500    0.000    5.250 
#    0.000    0.000    0.000    0.000    0.000    0.000 
#
# Total GULP energy -396697.184177 kJ/mol
# GULP energy per Si atom -12396.787006 kJ/mol
# Density = 1.759080 g / cm^3
# Si number density = 17.630929 Si / 1000 Ang^3
#
#
#
# Elastic Constant Matrix: (Units=GPa)
#
#
# Indices 1 2 3 4 5 6 
#
# 1 74.0066 20.2700 55.1559 0.0000 -1.0322 0.0000
# 2 20.2700 34.1478 26.4442 0.0000 2.1236 0.0000
# 3 55.1559 26.4442 133.1986 0.0000 12.2765 0.0000
# 4 0.0000 0.0000 0.0000 26.6415 0.0000 -2.6865
# 5 -1.0322 2.1236 12.2765 0.0000 22.7569 0.0000
# 6 0.0000 0.0000 0.0000 -2.6865 0.0000 5.1701
#
#
#
# Elastic Compliance Matrix: (Units=1/GPa)
#
#
# Indices 1 2 3 4 5 6 
#
# 1 0.021511 -0.006872 -0.008094 0.000000 0.005984 0.000000
# 2 -0.006872 0.036806 -0.004331 0.000000 -0.001410 0.000000
# 3 -0.008094 -0.004331 0.012329 0.000000 -0.006614 0.000000
# 4 0.000000 0.000000 0.000000 0.039611 0.000000 0.020583
# 5 0.005984 -0.001410 -0.006614 0.000000 0.047914 0.000000
# 6 0.000000 0.000000 0.000000 0.020583 0.000000 0.204116
#
#
# Mechanical properties :
#
#
# Convention : Reuss Voigt Hill
#
# Bulk Modulus (GPa) = 31.20232 49.45481 40.32856
# Shear Modulus (GPa) = 12.14874 20.21255 16.18064
#
# Velocity S-wave (km/s) = 2.62784 3.38956 3.03271
# Velocity P-wave (km/s) = 5.19069 6.59013 5.93182
#
# Compressibility (1/GPa) = 0.03204890
#
# Stress axis : x y z
#
# Youngs Moduli (GPa) = 46.48847 27.16957 81.11025
#
# Poissons Ratio (x) = 0.18672 0.65654
# Poissons Ratio (y) = 0.31949 0.35132
# Poissons Ratio (z) = 0.37630 0.11768
#
# Static dielectric constant tensor:
#      x y z
#    x 3.268670 0.000000 0.307970 
#    y 0.000000 3.106550 0.000000 
#    z 0.307970 0.000000 3.509240 
# 
# 
# High freq. dielectric constant tensor:
#      x y z
#    x 1.658770 0.000000 0.023000 
#    y 0.000000 1.669210 0.000000 
#    z 0.023000 0.000000 1.685930 
# 
# From -- ./inp_files/83376.got.cif
#   From: 2010.06.25/outbox.cif.g09.slc.cpg/sg10_42_cif.got.tgz:83376.got - 2010.06.27 22:07:45.
