data_PCOD8057898
_publ_section_title
;
Structure prediction by ZEFSAII (Michael W. Deem and Ramdas Pophale) SiO2 
 PCOD8057898
Probable space group: P 2/M
;
_chemical_formula_sum "Si O2"
_cell_formula_units_Z 28
_cell_length_a 22.396147
_cell_length_b 8.906448
_cell_length_c 18.094140
_cell_angle_alpha 90.000000
_cell_angle_beta 153.061638
_cell_angle_gamma 90.000000
_cell_volume 1635.100265
_symmetry_space_group_name_H-M "P 2/M"
_symmetry_group_IT_number 10
_symmetry_cell_setting 'monoclinic'
loop_
_space_group_symop_operation_xyz
x,y,z
-x,y,-z
-x,-y,-z
x,-y,z
loop_
_atom_site_type_symbol
_atom_site_label
_atom_site_fract_x
_atom_site_fract_y
_atom_site_fract_z
Si Si1 0.587011 0.821782 0.284770
Si Si2 0.337021 0.174293 0.186609
Si Si3 0.656608 0.330647 0.666094
Si Si4 0.388515 0.323512 0.542200
Si Si5 0.851476 0.821943 0.321202
Si Si6 0.362919 0.322208 0.811664
Si Si7 0.291129 0.825757 0.978334
O O1 0.664119 0.764985 0.443723
O O2 0.654349 0.750250 0.287787
O O3 0.597370 0.000000 0.292099
O O4 0.436927 0.759127 0.123857
O O5 0.272079 0.226317 0.192944
O O6 0.463970 0.274124 0.312678
O O7 0.376662 0.000000 0.234973
O O8 0.244346 0.203681 0.011893
O O9 0.500000 0.311760 0.500000
O O10 0.700317 0.500000 0.731046
O O11 0.697787 0.286192 0.627225
O O12 0.386356 0.500000 0.555873
O O13 0.757967 0.737071 0.274352
O O14 0.814562 0.764816 0.197429
O O15 0.000000 0.770754 0.500000
O O16 0.834363 0.000000 0.312611
O O17 0.356220 0.500000 0.797515
O O18 0.500000 0.269314 0.000000
O O19 0.306856 0.000000 0.981112
#
# Coordination Sequence:
#
# PCOD8057898 Si02
#       7
#     4   4   4   4   4   4   4
#     4  10  18  29  47  67  90 120 156 198 237 277
#     4   9  15  22  35  55  80 114 153 191 228 273
#     4   8  14  23  33  49  78 116 149 183 227 274
#     4   9  16  25  36  54  85 117 148 187 232 280
#     4  10  20  35  54  72  94 128 165 202 246 289
#     4  11  22  34  50  73  98 126 161 199 243 291
#     4   8  15  27  42  64  90 116 151 197 240 275
#
# _framework density 17.124331000000002
#
# number of rings (size 3 to 8) (size 9 to 14) (size 15 to 20)
#    0.000    2.714    1.429    3.429    0.000    4.000 
#    0.000    0.714    0.000    0.000    0.000    0.000 
#    0.000    1.143    0.000   13.143    0.000    5.714 
#
# Total GULP energy -346866.452515 kJ/mol
# GULP energy per Si atom -12388.087590 kJ/mol
# Density = 1.708536 g / cm^3
# Si number density = 17.124331 Si / 1000 Ang^3
#
#
#
# Elastic Constant Matrix: (Units=GPa)
#
#
# Indices 1 2 3 4 5 6 
#
# 1 135.6742 51.9360 66.8212 0.0000 -44.4019 0.0000
# 2 51.9360 58.8781 32.8807 0.0000 -11.2953 0.0000
# 3 66.8212 32.8807 66.2776 0.0000 -21.4631 0.0000
# 4 0.0000 0.0000 0.0000 11.3201 0.0000 -6.5535
# 5 -44.4019 -11.2953 -21.4631 0.0000 32.2308 0.0000
# 6 0.0000 0.0000 0.0000 -6.5535 0.0000 30.3725
#
#
#
# Elastic Compliance Matrix: (Units=1/GPa)
#
#
# Indices 1 2 3 4 5 6 
#
# 1 0.024986 -0.010689 -0.012691 0.000000 0.022225 0.000000
# 2 -0.010689 0.028075 -0.006035 0.000000 -0.008906 0.000000
# 3 -0.012691 -0.006035 0.031275 0.000000 0.001228 0.000000
# 4 0.000000 0.000000 0.000000 0.100949 0.000000 0.021782
# 5 0.022225 -0.008906 0.001228 0.000000 0.059340 0.000000
# 6 0.000000 0.000000 0.000000 0.021782 0.000000 0.037624
#
#
# Mechanical properties :
#
#
# Convention : Reuss Voigt Hill
#
# Bulk Modulus (GPa) = 39.20804 62.67842 50.94323
# Shear Modulus (GPa) = 14.30274 22.06414 18.18344
#
# Velocity S-wave (km/s) = 2.89317 3.59342 3.26214
# Velocity P-wave (km/s) = 5.84007 7.34155 6.63342
#
# Compressibility (1/GPa) = 0.02550497
#
# Stress axis : x y z
#
# Youngs Moduli (GPa) = 40.02164 35.61863 31.97419
#
# Poissons Ratio (x) = 0.38074 0.40579
# Poissons Ratio (y) = 0.42781 0.19298
# Poissons Ratio (z) = 0.50793 0.21497
#
# Static dielectric constant tensor:
#      x y z
#    x 3.621920 0.000000 -0.785190 
#    y 0.000000 3.146020 0.000000 
#    z -0.785190 0.000000 3.197420 
# 
# 
# High freq. dielectric constant tensor:
#      x y z
#    x 1.662320 0.000000 -0.055510 
#    y 0.000000 1.657870 0.000000 
#    z -0.055510 0.000000 1.605280 
# 
# From -- ./inp_files/56302.got.cif
#   From: 2010.06.25/outbox.cif.g09.slc.cpg/sg10_29_cif.got.tgz:56302.got - 2010.06.27 22:07:45.
