data_PCOD8057007
_publ_section_title
;
Structure prediction by ZEFSAII (Michael W. Deem and Ramdas Pophale) SiO2 
 PCOD8057007
Probable space group: P 2/M
;
_chemical_formula_sum "Si O2"
_cell_formula_units_Z 28
_cell_length_a 23.081850
_cell_length_b 8.819706
_cell_length_c 16.550610
_cell_angle_alpha 90.000000
_cell_angle_beta 31.104341
_cell_angle_gamma 90.000000
_cell_volume 1740.570499
_symmetry_space_group_name_H-M "P 2/M"
_symmetry_group_IT_number 10
_symmetry_cell_setting 'monoclinic'
loop_
_space_group_symop_operation_xyz
x,y,z
-x,y,-z
-x,-y,-z
x,-y,z
loop_
_atom_site_type_symbol
_atom_site_label
_atom_site_fract_x
_atom_site_fract_y
_atom_site_fract_z
Si Si1 0.559772 0.679432 0.169976
Si Si2 0.784631 0.323869 0.990652
Si Si3 0.584559 0.821423 0.969783
Si Si4 0.545719 0.179564 0.561663
Si Si5 0.049240 0.821024 0.317634
Si Si6 0.165387 0.179337 0.340532
Si Si7 0.342894 0.677604 0.705246
O O1 0.545525 0.500000 0.194626
O O2 0.546800 0.730898 0.093616
O O3 0.459050 0.761409 0.340384
O O4 0.679328 0.735603 0.062942
O O5 0.798003 0.500000 0.959100
O O6 0.900121 0.245323 0.825421
O O7 0.766011 0.289220 0.108544
O O8 0.583311 0.000000 0.990432
O O9 0.500000 0.777521 0.000000
O O10 0.708127 0.765867 0.793855
O O11 0.659505 0.231358 0.377673
O O12 0.447324 0.266270 0.632995
O O13 0.531723 0.000000 0.574433
O O14 0.124181 0.759550 0.302851
O O15 0.920487 0.765414 0.486378
O O16 0.054680 0.000000 0.304493
O O17 0.158975 0.000000 0.345121
O O18 0.354812 0.500000 0.673468
#
# Coordination Sequence:
#
# PCOD8057007 Si02
#       7
#     4   4   4   4   4   4   4
#     4  10  19  30  42  57  82 114 143 174 215 258
#     4   9  17  26  38  59  85 111 141 173 206 246
#     4  10  19  31  47  64  83 108 143 185 218 248
#     4  10  17  25  39  58  79 107 145 179 205 245
#     4   9  15  25  43  59  80 111 141 173 206 252
#     4   8  15  27  41  61  82 106 139 174 216 252
#     4   9  16  26  37  54  84 115 139 168 210 254
#
# _framework density 16.086679
#
# number of rings (size 3 to 8) (size 9 to 14) (size 15 to 20)
#    0.000    2.714    1.429    4.714    0.000    3.143 
#    0.000    2.143    0.000    0.000    0.000    0.000 
#    0.000    1.143    0.000   13.143    0.000    3.571 
#
# Total GULP energy -346925.179898 kJ/mol
# GULP energy per Si atom -12390.184996 kJ/mol
# Density = 1.605006 g / cm^3
# Si number density = 16.086679 Si / 1000 Ang^3
#
#
#
# Elastic Constant Matrix: (Units=GPa)
#
#
# Indices 1 2 3 4 5 6 
#
# 1 50.5285 17.5007 52.9964 0.0000 9.4190 0.0000
# 2 17.5007 26.8656 33.0232 0.0000 11.0438 0.0000
# 3 52.9964 33.0232 140.1906 0.0000 28.5093 0.0000
# 4 0.0000 0.0000 0.0000 23.6525 0.0000 10.8338
# 5 9.4190 11.0438 28.5093 0.0000 26.7713 0.0000
# 6 0.0000 0.0000 0.0000 10.8338 0.0000 15.6760
#
#
#
# Elastic Compliance Matrix: (Units=1/GPa)
#
#
# Indices 1 2 3 4 5 6 
#
# 1 0.034645 -0.010087 -0.011600 0.000000 0.004325 0.000000
# 2 -0.010087 0.057902 -0.007263 0.000000 -0.012602 0.000000
# 3 -0.011600 -0.007263 0.015049 0.000000 -0.008948 0.000000
# 4 0.000000 0.000000 0.000000 0.061861 0.000000 -0.042753
# 5 0.004325 -0.012602 -0.008948 0.000000 0.050560 0.000000
# 6 0.000000 0.000000 0.000000 -0.042753 0.000000 0.093339
#
#
# Mechanical properties :
#
#
# Convention : Reuss Voigt Hill
#
# Bulk Modulus (GPa) = 20.12312 47.18059 33.65186
# Shear Modulus (GPa) = 12.89250 20.82427 16.85839
#
# Velocity S-wave (km/s) = 2.83404 3.60182 3.24075
# Velocity P-wave (km/s) = 4.82135 6.83302 5.91336
#
# Compressibility (1/GPa) = 0.04969409
#
# Stress axis : x y z
#
# Youngs Moduli (GPa) = 28.86397 17.27070 66.44890
#
# Poissons Ratio (x) = 0.17421 0.77084
# Poissons Ratio (y) = 0.29116 0.48263
# Poissons Ratio (z) = 0.33484 0.12544
#
# Static dielectric constant tensor:
#      x y z
#    x 2.765150 0.000000 0.452370 
#    y 0.000000 2.877450 0.000000 
#    z 0.452370 0.000000 3.757820 
# 
# 
# High freq. dielectric constant tensor:
#      x y z
#    x 1.554570 0.000000 0.040890 
#    y 0.000000 1.612440 0.000000 
#    z 0.040890 0.000000 1.627430 
# 
# From -- ./inp_files/79842.got.cif
#   From: 2010.06.25/outbox.cif.g09.slc.cpg/sg10_40_cif.got.tgz:79842.got - 2010.06.27 22:07:45.
