data_PCOD8057254
_publ_section_title
;
Structure prediction by ZEFSAII (Michael W. Deem and Ramdas Pophale) SiO2 
 PCOD8057254
Probable space group: P 2/M
;
_chemical_formula_sum "Si O2"
_cell_formula_units_Z 32
_cell_length_a 23.794225
_cell_length_b 8.859822
_cell_length_c 17.622431
_cell_angle_alpha 90.000000
_cell_angle_beta 30.391321
_cell_angle_gamma 90.000000
_cell_volume 1879.445455
_symmetry_space_group_name_H-M "P 2/M"
_symmetry_group_IT_number 10
_symmetry_cell_setting 'monoclinic'
loop_
_space_group_symop_operation_xyz
x,y,z
-x,y,-z
-x,-y,-z
x,-y,z
loop_
_atom_site_type_symbol
_atom_site_label
_atom_site_fract_x
_atom_site_fract_y
_atom_site_fract_z
Si Si1 0.866357 0.821376 0.047146
Si Si2 0.159627 0.824004 0.182038
Si Si3 0.234880 0.677888 0.690979
Si Si4 0.464907 0.827476 0.454128
Si Si5 0.869701 0.666850 0.636598
Si Si6 0.930476 0.321335 0.404473
Si Si7 0.307241 0.822777 0.873610
Si Si8 0.891482 0.822037 0.294329
O O1 0.847370 0.744935 0.150150
O O2 0.776939 0.755767 0.091286
O O3 0.855538 0.000000 0.070552
O O4 0.987245 0.775556 0.876682
O O5 0.188308 0.778787 0.235520
O O6 0.056020 0.733990 0.269377
O O7 0.130718 0.000000 0.211209
O O8 0.265959 0.782934 0.006344
O O9 0.221814 0.500000 0.704848
O O10 0.361474 0.720476 0.559979
O O11 0.201776 0.745230 0.648425
O O12 0.500000 0.817873 0.500000
O O13 0.567493 0.763341 0.284159
O O14 0.433941 0.000000 0.468759
O O15 0.818721 0.500000 0.707657
O O16 0.855248 0.720438 0.566177
O O17 0.000000 0.662240 0.500000
O O18 0.933600 0.500000 0.388306
O O19 0.874162 0.239114 0.399374
O O20 0.308195 0.000000 0.858366
O O21 0.874192 0.000000 0.314099
#
# Coordination Sequence:
#
# PCOD8057254 Si02
#       8
#     4   4   4   4   4   4   4   4
#     4  10  19  36  55  73  99 134 173 208 248 299
#     4  10  17  28  47  74 103 132 170 211 247 293
#     4  12  25  37  50  74 105 132 169 214 256 299
#     4  10  19  36  59  73  92 132 175 211 254 301
#     4   8  16  29  43  65 100 139 168 196 244 303
#     4  10  19  31  47  70 104 138 166 202 252 301
#     4   9  17  31  52  77 100 128 170 214 253 293
#     4  11  22  36  55  75  99 134 176 210 245 301
#
# _framework density 17.026299000000002
#
# number of rings (size 3 to 8) (size 9 to 14) (size 15 to 20)
#    0.000    2.000    2.500    3.375    0.000    5.500 
#    0.000    1.250    0.000    0.000    0.000    0.875 
#    0.000    7.000    0.000    0.000    0.000    0.000 
#
# Total GULP energy -396764.809241 kJ/mol
# GULP energy per Si atom -12398.900289 kJ/mol
# Density = 1.698755 g / cm^3
# Si number density = 17.026299 Si / 1000 Ang^3
#
#
#
# Elastic Constant Matrix: (Units=GPa)
#
#
# Indices 1 2 3 4 5 6 
#
# 1 96.3583 32.0129 38.0425 0.0000 16.5544 0.0000
# 2 32.0129 58.6624 25.6643 0.0000 3.8386 0.0000
# 3 38.0425 25.6643 66.6509 0.0000 17.0041 0.0000
# 4 0.0000 0.0000 0.0000 10.5930 0.0000 5.1979
# 5 16.5544 3.8386 17.0041 0.0000 26.2517 0.0000
# 6 0.0000 0.0000 0.0000 5.1979 0.0000 26.7498
#
#
#
# Elastic Compliance Matrix: (Units=1/GPa)
#
#
# Indices 1 2 3 4 5 6 
#
# 1 0.015230 -0.005725 -0.005094 0.000000 -0.005468 0.000000
# 2 -0.005725 0.022794 -0.006685 0.000000 0.004607 0.000000
# 3 -0.005094 -0.006685 0.023260 0.000000 -0.010877 0.000000
# 4 0.000000 0.000000 0.000000 0.104352 0.000000 -0.020277
# 5 -0.005468 0.004607 -0.010877 0.000000 0.047912 0.000000
# 6 0.000000 0.000000 0.000000 -0.020277 0.000000 0.041324
#
#
# Mechanical properties :
#
#
# Convention : Reuss Voigt Hill
#
# Bulk Modulus (GPa) = 38.05570 45.90121 41.97846
# Shear Modulus (GPa) = 16.74270 21.11569 18.92919
#
# Velocity S-wave (km/s) = 3.13923 3.52544 3.33793
# Velocity P-wave (km/s) = 5.96149 6.60221 6.29001
#
# Compressibility (1/GPa) = 0.02627728
#
# Stress axis : x y z
#
# Youngs Moduli (GPa) = 65.65834 43.87110 42.99301
#
# Poissons Ratio (x) = 0.25117 0.21899
# Poissons Ratio (y) = 0.37591 0.28739
# Poissons Ratio (z) = 0.33443 0.29326
#
# Static dielectric constant tensor:
#      x y z
#    x 3.282260 0.000000 0.296230 
#    y 0.000000 3.116050 0.000000 
#    z 0.296230 0.000000 3.301170 
# 
# 
# High freq. dielectric constant tensor:
#      x y z
#    x 1.645010 0.000000 0.024950 
#    y 0.000000 1.650320 0.000000 
#    z 0.024950 0.000000 1.640510 
# 
# From -- ./inp_files/56463.got.cif
#   From: 2010.06.25/outbox.cif.g09.slc.cpg/sg10_29_cif.got.tgz:56463.got - 2010.06.27 22:07:45.
