data_PCOD8057771
_publ_section_title
;
Structure prediction by ZEFSAII (Michael W. Deem and Ramdas Pophale) SiO2 
 PCOD8057771
Probable space group: P 2/M
;
_chemical_formula_sum "Si O2"
_cell_formula_units_Z 32
_cell_length_a 19.884778
_cell_length_b 9.298700
_cell_length_c 24.749379
_cell_angle_alpha 90.000000
_cell_angle_beta 23.323500
_cell_angle_gamma 90.000000
_cell_volume 1811.828610
_symmetry_space_group_name_H-M "P 2/M"
_symmetry_group_IT_number 10
_symmetry_cell_setting 'monoclinic'
loop_
_space_group_symop_operation_xyz
x,y,z
-x,y,-z
-x,-y,-z
x,-y,z
loop_
_atom_site_type_symbol
_atom_site_label
_atom_site_fract_x
_atom_site_fract_y
_atom_site_fract_z
Si Si1 0.941208 0.335361 0.927127
Si Si2 0.547878 0.665703 0.813725
Si Si3 0.845726 0.840802 0.155728
Si Si4 0.650510 0.832197 0.200596
Si Si5 0.050432 0.829694 0.300644
Si Si6 0.164618 0.665069 0.112796
Si Si7 0.316356 0.832900 0.386751
Si Si8 0.331107 0.334506 0.156265
O O1 0.931382 0.500000 0.952985
O O2 0.950373 0.321347 0.855800
O O3 0.113020 0.266733 0.825549
O O4 0.771912 0.257387 0.071971
O O5 0.546109 0.500000 0.797666
O O6 0.649935 0.751641 0.693600
O O7 0.645060 0.690155 0.797984
O O8 0.354866 0.721675 0.960914
O O9 0.681582 0.792648 0.241185
O O10 0.818830 0.000000 0.200107
O O11 0.000000 0.839923 0.000000
O O12 0.457540 0.795264 0.327761
O O13 0.694130 0.000000 0.159426
O O14 0.862603 0.783941 0.457204
O O15 0.080575 0.764024 0.219656
O O16 0.179052 0.766455 0.249616
O O17 0.073509 0.000000 0.280517
O O18 0.173080 0.500000 0.127057
O O19 0.317843 0.000000 0.371410
O O20 0.287268 0.500000 0.175229
O O21 0.500000 0.287889 0.000000
#
# Coordination Sequence:
#
# PCOD8057771 Si02
#       8
#     4   4   4   4   4   4   4   4
#     4  10  18  28  48  78 107 132 169 222 266 304
#     4  10  20  36  59  82 103 137 182 218 259 316
#     4   8  15  27  44  70 103 138 174 210 255 311
#     4   9  17  31  50  71 103 144 176 208 257 312
#     4  11  24  38  55  81 109 139 177 219 267 319
#     4  10  20  36  55  78 108 140 178 221 263 313
#     4  10  22  38  54  78 112 143 175 220 266 310
#     4  10  20  38  60  79 106 140 175 219 263 312
#
# _framework density 17.661714
#
# number of rings (size 3 to 8) (size 9 to 14) (size 15 to 20)
#    0.000    2.250    2.500    1.500    0.000    6.000 
#    0.000    2.500    0.000    0.750    0.000    5.250 
#    0.000    0.000    0.000    0.000    0.000    0.000 
#
# Total GULP energy -396797.313129 kJ/mol
# GULP energy per Si atom -12399.916035 kJ/mol
# Density = 1.762151 g / cm^3
# Si number density = 17.661714 Si / 1000 Ang^3
#
#
#
# Elastic Constant Matrix: (Units=GPa)
#
#
# Indices 1 2 3 4 5 6 
#
# 1 125.1250 57.3534 64.3984 0.0000 -11.6733 0.0000
# 2 57.3534 79.4517 57.2682 0.0000 -0.8980 0.0000
# 3 64.3984 57.2682 110.5175 0.0000 -3.3288 0.0000
# 4 0.0000 0.0000 0.0000 22.9347 0.0000 1.3011
# 5 -11.6733 -0.8980 -3.3288 0.0000 23.0827 0.0000
# 6 0.0000 0.0000 0.0000 1.3011 0.0000 36.6847
#
#
#
# Elastic Compliance Matrix: (Units=1/GPa)
#
#
# Indices 1 2 3 4 5 6 
#
# 1 0.013971 -0.006834 -0.004414 0.000000 0.006163 0.000000
# 2 -0.006834 0.023445 -0.008279 0.000000 -0.003738 0.000000
# 3 -0.004414 -0.008279 0.015903 0.000000 -0.000261 0.000000
# 4 0.000000 0.000000 0.000000 0.043690 0.000000 -0.001550
# 5 0.006163 -0.003738 -0.000261 0.000000 0.046256 0.000000
# 6 0.000000 0.000000 0.000000 -0.001550 0.000000 0.027314
#
#
# Mechanical properties :
#
#
# Convention : Reuss Voigt Hill
#
# Bulk Modulus (GPa) = 70.10545 74.79268 72.44906
# Shear Modulus (GPa) = 23.32216 25.61205 24.46710
#
# Velocity S-wave (km/s) = 3.63780 3.81221 3.72602
# Velocity P-wave (km/s) = 7.57789 7.86235 7.72143
#
# Compressibility (1/GPa) = 0.01426423
#
# Stress axis : x y z
#
# Youngs Moduli (GPa) = 71.57501 42.65341 62.88259
#
# Poissons Ratio (x) = 0.29150 0.27757
# Poissons Ratio (y) = 0.48915 0.52061
# Poissons Ratio (z) = 0.31594 0.35313
#
# Static dielectric constant tensor:
#      x y z
#    x 3.546080 0.000000 -0.264570 
#    y 0.000000 3.286100 0.000000 
#    z -0.264570 0.000000 3.099290 
# 
# 
# High freq. dielectric constant tensor:
#      x y z
#    x 1.698900 0.000000 -0.016180 
#    y 0.000000 1.683010 0.000000 
#    z -0.016180 0.000000 1.650290 
# 
# From -- ./inp_files/93672.got.cif
#   From: 2010.06.25/outbox.cif.g09.slc.cpg/sg10_47_cif.got.tgz:93672.got - 2010.06.27 22:07:45.
