data_PCOD8057324
_publ_section_title
;
Structure prediction by ZEFSAII (Michael W. Deem and Ramdas Pophale) SiO2 
 PCOD8057324
Probable space group: P 2/M
;
_chemical_formula_sum "Si O2"
_cell_formula_units_Z 32
_cell_length_a 15.405398
_cell_length_b 9.697525
_cell_length_c 27.071278
_cell_angle_alpha 90.000000
_cell_angle_beta 152.911668
_cell_angle_gamma 90.000000
_cell_volume 1841.623767
_symmetry_space_group_name_H-M "P 2/M"
_symmetry_group_IT_number 10
_symmetry_cell_setting 'monoclinic'
loop_
_space_group_symop_operation_xyz
x,y,z
-x,y,-z
-x,-y,-z
x,-y,z
loop_
_atom_site_type_symbol
_atom_site_label
_atom_site_fract_x
_atom_site_fract_y
_atom_site_fract_z
Si Si1 0.393494 0.661658 0.138157
Si Si2 0.037643 0.836653 0.926632
Si Si3 0.709901 0.351797 0.584771
Si Si4 0.746190 0.164014 0.323403
Si Si5 0.277841 0.347583 0.190638
Si Si6 0.159048 0.846254 0.521524
Si Si7 0.805776 0.151782 0.713795
Si Si8 0.551466 0.754467 0.409083
O O1 0.393348 0.500000 0.122078
O O2 0.583917 0.740344 0.216530
O O3 0.376434 0.676607 0.188345
O O4 0.225815 0.746587 0.027027
O O5 0.877786 0.772988 0.882065
O O6 0.969691 0.814047 0.836081
O O7 0.064594 0.000000 0.952549
O O8 0.500000 0.353363 0.500000
O O9 0.808671 0.500000 0.641564
O O10 0.833633 0.246510 0.679830
O O11 0.694945 0.322925 0.518890
O O12 0.753959 0.217083 0.384426
O O13 0.947909 0.210529 0.400385
O O14 0.696945 0.000000 0.292126
O O15 0.180858 0.500000 0.143276
O O16 0.436007 0.346888 0.314232
O O17 0.309410 0.847053 0.553347
O O18 0.112506 0.000000 0.514110
O O19 0.598660 0.157597 0.635155
O O20 0.830378 0.000000 0.704892
#
# Coordination Sequence:
#
# PCOD8057324 Si02
#       8
#     4   4   4   4   4   4   4   4
#     4  11  21  33  48  69  95 129 166 202 244 284
#     4  10  21  34  49  69  92 125 165 204 245 289
#     4   9  18  30  46  68  96 130 162 192 235 288
#     4   9  18  33  50  69  96 129 167 206 241 281
#     4  10  20  32  45  67  99 131 162 198 237 284
#     4   9  17  30  49  72  97 129 166 203 242 282
#     4   9  19  32  47  70  98 125 159 202 242 284
#     4  10  17  29  49  72 101 131 163 195 237 287
#
# _framework density 17.375972000000001
#
# number of rings (size 3 to 8) (size 9 to 14) (size 15 to 20)
#    0.000    2.375    1.250    2.625    0.000    9.250 
#    0.000    2.500    0.000    0.000    0.000    0.875 
#    0.000    6.000    0.000    0.000    0.000    0.000 
#
# Total GULP energy -396446.568345 kJ/mol
# GULP energy per Si atom -12388.955261 kJ/mol
# Density = 1.733642 g / cm^3
# Si number density = 17.375972 Si / 1000 Ang^3
#
#
#
# Elastic Constant Matrix: (Units=GPa)
#
#
# Indices 1 2 3 4 5 6 
#
# 1 39.7498 15.8122 32.6006 0.0000 -1.8378 0.0000
# 2 15.8122 115.3372 60.0033 0.0000 -0.4342 0.0000
# 3 32.6006 60.0033 96.9086 0.0000 5.1632 0.0000
# 4 0.0000 0.0000 0.0000 25.3649 0.0000 -3.9835
# 5 -1.8378 -0.4342 5.1632 0.0000 23.3991 0.0000
# 6 0.0000 0.0000 0.0000 -3.9835 0.0000 13.9267
#
#
#
# Elastic Compliance Matrix: (Units=1/GPa)
#
#
# Indices 1 2 3 4 5 6 
#
# 1 0.035821 0.002277 -0.013775 0.000000 0.005895 0.000000
# 2 0.002277 0.013029 -0.008961 0.000000 0.002398 0.000000
# 3 -0.013775 -0.008961 0.020813 0.000000 -0.005841 0.000000
# 4 0.000000 0.000000 0.000000 0.041279 0.000000 0.011807
# 5 0.005895 0.002398 -0.005841 0.000000 0.044533 0.000000
# 6 0.000000 0.000000 0.000000 0.011807 0.000000 0.075182
#
#
# Mechanical properties :
#
#
# Convention : Reuss Voigt Hill
#
# Bulk Modulus (GPa) = 34.78736 52.09198 43.43967
# Shear Modulus (GPa) = 17.78377 22.11010 19.94694
#
# Velocity S-wave (km/s) = 3.20264 3.57102 3.39183
# Velocity P-wave (km/s) = 5.80859 6.85910 6.35559
#
# Compressibility (1/GPa) = 0.02874607
#
# Stress axis : x y z
#
# Youngs Moduli (GPa) = 27.91637 76.75190 48.04783
#
# Poissons Ratio (x) = -0.17480 0.66185
# Poissons Ratio (y) = -0.06358 0.43056
# Poissons Ratio (z) = 0.38454 0.68778
#
# Static dielectric constant tensor:
#      x y z
#    x 2.969530 0.000000 -0.121000 
#    y 0.000000 3.330790 0.000000 
#    z -0.121000 0.000000 3.270900 
# 
# 
# High freq. dielectric constant tensor:
#      x y z
#    x 1.632340 0.000000 -0.009740 
#    y 0.000000 1.672900 0.000000 
#    z -0.009740 0.000000 1.663980 
# 
# From -- ./inp_files/66545.got.cif
#   From: 2010.06.25/outbox.cif.g09.slc.cpg/sg10_34_cif.got.tgz:66545.got - 2010.06.27 22:07:45.
