data_PCOD8057983
_publ_section_title
;
Structure prediction by ZEFSAII (Michael W. Deem and Ramdas Pophale) SiO2 
 PCOD8057983
Probable space group: P 2/M
;
_chemical_formula_sum "Si O2"
_cell_formula_units_Z 32
_cell_length_a 11.195658
_cell_length_b 9.448552
_cell_length_c 22.035077
_cell_angle_alpha 90.000000
_cell_angle_beta 131.699933
_cell_angle_gamma 90.000000
_cell_volume 1740.364041
_symmetry_space_group_name_H-M "P 2/M"
_symmetry_group_IT_number 10
_symmetry_cell_setting 'monoclinic'
loop_
_space_group_symop_operation_xyz
x,y,z
-x,y,-z
-x,-y,-z
x,-y,z
loop_
_atom_site_type_symbol
_atom_site_label
_atom_site_fract_x
_atom_site_fract_y
_atom_site_fract_z
Si Si1 0.322856 0.666759 0.960221
Si Si2 0.115757 0.164906 0.486822
Si Si3 0.966318 0.837272 0.313644
Si Si4 0.028453 0.837018 0.818315
Si Si5 0.686917 0.338827 0.256935
Si Si6 0.750961 0.833840 0.812294
Si Si7 0.400697 0.163611 0.660556
Si Si8 0.326864 0.659593 0.099626
O O1 0.305923 0.500000 0.942520
O O2 0.191155 0.748117 0.876521
O O3 0.500000 0.717176 0.000000
O O4 0.284368 0.705732 0.017155
O O5 0.304144 0.193344 0.565298
O O6 0.000000 0.231901 0.500000
O O7 0.077717 0.223212 0.406167
O O8 0.080228 0.000000 0.473379
O O9 0.048752 0.823216 0.275343
O O10 0.809093 0.741392 0.254738
O O11 0.917671 0.000000 0.309259
O O12 0.897021 0.778012 0.821030
O O13 0.069048 0.000000 0.846542
O O14 0.740481 0.500000 0.285276
O O15 0.689811 0.259121 0.321624
O O16 0.516784 0.329333 0.167569
O O17 0.587696 0.794753 0.720595
O O18 0.759300 0.759931 0.880730
O O19 0.762007 0.000000 0.827639
O O20 0.382587 0.000000 0.673894
O O21 0.269465 0.500000 0.093741
#
# Coordination Sequence:
#
# PCOD8057983 Si02
#       8
#     4   4   4   4   4   4   4   4
#     4  10  21  38  58  79 105 133 165 207 254 304
#     4   9  15  26  48  76 101 128 168 209 248 300
#     4  10  19  32  49  70 101 137 169 204 252 307
#     4  10  22  37  52  74 104 136 171 211 253 298
#     4  10  18  29  48  75 104 129 161 207 255 302
#     4   9  19  35  53  74 102 136 174 212 248 291
#     4   9  16  30  51  72  99 135 169 203 249 300
#     4   9  19  34  53  77 101 131 170 209 249 297
#
# _framework density 18.386958
#
# number of rings (size 3 to 8) (size 9 to 14) (size 15 to 20)
#    0.000    2.500    1.250    1.125    0.000    3.750 
#    0.000    4.375    0.000    3.750    0.000    0.000 
#    0.000    6.000    0.000    0.000    0.000    0.000 
#
# Total GULP energy -396622.267576 kJ/mol
# GULP energy per Si atom -12394.445862 kJ/mol
# Density = 1.834511 g / cm^3
# Si number density = 18.386958 Si / 1000 Ang^3
#
#
#
# Elastic Constant Matrix: (Units=GPa)
#
#
# Indices 1 2 3 4 5 6 
#
# 1 99.8911 32.0737 42.6205 0.0000 -5.5884 0.0000
# 2 32.0737 51.0137 26.0588 0.0000 -3.3160 0.0000
# 3 42.6205 26.0588 106.4537 0.0000 -12.6921 0.0000
# 4 0.0000 0.0000 0.0000 16.9834 0.0000 2.5736
# 5 -5.5884 -3.3160 -12.6921 0.0000 22.5037 0.0000
# 6 0.0000 0.0000 0.0000 2.5736 0.0000 19.3014
#
#
#
# Elastic Compliance Matrix: (Units=1/GPa)
#
#
# Indices 1 2 3 4 5 6 
#
# 1 0.013826 -0.006702 -0.003863 0.000000 0.000267 0.000000
# 2 -0.006702 0.025654 -0.003585 0.000000 0.000094 0.000000
# 3 -0.003863 -0.003585 0.012480 0.000000 0.005551 0.000000
# 4 0.000000 0.000000 0.000000 0.060095 0.000000 -0.008013
# 5 0.000267 0.000094 0.005551 0.000000 0.047648 0.000000
# 6 0.000000 0.000000 0.000000 -0.008013 0.000000 0.052878
#
#
# Mechanical properties :
#
#
# Convention : Reuss Voigt Hill
#
# Bulk Modulus (GPa) = 42.26749 50.98494 46.62621
# Shear Modulus (GPa) = 20.09900 22.19807 21.14853
#
# Velocity S-wave (km/s) = 3.30981 3.47835 3.39513
# Velocity P-wave (km/s) = 6.13548 6.62729 6.38612
#
# Compressibility (1/GPa) = 0.02365885
#
# Stress axis : x y z
#
# Youngs Moduli (GPa) = 72.32723 38.98038 80.12911
#
# Poissons Ratio (x) = 0.26125 0.30954
# Poissons Ratio (y) = 0.48475 0.28729
# Poissons Ratio (z) = 0.27940 0.13976
#
# Static dielectric constant tensor:
#      x y z
#    x 3.296240 0.000000 -0.050290 
#    y 0.000000 3.260950 0.000000 
#    z -0.050290 0.000000 3.529740 
# 
# 
# High freq. dielectric constant tensor:
#      x y z
#    x 1.695380 0.000000 -0.004230 
#    y 0.000000 1.693100 0.000000 
#    z -0.004230 0.000000 1.719450 
# 
# From -- ./inp_files/55205.got.cif
#   From: 2010.06.25/outbox.cif.g09.slc.cpg/sg10_28_cif.got.tgz:55205.got - 2010.06.27 22:07:45.
