data_PCOD8057727
_publ_section_title
;
Structure prediction by ZEFSAII (Michael W. Deem and Ramdas Pophale) SiO2 
 PCOD8057727
Probable space group: P 2/M
;
_chemical_formula_sum "Si O2"
_cell_formula_units_Z 32
_cell_length_a 28.982557
_cell_length_b 8.808845
_cell_length_c 13.591462
_cell_angle_alpha 90.000000
_cell_angle_beta 35.322129
_cell_angle_gamma 90.000000
_cell_volume 2006.224333
_symmetry_space_group_name_H-M "P 2/M"
_symmetry_group_IT_number 10
_symmetry_cell_setting 'monoclinic'
loop_
_space_group_symop_operation_xyz
x,y,z
-x,y,-z
-x,-y,-z
x,-y,z
loop_
_atom_site_type_symbol
_atom_site_label
_atom_site_fract_x
_atom_site_fract_y
_atom_site_fract_z
Si Si1 0.168413 0.179815 0.095529
Si Si2 0.556110 0.820194 0.601376
Si Si3 0.993482 0.167374 0.394758
Si Si4 0.685183 0.674079 0.260202
Si Si5 0.594165 0.325389 0.218703
Si Si6 0.316331 0.178769 0.110194
Si Si7 0.527957 0.820476 0.054744
Si Si8 0.835638 0.677681 0.683548
O O1 0.080387 0.221845 0.205372
O O2 0.180387 0.249067 0.182546
O O3 0.178527 0.000000 0.087653
O O4 0.231075 0.247035 0.909688
O O5 0.644893 0.759544 0.423194
O O6 0.495215 0.738820 0.632417
O O7 0.533220 0.772269 0.752657
O O8 0.550918 0.000000 0.595579
O O9 0.000000 0.159790 0.500000
O O10 0.922435 0.280790 0.487677
O O11 0.972754 0.000000 0.389393
O O12 0.701734 0.500000 0.258920
O O13 0.623539 0.689545 0.278383
O O14 0.596731 0.500000 0.178536
O O15 0.652197 0.222842 0.052156
O O16 0.231847 0.262332 0.274854
O O17 0.302702 0.000000 0.138870
O O18 0.381957 0.233785 0.076165
O O19 0.528510 0.000000 0.044716
O O20 0.500000 0.746431 0.000000
O O21 0.828450 0.500000 0.708556
#
# Coordination Sequence:
#
# PCOD8057727 Si02
#       8
#     4   4   4   4   4   4   4   4
#     4  10  19  30  44  60  84 118 156 190 219 255
#     4  10  20  31  46  65  84 113 148 183 221 263
#     4   8  16  29  42  58  81 114 152 189 221 252
#     4  11  21  30  42  61  89 121 150 184 218 255
#     4  10  19  30  42  59  86 117 148 183 219 254
#     4  10  18  28  46  67  87 116 150 186 223 263
#     4   8  16  32  51  69  87 109 143 186 229 267
#     4  11  19  27  41  62  89 119 150 186 220 259
#
# _framework density 15.95036
#
# number of rings (size 3 to 8) (size 9 to 14) (size 15 to 20)
#    0.000    2.250    1.250    4.875    0.000    5.750 
#    0.000    0.000    0.000   13.500    0.000    0.000 
#    0.000    1.000    0.000   11.500    0.000    3.250 
#
# Total GULP energy -396676.676940 kJ/mol
# GULP energy per Si atom -12396.146154 kJ/mol
# Density = 1.591406 g / cm^3
# Si number density = 15.950360 Si / 1000 Ang^3
#
#
#
# Elastic Constant Matrix: (Units=GPa)
#
#
# Indices 1 2 3 4 5 6 
#
# 1 65.2571 31.3641 49.2195 0.0000 -10.1245 0.0000
# 2 31.3641 72.5956 44.4368 0.0000 -11.1772 0.0000
# 3 49.2195 44.4368 124.7794 0.0000 -23.3461 0.0000
# 4 0.0000 0.0000 0.0000 21.9462 0.0000 -4.3407
# 5 -10.1245 -11.1772 -23.3461 0.0000 18.3108 0.0000
# 6 0.0000 0.0000 0.0000 -4.3407 0.0000 6.2983
#
#
#
# Elastic Compliance Matrix: (Units=1/GPa)
#
#
# Indices 1 2 3 4 5 6 
#
# 1 0.023548 -0.005720 -0.007182 0.000000 0.000372 0.000000
# 2 -0.005720 0.019189 -0.003910 0.000000 0.003565 0.000000
# 3 -0.007182 -0.003910 0.014512 0.000000 0.012144 0.000000
# 4 0.000000 0.000000 0.000000 0.052758 0.000000 0.036360
# 5 0.000372 0.003565 0.012144 0.000000 0.072478 0.000000
# 6 0.000000 0.000000 0.000000 0.036360 0.000000 0.183832
#
#
# Mechanical properties :
#
#
# Convention : Reuss Voigt Hill
#
# Bulk Modulus (GPa) = 42.33050 56.96366 49.64708
# Shear Modulus (GPa) = 12.26046 18.48518 15.37282
#
# Velocity S-wave (km/s) = 2.77549 3.40798 3.10787
# Velocity P-wave (km/s) = 6.07187 7.16076 6.63868
#
# Compressibility (1/GPa) = 0.02362363
#
# Stress axis : x y z
#
# Youngs Moduli (GPa) = 42.46692 52.11420 68.90962
#
# Poissons Ratio (x) = 0.29810 0.49490
# Poissons Ratio (y) = 0.24292 0.26945
# Poissons Ratio (z) = 0.30499 0.20378
#
# Static dielectric constant tensor:
#      x y z
#    x 2.909270 0.000000 -0.311660 
#    y 0.000000 3.044970 0.000000 
#    z -0.311660 0.000000 3.272960 
# 
# 
# High freq. dielectric constant tensor:
#      x y z
#    x 1.558140 0.000000 -0.028690 
#    y 0.000000 1.618550 0.000000 
#    z -0.028690 0.000000 1.612650 
# 
# From -- ./inp_files/72557.got.cif
#   From: 2010.06.25/outbox.cif.g09.slc.cpg/sg10_37_cif.got.tgz:72557.got - 2010.06.27 22:07:45.
