data_PCOD8057293
_publ_section_title
;
Structure prediction by ZEFSAII (Michael W. Deem and Ramdas Pophale) SiO2 
 PCOD8057293
Probable space group: P 2/M
;
_chemical_formula_sum "Si O2"
_cell_formula_units_Z 28
_cell_length_a 15.603679
_cell_length_b 11.641400
_cell_length_c 9.164401
_cell_angle_alpha 90.000000
_cell_angle_beta 69.105446
_cell_angle_gamma 90.000000
_cell_volume 1555.227788
_symmetry_space_group_name_H-M "P 2/M"
_symmetry_group_IT_number 10
_symmetry_cell_setting 'monoclinic'
loop_
_space_group_symop_operation_xyz
x,y,z
-x,y,-z
-x,-y,-z
x,-y,z
loop_
_atom_site_type_symbol
_atom_site_label
_atom_site_fract_x
_atom_site_fract_y
_atom_site_fract_z
Si Si1 0.033431 0.129471 0.146367
Si Si2 0.699941 0.134161 0.543277
Si Si3 0.957376 0.500000 0.369381
Si Si4 0.185761 0.736597 0.934160
Si Si5 0.873586 0.741614 0.355831
Si Si6 0.470190 0.134298 0.173752
Si Si7 0.646339 0.867419 0.246578
Si Si8 0.906323 0.500000 0.960860
O O1 0.969217 0.189221 0.307466
O O2 0.045671 0.000000 0.189318
O O3 0.131016 0.192648 0.090619
O O4 0.000000 0.140596 0.000000
O O5 0.793898 0.207064 0.507804
O O6 0.628212 0.180305 0.708800
O O7 0.652674 0.155228 0.415094
O O8 0.723772 0.000000 0.548410
O O9 0.891726 0.608414 0.378383
O O10 0.000000 0.500000 0.500000
O O11 0.052487 0.500000 0.224015
O O12 0.157578 0.768400 0.788307
O O13 0.290935 0.777322 0.882965
O O14 0.163258 0.603670 0.970365
O O15 0.544087 0.159270 0.254922
O O16 0.458480 0.000000 0.156538
O O17 0.500000 0.190818 0.000000
O O18 0.674569 0.000000 0.194119
O O19 0.000000 0.500000 0.000000
#
# Coordination Sequence:
#
# PCOD8057293 Si02
#       8
#     4   4   2   4   4   4   4   2
#     4   9  15  24  44  75 105 128 155 201 255 301
#     4   9  17  30  52  78 102 130 166 208 256 304
#     4  12  24  38  52  71 100 139 183 218 251 299
#     4  10  17  28  52  76 100 129 170 214 252 293
#     4  10  18  32  50  73 100 133 169 211 252 300
#     4   9  17  31  49  71 103 138 167 200 246 306
#     4   9  17  29  48  78 107 131 165 207 252 302
#     4  12  18  36  56  73  96 135 179 216 253 297
#
# _framework density 18.003793000000002
#
# number of rings (size 3 to 8) (size 9 to 14) (size 15 to 20)
#    0.000    2.286    2.857    1.714    0.000    5.143 
#    2.571    0.000    0.000    2.571    0.000    5.000 
#    0.000    0.000    0.000    0.000    0.000    0.000 
#
# Total GULP energy -346919.118626 kJ/mol
# GULP energy per Si atom -12389.968522 kJ/mol
# Density = 1.796282 g / cm^3
# Si number density = 18.003793 Si / 1000 Ang^3
#
#
#
# Elastic Constant Matrix: (Units=GPa)
#
#
# Indices 1 2 3 4 5 6 
#
# 1 43.5083 25.9341 41.1427 0.0000 -25.9973 0.0000
# 2 25.9341 103.7286 38.6745 0.0000 -29.0846 0.0000
# 3 41.1427 38.6745 113.0992 0.0000 -36.7148 0.0000
# 4 0.0000 0.0000 0.0000 13.1474 0.0000 -6.5276
# 5 -25.9973 -29.0846 -36.7148 0.0000 36.9606 0.0000
# 6 0.0000 0.0000 0.0000 -6.5276 0.0000 12.9024
#
#
#
# Elastic Compliance Matrix: (Units=1/GPa)
#
#
# Indices 1 2 3 4 5 6 
#
# 1 0.045445 -0.002010 -0.008828 0.000000 0.021614 0.000000
# 2 -0.002010 0.012653 -0.001214 0.000000 0.007337 0.000000
# 3 -0.008828 -0.001214 0.014970 0.000000 0.007706 0.000000
# 4 0.000000 0.000000 0.000000 0.101574 0.000000 0.051388
# 5 0.021614 0.007337 0.007706 0.000000 0.055687 0.000000
# 6 0.000000 0.000000 0.000000 0.051388 0.000000 0.103504
#
#
# Mechanical properties :
#
#
# Convention : Reuss Voigt Hill
#
# Bulk Modulus (GPa) = 20.42306 52.42652 36.42479
# Shear Modulus (GPa) = 13.35977 22.90774 18.13376
#
# Velocity S-wave (km/s) = 2.72702 3.57092 3.17711
# Velocity P-wave (km/s) = 4.61345 6.79595 5.80813
#
# Compressibility (1/GPa) = 0.04896425
#
# Stress axis : x y z
#
# Youngs Moduli (GPa) = 22.00439 79.03327 66.80182
#
# Poissons Ratio (x) = 0.15888 0.58973
# Poissons Ratio (y) = 0.04424 0.08107
# Poissons Ratio (z) = 0.19426 0.09591
#
# Static dielectric constant tensor:
#      x y z
#    x 3.092630 0.000000 -0.239450 
#    y 0.000000 2.992730 0.000000 
#    z -0.239450 0.000000 3.439550 
# 
# 
# High freq. dielectric constant tensor:
#      x y z
#    x 1.671980 0.000000 -0.022850 
#    y 0.000000 1.671520 0.000000 
#    z -0.022850 0.000000 1.696810 
# 
# From -- ./inp_files/28527.got.cif
#   From: 2010.06.25/outbox.cif.g09.slc.cpg/sg10_15_cif.got.tgz:28527.got - 2010.06.27 22:07:45.
