data_PCOD8057167
_publ_section_title
;
Structure prediction by ZEFSAII (Michael W. Deem and Ramdas Pophale) SiO2 
 PCOD8057167
Probable space group: P 2/M
;
_chemical_formula_sum "Si O2"
_cell_formula_units_Z 28
_cell_length_a 14.460966
_cell_length_b 12.732345
_cell_length_c 16.364381
_cell_angle_alpha 90.000000
_cell_angle_beta 35.483842
_cell_angle_gamma 90.000000
_cell_volume 1748.990966
_symmetry_space_group_name_H-M "P 2/M"
_symmetry_group_IT_number 10
_symmetry_cell_setting 'monoclinic'
loop_
_space_group_symop_operation_xyz
x,y,z
-x,y,-z
-x,-y,-z
x,-y,z
loop_
_atom_site_type_symbol
_atom_site_label
_atom_site_fract_x
_atom_site_fract_y
_atom_site_fract_z
Si Si1 0.651111 0.116726 0.153156
Si Si2 0.676708 0.261241 0.855881
Si Si3 0.459375 0.125478 0.436808
Si Si4 0.680441 0.114911 0.700757
Si Si5 0.844919 0.803264 0.430649
Si Si6 0.984278 0.378991 0.606605
Si Si7 0.833627 0.123217 0.874488
O O1 0.608325 0.165575 0.272946
O O2 0.491672 0.120169 0.214978
O O3 0.709124 0.000000 0.130436
O O4 0.790408 0.169164 0.997108
O O5 0.695837 0.205931 0.755218
O O6 0.803775 0.355769 0.766328
O O7 0.712734 0.175482 0.898443
O O8 0.500000 0.306609 0.000000
O O9 0.500000 0.152955 0.500000
O O10 0.306772 0.194107 0.520146
O O11 0.427103 0.000000 0.447121
O O12 0.813500 0.129637 0.534782
O O13 0.709533 0.000000 0.719548
O O14 0.891720 0.686108 0.426494
O O15 0.985150 0.854893 0.277397
O O16 0.024238 0.500000 0.593296
O O17 0.000000 0.349436 0.500000
O O18 0.796191 0.000000 0.900006
#
# Coordination Sequence:
#
# PCOD8057167 Si02
#       7
#     4   4   4   4   4   4   4
#     4   8  15  26  40  61  93 129 158 185 223 265
#     4  11  20  29  44  67  94 128 167 195 233 286
#     4   9  17  31  51  72  98 131 160 190 233 290
#     4  10  17  27  42  65  97 132 160 189 221 274
#     4  10  19  32  49  69  93 127 166 199 239 285
#     4  10  21  37  51  66  91 125 167 211 252 283
#     4  10  18  26  40  66  99 129 156 195 231 274
#
# _framework density 16.009229999999999
#
# number of rings (size 3 to 8) (size 9 to 14) (size 15 to 20)
#    0.000    2.286    2.857    2.571    0.000    0.857 
#    0.000    2.857    0.000    3.857    0.000    0.000 
#    0.000    4.571    0.000    0.000    0.000    0.000 
#
# Total GULP energy -346914.083236 kJ/mol
# GULP energy per Si atom -12389.788687 kJ/mol
# Density = 1.597279 g / cm^3
# Si number density = 16.009230 Si / 1000 Ang^3
#
#
#
# Elastic Constant Matrix: (Units=GPa)
#
#
# Indices 1 2 3 4 5 6 
#
# 1 69.9755 23.8952 42.0692 0.0000 11.7437 0.0000
# 2 23.8952 52.6094 19.0154 0.0000 -0.1595 0.0000
# 3 42.0692 19.0154 143.9018 0.0000 6.4458 0.0000
# 4 0.0000 0.0000 0.0000 13.6658 0.0000 -1.8323
# 5 11.7437 -0.1595 6.4458 0.0000 25.4514 0.0000
# 6 0.0000 0.0000 0.0000 -1.8323 0.0000 11.7066
#
#
#
# Elastic Compliance Matrix: (Units=1/GPa)
#
#
# Indices 1 2 3 4 5 6 
#
# 1 0.021366 -0.007996 -0.004800 0.000000 -0.008693 0.000000
# 2 -0.007996 0.022970 -0.000879 0.000000 0.004056 0.000000
# 3 -0.004800 -0.000879 0.008466 0.000000 0.000065 0.000000
# 4 0.000000 0.000000 0.000000 0.074744 0.000000 0.011699
# 5 -0.008693 0.004056 0.000065 0.000000 0.043310 0.000000
# 6 0.000000 0.000000 0.000000 0.011699 0.000000 0.087253
#
#
# Mechanical properties :
#
#
# Convention : Reuss Voigt Hill
#
# Bulk Modulus (GPa) = 39.29171 48.49403 43.89287
# Shear Modulus (GPa) = 17.01007 22.26523 19.63765
#
# Velocity S-wave (km/s) = 3.26316 3.73335 3.50615
# Velocity P-wave (km/s) = 6.22849 6.99578 6.62326
#
# Compressibility (1/GPa) = 0.02545066
#
# Stress axis : x y z
#
# Youngs Moduli (GPa) = 46.80347 43.53541 118.12207
#
# Poissons Ratio (x) = 0.34810 0.56702
# Poissons Ratio (y) = 0.37423 0.10388
# Poissons Ratio (z) = 0.22467 0.03829
#
# Static dielectric constant tensor:
#      x y z
#    x 2.805070 0.000000 0.107810 
#    y 0.000000 2.678670 0.000000 
#    z 0.107810 0.000000 3.514520 
# 
# 
# High freq. dielectric constant tensor:
#      x y z
#    x 1.586720 0.000000 0.003810 
#    y 0.000000 1.568210 0.000000 
#    z 0.003810 0.000000 1.644320 
# 
# From -- ./inp_files/28845.got.cif
#   From: 2010.06.25/outbox.cif.g09.slc.cpg/sg10_15_cif.got.tgz:28845.got - 2010.06.27 22:07:45.
