data_PCOD8057394
_publ_section_title
;
Structure prediction by ZEFSAII (Michael W. Deem and Ramdas Pophale) SiO2 
 PCOD8057394
Probable space group: P 2/M
;
_chemical_formula_sum "Si O2"
_cell_formula_units_Z 32
_cell_length_a 12.718289
_cell_length_b 19.753790
_cell_length_c 20.216482
_cell_angle_alpha 90.000000
_cell_angle_beta 159.277953
_cell_angle_gamma 90.000000
_cell_volume 1797.153661
_symmetry_space_group_name_H-M "P 2/M"
_symmetry_group_IT_number 10
_symmetry_cell_setting 'monoclinic'
loop_
_space_group_symop_operation_xyz
x,y,z
-x,y,-z
-x,-y,-z
x,-y,z
loop_
_atom_site_type_symbol
_atom_site_label
_atom_site_fract_x
_atom_site_fract_y
_atom_site_fract_z
Si Si1 0.652739 0.076077 0.160766
Si Si2 0.800804 0.801221 0.817109
Si Si3 0.961193 0.653196 0.900258
Si Si4 0.865306 0.175597 0.595398
Si Si5 0.374922 0.314384 0.029681
Si Si6 0.046860 0.328422 0.703655
Si Si7 0.545349 0.577994 0.452277
Si Si8 0.158066 0.165048 0.906279
O O1 0.942601 0.123691 0.335664
O O2 0.743153 0.000000 0.234327
O O3 0.500000 0.079663 0.000000
O O4 0.393315 0.104568 0.054669
O O5 0.779235 0.722884 0.780981
O O6 0.473582 0.833574 0.628611
O O7 0.963031 0.842719 0.856105
O O8 0.000000 0.807635 0.000000
O O9 0.776686 0.588069 0.769277
O O10 0.267227 0.656401 0.037419
O O11 0.000000 0.643285 0.000000
O O12 0.945742 0.252801 0.629111
O O13 0.930685 0.158522 0.710682
O O14 0.166055 0.339872 0.847760
O O15 0.357366 0.232977 0.018873
O O16 0.705285 0.342185 0.207339
O O17 0.776089 0.381106 0.541590
O O18 0.500000 0.606209 0.500000
O O19 0.641741 0.500000 0.509069
#
# Coordination Sequence:
#
# PCOD8057394 Si02
#       8
#     4   4   4   4   4   4   4   4
#     4   9  17  31  52  82 113 136 169 220 271 320
#     4  10  20  32  51  78 107 133 177 229 264 304
#     4  10  20  35  54  76 107 141 175 220 273 323
#     4  10  17  30  55  81 101 137 176 218 267 313
#     4   9  17  30  53  82 105 131 177 222 268 312
#     4  10  17  31  55  80 105 133 176 230 263 310
#     4  11  22  36  54  80 109 143 181 219 264 317
#     4   9  17  30  52  80 104 134 174 217 268 318
#
# _framework density 17.805935000000002
#
# number of rings (size 3 to 8) (size 9 to 14) (size 15 to 20)
#    0.000    2.250    3.750    0.375    0.000    0.250 
#    0.000    3.750    0.000    6.000    0.000    0.000 
#    0.000    0.000    0.000    0.000    0.000    0.000 
#
# Total GULP energy -396525.090404 kJ/mol
# GULP energy per Si atom -12391.409075 kJ/mol
# Density = 1.776541 g / cm^3
# Si number density = 17.805935 Si / 1000 Ang^3
#
#
#
# Elastic Constant Matrix: (Units=GPa)
#
#
# Indices 1 2 3 4 5 6 
#
# 1 98.1481 27.1827 55.2242 0.0000 12.4636 0.0000
# 2 27.1827 75.1239 45.7969 0.0000 11.7232 0.0000
# 3 55.2242 45.7969 107.9954 0.0000 22.5185 0.0000
# 4 0.0000 0.0000 0.0000 24.2816 0.0000 5.4896
# 5 12.4636 11.7232 22.5185 0.0000 21.7357 0.0000
# 6 0.0000 0.0000 0.0000 5.4896 0.0000 10.2223
#
#
#
# Elastic Compliance Matrix: (Units=1/GPa)
#
#
# Indices 1 2 3 4 5 6 
#
# 1 0.014364 -0.000944 -0.006803 0.000000 -0.000679 0.000000
# 2 -0.000944 0.018104 -0.006724 0.000000 -0.002257 0.000000
# 3 -0.006803 -0.006724 0.017884 0.000000 -0.011000 0.000000
# 4 0.000000 0.000000 0.000000 0.046874 0.000000 -0.025173
# 5 -0.000679 -0.002257 -0.011000 0.000000 0.059010 0.000000
# 6 0.000000 0.000000 0.000000 -0.025173 0.000000 0.111344
#
#
# Mechanical properties :
#
#
# Convention : Reuss Voigt Hill
#
# Bulk Modulus (GPa) = 46.70838 59.74164 53.22501
# Shear Modulus (GPa) = 16.46577 21.45217 18.95897
#
# Velocity S-wave (km/s) = 3.04424 3.47475 3.26660
# Velocity P-wave (km/s) = 6.21654 7.05145 6.64712
#
# Compressibility (1/GPa) = 0.02140943
#
# Stress axis : x y z
#
# Youngs Moduli (GPa) = 69.61657 55.23581 55.91728
#
# Poissons Ratio (x) = 0.05215 0.38042
# Poissons Ratio (y) = 0.06573 0.37598
# Poissons Ratio (z) = 0.47362 0.37140
#
# Static dielectric constant tensor:
#      x y z
#    x 3.209450 0.000000 0.214110 
#    y 0.000000 3.154800 0.000000 
#    z 0.214110 0.000000 3.219900 
# 
# 
# High freq. dielectric constant tensor:
#      x y z
#    x 1.676680 0.000000 0.020590 
#    y 0.000000 1.663570 0.000000 
#    z 0.020590 0.000000 1.681290 
# 
# From -- ./inp_files/26077.got.cif
#   From: 2010.06.25/outbox.cif.g09.slc.cpg/sg10_14_cif.got.tgz:26077.got - 2010.06.27 22:07:45.
