data_PCOD8057795
_publ_section_title
;
Structure prediction by ZEFSAII (Michael W. Deem and Ramdas Pophale) SiO2 
 PCOD8057795
Probable space group: P 2/M
;
_chemical_formula_sum "Si O2"
_cell_formula_units_Z 26
_cell_length_a 23.849300
_cell_length_b 12.843058
_cell_length_c 5.255574
_cell_angle_alpha 90.000000
_cell_angle_beta 74.612550
_cell_angle_gamma 90.000000
_cell_volume 1552.066910
_symmetry_space_group_name_H-M "P 2/M"
_symmetry_group_IT_number 10
_symmetry_cell_setting 'monoclinic'
loop_
_space_group_symop_operation_xyz
x,y,z
-x,y,-z
-x,-y,-z
x,-y,z
loop_
_atom_site_type_symbol
_atom_site_label
_atom_site_fract_x
_atom_site_fract_y
_atom_site_fract_z
Si Si1 0.000000 0.274783 0.000000
Si Si2 0.467132 0.124257 0.289534
Si Si3 0.663309 0.877121 0.550494
Si Si4 0.267624 0.123922 0.032061
Si Si5 0.859469 0.191395 0.772036
Si Si6 0.935497 0.381918 0.692318
Si Si7 0.083610 0.883648 0.771979
O O1 0.948038 0.350006 0.968460
O O2 0.030831 0.195366 0.761950
O O3 0.500000 0.166216 0.500000
O O4 0.401697 0.169810 0.368323
O O5 0.466413 0.000000 0.290151
O O6 0.500000 0.166342 0.000000
O O7 0.697299 0.840868 0.760701
O O8 0.658291 0.000000 0.555933
O O9 0.696125 0.840147 0.257465
O O10 0.208985 0.191467 0.094320
O O11 0.254259 0.000000 0.044519
O O12 0.883715 0.306374 0.661995
O O13 0.869442 0.119615 0.511659
O O14 0.890870 0.147239 0.983672
O O15 0.913963 0.500000 0.685974
O O16 0.000000 0.363261 0.500000
O O17 0.059156 0.000000 0.821211
#
# Coordination Sequence:
#
# PCOD8057795 Si02
#       7
#     2   4   4   4   4   4   4
#     4  10  20  34  50  74  92 118 144 184 232 298
#     4   9  15  23  36  56  83 112 150 194 222 245
#     4   9  17  27  41  60  83 120 157 186 222 257
#     4  10  18  29  43  59  86 118 154 189 219 267
#     4  11  22  35  50  72  91 121 158 193 236 286
#     4  10  20  37  55  71  91 116 149 197 246 293
#     4  11  21  33  49  69  96 120 146 182 231 284
#
# _framework density 16.751854999999999
#
# number of rings (size 3 to 8) (size 9 to 14) (size 15 to 20)
#    0.000    2.000    1.538    3.692    0.000    4.923 
#    0.000    2.308    0.000    0.000    0.000    0.000 
#    0.000    0.000    0.000    0.000    0.000   15.385 
#
# Total GULP energy -322149.197694 kJ/mol
# GULP energy per Si atom -12390.353757 kJ/mol
# Density = 1.671373 g / cm^3
# Si number density = 16.751855 Si / 1000 Ang^3
#
#
#
# Elastic Constant Matrix: (Units=GPa)
#
#
# Indices 1 2 3 4 5 6 
#
# 1 111.3097 36.5115 49.2496 0.0000 -12.4223 0.0000
# 2 36.5115 69.5628 27.0147 0.0000 -3.9647 0.0000
# 3 49.2496 27.0147 125.3131 0.0000 -2.3782 0.0000
# 4 0.0000 0.0000 0.0000 7.3191 0.0000 1.0460
# 5 -12.4223 -3.9647 -2.3782 0.0000 32.5361 0.0000
# 6 0.0000 0.0000 0.0000 1.0460 0.0000 8.0241
#
#
#
# Elastic Compliance Matrix: (Units=1/GPa)
#
#
# Indices 1 2 3 4 5 6 
#
# 1 0.012774 -0.004973 -0.003872 0.000000 0.003988 0.000000
# 2 -0.004973 0.017716 -0.001862 0.000000 0.000124 0.000000
# 3 -0.003872 -0.001862 0.009885 0.000000 -0.000983 0.000000
# 4 0.000000 0.000000 0.000000 0.139223 0.000000 -0.018149
# 5 0.003988 0.000124 -0.000983 0.000000 0.032201 0.000000
# 6 0.000000 0.000000 0.000000 -0.018149 0.000000 0.126991
#
#
# Mechanical properties :
#
#
# Convention : Reuss Voigt Hill
#
# Bulk Modulus (GPa) = 52.74681 59.08190 55.91436
# Shear Modulus (GPa) = 13.64163 22.46984 18.05574
#
# Velocity S-wave (km/s) = 2.85675 3.66640 3.28660
# Velocity P-wave (km/s) = 6.51436 7.29854 6.91757
#
# Compressibility (1/GPa) = 0.01895849
#
# Stress axis : x y z
#
# Youngs Moduli (GPa) = 78.28571 56.44566 101.16637
#
# Poissons Ratio (x) = 0.28073 0.39176
# Poissons Ratio (y) = 0.38935 0.18840
# Poissons Ratio (z) = 0.30315 0.10511
#
# Static dielectric constant tensor:
#      x y z
#    x 3.228540 0.000000 0.013210 
#    y 0.000000 2.707040 0.000000 
#    z 0.013210 0.000000 3.419800 
# 
# 
# High freq. dielectric constant tensor:
#      x y z
#    x 1.639120 0.000000 0.003190 
#    y 0.000000 1.581750 0.000000 
#    z 0.003190 0.000000 1.665800 
# 
# From -- ./inp_files/13058.got.cif
#   From: 2010.06.25/outbox.cif.g09.slc.cpg/sg10_7_cif.got.tgz:13058.got - 2010.06.27 22:07:45.
