data_PCOD8057978
_publ_section_title
;
Structure prediction by ZEFSAII (Michael W. Deem and Ramdas Pophale) SiO2 
 PCOD8057978
Probable space group: P 2/M
;
_chemical_formula_sum "Si O2"
_cell_formula_units_Z 28
_cell_length_a 5.094103
_cell_length_b 21.077716
_cell_length_c 13.890294
_cell_angle_alpha 90.000000
_cell_angle_beta 90.770370
_cell_angle_gamma 90.000000
_cell_volume 1491.294620
_symmetry_space_group_name_H-M "P 2/M"
_symmetry_group_IT_number 10
_symmetry_cell_setting 'monoclinic'
loop_
_space_group_symop_operation_xyz
x,y,z
-x,y,-z
-x,-y,-z
x,-y,z
loop_
_atom_site_type_symbol
_atom_site_label
_atom_site_fract_x
_atom_site_fract_y
_atom_site_fract_z
Si Si1 0.483552 0.925050 0.106833
Si Si2 0.982385 0.925147 0.224929
Si Si3 0.491963 0.639244 0.235806
Si Si4 0.588620 0.500000 0.239530
Si Si5 0.976991 0.828928 0.389988
Si Si6 0.916524 0.500000 0.870355
Si Si7 0.477049 0.252959 0.389553
Si Si8 0.014623 0.363212 0.895082
O O1 0.718009 0.899426 0.174305
O O2 0.211458 0.905110 0.153207
O O3 0.513010 0.000000 0.098637
O O4 0.500000 0.894998 0.000000
O O5 0.022347 0.891230 0.326708
O O6 0.980013 0.000000 0.245123
O O7 0.508267 0.568407 0.285365
O O8 0.523241 0.686250 0.324438
O O9 0.716953 0.652616 0.158289
O O10 0.221716 0.653024 0.178610
O O11 0.902540 0.500000 0.226575
O O12 0.398786 0.500000 0.144052
O O13 0.191827 0.775715 0.366597
O O14 0.000000 0.851751 0.500000
O O15 0.691892 0.800422 0.366927
O O16 0.005580 0.437128 0.925338
O O17 0.500000 0.275428 0.500000
O O18 0.000000 0.327532 0.000000
#
# Coordination Sequence:
#
# PCOD8057978 Si02
#       8
#     4   4   4   2   4   2   4   4
#     4   9  17  30  50  77 109 143 176 207 241 291
#     4  10  19  32  54  82 109 136 167 210 261 297
#     4  10  19  33  52  74 102 132 167 213 252 295
#     4   8  16  28  46  74 100 124 160 208 260 294
#     4  10  21  37  57  79 102 131 171 212 252 309
#     4   8  15  26  42  68 101 132 163 198 238 300
#     4  10  21  38  58  75  95 134 179 211 249 304
#     4  10  18  29  48  74 103 135 166 199 250 305
#
# _framework density 18.775632000000002
#
# number of rings (size 3 to 8) (size 9 to 14) (size 15 to 20)
#    0.000    2.429    0.000    2.786    0.000    2.000 
#    0.000    4.643    0.000   22.286    0.000    9.000 
#    0.000    0.000    0.000    0.000    0.000    0.000 
#
# Total GULP energy -346929.907725 kJ/mol
# GULP energy per Si atom -12390.353847 kJ/mol
# Density = 1.873290 g / cm^3
# Si number density = 18.775632 Si / 1000 Ang^3
#
#
#
# Elastic Constant Matrix: (Units=GPa)
#
#
# Indices 1 2 3 4 5 6 
#
# 1 71.6525 13.0289 16.1494 0.0000 3.3007 0.0000
# 2 13.0289 59.2125 61.7448 0.0000 -4.9539 0.0000
# 3 16.1494 61.7448 105.6381 0.0000 -2.3905 0.0000
# 4 0.0000 0.0000 0.0000 10.7034 0.0000 -1.3183
# 5 3.3007 -4.9539 -2.3905 0.0000 21.8576 0.0000
# 6 0.0000 0.0000 0.0000 -1.3183 0.0000 10.6794
#
#
#
# Elastic Compliance Matrix: (Units=1/GPa)
#
#
# Indices 1 2 3 4 5 6 
#
# 1 0.014752 -0.002740 -0.000720 0.000000 -0.002927 0.000000
# 2 -0.002740 0.044869 -0.025631 0.000000 0.007780 0.000000
# 3 -0.000720 -0.025631 0.024489 0.000000 -0.003022 0.000000
# 4 0.000000 0.000000 0.000000 0.094871 0.000000 0.011711
# 5 -0.002927 0.007780 -0.003022 0.000000 0.047625 0.000000
# 6 0.000000 0.000000 0.000000 0.011711 0.000000 0.095084
#
#
# Mechanical properties :
#
#
# Convention : Reuss Voigt Hill
#
# Bulk Modulus (GPa) = 38.56821 46.48326 42.52574
# Shear Modulus (GPa) = 12.86957 18.35342 15.61149
#
# Velocity S-wave (km/s) = 2.62093 3.12991 2.88666
# Velocity P-wave (km/s) = 5.45392 6.15409 5.81455
#
# Compressibility (1/GPa) = 0.02592809
#
# Stress axis : x y z
#
# Youngs Moduli (GPa) = 67.78933 22.28714 40.83491
#
# Poissons Ratio (x) = 0.06107 0.02939
# Poissons Ratio (y) = 0.18577 1.04662
# Poissons Ratio (z) = 0.04879 0.57123
#
# Static dielectric constant tensor:
#      x y z
#    x 3.698540 0.000000 -0.049600 
#    y 0.000000 3.156800 0.000000 
#    z -0.049600 0.000000 3.308200 
# 
# 
# High freq. dielectric constant tensor:
#      x y z
#    x 1.751360 0.000000 -0.001810 
#    y 0.000000 1.698880 0.000000 
#    z -0.001810 0.000000 1.715020 
# 
# From -- ./inp_files/12481.got.cif
#   From: 2010.06.25/outbox.cif.g09.slc.cpg/sg10_7_cif.got.tgz:12481.got - 2010.06.27 22:07:45.
