data_PCOD8057197
_publ_section_title
;
Structure prediction by ZEFSAII (Michael W. Deem and Ramdas Pophale) SiO2 
 PCOD8057197
Probable space group: P 2/M
;
_chemical_formula_sum "Si O2"
_cell_formula_units_Z 20
_cell_length_a 9.189856
_cell_length_b 8.579754
_cell_length_c 16.456456
_cell_angle_alpha 90.000000
_cell_angle_beta 128.006959
_cell_angle_gamma 90.000000
_cell_volume 1022.376322
_symmetry_space_group_name_H-M "P 2/M"
_symmetry_group_IT_number 10
_symmetry_cell_setting 'monoclinic'
loop_
_space_group_symop_operation_xyz
x,y,z
-x,y,-z
-x,-y,-z
x,-y,z
loop_
_atom_site_type_symbol
_atom_site_label
_atom_site_fract_x
_atom_site_fract_y
_atom_site_fract_z
Si Si1 0.377670 0.819093 0.203489
Si Si2 0.662329 0.180065 0.995966
Si Si3 0.239545 0.817221 0.385729
Si Si4 0.586659 0.682521 0.411653
Si Si5 0.037400 0.681429 0.179496
O O1 0.408562 0.788902 0.119289
O O2 0.559845 0.751942 0.311913
O O3 0.190733 0.735530 0.167759
O O4 0.356334 0.000000 0.217376
O O5 0.716832 0.000000 0.027534
O O6 0.500000 0.232202 0.000000
O O7 0.838824 0.285364 0.073668
O O8 0.399961 0.722388 0.395412
O O9 0.240414 0.761360 0.480453
O O10 0.054784 0.771292 0.272731
O O11 0.277177 0.000000 0.394316
O O12 0.621218 0.500000 0.418257
O O13 0.061684 0.500000 0.204169
#
# Coordination Sequence:
#
# PCOD8057197 Si02
#       5
#     4   4   4   4   4
#     4  10  19  33  54  78 104 136 174 212 253 303
#     4  10  22  39  56  74 100 136 176 216 258 306
#     4  10  17  28  47  72 103 136 170 206 250 301
#     4  10  17  27  45  73 107 135 164 206 256 302
#     4  11  21  33  52  79 108 136 170 212 258 304
#
# _framework density 19.562268
#
# number of rings (size 3 to 8) (size 9 to 14) (size 15 to 20)
#    0.000    1.800    0.000   10.200    0.000    4.400 
#    0.000    0.000    0.000    1.200    0.000    8.400 
#    0.000    0.000    0.000    0.000    0.000    0.000 
#
# Total GULP energy -247953.843082 kJ/mol
# GULP energy per Si atom -12397.692154 kJ/mol
# Density = 1.951774 g / cm^3
# Si number density = 19.562268 Si / 1000 Ang^3
#
#
#
# Elastic Constant Matrix: (Units=GPa)
#
#
# Indices 1 2 3 4 5 6 
#
# 1 63.3046 25.6382 40.5312 0.0000 -17.9941 0.0000
# 2 25.6382 103.2483 48.0811 0.0000 -13.2481 0.0000
# 3 40.5312 48.0811 133.4927 0.0000 -37.2893 0.0000
# 4 0.0000 0.0000 0.0000 36.8540 0.0000 1.3772
# 5 -17.9941 -13.2481 -37.2893 0.0000 14.3254 0.0000
# 6 0.0000 0.0000 0.0000 1.3772 0.0000 2.0015
#
#
#
# Elastic Compliance Matrix: (Units=1/GPa)
#
#
# Indices 1 2 3 4 5 6 
#
# 1 0.026240 -0.003467 0.005838 0.000000 0.044950 0.000000
# 2 -0.003467 0.012096 -0.005115 0.000000 -0.006482 0.000000
# 3 0.005838 -0.005115 0.030372 0.000000 0.081662 0.000000
# 4 0.000000 0.000000 0.000000 0.027850 0.000000 -0.019164
# 5 0.044950 -0.006482 0.081662 0.000000 0.332841 0.000000
# 6 0.000000 0.000000 0.000000 -0.019164 0.000000 0.512823
#
#
# Mechanical properties :
#
#
# Convention : Reuss Voigt Hill
#
# Bulk Modulus (GPa) = 15.81771 58.72739 37.27255
# Shear Modulus (GPa) = 5.16111 23.02251 14.09181
#
# Velocity S-wave (km/s) = 1.62605 3.43430 2.68686
# Velocity P-wave (km/s) = 3.41010 6.76844 5.35913
#
# Compressibility (1/GPa) = 0.06322026
#
# Stress axis : x y z
#
# Youngs Moduli (GPa) = 38.11004 82.66878 32.92511
#
# Poissons Ratio (x) = 0.28659 -0.19221
# Poissons Ratio (y) = 0.13212 0.16842
# Poissons Ratio (z) = -0.22248 0.42286
#
# Static dielectric constant tensor:
#      x y z
#    x 3.010060 0.000000 -0.335020 
#    y 0.000000 3.574430 0.000000 
#    z -0.335020 0.000000 4.540380 
# 
# 
# High freq. dielectric constant tensor:
#      x y z
#    x 1.691660 0.000000 -0.021930 
#    y 0.000000 1.774740 0.000000 
#    z -0.021930 0.000000 1.792290 
# 
# From -- ./inp_files/26762.got.cif
#   From: 2010.06.25/outbox.cif.g09.slc.cpg/sg10_14_cif.got.tgz:26762.got - 2010.06.27 22:07:45.
