data_PCOD8057789
_publ_section_title
;
Structure prediction by ZEFSAII (Michael W. Deem and Ramdas Pophale) SiO2 
 PCOD8057789
Probable space group: P 2/M
;
_chemical_formula_sum "Si O2"
_cell_formula_units_Z 32
_cell_length_a 14.926910
_cell_length_b 9.272012
_cell_length_c 13.911132
_cell_angle_alpha 90.000000
_cell_angle_beta 87.871964
_cell_angle_gamma 90.000000
_cell_volume 1924.007469
_symmetry_space_group_name_H-M "P 2/M"
_symmetry_group_IT_number 10
_symmetry_cell_setting 'monoclinic'
loop_
_space_group_symop_operation_xyz
x,y,z
-x,y,-z
-x,-y,-z
x,-y,z
loop_
_atom_site_type_symbol
_atom_site_label
_atom_site_fract_x
_atom_site_fract_y
_atom_site_fract_z
Si Si1 0.261437 0.831179 0.887908
Si Si2 0.901380 0.172423 0.985583
Si Si3 0.615821 0.839104 0.954466
Si Si4 0.368632 0.170054 0.705058
Si Si5 0.603823 0.670878 0.485835
Si Si6 0.482005 0.337727 0.186174
Si Si7 0.211512 0.840608 0.184914
Si Si8 0.308001 0.659142 0.322661
O O1 0.280521 0.800560 0.775004
O O2 0.261154 0.000000 0.911764
O O3 0.165348 0.769350 0.927094
O O4 0.344669 0.768708 0.948329
O O5 0.864923 0.225210 0.882857
O O6 0.904330 0.000000 0.986699
O O7 0.000000 0.238006 0.000000
O O8 0.534708 0.741369 0.915738
O O9 0.696119 0.846484 0.875780
O O10 0.577403 0.000000 0.972456
O O11 0.350839 0.243848 0.603741
O O12 0.453484 0.242764 0.751154
O O13 0.386625 0.000000 0.692370
O O14 0.500000 0.715105 0.500000
O O15 0.612004 0.500000 0.468224
O O16 0.656945 0.724132 0.577999
O O17 0.520073 0.500000 0.168540
O O18 0.388855 0.348040 0.245133
O O19 0.225122 0.748966 0.281669
O O20 0.182480 0.000000 0.219009
O O21 0.270106 0.500000 0.343363
#
# Coordination Sequence:
#
# PCOD8057789 Si02
#       8
#     4   4   4   4   4   4   4   4
#     4   8  16  29  42  61  92 120 143 178 222 267
#     4   8  13  25  48  74  96 119 144 171 213 269
#     4   8  14  27  43  58  82 117 149 178 216 259
#     4  11  21  30  42  62  87 117 151 187 227 265
#     4  10  19  34  48  60  82 115 155 198 233 262
#     4  10  18  29  42  59  83 115 154 191 222 255
#     4   8  14  24  42  69  93 110 139 182 216 253
#     4   9  17  29  45  60  82 117 149 183 229 265
#
# _framework density 16.631952999999999
#
# number of rings (size 3 to 8) (size 9 to 14) (size 15 to 20)
#    0.000    3.000    1.250    2.250    0.000    1.750 
#    0.000    3.750    0.000    1.875    0.000    0.875 
#    0.000    7.000    0.000    0.000    0.000    0.000 
#
# Total GULP energy -396542.923007 kJ/mol
# GULP energy per Si atom -12391.966344 kJ/mol
# Density = 1.659410 g / cm^3
# Si number density = 16.631953 Si / 1000 Ang^3
#
#
#
# Elastic Constant Matrix: (Units=GPa)
#
#
# Indices 1 2 3 4 5 6 
#
# 1 82.0773 21.5916 42.3608 0.0000 16.9055 0.0000
# 2 21.5916 56.4379 40.5502 0.0000 7.8528 0.0000
# 3 42.3608 40.5502 117.7291 0.0000 16.0713 0.0000
# 4 0.0000 0.0000 0.0000 -33.8089 0.0000 -2.7944
# 5 16.9055 7.8528 16.0713 0.0000 21.2780 0.0000
# 6 0.0000 0.0000 0.0000 -2.7944 0.0000 8.9512
#
#
#
# Elastic Compliance Matrix: (Units=1/GPa)
#
#
# Indices 1 2 3 4 5 6 
#
# 1 0.016780 -0.002247 -0.003966 0.000000 -0.009507 0.000000
# 2 -0.002247 0.024003 -0.007240 0.000000 -0.001605 0.000000
# 3 -0.003966 -0.007240 0.012956 0.000000 -0.003963 0.000000
# 4 0.000000 0.000000 0.000000 -0.028834 0.000000 -0.009001
# 5 -0.009507 -0.001605 -0.003963 0.000000 0.058135 0.000000
# 6 0.000000 0.000000 0.000000 -0.009001 0.000000 0.108906
#
#
# Mechanical properties :
#
#
# Convention : Reuss Voigt Hill
#
# Bulk Modulus (GPa) = 37.26786 51.69437 44.48112
# Shear Modulus (GPa) = 21.94939 9.40018 15.67478
#
# Velocity S-wave (km/s) = 3.63673 2.37995 3.07327
# Velocity P-wave (km/s) = 6.33170 6.22102 6.27660
#
# Compressibility (1/GPa) = 0.02683277
#
# Stress axis : x y z
#
# Youngs Moduli (GPa) = 59.59578 41.66059 77.18618
#
# Poissons Ratio (x) = 0.09362 0.30610
# Poissons Ratio (y) = 0.13393 0.55883
# Poissons Ratio (z) = 0.23634 0.30162
#
# Static dielectric constant tensor:
#      x y z
#    x 3.012770 0.000000 0.134470 
#    y 0.000000 3.145230 0.000000 
#    z 0.134470 0.000000 3.256810 
# 
# 
# High freq. dielectric constant tensor:
#      x y z
#    x 1.601320 0.000000 0.011810 
#    y 0.000000 1.618890 0.000000 
#    z 0.011810 0.000000 1.639480 
# 
# From -- ./inp_files/66136.got.cif
#   From: 2010.06.25/outbox.cif.g09.slc.cpg/sg10_34_cif.got.tgz:66136.got - 2010.06.27 22:07:45.
