data_PCOD8057359
_publ_section_title
;
Structure prediction by ZEFSAII (Michael W. Deem and Ramdas Pophale) SiO2 
 PCOD8057359
Probable space group: P 2/M
;
_chemical_formula_sum "Si O2"
_cell_formula_units_Z 32
_cell_length_a 21.867012
_cell_length_b 9.427397
_cell_length_c 28.336085
_cell_angle_alpha 90.000000
_cell_angle_beta 161.912273
_cell_angle_gamma 90.000000
_cell_volume 1813.613206
_symmetry_space_group_name_H-M "P 2/M"
_symmetry_group_IT_number 10
_symmetry_cell_setting 'monoclinic'
loop_
_space_group_symop_operation_xyz
x,y,z
-x,y,-z
-x,-y,-z
x,-y,z
loop_
_atom_site_type_symbol
_atom_site_label
_atom_site_fract_x
_atom_site_fract_y
_atom_site_fract_z
Si Si1 0.522248 0.169067 0.963199
Si Si2 0.327918 0.168055 0.550034
Si Si3 0.778249 0.169140 0.335873
Si Si4 0.895384 0.832200 0.083107
Si Si5 0.080106 0.168003 0.792550
Si Si6 0.972234 0.663893 0.903684
Si Si7 0.681612 0.335811 0.772196
Si Si8 0.546922 0.832073 0.256010
O O1 0.336226 0.220059 0.795250
O O2 0.530619 0.000000 0.970374
O O3 0.500000 0.229149 0.000000
O O4 0.723671 0.230497 0.088150
O O5 0.487080 0.241055 0.632952
O O6 0.356008 0.220399 0.624239
O O7 0.110767 0.218656 0.376097
O O8 0.354399 0.000000 0.564322
O O9 0.667372 0.231692 0.300355
O O10 0.000000 0.229826 0.500000
O O11 0.781194 0.000000 0.339589
O O12 0.941988 0.778782 0.170001
O O13 0.043248 0.756899 0.155070
O O14 0.920521 0.000000 0.096337
O O15 0.676474 0.779309 0.910037
O O16 0.098981 0.000000 0.806629
O O17 0.988377 0.500000 0.901457
O O18 0.776027 0.691534 0.790155
O O19 0.162777 0.710393 0.073663
O O20 0.625268 0.500000 0.736970
O O21 0.552135 0.000000 0.256233
#
# Coordination Sequence:
#
# PCOD8057359 Si02
#       8
#     4   4   4   4   4   4   4   4
#     4   9  16  25  37  56  88 130 163 186 229 288
#     4  10  19  30  47  71  96 126 162 197 234 282
#     4   9  16  24  36  58  90 126 160 194 232 276
#     4  10  17  30  49  69  94 128 160 193 237 281
#     4   9  18  30  43  63  97 131 158 195 240 280
#     4   9  18  32  51  73  96 122 154 195 241 285
#     4   9  18  33  50  71  99 124 150 195 246 282
#     4   9  16  26  41  63  92 122 159 200 233 269
#
# _framework density 17.644335999999999
#
# number of rings (size 3 to 8) (size 9 to 14) (size 15 to 20)
#    0.000    2.750    2.500    0.750    1.750    0.500 
#    0.000    2.500    0.000    3.750    0.000    0.000 
#    0.000    6.000    0.000    0.000    0.000    0.000 
#
# Total GULP energy -396724.298243 kJ/mol
# GULP energy per Si atom -12397.634320 kJ/mol
# Density = 1.760418 g / cm^3
# Si number density = 17.644336 Si / 1000 Ang^3
#
#
#
# Elastic Constant Matrix: (Units=GPa)
#
#
# Indices 1 2 3 4 5 6 
#
# 1 152.6438 29.0364 63.4477 0.0000 -6.6773 0.0000
# 2 29.0364 20.9570 19.9772 0.0000 2.3657 0.0000
# 3 63.4477 19.9772 121.7676 0.0000 -9.4461 0.0000
# 4 0.0000 0.0000 0.0000 10.1371 0.0000 -2.7198
# 5 -6.6773 2.3657 -9.4461 0.0000 30.8611 0.0000
# 6 0.0000 0.0000 0.0000 -2.7198 0.0000 2.8714
#
#
#
# Elastic Compliance Matrix: (Units=1/GPa)
#
#
# Indices 1 2 3 4 5 6 
#
# 1 0.010124 -0.011117 -0.003293 0.000000 0.002035 0.000000
# 2 -0.011117 0.070446 -0.006525 0.000000 -0.009803 0.000000
# 3 -0.003293 -0.006525 0.011250 0.000000 0.003231 0.000000
# 4 0.000000 0.000000 0.000000 0.132258 0.000000 0.125275
# 5 0.002035 -0.009803 0.003231 0.000000 0.034584 0.000000
# 6 0.000000 0.000000 0.000000 0.125275 0.000000 0.466924
#
#
# Mechanical properties :
#
#
# Convention : Reuss Voigt Hill
#
# Bulk Modulus (GPa) = 20.02068 57.81012 38.91540
# Shear Modulus (GPa) = 6.37668 20.96773 13.67220
#
# Velocity S-wave (km/s) = 1.90312 3.45099 2.78668
# Velocity P-wave (km/s) = 4.02499 6.97957 5.69715
#
# Compressibility (1/GPa) = 0.04994836
#
# Stress axis : x y z
#
# Youngs Moduli (GPa) = 98.77660 14.19519 88.89223
#
# Poissons Ratio (x) = 0.15781 0.29276
# Poissons Ratio (y) = 1.09811 0.58004
# Poissons Ratio (z) = 0.32531 0.09263
#
# Static dielectric constant tensor:
#      x y z
#    x 3.472990 0.000000 -0.000570 
#    y 0.000000 2.650540 0.000000 
#    z -0.000570 0.000000 3.325930 
# 
# 
# High freq. dielectric constant tensor:
#      x y z
#    x 1.696950 0.000000 0.002240 
#    y 0.000000 1.616430 0.000000 
#    z 0.002240 0.000000 1.678850 
# 
# From -- ./inp_files/32202.got.cif
#   From: 2010.06.25/outbox.cif.g09.slc.cpg/sg10_17_cif.got.tgz:32202.got - 2010.06.27 22:07:45.
