data_PCOD8057945
_publ_section_title
;
Structure prediction by ZEFSAII (Michael W. Deem and Ramdas Pophale) SiO2 
 PCOD8057945
Probable space group: P 2/M
;
_chemical_formula_sum "Si O2"
_cell_formula_units_Z 28
_cell_length_a 11.963933
_cell_length_b 12.623165
_cell_length_c 10.804506
_cell_angle_alpha 90.000000
_cell_angle_beta 101.600154
_cell_angle_gamma 90.000000
_cell_volume 1598.397200
_symmetry_space_group_name_H-M "P 2/M"
_symmetry_group_IT_number 10
_symmetry_cell_setting 'monoclinic'
loop_
_space_group_symop_operation_xyz
x,y,z
-x,y,-z
-x,-y,-z
x,-y,z
loop_
_atom_site_type_symbol
_atom_site_label
_atom_site_fract_x
_atom_site_fract_y
_atom_site_fract_z
Si Si1 0.326786 0.778720 0.693879
Si Si2 0.326439 0.878553 0.440592
Si Si3 0.548825 0.881090 0.777208
Si Si4 0.375377 0.377313 0.912048
Si Si5 0.133835 0.119926 0.783778
Si Si6 0.255411 0.789934 0.034348
Si Si7 0.879976 0.122001 0.778767
O O1 0.338991 0.787668 0.548341
O O2 0.414763 0.865340 0.770429
O O3 0.365602 0.668810 0.768309
O O4 0.196579 0.809135 0.694922
O O5 0.417444 0.846566 0.355195
O O6 0.198116 0.873200 0.359858
O O7 0.350110 0.000000 0.494442
O O8 0.617327 0.818005 0.895720
O O9 0.588690 0.000000 0.803884
O O10 0.345731 0.500000 0.896449
O O11 0.500000 0.359352 0.000000
O O12 0.274581 0.324311 0.973412
O O13 0.005841 0.163168 0.773577
O O14 0.129387 0.000000 0.735085
O O15 0.205641 0.126713 0.925614
O O16 0.169214 0.795041 0.131160
O O17 0.883126 0.000000 0.830329
#
# Coordination Sequence:
#
# PCOD8057945 Si02
#       7
#     4   4   4   4   4   4   4
#     4  11  20  31  49  73  97 133 170 202 244 295
#     4   9  18  31  48  71 104 141 170 194 229 285
#     4  10  18  29  47  75 108 136 160 192 239 297
#     4  10  21  38  54  71  96 125 161 212 267 303
#     4  10  19  28  45  74 108 139 167 200 235 284
#     4  10  18  31  51  73  95 132 167 200 248 298
#     4   9  18  32  49  73 107 143 169 193 231 284
#
# _framework density 17.517547
#
# number of rings (size 3 to 8) (size 9 to 14) (size 15 to 20)
#    0.000    2.143    1.429    4.286    0.000    2.857 
#    0.000    4.286    0.000   12.000    0.000    4.000 
#    0.000    0.000    0.000    0.000    0.000    0.000 
#
# Total GULP energy -346915.979973 kJ/mol
# GULP energy per Si atom -12389.856428 kJ/mol
# Density = 1.747768 g / cm^3
# Si number density = 17.517547 Si / 1000 Ang^3
#
#
#
# Elastic Constant Matrix: (Units=GPa)
#
#
# Indices 1 2 3 4 5 6 
#
# 1 101.8931 29.8235 13.2379 0.0000 -3.0451 0.0000
# 2 29.8235 81.2344 43.5004 0.0000 -4.6059 0.0000
# 3 13.2379 43.5004 68.1640 0.0000 -2.0322 0.0000
# 4 0.0000 0.0000 0.0000 22.8016 0.0000 0.1221
# 5 -3.0451 -4.6059 -2.0322 0.0000 9.4116 0.0000
# 6 0.0000 0.0000 0.0000 0.1221 0.0000 17.5516
#
#
#
# Elastic Compliance Matrix: (Units=1/GPa)
#
#
# Indices 1 2 3 4 5 6 
#
# 1 0.011039 -0.004314 0.000657 0.000000 0.001602 0.000000
# 2 -0.004314 0.020805 -0.012256 0.000000 0.006140 0.000000
# 3 0.000657 -0.012256 0.022336 0.000000 -0.000963 0.000000
# 4 0.000000 0.000000 0.000000 0.043858 0.000000 -0.000305
# 5 0.001602 0.006140 -0.000963 0.000000 0.109567 0.000000
# 6 0.000000 0.000000 0.000000 -0.000305 0.000000 0.056977
#
#
# Mechanical properties :
#
#
# Convention : Reuss Voigt Hill
#
# Bulk Modulus (GPa) = 44.73543 47.15721 45.94632
# Shear Modulus (GPa) = 16.45491 20.93494 18.69493
#
# Velocity S-wave (km/s) = 3.06819 3.46075 3.27036
# Velocity P-wave (km/s) = 6.17614 6.55343 6.36758
#
# Compressibility (1/GPa) = 0.02235365
#
# Stress axis : x y z
#
# Youngs Moduli (GPa) = 90.58489 48.06521 44.77084
#
# Poissons Ratio (x) = 0.20734 -0.02940
# Poissons Ratio (y) = 0.39075 0.54873
# Poissons Ratio (z) = -0.05949 0.58911
#
# Static dielectric constant tensor:
#      x y z
#    x 3.444190 0.000000 0.002090 
#    y 0.000000 2.841360 0.000000 
#    z 0.002090 0.000000 3.309560 
# 
# 
# High freq. dielectric constant tensor:
#      x y z
#    x 1.689360 0.000000 0.004720 
#    y 0.000000 1.618140 0.000000 
#    z 0.004720 0.000000 1.679940 
# 
# From -- ./inp_files/46034.got.cif
#   From: 2010.06.25/outbox.cif.g09.slc.cpg/sg10_24_cif.got.tgz:46034.got - 2010.06.27 22:07:45.
