data_PCOD8057172
_publ_section_title
;
Structure prediction by ZEFSAII (Michael W. Deem and Ramdas Pophale) SiO2 
 PCOD8057172
Probable space group: P 2/M
;
_chemical_formula_sum "Si O2"
_cell_formula_units_Z 32
_cell_length_a 13.619187
_cell_length_b 8.937558
_cell_length_c 16.988541
_cell_angle_alpha 90.000000
_cell_angle_beta 77.471590
_cell_angle_gamma 90.000000
_cell_volume 2018.644558
_symmetry_space_group_name_H-M "P 2/M"
_symmetry_group_IT_number 10
_symmetry_cell_setting 'monoclinic'
loop_
_space_group_symop_operation_xyz
x,y,z
-x,y,-z
-x,-y,-z
x,-y,z
loop_
_atom_site_type_symbol
_atom_site_label
_atom_site_fract_x
_atom_site_fract_y
_atom_site_fract_z
Si Si1 0.764229 0.324355 0.560753
Si Si2 0.882424 0.331800 0.004679
Si Si3 0.877966 0.324225 0.691321
Si Si4 0.920416 0.823832 0.842467
Si Si5 0.849934 0.176468 0.167010
Si Si6 0.256073 0.330650 0.677999
Si Si7 0.382605 0.825930 0.525252
Si Si8 0.919598 0.667046 0.411637
O O1 0.751051 0.500000 0.543052
O O2 0.781744 0.297501 0.650837
O O3 0.665921 0.239242 0.546646
O O4 0.861420 0.259653 0.495873
O O5 0.839253 0.500000 0.007585
O O6 0.861880 0.247756 0.926344
O O7 0.828363 0.243616 0.084608
O O8 0.000000 0.333583 0.000000
O O9 0.892723 0.500000 0.707094
O O10 0.863808 0.237129 0.775032
O O11 0.975704 0.254099 0.629798
O O12 0.038380 0.778312 0.821979
O O13 0.907316 0.000000 0.849639
O O14 0.762876 0.241397 0.238179
O O15 0.838539 0.000000 0.164574
O O16 0.290177 0.500000 0.690939
O O17 0.341688 0.253137 0.610807
O O18 0.150883 0.328954 0.651671
O O19 0.500000 0.794128 0.500000
O O20 0.356892 0.000000 0.535340
O O21 0.948498 0.500000 0.431988
#
# Coordination Sequence:
#
# PCOD8057172 Si02
#       8
#     4   4   4   4   4   4   4   4
#     4   9  18  30  46  67  86 113 150 188 224 263
#     4   9  17  28  42  58  80 116 160 195 224 260
#     4  10  17  27  43  62  89 120 153 186 218 261
#     4  10  19  28  39  59  89 123 156 188 226 262
#     4  10  18  28  42  62  91 120 150 189 228 266
#     4  10  18  29  48  69  88 116 153 189 223 264
#     4  10  21  36  51  66  89 118 145 183 236 282
#     4   8  14  25  41  60  85 114 146 181 217 255
#
# _framework density 15.852221
#
# number of rings (size 3 to 8) (size 9 to 14) (size 15 to 20)
#    0.000    2.500    1.250    3.000    0.000    5.500 
#    0.000    0.000    0.000    2.250    0.000    0.000 
#    0.000    1.000    0.000   10.500    0.000    5.750 
#
# Total GULP energy -396665.997270 kJ/mol
# GULP energy per Si atom -12395.812415 kJ/mol
# Density = 1.581614 g / cm^3
# Si number density = 15.852221 Si / 1000 Ang^3
#
#
#
# Elastic Constant Matrix: (Units=GPa)
#
#
# Indices 1 2 3 4 5 6 
#
# 1 50.1598 35.1454 42.9525 0.0000 0.4120 0.0000
# 2 35.1454 93.3028 60.0271 0.0000 -0.7897 0.0000
# 3 42.9525 60.0271 126.2098 0.0000 8.5874 0.0000
# 4 0.0000 0.0000 0.0000 27.2342 0.0000 -1.6468
# 5 0.4120 -0.7897 8.5874 0.0000 15.2875 0.0000
# 6 0.0000 0.0000 0.0000 -1.6468 0.0000 15.4563
#
#
#
# Elastic Compliance Matrix: (Units=1/GPa)
#
#
# Indices 1 2 3 4 5 6 
#
# 1 0.031192 -0.006859 -0.007561 0.000000 0.003052 0.000000
# 2 -0.006859 0.017347 -0.006228 0.000000 0.004579 0.000000
# 3 -0.007561 -0.006228 0.014001 0.000000 -0.007983 0.000000
# 4 0.000000 0.000000 0.000000 0.036957 0.000000 0.003938
# 5 0.003052 0.004579 -0.007983 0.000000 0.070051 0.000000
# 6 0.000000 0.000000 0.000000 0.003938 0.000000 0.065118
#
#
# Mechanical properties :
#
#
# Convention : Reuss Voigt Hill
#
# Bulk Modulus (GPa) = 47.06993 60.65805 53.86399
# Shear Modulus (GPa) = 17.66519 20.36542 19.01531
#
# Velocity S-wave (km/s) = 3.34183 3.58817 3.46719
# Velocity P-wave (km/s) = 6.68191 7.45080 7.07680
#
# Compressibility (1/GPa) = 0.02124499
#
# Stress axis : x y z
#
# Youngs Moduli (GPa) = 32.05998 57.64728 71.42097
#
# Poissons Ratio (x) = 0.39542 0.53999
# Poissons Ratio (y) = 0.21991 0.44478
# Poissons Ratio (z) = 0.24239 0.35900
#
# Static dielectric constant tensor:
#      x y z
#    x 2.596960 0.000000 0.048560 
#    y 0.000000 2.997520 0.000000 
#    z 0.048560 0.000000 3.095620 
# 
# 
# High freq. dielectric constant tensor:
#      x y z
#    x 1.549090 0.000000 0.006360 
#    y 0.000000 1.608370 0.000000 
#    z 0.006360 0.000000 1.613780 
# 
# From -- ./inp_files/66009.got.cif
#   From: 2010.06.25/outbox.cif.g09.slc.cpg/sg10_34_cif.got.tgz:66009.got - 2010.06.27 22:07:45.
