data_PCOD8057219
_publ_section_title
;
Structure prediction by ZEFSAII (Michael W. Deem and Ramdas Pophale) SiO2 
 PCOD8057219
Probable space group: P 2/M
;
_chemical_formula_sum "Si O2"
_cell_formula_units_Z 32
_cell_length_a 16.416371
_cell_length_b 14.664355
_cell_length_c 22.073208
_cell_angle_alpha 90.000000
_cell_angle_beta 156.131087
_cell_angle_gamma 90.000000
_cell_volume 2150.207009
_symmetry_space_group_name_H-M "P 2/M"
_symmetry_group_IT_number 10
_symmetry_cell_setting 'monoclinic'
loop_
_space_group_symop_operation_xyz
x,y,z
-x,y,-z
-x,-y,-z
x,-y,z
loop_
_atom_site_type_symbol
_atom_site_label
_atom_site_fract_x
_atom_site_fract_y
_atom_site_fract_z
Si Si1 0.148405 0.606308 0.551571
Si Si2 0.284593 0.730359 0.323520
Si Si3 0.148202 0.395065 0.416514
Si Si4 0.067014 0.099430 0.142011
Si Si5 0.547974 0.288536 0.691461
Si Si6 0.028196 0.394605 0.826732
Si Si7 0.402307 0.608360 0.157105
Si Si8 0.680885 0.900064 0.808595
O O1 0.156574 0.500000 0.571300
O O2 0.062652 0.625655 0.425553
O O3 0.376377 0.644480 0.712462
O O4 0.000000 0.653519 0.500000
O O5 0.500000 0.745044 0.500000
O O6 0.155643 0.822795 0.246070
O O7 0.305699 0.706460 0.266919
O O8 0.166146 0.649315 0.274773
O O9 0.225563 0.500000 0.466566
O O10 0.332008 0.328236 0.526473
O O11 0.976262 0.377863 0.249073
O O12 0.192762 0.097403 0.166393
O O13 0.085288 0.000000 0.186493
O O14 0.833118 0.119388 0.967854
O O15 0.652401 0.347904 0.815259
O O16 0.521567 0.183126 0.696072
O O17 0.009026 0.500000 0.829473
O O18 0.239536 0.357741 0.996955
O O19 0.403544 0.500000 0.165796
O O20 0.575365 0.000000 0.745781
#
# Coordination Sequence:
#
# PCOD8057219 Si02
#       8
#     4   4   4   4   4   4   4   4
#     4   8  14  27  47  66  81 101 132 166 201 253
#     4  11  20  28  39  58  79 112 156 179 202 242
#     4   9  17  29  43  59  85 114 136 165 213 249
#     4   8  15  27  40  54  75 100 133 181 224 249
#     4  10  17  28  43  59  79 111 145 180 207 236
#     4  10  20  31  40  56  85 116 142 176 209 236
#     4   9  18  30  44  62  84 108 138 173 210 244
#     4   8  14  25  41  58  74  99 135 176 219 250
#
# _framework density 14.882289
#
# number of rings (size 3 to 8) (size 9 to 14) (size 15 to 20)
#    0.000    2.875    1.250    2.625    0.000    3.000 
#    0.000    1.875    0.000    3.750    0.000    0.000 
#    0.000    8.000    0.000    0.000    0.000   33.500 
#
# Total GULP energy -396527.783052 kJ/mol
# GULP energy per Si atom -12391.493220 kJ/mol
# Density = 1.484842 g / cm^3
# Si number density = 14.882289 Si / 1000 Ang^3
#
#
#
# Elastic Constant Matrix: (Units=GPa)
#
#
# Indices 1 2 3 4 5 6 
#
# 1 68.7184 23.0783 34.8438 0.0000 -8.3037 0.0000
# 2 23.0783 53.6294 32.2995 0.0000 -2.7382 0.0000
# 3 34.8438 32.2995 103.0211 0.0000 -16.6012 0.0000
# 4 0.0000 0.0000 0.0000 20.6193 0.0000 -1.7089
# 5 -8.3037 -2.7382 -16.6012 0.0000 12.9587 0.0000
# 6 0.0000 0.0000 0.0000 -1.7089 0.0000 2.4681
#
#
#
# Elastic Compliance Matrix: (Units=1/GPa)
#
#
# Indices 1 2 3 4 5 6 
#
# 1 0.019079 -0.005691 -0.003645 0.000000 0.006354 0.000000
# 2 -0.005691 0.025001 -0.007120 0.000000 -0.007485 0.000000
# 3 -0.003645 -0.007120 0.015819 0.000000 0.016425 0.000000
# 4 0.000000 0.000000 0.000000 0.051451 0.000000 0.035625
# 5 0.006354 -0.007485 0.016425 0.000000 0.100699 0.000000
# 6 0.000000 0.000000 0.000000 0.035625 0.000000 0.429843
#
#
# Mechanical properties :
#
#
# Convention : Reuss Voigt Hill
#
# Bulk Modulus (GPa) = 37.05360 45.09024 41.07192
# Shear Modulus (GPa) = 7.31209 16.21903 11.76556
#
# Velocity S-wave (km/s) = 2.21900 3.30483 2.81477
# Velocity P-wave (km/s) = 5.61401 6.70270 6.18237
#
# Compressibility (1/GPa) = 0.02698793
#
# Stress axis : x y z
#
# Youngs Moduli (GPa) = 52.41299 39.99789 63.21688
#
# Poissons Ratio (x) = 0.22762 0.23042
# Poissons Ratio (y) = 0.29827 0.45010
# Poissons Ratio (z) = 0.19104 0.28478
#
# Static dielectric constant tensor:
#      x y z
#    x 2.713470 0.000000 -0.110200 
#    y 0.000000 3.079390 0.000000 
#    z -0.110200 0.000000 3.037150 
# 
# 
# High freq. dielectric constant tensor:
#      x y z
#    x 1.526530 0.000000 -0.016600 
#    y 0.000000 1.558380 0.000000 
#    z -0.016600 0.000000 1.571240 
# 
# From -- ./inp_files/32578.got.cif
#   From: 2010.06.25/outbox.cif.g09.slc.cpg/sg10_17_cif.got.tgz:32578.got - 2010.06.27 22:07:45.
