data_PCOD8057308
_publ_section_title
;
Structure prediction by ZEFSAII (Michael W. Deem and Ramdas Pophale) SiO2 
 PCOD8057308
Probable space group: P 2/M
;
_chemical_formula_sum "Si O2"
_cell_formula_units_Z 32
_cell_length_a 14.338796
_cell_length_b 8.837432
_cell_length_c 27.965612
_cell_angle_alpha 90.000000
_cell_angle_beta 30.109290
_cell_angle_gamma 90.000000
_cell_volume 1777.725850
_symmetry_space_group_name_H-M "P 2/M"
_symmetry_group_IT_number 10
_symmetry_cell_setting 'monoclinic'
loop_
_space_group_symop_operation_xyz
x,y,z
-x,y,-z
-x,-y,-z
x,-y,z
loop_
_atom_site_type_symbol
_atom_site_label
_atom_site_fract_x
_atom_site_fract_y
_atom_site_fract_z
Si Si1 0.807402 0.673634 0.099979
Si Si2 0.016715 0.675174 0.150658
Si Si3 0.690576 0.176297 0.800930
Si Si4 0.346095 0.318905 0.734259
Si Si5 0.328566 0.670253 0.940982
Si Si6 0.744812 0.320588 0.578630
Si Si7 0.859942 0.320681 0.631269
Si Si8 0.293396 0.680118 0.107816
O O1 0.852816 0.500000 0.092666
O O2 0.714790 0.748438 0.187287
O O3 0.665981 0.685605 0.118503
O O4 0.000000 0.756015 0.000000
O O5 0.996582 0.500000 0.171252
O O6 0.139609 0.746704 0.138745
O O7 0.805078 0.741427 0.238063
O O8 0.123239 0.701573 0.053004
O O9 0.470821 0.209587 0.899378
O O10 0.780352 0.242405 0.713373
O O11 0.771883 0.253565 0.812450
O O12 0.730059 0.000000 0.785638
O O13 0.343924 0.500000 0.735292
O O14 0.558914 0.260916 0.633327
O O15 0.391220 0.500000 0.928543
O O16 0.744270 0.500000 0.581093
O O17 0.752483 0.266142 0.630779
O O18 0.925118 0.267480 0.469255
O O19 0.842796 0.500000 0.645591
O O20 0.288723 0.500000 0.111951
O O21 0.500000 0.734322 0.000000
#
# Coordination Sequence:
#
# PCOD8057308 Si02
#       8
#     4   4   4   4   4   4   4   4
#     4   9  14  20  38  71 105 130 155 188 227 278
#     4   9  16  26  44  70  99 127 159 198 243 294
#     4  12  24  34  48  72  99 130 168 213 256 293
#     4   9  14  22  39  72 108 129 152 196 247 291
#     4  10  17  29  47  70  99 133 166 197 235 290
#     4   8  15  28  51  80 106 129 159 202 247 292
#     4   9  17  33  54  77 102 131 165 201 247 298
#     4  10  19  34  53  71  94 129 170 209 251 297
#
# _framework density 18.000527000000002
#
# number of rings (size 3 to 8) (size 9 to 14) (size 15 to 20)
#    0.000    2.500    2.500    2.625    0.000    2.250 
#    0.000    1.250    0.000    1.125    0.000    7.875 
#    0.000    0.000    0.000    0.000    0.000    0.000 
#
# Total GULP energy -396437.367087 kJ/mol
# GULP energy per Si atom -12388.667721 kJ/mol
# Density = 1.795956 g / cm^3
# Si number density = 18.000527 Si / 1000 Ang^3
#
#
#
# Elastic Constant Matrix: (Units=GPa)
#
#
# Indices 1 2 3 4 5 6 
#
# 1 121.4610 19.5568 55.4843 0.0000 -20.0746 0.0000
# 2 19.5568 26.7546 14.9563 0.0000 1.4809 0.0000
# 3 55.4843 14.9563 83.9857 0.0000 -18.5140 0.0000
# 4 0.0000 0.0000 0.0000 3.9512 0.0000 0.3634
# 5 -20.0746 1.4809 -18.5140 0.0000 35.7375 0.0000
# 6 0.0000 0.0000 0.0000 0.3634 0.0000 3.0492
#
#
#
# Elastic Compliance Matrix: (Units=1/GPa)
#
#
# Indices 1 2 3 4 5 6 
#
# 1 0.012851 -0.005972 -0.006526 0.000000 0.004085 0.000000
# 2 -0.005972 0.045565 -0.006011 0.000000 -0.008357 0.000000
# 3 -0.006526 -0.006011 0.018667 0.000000 0.006254 0.000000
# 4 0.000000 0.000000 0.000000 0.255895 0.000000 -0.030498
# 5 0.004085 -0.008357 0.006254 0.000000 0.033863 0.000000
# 6 0.000000 0.000000 0.000000 -0.030498 0.000000 0.331586
#
#
# Mechanical properties :
#
#
# Convention : Reuss Voigt Hill
#
# Bulk Modulus (GPa) = 24.95922 45.79957 35.37940
# Shear Modulus (GPa) = 6.67735 18.02784 12.35259
#
# Velocity S-wave (km/s) = 1.92810 3.16811 2.62245
# Velocity P-wave (km/s) = 4.34197 6.23548 5.37280
#
# Compressibility (1/GPa) = 0.04006536
#
# Stress axis : x y z
#
# Youngs Moduli (GPa) = 77.81592 21.94671 53.57010
#
# Poissons Ratio (x) = 0.13106 0.34958
# Poissons Ratio (y) = 0.46469 0.32203
# Poissons Ratio (z) = 0.50781 0.13193
#
# Static dielectric constant tensor:
#      x y z
#    x 3.625300 0.000000 -0.248270 
#    y 0.000000 2.706870 0.000000 
#    z -0.248270 0.000000 3.497900 
# 
# 
# High freq. dielectric constant tensor:
#      x y z
#    x 1.701710 0.000000 -0.011840 
#    y 0.000000 1.626840 0.000000 
#    z -0.011840 0.000000 1.685860 
# 
# From -- ./inp_files/95245.got.cif
#   From: 2010.06.25/outbox.cif.g09.slc.cpg/sg10_48_cif.got.tgz:95245.got - 2010.06.27 22:07:45.
