data_PCOD8057632
_publ_section_title
;
Structure prediction by ZEFSAII (Michael W. Deem and Ramdas Pophale) SiO2 
 PCOD8057632
Probable space group: P 2/M
;
_chemical_formula_sum "Si O2"
_cell_formula_units_Z 32
_cell_length_a 19.463812
_cell_length_b 9.375297
_cell_length_c 28.848857
_cell_angle_alpha 90.000000
_cell_angle_beta 156.648631
_cell_angle_gamma 90.000000
_cell_volume 2086.608591
_symmetry_space_group_name_H-M "P 2/M"
_symmetry_group_IT_number 10
_symmetry_cell_setting 'monoclinic'
loop_
_space_group_symop_operation_xyz
x,y,z
-x,y,-z
-x,-y,-z
x,-y,z
loop_
_atom_site_type_symbol
_atom_site_label
_atom_site_fract_x
_atom_site_fract_y
_atom_site_fract_z
Si Si1 0.774254 0.165086 0.953403
Si Si2 0.386621 0.833752 0.733402
Si Si3 0.246161 0.161218 0.166700
Si Si4 0.612452 0.161713 0.438100
Si Si5 0.842183 0.166158 0.496520
Si Si6 0.538024 0.333105 0.575118
Si Si7 0.882691 0.338601 0.382019
Si Si8 0.098757 0.667652 0.155886
O O1 0.588518 0.209160 0.859120
O O2 0.773967 0.199765 0.899014
O O3 0.812307 0.000000 0.986937
O O4 0.926644 0.259673 0.071166
O O5 0.304526 0.797263 0.632492
O O6 0.296197 0.742836 0.717992
O O7 0.360898 0.000000 0.728586
O O8 0.445848 0.179385 0.302705
O O9 0.128050 0.268431 0.122885
O O10 0.182758 0.000000 0.137937
O O11 0.773324 0.206381 0.505133
O O12 0.598614 0.259907 0.474796
O O13 0.633151 0.000000 0.468299
O O14 0.015327 0.258264 0.595852
O O15 0.890861 0.000000 0.523500
O O16 0.500000 0.277330 0.500000
O O17 0.504692 0.500000 0.558918
O O18 0.736199 0.293330 0.709996
O O19 0.841891 0.500000 0.341221
O O20 0.000000 0.334595 0.500000
O O21 0.069910 0.500000 0.134252
#
# Coordination Sequence:
#
# PCOD8057632 Si02
#       8
#     4   4   4   4   4   4   4   4
#     4  10  18  28  42  59  82 113 145 173 203 245
#     4   9  16  27  41  56  78 114 151 174 201 242
#     4   9  16  28  42  57  81 112 142 171 204 243
#     4   9  16  27  45  67  85 105 141 182 213 244
#     4   9  15  26  42  59  81 110 144 177 206 243
#     4   9  19  35  49  60  81 112 141 172 216 265
#     4   9  17  26  36  55  82 112 145 179 211 238
#     4  10  20  30  41  60  81 105 139 176 213 249
#
# _framework density 15.335889
#
# number of rings (size 3 to 8) (size 9 to 14) (size 15 to 20)
#    0.000    2.750    1.250    1.125    0.000    5.250 
#    0.000    0.000    0.000    0.000    0.000    0.000 
#    0.000    1.000    0.000   11.250    0.000    5.000 
#
# Total GULP energy -396731.387261 kJ/mol
# GULP energy per Si atom -12397.855852 kJ/mol
# Density = 1.530098 g / cm^3
# Si number density = 15.335889 Si / 1000 Ang^3
#
#
#
# Elastic Constant Matrix: (Units=GPa)
#
#
# Indices 1 2 3 4 5 6 
#
# 1 102.8159 59.2449 54.3387 0.0000 20.5478 0.0000
# 2 59.2449 77.0741 41.5555 0.0000 18.1720 0.0000
# 3 54.3387 41.5555 55.9982 0.0000 20.0469 0.0000
# 4 0.0000 0.0000 0.0000 17.1645 0.0000 0.8608
# 5 20.5478 18.1720 20.0469 0.0000 25.3183 0.0000
# 6 0.0000 0.0000 0.0000 0.8608 0.0000 14.2067
#
#
#
# Elastic Compliance Matrix: (Units=1/GPa)
#
#
# Indices 1 2 3 4 5 6 
#
# 1 0.023618 -0.009689 -0.015848 0.000000 0.000335 0.000000
# 2 -0.009689 0.025886 -0.008334 0.000000 -0.004118 0.000000
# 3 -0.015848 -0.008334 0.045600 0.000000 -0.017263 0.000000
# 4 0.000000 0.000000 0.000000 0.058437 0.000000 -0.003541
# 5 0.000335 -0.004118 -0.017263 0.000000 0.055849 0.000000
# 6 0.000000 0.000000 0.000000 -0.003541 0.000000 0.070604
#
#
# Mechanical properties :
#
#
# Convention : Reuss Voigt Hill
#
# Bulk Modulus (GPa) = 36.54549 60.68513 48.61531
# Shear Modulus (GPa) = 14.01120 16.72118 15.36619
#
# Velocity S-wave (km/s) = 3.02590 3.30560 3.16883
# Velocity P-wave (km/s) = 6.00748 7.36382 6.71996
#
# Compressibility (1/GPa) = 0.02736316
#
# Stress axis : x y z
#
# Youngs Moduli (GPa) = 42.34114 38.63052 21.92962
#
# Poissons Ratio (x) = 0.37428 0.34753
# Poissons Ratio (y) = 0.41023 0.18277
# Poissons Ratio (z) = 0.67101 0.32196
#
# Static dielectric constant tensor:
#      x y z
#    x 2.921930 0.000000 0.282710 
#    y 0.000000 2.964540 0.000000 
#    z 0.282710 0.000000 2.815360 
# 
# 
# High freq. dielectric constant tensor:
#      x y z
#    x 1.568360 0.000000 0.031040 
#    y 0.000000 1.589900 0.000000 
#    z 0.031040 0.000000 1.555660 
# 
# From -- ./inp_files/68230.got.cif
#   From: 2010.06.25/outbox.cif.g09.slc.cpg/sg10_35_cif.got.tgz:68230.got - 2010.06.27 22:07:45.
