data_PCOD8057561
_publ_section_title
;
Structure prediction by ZEFSAII (Michael W. Deem and Ramdas Pophale) SiO2 
 PCOD8057561
Probable space group: P 2/M
;
_chemical_formula_sum "Si O2"
_cell_formula_units_Z 32
_cell_length_a 11.082916
_cell_length_b 9.510604
_cell_length_c 20.754667
_cell_angle_alpha 90.000000
_cell_angle_beta 114.190986
_cell_angle_gamma 90.000000
_cell_volume 1995.540950
_symmetry_space_group_name_H-M "P 2/M"
_symmetry_group_IT_number 10
_symmetry_cell_setting 'monoclinic'
loop_
_space_group_symop_operation_xyz
x,y,z
-x,y,-z
-x,-y,-z
x,-y,z
loop_
_atom_site_type_symbol
_atom_site_label
_atom_site_fract_x
_atom_site_fract_y
_atom_site_fract_z
Si Si1 0.203815 0.162743 0.710200
Si Si2 0.518330 0.339095 0.608850
Si Si3 0.714678 0.660398 0.536867
Si Si4 0.502273 0.835140 0.270074
Si Si5 0.969480 0.165808 0.565316
Si Si6 0.266886 0.342498 0.839031
Si Si7 0.638892 0.333175 0.010491
Si Si8 0.430350 0.658182 0.139103
O O1 0.343826 0.197875 0.708210
O O2 0.183958 0.243630 0.773250
O O3 0.091914 0.212427 0.636297
O O4 0.191634 0.000000 0.724173
O O5 0.510386 0.500000 0.631734
O O6 0.383766 0.298477 0.542522
O O7 0.642175 0.319636 0.588909
O O8 0.539943 0.233684 0.672254
O O9 0.761848 0.500000 0.539048
O O10 0.839070 0.761923 0.563619
O O11 0.413434 0.766114 0.194251
O O12 0.472172 0.000000 0.265720
O O13 0.000000 0.218166 0.500000
O O14 0.945918 0.000000 0.561789
O O15 0.210235 0.500000 0.819096
O O16 0.252796 0.288870 0.911028
O O17 0.421020 0.339327 0.854938
O O18 0.624657 0.500000 0.011782
O O19 0.500000 0.261930 0.000000
O O20 0.667556 0.293689 0.941614
O O21 0.394774 0.500000 0.154590
#
# Coordination Sequence:
#
# PCOD8057561 Si02
#       8
#     4   4   4   4   4   4   4   4
#     4   9  18  29  39  57  87 117 143 174 211 248
#     4   9  18  33  49  64  85 109 134 172 220 258
#     4   9  19  34  50  67  84 105 138 178 215 252
#     4  10  18  27  41  62  87 115 147 176 203 244
#     4  10  20  33  47  63  87 117 144 172 209 250
#     4   8  13  22  37  55  75 105 145 179 205 242
#     4   7  10  18  33  52  74 103 139 174 206 243
#     4   8  13  22  36  54  79 110 140 172 211 248
#
# _framework density 16.035751000000001
#
# number of rings (size 3 to 8) (size 9 to 14) (size 15 to 20)
#    0.000    3.250    0.000    3.375    0.000    3.250 
#    0.000    1.875    0.000    3.750    0.000    0.000 
#    0.000    1.000    0.000   11.250    0.000    8.750 
#
# Total GULP energy -396527.233134 kJ/mol
# GULP energy per Si atom -12391.476035 kJ/mol
# Density = 1.599925 g / cm^3
# Si number density = 16.035751 Si / 1000 Ang^3
#
#
#
# Elastic Constant Matrix: (Units=GPa)
#
#
# Indices 1 2 3 4 5 6 
#
# 1 36.7637 25.6421 33.5459 0.0000 -3.3456 0.0000
# 2 25.6421 64.5080 62.3019 0.0000 -10.7100 0.0000
# 3 33.5459 62.3019 158.2448 0.0000 -17.4726 0.0000
# 4 0.0000 0.0000 0.0000 23.4684 0.0000 -0.0065
# 5 -3.3456 -10.7100 -17.4726 0.0000 16.4725 0.0000
# 6 0.0000 0.0000 0.0000 -0.0065 0.0000 20.1784
#
#
#
# Elastic Compliance Matrix: (Units=1/GPa)
#
#
# Indices 1 2 3 4 5 6 
#
# 1 0.039039 -0.012552 -0.003806 0.000000 -0.004268 0.000000
# 2 -0.012552 0.029696 -0.008133 0.000000 0.008132 0.000000
# 3 -0.003806 -0.008133 0.010940 0.000000 0.005544 0.000000
# 4 0.000000 0.000000 0.000000 0.042611 0.000000 0.000014
# 5 -0.004268 0.008132 0.005544 0.000000 0.071008 0.000000
# 6 0.000000 0.000000 0.000000 0.000014 0.000000 0.049558
#
#
# Mechanical properties :
#
#
# Convention : Reuss Voigt Hill
#
# Bulk Modulus (GPa) = 32.57797 55.83293 44.20545
# Shear Modulus (GPa) = 16.55283 21.22562 18.88922
#
# Velocity S-wave (km/s) = 3.21634 3.64214 3.43584
# Velocity P-wave (km/s) = 5.84406 7.25123 6.58534
#
# Compressibility (1/GPa) = 0.03069559
#
# Stress axis : x y z
#
# Youngs Moduli (GPa) = 25.61524 33.67453 91.40680
#
# Poissons Ratio (x) = 0.42267 0.34785
# Poissons Ratio (y) = 0.32151 0.74340
# Poissons Ratio (z) = 0.09748 0.27387
#
# Static dielectric constant tensor:
#      x y z
#    x 2.544790 0.000000 -0.121960 
#    y 0.000000 2.928040 0.000000 
#    z -0.121960 0.000000 3.439280 
# 
# 
# High freq. dielectric constant tensor:
#      x y z
#    x 1.556590 0.000000 -0.015280 
#    y 0.000000 1.605040 0.000000 
#    z -0.015280 0.000000 1.633750 
# 
# From -- ./inp_files/54511.got.cif
#   From: 2010.06.25/outbox.cif.g09.slc.cpg/sg10_28_cif.got.tgz:54511.got - 2010.06.27 22:07:45.
