data_PCOD8057838
_publ_section_title
;
Structure prediction by ZEFSAII (Michael W. Deem and Ramdas Pophale) SiO2 
 PCOD8057838
Probable space group: P 2/M
;
_chemical_formula_sum "Si O2"
_cell_formula_units_Z 32
_cell_length_a 28.965329
_cell_length_b 9.012015
_cell_length_c 23.600585
_cell_angle_alpha 90.000000
_cell_angle_beta 161.601084
_cell_angle_gamma 90.000000
_cell_volume 1944.477435
_symmetry_space_group_name_H-M "P 2/M"
_symmetry_group_IT_number 10
_symmetry_cell_setting 'monoclinic'
loop_
_space_group_symop_operation_xyz
x,y,z
-x,y,-z
-x,-y,-z
x,-y,z
loop_
_atom_site_type_symbol
_atom_site_label
_atom_site_fract_x
_atom_site_fract_y
_atom_site_fract_z
Si Si1 0.988328 0.667422 0.856769
Si Si2 0.302246 0.666647 0.407609
Si Si3 0.226141 0.832123 0.916106
Si Si4 0.146076 0.832446 0.133051
Si Si5 0.825475 0.824952 0.571912
Si Si6 0.453220 0.174051 0.680185
Si Si7 0.053564 0.675244 0.391813
Si Si8 0.006971 0.168440 0.571050
O O1 0.033303 0.500000 0.892483
O O2 0.846952 0.666369 0.731439
O O3 0.955910 0.761095 0.762639
O O4 0.120910 0.744061 0.045215
O O5 0.352180 0.500000 0.451274
O O6 0.278126 0.755186 0.321069
O O7 0.427742 0.744738 0.590821
O O8 0.390851 0.772558 0.113646
O O9 0.214894 0.000000 0.926895
O O10 0.175063 0.829278 0.790285
O O11 0.111649 0.728824 0.817557
O O12 0.192534 0.000000 0.172614
O O13 0.000000 0.831140 0.000000
O O14 0.668845 0.781809 0.415985
O O15 0.831796 0.748151 0.517991
O O16 0.846022 0.000000 0.589880
O O17 0.447545 0.000000 0.661578
O O18 0.066604 0.500000 0.404454
O O19 0.091105 0.734492 0.499240
O O20 0.000000 0.238362 0.500000
O O21 0.945715 0.000000 0.498378
#
# Coordination Sequence:
#
# PCOD8057838 Si02
#       8
#     4   4   4   4   4   4   4   4
#     4   9  16  25  37  56  83 114 147 187 233 273
#     4   9  16  24  36  56  84 115 147 185 230 275
#     4   8  16  31  48  69  93 118 152 190 226 266
#     4   9  15  23  35  52  77 111 151 189 225 269
#     4  10  18  29  45  66  92 123 155 187 228 274
#     4   9  17  29  46  66  91 121 153 190 231 273
#     4  10  19  30  46  70  96 122 152 185 224 267
#     4   8  15  30  52  73  93 118 150 188 225 262
#
# _framework density 16.456863999999999
#
# number of rings (size 3 to 8) (size 9 to 14) (size 15 to 20)
#    0.750    2.250    0.000    2.250    0.000    5.750 
#    0.000    0.000    0.000    0.750    0.000    6.125 
#    0.000    7.000    0.000    0.000    0.000    0.000 
#
# Total GULP energy -396544.365496 kJ/mol
# GULP energy per Si atom -12392.011422 kJ/mol
# Density = 1.641941 g / cm^3
# Si number density = 16.456864 Si / 1000 Ang^3
#
#
#
# Elastic Constant Matrix: (Units=GPa)
#
#
# Indices 1 2 3 4 5 6 
#
# 1 20.4405 8.5481 -2.3838 0.0000 -1.6204 0.0000
# 2 8.5481 85.3301 10.4168 0.0000 0.4402 0.0000
# 3 -2.3838 10.4168 50.1043 0.0000 -4.8069 0.0000
# 4 0.0000 0.0000 0.0000 15.8009 0.0000 -4.0498
# 5 -1.6204 0.4402 -4.8069 0.0000 15.5771 0.0000
# 6 0.0000 0.0000 0.0000 -4.0498 0.0000 21.1963
#
#
#
# Elastic Compliance Matrix: (Units=1/GPa)
#
#
# Indices 1 2 3 4 5 6 
#
# 1 0.052419 -0.005821 0.004373 0.000000 0.006967 0.000000
# 2 -0.005821 0.012691 -0.003100 0.000000 -0.001921 0.000000
# 3 0.004373 -0.003100 0.021499 0.000000 0.007177 0.000000
# 4 0.000000 0.000000 0.000000 0.066546 0.000000 0.012715
# 5 0.006967 -0.001921 0.007177 0.000000 0.067191 0.000000
# 6 0.000000 0.000000 0.000000 0.012715 0.000000 0.049607
#
#
# Mechanical properties :
#
#
# Convention : Reuss Voigt Hill
#
# Bulk Modulus (GPa) = 12.90108 21.00412 16.95260
# Shear Modulus (GPa) = 16.39953 19.80110 18.10032
#
# Velocity S-wave (km/s) = 3.16019 3.47250 3.32002
# Velocity P-wave (km/s) = 4.60131 5.37294 5.00203
#
# Compressibility (1/GPa) = 0.07751288
#
# Stress axis : x y z
#
# Youngs Moduli (GPa) = 19.07710 78.79838 46.51300
#
# Poissons Ratio (x) = 0.45867 -0.20338
# Poissons Ratio (y) = 0.11105 0.14417
# Poissons Ratio (z) = -0.08341 0.24425
#
# Static dielectric constant tensor:
#      x y z
#    x 2.860940 0.000000 -0.231520 
#    y 0.000000 3.150830 0.000000 
#    z -0.231520 0.000000 2.916750 
# 
# 
# High freq. dielectric constant tensor:
#      x y z
#    x 1.602330 0.000000 -0.025910 
#    y 0.000000 1.642470 0.000000 
#    z -0.025910 0.000000 1.600950 
# 
# From -- ./inp_files/91375.got.cif
#   From: 2010.06.25/outbox.cif.g09.slc.cpg/sg10_46_cif.got.tgz:91375.got - 2010.06.27 22:07:45.
