data_PCOD8057411
_publ_section_title
;
Structure prediction by ZEFSAII (Michael W. Deem and Ramdas Pophale) SiO2 
 PCOD8057411
Probable space group: P 2/M
;
_chemical_formula_sum "Si O2"
_cell_formula_units_Z 32
_cell_length_a 19.288588
_cell_length_b 20.864593
_cell_length_c 11.185637
_cell_angle_alpha 90.000000
_cell_angle_beta 23.865520
_cell_angle_gamma 90.000000
_cell_volume 1821.325811
_symmetry_space_group_name_H-M "P 2/M"
_symmetry_group_IT_number 10
_symmetry_cell_setting 'monoclinic'
loop_
_space_group_symop_operation_xyz
x,y,z
-x,y,-z
-x,-y,-z
x,-y,z
loop_
_atom_site_type_symbol
_atom_site_label
_atom_site_fract_x
_atom_site_fract_y
_atom_site_fract_z
Si Si1 0.015961 0.932362 0.616013
Si Si2 0.588123 0.573828 0.984268
Si Si3 0.588077 0.932366 0.987928
Si Si4 0.018464 0.426315 0.608139
Si Si5 0.983693 0.206982 0.384336
Si Si6 0.500165 0.680998 0.696945
Si Si7 0.416627 0.793420 0.002177
Si Si8 0.782118 0.318770 0.060146
O O1 0.940823 0.863367 0.775666
O O2 0.000000 0.933551 0.500000
O O3 0.930004 0.000000 0.800294
O O4 0.210442 0.932964 0.351504
O O5 0.552311 0.500000 0.073436
O O6 0.508801 0.615226 0.215601
O O7 0.500000 0.594080 0.000000
O O8 0.789356 0.586955 0.651742
O O9 0.541544 0.864108 0.122864
O O10 0.536930 0.000000 0.136959
O O11 0.500000 0.933086 0.000000
O O12 0.964583 0.500000 0.710229
O O13 0.000000 0.405107 0.500000
O O14 0.890740 0.384114 0.888427
O O15 0.000000 0.217889 0.500000
O O16 0.785969 0.216213 0.661800
O O17 0.092065 0.258300 0.140353
O O18 0.497779 0.741729 0.787048
O O19 0.341716 0.684549 0.857591
O O20 0.679364 0.682169 0.345447
O O21 0.500000 0.785639 0.000000
#
# Coordination Sequence:
#
# PCOD8057411 Si02
#       8
#     4   4   4   4   4   4   4   4
#     4   8  14  23  40  68  94 119 160 210 250 284
#     4  10  21  38  59  81 105 132 163 203 252 301
#     4   8  14  25  43  69  97 123 157 205 253 292
#     4  10  19  35  58  80 100 128 171 210 240 291
#     4  10  17  31  52  71  97 135 172 207 247 297
#     4  11  22  35  51  76 106 136 167 209 252 293
#     4  10  19  32  52  76 101 131 170 211 251 299
#     4  11  22  34  52  76 105 135 171 209 247 293
#
# _framework density 17.569617999999998
#
# number of rings (size 3 to 8) (size 9 to 14) (size 15 to 20)
#    0.000    2.250    2.500    1.500    0.000    0.500 
#    0.000    3.750    0.000    3.000    0.000    1.750 
#    0.000   10.000    0.000    0.000    0.000    0.000 
#
# Total GULP energy -396429.571757 kJ/mol
# GULP energy per Si atom -12388.424117 kJ/mol
# Density = 1.752963 g / cm^3
# Si number density = 17.569618 Si / 1000 Ang^3
#
#
#
# Elastic Constant Matrix: (Units=GPa)
#
#
# Indices 1 2 3 4 5 6 
#
# 1 81.7669 35.6372 45.1491 0.0000 -13.1805 0.0000
# 2 35.6372 160.4094 70.8217 0.0000 16.7536 0.0000
# 3 45.1491 70.8217 93.3087 0.0000 1.2618 0.0000
# 4 0.0000 0.0000 0.0000 9.4787 0.0000 -8.3381
# 5 -13.1805 16.7536 1.2618 0.0000 26.5392 0.0000
# 6 0.0000 0.0000 0.0000 -8.3381 0.0000 19.7955
#
#
#
# Elastic Compliance Matrix: (Units=1/GPa)
#
#
# Indices 1 2 3 4 5 6 
#
# 1 0.019303 -0.001902 -0.008047 0.000000 0.011170 0.000000
# 2 -0.001902 0.010470 -0.006929 0.000000 -0.007225 0.000000
# 3 -0.008047 -0.006929 0.019878 0.000000 -0.000568 0.000000
# 4 0.000000 0.000000 0.000000 0.167600 0.000000 0.070595
# 5 0.011170 -0.007225 -0.000568 0.000000 0.047815 0.000000
# 6 0.000000 0.000000 0.000000 0.070595 0.000000 0.080252
#
#
# Mechanical properties :
#
#
# Convention : Reuss Voigt Hill
#
# Bulk Modulus (GPa) = 62.91627 70.96677 66.94152
# Shear Modulus (GPa) = 13.00816 23.42113 18.21464
#
# Velocity S-wave (km/s) = 2.72394 3.65505 3.22330
# Velocity P-wave (km/s) = 6.76613 7.63492 7.21362
#
# Compressibility (1/GPa) = 0.01589414
#
# Stress axis : x y z
#
# Youngs Moduli (GPa) = 51.80541 95.50696 50.30708
#
# Poissons Ratio (x) = 0.18166 0.40485
# Poissons Ratio (y) = 0.09854 0.34858
# Poissons Ratio (z) = 0.41690 0.66178
#
# Static dielectric constant tensor:
#      x y z
#    x 3.262380 0.000000 -0.331700 
#    y 0.000000 3.991700 0.000000 
#    z -0.331700 0.000000 2.961150 
# 
# 
# High freq. dielectric constant tensor:
#      x y z
#    x 1.673170 0.000000 -0.039800 
#    y 0.000000 1.715520 0.000000 
#    z -0.039800 0.000000 1.633430 
# 
# From -- ./inp_files/56139.got.cif
#   From: 2010.06.25/outbox.cif.g09.slc.cpg/sg10_29_cif.got.tgz:56139.got - 2010.06.27 22:07:45.
