data_PCOD8057100
_publ_section_title
;
Structure prediction by ZEFSAII (Michael W. Deem and Ramdas Pophale) SiO2 
 PCOD8057100
Probable space group: P 2/M
;
_chemical_formula_sum "Si O2"
_cell_formula_units_Z 28
_cell_length_a 14.178358
_cell_length_b 9.274122
_cell_length_c 28.398423
_cell_angle_alpha 90.000000
_cell_angle_beta 28.893293
_cell_angle_gamma 90.000000
_cell_volume 1804.271233
_symmetry_space_group_name_H-M "P 2/M"
_symmetry_group_IT_number 10
_symmetry_cell_setting 'monoclinic'
loop_
_space_group_symop_operation_xyz
x,y,z
-x,y,-z
-x,-y,-z
x,-y,z
loop_
_atom_site_type_symbol
_atom_site_label
_atom_site_fract_x
_atom_site_fract_y
_atom_site_fract_z
Si Si1 0.903418 0.167269 0.642035
Si Si2 0.764890 0.836204 0.803008
Si Si3 0.269332 0.336974 0.093771
Si Si4 0.784686 0.832821 0.076088
Si Si5 0.318161 0.166580 0.983270
Si Si6 0.832972 0.658870 0.534027
Si Si7 0.426866 0.670493 0.270102
O O1 0.908876 0.187987 0.695978
O O2 0.720901 0.254245 0.701402
O O3 0.109021 0.226865 0.531719
O O4 0.879367 0.000000 0.638836
O O5 0.834094 0.736885 0.816075
O O6 0.547313 0.797397 0.880936
O O7 0.772181 0.000000 0.817892
O O8 0.195136 0.500000 0.123035
O O9 0.500000 0.325545 0.000000
O O10 0.211133 0.257209 0.070951
O O11 0.774248 0.787622 0.026015
O O12 0.641016 0.735333 0.169873
O O13 0.725174 0.000000 0.108143
O O14 0.000000 0.801119 0.000000
O O15 0.280386 0.000000 0.011014
O O16 0.811960 0.500000 0.520162
O O17 0.635512 0.702211 0.648257
O O18 0.000000 0.655300 0.500000
O O19 0.424999 0.500000 0.260551
#
# Coordination Sequence:
#
# PCOD8057100 Si02
#       7
#     4   4   4   4   4   4   4
#     4  10  17  26  42  64  86 112 146 177 209 253
#     4   9  16  26  40  59  84 113 141 169 208 254
#     4   9  17  26  38  59  81 106 141 174 205 248
#     4  10  20  33  48  65  84 110 149 189 219 251
#     4   9  16  29  43  56  80 112 140 173 216 252
#     4   8  16  28  39  57  83 113 143 172 211 255
#     4  10  19  30  43  58  84 116 145 178 217 257
#
# _framework density 15.518731000000001
#
# number of rings (size 3 to 8) (size 9 to 14) (size 15 to 20)
#    0.000    2.714    1.429    2.143    0.000    6.857 
#    0.000    0.000    0.000    0.000    0.000    0.000 
#    0.000    1.143    0.000   12.857    0.000    6.429 
#
# Total GULP energy -347119.621168 kJ/mol
# GULP energy per Si atom -12397.129327 kJ/mol
# Density = 1.548341 g / cm^3
# Si number density = 15.518731 Si / 1000 Ang^3
#
#
#
# Elastic Constant Matrix: (Units=GPa)
#
#
# Indices 1 2 3 4 5 6 
#
# 1 68.9379 44.2406 48.8425 0.0000 18.8307 0.0000
# 2 44.2406 103.2593 64.7729 0.0000 20.1006 0.0000
# 3 48.8425 64.7729 92.0273 0.0000 23.8023 0.0000
# 4 0.0000 0.0000 0.0000 26.6471 0.0000 7.2437
# 5 18.8307 20.1006 23.8023 0.0000 21.9905 0.0000
# 6 0.0000 0.0000 0.0000 7.2437 0.0000 8.9745
#
#
#
# Elastic Compliance Matrix: (Units=1/GPa)
#
#
# Indices 1 2 3 4 5 6 
#
# 1 0.025442 -0.003820 -0.008447 0.000000 -0.009151 0.000000
# 2 -0.003820 0.018129 -0.010128 0.000000 -0.002337 0.000000
# 3 -0.008447 -0.010128 0.025294 0.000000 -0.010887 0.000000
# 4 0.000000 0.000000 0.000000 0.048076 0.000000 -0.038804
# 5 -0.009151 -0.002337 -0.010887 0.000000 0.067231 0.000000
# 6 0.000000 0.000000 0.000000 -0.038804 0.000000 0.142747
#
#
# Mechanical properties :
#
#
# Convention : Reuss Voigt Hill
#
# Bulk Modulus (GPa) = 41.53847 64.43738 52.98793
# Shear Modulus (GPa) = 13.16707 18.61366 15.89036
#
# Velocity S-wave (km/s) = 2.91600 3.46704 3.20339
# Velocity P-wave (km/s) = 6.17755 7.59208 6.92105
#
# Compressibility (1/GPa) = 0.02407407
#
# Stress axis : x y z
#
# Youngs Moduli (GPa) = 39.30507 55.15931 39.53478
#
# Poissons Ratio (x) = 0.21072 0.33397
# Poissons Ratio (y) = 0.15015 0.40041
# Poissons Ratio (z) = 0.33203 0.55866
#
# Static dielectric constant tensor:
#      x y z
#    x 2.679840 0.000000 0.355340 
#    y 0.000000 3.073580 0.000000 
#    z 0.355340 0.000000 3.049100 
# 
# 
# High freq. dielectric constant tensor:
#      x y z
#    x 1.552270 0.000000 0.040090 
#    y 0.000000 1.605410 0.000000 
#    z 0.040090 0.000000 1.576260 
# 
# From -- ./inp_files/65777.got.cif
#   From: 2010.06.25/outbox.cif.g09.slc.cpg/sg10_33_cif.got.tgz:65777.got - 2010.06.27 22:07:45.
