data_PCOD8057183
_publ_section_title
;
Structure prediction by ZEFSAII (Michael W. Deem and Ramdas Pophale) SiO2 
 PCOD8057183
Probable space group: P 2/M
;
_chemical_formula_sum "Si O2"
_cell_formula_units_Z 32
_cell_length_a 8.928911
_cell_length_b 14.450109
_cell_length_c 30.970818
_cell_angle_alpha 90.000000
_cell_angle_beta 149.874634
_cell_angle_gamma 90.000000
_cell_volume 2005.552543
_symmetry_space_group_name_H-M "P 2/M"
_symmetry_group_IT_number 10
_symmetry_cell_setting 'monoclinic'
loop_
_space_group_symop_operation_xyz
x,y,z
-x,y,-z
-x,-y,-z
x,-y,z
loop_
_atom_site_type_symbol
_atom_site_label
_atom_site_fract_x
_atom_site_fract_y
_atom_site_fract_z
Si Si1 0.695504 0.893477 0.672996
Si Si2 0.466277 0.398784 0.096264
Si Si3 0.111169 0.398784 0.096231
Si Si4 0.342613 0.893476 0.673032
Si Si5 0.668540 0.890154 0.500019
Si Si6 0.822351 0.896522 0.999983
Si Si7 0.331501 0.209389 0.169727
Si Si8 0.686898 0.790611 0.169762
O O1 0.499293 0.883163 0.666426
O O2 0.500814 0.854541 0.584742
O O3 0.985438 0.831160 0.749063
O O4 0.791540 0.000000 0.689285
O O5 0.623696 0.500000 0.131234
O O6 0.269152 0.395364 0.089723
O O7 0.707855 0.316548 0.159486
O O8 0.242324 0.382978 0.000022
O O9 0.163527 0.500000 0.131190
O O10 0.248874 0.316548 0.159444
O O11 0.509217 0.831163 0.749118
O O12 0.007760 0.854533 0.584796
O O13 0.344341 0.000000 0.689326
O O14 0.500000 0.850632 0.500000
O O15 0.669181 0.000000 0.500026
O O16 0.021305 0.844472 0.085056
O O17 0.755425 0.000000 0.999977
O O18 0.510863 0.844474 0.914898
O O19 0.000000 0.898551 0.000000
O O20 0.548720 0.199015 0.182919
#
# Coordination Sequence:
#
# PCOD8057183 Si02
#       8
#     4   4   4   4   4   4   4   4
#     4  10  20  32  45  64  93 125 152 182 224 271
#     4   8  13  23  41  65  90 114 147 195 241 271
#     4   8  13  23  41  65  90 114 147 195 241 271
#     4  10  20  32  45  64  93 125 152 182 224 271
#     4   9  17  31  51  71  88 111 148 191 227 262
#     4   9  16  24  36  58  88 119 153 191 222 249
#     4  10  17  27  44  66  89 119 157 192 226 266
#     4  10  17  27  44  66  89 119 157 192 226 266
#
# _framework density 15.955703
#
# number of rings (size 3 to 8) (size 9 to 14) (size 15 to 20)
#    0.000    2.750    1.250    2.625    0.000    4.000 
#    0.000    0.625    0.000    3.000    0.000    2.625 
#    0.000    7.000    0.000    0.000    0.000    0.000 
#
# Total GULP energy -396635.933372 kJ/mol
# GULP energy per Si atom -12394.872918 kJ/mol
# Density = 1.591939 g / cm^3
# Si number density = 15.955703 Si / 1000 Ang^3
#
#
#
# Elastic Constant Matrix: (Units=GPa)
#
#
# Indices 1 2 3 4 5 6 
#
# 1 47.1550 32.3276 41.8183 0.0000 -0.7451 0.0000
# 2 32.3276 119.2997 68.8684 0.0000 1.1589 0.0000
# 3 41.8183 68.8684 138.9888 0.0000 3.6324 0.0000
# 4 0.0000 0.0000 0.0000 6.5608 0.0000 -0.1427
# 5 -0.7451 1.1589 3.6324 0.0000 -7.5331 0.0000
# 6 0.0000 0.0000 0.0000 -0.1427 0.0000 11.0674
#
#
#
# Elastic Compliance Matrix: (Units=1/GPa)
#
#
# Indices 1 2 3 4 5 6 
#
# 1 0.029947 -0.004132 -0.006783 0.000000 -0.006868 0.000000
# 2 -0.004132 0.012303 -0.004852 0.000000 -0.000038 0.000000
# 3 -0.006783 -0.004852 0.011497 0.000000 0.005468 0.000000
# 4 0.000000 0.000000 0.000000 0.152464 0.000000 0.001965
# 5 -0.006868 -0.000038 0.005468 0.000000 -0.129438 0.000000
# 6 0.000000 0.000000 0.000000 0.001965 0.000000 0.090381
#
#
# Mechanical properties :
#
#
# Convention : Reuss Voigt Hill
#
# Bulk Modulus (GPa) = 45.02092 65.71914 55.37003
# Shear Modulus (GPa) = 24.26096 12.84763 18.55429
#
# Velocity S-wave (km/s) = 3.90361 2.84069 3.41378
# Velocity P-wave (km/s) = 6.97102 7.21369 7.09339
#
# Compressibility (1/GPa) = 0.02221189
#
# Stress axis : x y z
#
# Youngs Moduli (GPa) = 33.39280 81.27916 86.98027
#
# Poissons Ratio (x) = 0.33588 0.58999
# Poissons Ratio (y) = 0.13799 0.42202
# Poissons Ratio (z) = 0.22651 0.39436
#
# Static dielectric constant tensor:
#      x y z
#    x 2.733220 0.000000 0.009930 
#    y 0.000000 3.264190 0.000000 
#    z 0.009930 0.000000 3.032900 
# 
# 
# High freq. dielectric constant tensor:
#      x y z
#    x 1.583310 0.000000 0.000690 
#    y 0.000000 1.600010 0.000000 
#    z 0.000690 0.000000 1.604310 
# 
# From -- ./inp_files/38278.got.cif
#   From: 2010.06.25/outbox.cif.g09.slc.cpg/sg10_20_cif.got.tgz:38278.got - 2010.06.27 22:07:45.
