data_PCOD8057564
_publ_section_title
;
Structure prediction by ZEFSAII (Michael W. Deem and Ramdas Pophale) SiO2 
 PCOD8057564
Probable space group: P 2/M
;
_chemical_formula_sum "Si O2"
_cell_formula_units_Z 28
_cell_length_a 14.008233
_cell_length_b 7.866363
_cell_length_c 15.348258
_cell_angle_alpha 90.000000
_cell_angle_beta 84.650508
_cell_angle_gamma 90.000000
_cell_volume 1683.917252
_symmetry_space_group_name_H-M "P 2/M"
_symmetry_group_IT_number 10
_symmetry_cell_setting 'monoclinic'
loop_
_space_group_symop_operation_xyz
x,y,z
-x,y,-z
-x,-y,-z
x,-y,z
loop_
_atom_site_type_symbol
_atom_site_label
_atom_site_fract_x
_atom_site_fract_y
_atom_site_fract_z
Si Si1 0.574706 0.201840 0.919716
Si Si2 0.023044 0.811971 0.099001
Si Si3 0.222402 0.804547 0.035196
Si Si4 0.687207 0.304010 0.312494
Si Si5 0.643364 0.000000 0.431167
Si Si6 0.429134 0.000000 0.379707
Si Si7 0.524897 0.690197 0.734407
Si Si8 0.175750 0.691851 0.852087
O O1 0.678637 0.275928 0.939362
O O2 0.544217 0.293903 0.834589
O O3 0.575235 0.000000 0.905905
O O4 0.500000 0.255428 0.000000
O O5 0.939284 0.706059 0.153563
O O6 0.129217 0.723459 0.093312
O O7 0.024190 0.000000 0.141137
O O8 0.000000 0.827745 0.000000
O O9 0.222436 0.000000 0.060983
O O10 0.213140 0.796644 0.931471
O O11 0.699567 0.500000 0.343752
O O12 0.693813 0.173151 0.392771
O O13 0.587524 0.279234 0.270688
O O14 0.771118 0.247173 0.239565
O O15 0.534302 0.000000 0.410341
O O16 0.648565 0.000000 0.535785
O O17 0.413394 0.829767 0.323736
O O18 0.554056 0.500000 0.700676
O O19 0.204250 0.500000 0.869720
#
# Coordination Sequence:
#
# PCOD8057564 Si02
#       8
#     4   4   4   4   2   2   4   4
#     4  10  19  30  45  65  90 122 161 196 221 254
#     4   8  15  27  40  56  80 115 154 185 223 267
#     4   9  18  29  41  59  86 120 157 194 221 254
#     4   9  19  30  43  70  96 116 149 184 222 273
#     4   9  18  30  52  66  88 123 143 181 230 268
#     4   9  18  34  47  70  89 113 159 183 216 277
#     4  10  19  32  48  65  93 125 151 188 225 258
#     4  10  18  27  41  62  89 118 149 187 224 266
#
# _framework density 16.627894000000001
#
# number of rings (size 3 to 8) (size 9 to 14) (size 15 to 20)
#    0.000    2.714    0.714    2.143    2.000    4.000 
#    0.000    2.857    0.000    0.000    0.000    0.000 
#    0.000    2.286    0.000    4.429    0.000    0.286 
#
# Total GULP energy -346984.580138 kJ/mol
# GULP energy per Si atom -12392.306434 kJ/mol
# Density = 1.659005 g / cm^3
# Si number density = 16.627894 Si / 1000 Ang^3
#
#
#
# Elastic Constant Matrix: (Units=GPa)
#
#
# Indices 1 2 3 4 5 6 
#
# 1 84.1925 26.5236 41.0014 0.0000 -16.5781 0.0000
# 2 26.5236 76.7146 48.6524 0.0000 -10.0782 0.0000
# 3 41.0014 48.6524 106.7669 0.0000 -18.9267 0.0000
# 4 0.0000 0.0000 0.0000 15.2903 0.0000 -2.7433
# 5 -16.5781 -10.0782 -18.9267 0.0000 18.8556 0.0000
# 6 0.0000 0.0000 0.0000 -2.7433 0.0000 14.9829
#
#
#
# Elastic Compliance Matrix: (Units=1/GPa)
#
#
# Indices 1 2 3 4 5 6 
#
# 1 0.016139 -0.002066 -0.003572 0.000000 0.009499 0.000000
# 2 -0.002066 0.018644 -0.007612 0.000000 0.000507 0.000000
# 3 -0.003572 -0.007612 0.015727 0.000000 0.008577 0.000000
# 4 0.000000 0.000000 0.000000 0.067622 0.000000 0.012381
# 5 0.009499 0.000507 0.008577 0.000000 0.070267 0.000000
# 6 0.000000 0.000000 0.000000 0.012381 0.000000 0.069010
#
#
# Mechanical properties :
#
#
# Convention : Reuss Voigt Hill
#
# Bulk Modulus (GPa) = 41.65237 55.55876 48.60556
# Shear Modulus (GPa) = 17.12833 19.92554 18.52693
#
# Velocity S-wave (km/s) = 3.21299 3.46543 3.34160
# Velocity P-wave (km/s) = 6.23446 7.03547 6.64704
#
# Compressibility (1/GPa) = 0.02400824
#
# Stress axis : x y z
#
# Youngs Moduli (GPa) = 61.96319 53.63575 63.58340
#
# Poissons Ratio (x) = 0.11084 0.22712
# Poissons Ratio (y) = 0.12805 0.48403
# Poissons Ratio (z) = 0.22134 0.40830
#
# Static dielectric constant tensor:
#      x y z
#    x 3.345990 0.000000 -0.274750 
#    y 0.000000 3.174350 0.000000 
#    z -0.274750 0.000000 2.981410 
# 
# 
# High freq. dielectric constant tensor:
#      x y z
#    x 1.618600 0.000000 -0.024590 
#    y 0.000000 1.644970 0.000000 
#    z -0.024590 0.000000 1.604700 
# 
# From -- ./inp_files/49223.got.cif
#   From: 2010.06.25/outbox.cif.g09.slc.cpg/sg10_25_cif.got.tgz:49223.got - 2010.06.27 22:07:45.
