data_PCOD8057071
_publ_section_title
;
Structure prediction by ZEFSAII (Michael W. Deem and Ramdas Pophale) SiO2 
 PCOD8057071
Probable space group: P 2/M
;
_chemical_formula_sum "Si O2"
_cell_formula_units_Z 28
_cell_length_a 26.323822
_cell_length_b 12.977297
_cell_length_c 26.323840
_cell_angle_alpha 90.000000
_cell_angle_beta 11.317895
_cell_angle_gamma 90.000000
_cell_volume 1764.807836
_symmetry_space_group_name_H-M "P 2/M"
_symmetry_group_IT_number 10
_symmetry_cell_setting 'monoclinic'
loop_
_space_group_symop_operation_xyz
x,y,z
-x,y,-z
-x,-y,-z
x,-y,z
loop_
_atom_site_type_symbol
_atom_site_label
_atom_site_fract_x
_atom_site_fract_y
_atom_site_fract_z
Si Si1 0.469851 0.809960 0.969855
Si Si2 0.909275 0.311167 0.409282
Si Si3 0.264765 0.376994 0.764764
Si Si4 0.563061 0.615489 0.063057
Si Si5 0.677939 0.621796 0.177994
Si Si6 0.057792 0.883986 0.557786
Si Si7 0.852803 0.377617 0.352729
O O1 0.461132 0.690962 0.961138
O O2 0.710401 0.867385 0.708815
O O3 0.500000 0.813141 0.000000
O O4 0.208810 0.867385 0.210407
O O5 0.668577 0.368794 0.670445
O O6 0.917938 0.191878 0.417945
O O7 0.878902 0.314519 0.378922
O O8 0.170442 0.368793 0.168578
O O9 0.500000 0.335337 0.500000
O O10 0.265304 0.500000 0.765300
O O11 0.293469 0.331866 0.793466
O O12 0.000000 0.335337 0.000000
O O13 0.552046 0.500000 0.052039
O O14 0.680154 0.500000 0.180124
O O15 0.410745 0.658999 0.415383
O O16 0.915264 0.659013 0.910849
O O17 0.068566 0.000000 0.568560
O O18 0.858202 0.500000 0.358114
#
# Coordination Sequence:
#
# PCOD8057071 Si02
#       7
#     4   4   4   4   4   4   4
#     4  10  21  34  50  73  93 113 144 177 215 262
#     4  10  20  32  47  67  87 114 150 179 217 265
#     4   9  15  23  34  47  69 103 142 179 207 235
#     4  10  19  32  48  66  91 118 145 176 210 258
#     4   9  17  25  35  55  78 105 142 178 211 244
#     4  10  21  36  52  69  90 114 144 182 218 262
#     4  10  17  26  40  57  81 107 136 176 213 248
#
# _framework density 15.865748999999999
#
# number of rings (size 3 to 8) (size 9 to 14) (size 15 to 20)
#    0.000    2.286    0.000    3.857    0.000    6.571 
#    0.000    0.000    0.000    5.143    0.000    0.000 
#    0.000    0.000    0.000    0.000    0.000   14.286 
#
# Total GULP energy -347242.739104 kJ/mol
# GULP energy per Si atom -12401.526397 kJ/mol
# Density = 1.582964 g / cm^3
# Si number density = 15.865749 Si / 1000 Ang^3
#
#
#
# Elastic Constant Matrix: (Units=GPa)
#
#
# Indices 1 2 3 4 5 6 
#
# 1 138.6276 35.9056 60.8511 0.0000 2.2322 0.0000
# 2 35.9056 84.5631 30.3198 0.0000 0.4981 0.0000
# 3 60.8511 30.3198 153.2114 0.0000 -3.4367 0.0000
# 4 0.0000 0.0000 0.0000 8.1500 0.0000 0.2433
# 5 2.2322 0.4981 -3.4367 0.0000 26.9295 0.0000
# 6 0.0000 0.0000 0.0000 0.2433 0.0000 10.8599
#
#
#
# Elastic Compliance Matrix: (Units=1/GPa)
#
#
# Indices 1 2 3 4 5 6 
#
# 1 0.009362 -0.002827 -0.003184 0.000000 -0.001130 0.000000
# 2 -0.002827 0.013590 -0.001572 0.000000 -0.000218 0.000000
# 3 -0.003184 -0.001572 0.008132 0.000000 0.001331 0.000000
# 4 0.000000 0.000000 0.000000 0.122781 0.000000 -0.002751
# 5 -0.001130 -0.000218 0.001331 0.000000 0.037402 0.000000
# 6 0.000000 0.000000 0.000000 -0.002751 0.000000 0.092144
#
#
# Mechanical properties :
#
#
# Convention : Reuss Voigt Hill
#
# Bulk Modulus (GPa) = 62.81570 70.06169 66.43870
# Shear Modulus (GPa) = 16.45373 25.80958 21.13166
#
# Velocity S-wave (km/s) = 3.22383 4.03767 3.65349
# Velocity P-wave (km/s) = 7.31679 8.12355 7.73070
#
# Compressibility (1/GPa) = 0.01591959
#
# Stress axis : x y z
#
# Youngs Moduli (GPa) = 106.81979 73.58086 122.96410
#
# Poissons Ratio (x) = 0.20799 0.39153
# Poissons Ratio (y) = 0.30194 0.19327
# Poissons Ratio (z) = 0.34013 0.11565
#
# Static dielectric constant tensor:
#      x y z
#    x 3.011510 0.000000 -0.038490 
#    y 0.000000 2.657800 0.000000 
#    z -0.038490 0.000000 3.447400 
# 
# 
# High freq. dielectric constant tensor:
#      x y z
#    x 1.609130 0.000000 -0.002570 
#    y 0.000000 1.555200 0.000000 
#    z -0.002570 0.000000 1.638300 
# 
# From -- ./inp_files/12256.got.cif
#   From: 2010.06.25/outbox.cif.g09.slc.cpg/sg10_7_cif.got.tgz:12256.got - 2010.06.27 22:07:45.
