data_PCOD8057442
_publ_section_title
;
Structure prediction by ZEFSAII (Michael W. Deem and Ramdas Pophale) SiO2 
 PCOD8057442
Probable space group: P 2/M
;
_chemical_formula_sum "Si O2"
_cell_formula_units_Z 20
_cell_length_a 10.982191
_cell_length_b 12.653867
_cell_length_c 9.387300
_cell_angle_alpha 90.000000
_cell_angle_beta 123.494975
_cell_angle_gamma 90.000000
_cell_volume 1087.889420
_symmetry_space_group_name_H-M "P 2/M"
_symmetry_group_IT_number 10
_symmetry_cell_setting 'monoclinic'
loop_
_space_group_symop_operation_xyz
x,y,z
-x,y,-z
-x,-y,-z
x,-y,z
loop_
_atom_site_type_symbol
_atom_site_label
_atom_site_fract_x
_atom_site_fract_y
_atom_site_fract_z
Si Si1 0.839323 0.122140 0.550760
Si Si2 0.585036 0.880873 0.914071
Si Si3 0.352024 0.620585 0.816390
Si Si4 0.157384 0.810698 0.762645
Si Si5 0.426800 0.741396 0.594804
O O1 0.812145 0.126097 0.363763
O O2 0.707010 0.183339 0.540849
O O3 0.986210 0.185654 0.687854
O O4 0.847425 0.000000 0.605244
O O5 0.545820 0.811332 0.753597
O O6 0.539271 0.000000 0.849468
O O7 0.500000 0.838781 0.000000
O O8 0.757523 0.871270 0.056515
O O9 0.301050 0.500000 0.796973
O O10 0.218705 0.691053 0.791264
O O11 0.376101 0.646580 0.664788
O O12 0.500000 0.640750 0.000000
O O13 0.500000 0.693535 0.500000
#
# Coordination Sequence:
#
# PCOD8057442 Si02
#       5
#     4   4   4   4   4
#     4  10  19  31  51  80 114 143 170 214 268 314
#     4  11  18  30  53  77 103 139 184 219 255 312
#     4  10  19  36  61  83 100 130 183 234 272 309
#     4  10  17  32  52  81 105 134 173 225 273 306
#     4  11  22  36  51  77 113 147 179 217 261 317
#
# _framework density 18.384219999999999
#
# number of rings (size 3 to 8) (size 9 to 14) (size 15 to 20)
#    0.000    1.600    6.000    3.000    0.000    2.000 
#    0.000    9.000    0.000    2.400    0.000    2.800 
#    0.000    0.000    0.000    0.000    0.000    0.000 
#
# Total GULP energy -247979.249792 kJ/mol
# GULP energy per Si atom -12398.962490 kJ/mol
# Density = 1.834238 g / cm^3
# Si number density = 18.384220 Si / 1000 Ang^3
#
#
#
# Elastic Constant Matrix: (Units=GPa)
#
#
# Indices 1 2 3 4 5 6 
#
# 1 65.8497 20.8864 32.7416 0.0000 13.5655 0.0000
# 2 20.8864 112.0822 21.7305 0.0000 11.6254 0.0000
# 3 32.7416 21.7305 70.2778 0.0000 18.6566 0.0000
# 4 0.0000 0.0000 0.0000 23.4901 0.0000 7.0121
# 5 13.5655 11.6254 18.6566 0.0000 33.3047 0.0000
# 6 0.0000 0.0000 0.0000 7.0121 0.0000 17.4850
#
#
#
# Elastic Compliance Matrix: (Units=1/GPa)
#
#
# Indices 1 2 3 4 5 6 
#
# 1 0.020473 -0.001918 -0.008116 0.000000 -0.003123 0.000000
# 2 -0.001918 0.009781 -0.001682 0.000000 -0.001691 0.000000
# 3 -0.008116 -0.001682 0.020554 0.000000 -0.007621 0.000000
# 4 0.000000 0.000000 0.000000 0.048360 0.000000 -0.019394
# 5 -0.003123 -0.001691 -0.007621 0.000000 0.036157 0.000000
# 6 0.000000 0.000000 0.000000 -0.019394 0.000000 0.064970
#
#
# Mechanical properties :
#
#
# Convention : Reuss Voigt Hill
#
# Bulk Modulus (GPa) = 36.52837 44.32518 40.42677
# Shear Modulus (GPa) = 21.47286 26.37939 23.92612
#
# Velocity S-wave (km/s) = 3.42132 3.79211 3.61147
# Velocity P-wave (km/s) = 5.95985 6.58303 6.27917
#
# Compressibility (1/GPa) = 0.02737598
#
# Stress axis : x y z
#
# Youngs Moduli (GPa) = 48.84423 102.24046 48.65318
#
# Poissons Ratio (x) = 0.19606 0.39488
# Poissons Ratio (y) = 0.09367 0.08184
# Poissons Ratio (z) = 0.39643 0.17198
#
# Static dielectric constant tensor:
#      x y z
#    x 3.176380 0.000000 0.317300 
#    y 0.000000 3.312540 0.000000 
#    z 0.317300 0.000000 3.423400 
# 
# 
# High freq. dielectric constant tensor:
#      x y z
#    x 1.678390 0.000000 0.027690 
#    y 0.000000 1.705050 0.000000 
#    z 0.027690 0.000000 1.709810 
# 
# From -- ./inp_files/24748.got.cif
#   From: 2010.06.25/outbox.cif.g09.slc.cpg/sg10_13_cif.got.tgz:24748.got - 2010.06.27 22:07:45.
