data_PCOD8057985
_publ_section_title
;
Structure prediction by ZEFSAII (Michael W. Deem and Ramdas Pophale) SiO2 
 PCOD8057985
Probable space group: P 2/M
;
_chemical_formula_sum "Si O2"
_cell_formula_units_Z 32
_cell_length_a 13.427933
_cell_length_b 15.259726
_cell_length_c 12.808903
_cell_angle_alpha 90.000000
_cell_angle_beta 41.989903
_cell_angle_gamma 90.000000
_cell_volume 1755.875498
_symmetry_space_group_name_H-M "P 2/M"
_symmetry_group_IT_number 10
_symmetry_cell_setting 'monoclinic'
loop_
_space_group_symop_operation_xyz
x,y,z
-x,y,-z
-x,-y,-z
x,-y,z
loop_
_atom_site_type_symbol
_atom_site_label
_atom_site_fract_x
_atom_site_fract_y
_atom_site_fract_z
Si Si1 0.437650 0.231656 0.934196
Si Si2 0.815435 0.101371 0.920985
Si Si3 0.859355 0.098431 0.311426
Si Si4 0.590623 0.400843 0.182284
Si Si5 0.625834 0.340556 0.486504
Si Si6 0.693991 0.099606 0.241627
Si Si7 0.396387 0.169135 0.385288
Si Si8 0.837973 0.397324 0.149271
O O1 0.416444 0.329696 0.904995
O O2 0.557211 0.178602 0.771117
O O3 0.500000 0.244002 0.000000
O O4 0.290475 0.170976 0.055021
O O5 0.983564 0.137293 0.771368
O O6 0.788505 0.000000 0.902891
O O7 0.793233 0.106198 0.061907
O O8 0.785546 0.144627 0.265966
O O9 0.737028 0.098878 0.500255
O O10 0.898728 0.000000 0.247445
O O11 0.615547 0.500000 0.118815
O O12 0.444371 0.405200 0.370762
O O13 0.726888 0.364465 0.145813
O O14 0.500000 0.319701 0.500000
O O15 0.677254 0.256156 0.510644
O O16 0.773997 0.377020 0.314778
O O17 0.538437 0.148161 0.346207
O O18 0.654738 0.000000 0.301347
O O19 0.851459 0.500000 0.128650
O O20 0.000000 0.354172 0.000000
#
# Coordination Sequence:
#
# PCOD8057985 Si02
#       8
#     4   4   4   4   4   4   4   4
#     4  10  22  39  55  70  91 126 173 221 263 297
#     4   9  19  34  51  74 103 134 167 202 245 297
#     4  10  18  29  48  75 106 135 161 195 242 297
#     4   9  18  33  53  77 102 128 161 202 247 295
#     4   9  16  27  44  69 102 134 160 188 229 284
#     4   9  16  28  47  72 105 139 164 190 232 292
#     4  10  19  30  46  71  99 130 170 206 240 290
#     4   9  17  29  47  74 106 135 158 183 227 293
#
# _framework density 18.224526000000001
#
# number of rings (size 3 to 8) (size 9 to 14) (size 15 to 20)
#    0.000    2.625    0.000    2.250    0.000    7.000 
#    0.000    0.625    0.000    1.500    0.000    0.000 
#    0.000   10.000    0.000    0.000    0.000    0.000 
#
# Total GULP energy -396488.378613 kJ/mol
# GULP energy per Si atom -12390.261832 kJ/mol
# Density = 1.818305 g / cm^3
# Si number density = 18.224526 Si / 1000 Ang^3
#
#
#
# Elastic Constant Matrix: (Units=GPa)
#
#
# Indices 1 2 3 4 5 6 
#
# 1 102.6968 43.7136 70.6997 0.0000 0.5120 0.0000
# 2 43.7136 58.4301 28.3811 0.0000 0.9598 0.0000
# 3 70.6997 28.3811 91.6123 0.0000 -17.7933 0.0000
# 4 0.0000 0.0000 0.0000 19.6678 0.0000 0.0149
# 5 0.5120 0.9598 -17.7933 0.0000 29.2967 0.0000
# 6 0.0000 0.0000 0.0000 0.0149 0.0000 19.7052
#
#
#
# Elastic Compliance Matrix: (Units=1/GPa)
#
#
# Indices 1 2 3 4 5 6 
#
# 1 0.029982 -0.011392 -0.022265 0.000000 -0.013673 0.000000
# 2 -0.011392 0.025154 0.000994 0.000000 -0.000021 0.000000
# 3 -0.022265 0.000994 0.031585 0.000000 0.019539 0.000000
# 4 0.000000 0.000000 0.000000 0.050845 0.000000 -0.000039
# 5 -0.013673 -0.000021 0.019539 0.000000 0.046240 0.000000
# 6 0.000000 0.000000 0.000000 -0.000039 0.000000 0.050748
#
#
# Mechanical properties :
#
#
# Convention : Reuss Voigt Hill
#
# Bulk Modulus (GPa) = 46.73432 59.81424 53.27428
# Shear Modulus (GPa) = 16.28613 21.06360 18.67487
#
# Velocity S-wave (km/s) = 2.99262 3.40337 3.20458
# Velocity P-wave (km/s) = 6.13517 6.95240 6.55653
#
# Compressibility (1/GPa) = 0.02139755
#
# Stress axis : x y z
#
# Youngs Moduli (GPa) = 33.35327 39.75480 31.66094
#
# Poissons Ratio (x) = 0.45287 0.70492
# Poissons Ratio (y) = 0.37994 -0.03148
# Poissons Ratio (z) = 0.74260 -0.03953
#
# Static dielectric constant tensor:
#      x y z
#    x 3.122990 0.000000 -0.302980 
#    y 0.000000 3.347450 0.000000 
#    z -0.302980 0.000000 3.491530 
# 
# 
# High freq. dielectric constant tensor:
#      x y z
#    x 1.663130 0.000000 -0.020660 
#    y 0.000000 1.703970 0.000000 
#    z -0.020660 0.000000 1.705490 
# 
# From -- ./inp_files/36405.got.cif
#   From: 2010.06.25/outbox.cif.g09.slc.cpg/sg10_19_cif.got.tgz:36405.got - 2010.06.27 22:07:45.
