data_PCOD8057675
_publ_section_title
;
Structure prediction by ZEFSAII (Michael W. Deem and Ramdas Pophale) SiO2 
 PCOD8057675
Probable space group: P 2/M
;
_chemical_formula_sum "Si O2"
_cell_formula_units_Z 28
_cell_length_a 16.703041
_cell_length_b 13.673938
_cell_length_c 18.414814
_cell_angle_alpha 90.000000
_cell_angle_beta 25.336520
_cell_angle_gamma 90.000000
_cell_volume 1799.837588
_symmetry_space_group_name_H-M "P 2/M"
_symmetry_group_IT_number 10
_symmetry_cell_setting 'monoclinic'
loop_
_space_group_symop_operation_xyz
x,y,z
-x,y,-z
-x,-y,-z
x,-y,z
loop_
_atom_site_type_symbol
_atom_site_label
_atom_site_fract_x
_atom_site_fract_y
_atom_site_fract_z
Si Si1 0.874187 0.885479 0.775582
Si Si2 0.172857 0.115237 0.643631
Si Si3 0.529794 0.884126 0.263192
Si Si4 0.840014 0.247645 0.681358
Si Si5 0.655170 0.608009 0.934061
Si Si6 0.050693 0.116002 0.036967
Si Si7 0.485604 0.218331 0.873100
O O1 0.914455 0.848665 0.661350
O O2 0.031474 0.840754 0.699931
O O3 0.889048 0.000000 0.763531
O O4 0.668359 0.855289 0.969810
O O5 0.387531 0.141124 0.446342
O O6 0.104032 0.156328 0.778536
O O7 0.148182 0.000000 0.666773
O O8 0.465440 0.816653 0.248221
O O9 0.518039 0.000000 0.253100
O O10 0.738983 0.852610 0.113623
O O11 0.815601 0.329801 0.763314
O O12 0.662202 0.213506 0.781280
O O13 0.000000 0.291729 0.500000
O O14 0.723336 0.500000 0.903244
O O15 0.500000 0.596231 0.000000
O O16 0.586255 0.668527 0.061923
O O17 0.042017 0.000000 0.040002
O O18 0.000000 0.161310 0.000000
#
# Coordination Sequence:
#
# PCOD8057675 Si02
#       7
#     4   4   4   4   4   4   4
#     4  10  18  29  42  57  85 120 152 184 216 254
#     4   9  17  28  42  61  85 118 153 183 218 253
#     4  10  18  28  44  64  89 120 150 182 220 257
#     4  10  20  29  40  63  87 113 152 185 218 258
#     4   8  16  31  47  61  80 109 144 182 223 263
#     4   9  17  29  43  60  85 118 153 184 216 257
#     4  10  18  29  45  62  82 114 151 181 219 260
#
# _framework density 15.55696
#
# number of rings (size 3 to 8) (size 9 to 14) (size 15 to 20)
#    0.000    2.571    1.429    2.571    0.000    2.857 
#    0.000    2.857    0.000    0.000    0.000    0.000 
#    0.000    0.571    0.000    1.429    0.000    0.714 
#
# Total GULP energy -346902.639019 kJ/mol
# GULP energy per Si atom -12389.379965 kJ/mol
# Density = 1.552155 g / cm^3
# Si number density = 15.556960 Si / 1000 Ang^3
#
#
#
# Elastic Constant Matrix: (Units=GPa)
#
#
# Indices 1 2 3 4 5 6 
#
# 1 78.3435 26.4679 37.0350 0.0000 16.1025 0.0000
# 2 26.4679 53.4681 23.3160 0.0000 7.5469 0.0000
# 3 37.0350 23.3160 113.9978 0.0000 13.9757 0.0000
# 4 0.0000 0.0000 0.0000 9.4349 0.0000 2.3020
# 5 16.1025 7.5469 13.9757 0.0000 20.7010 0.0000
# 6 0.0000 0.0000 0.0000 2.3020 0.0000 3.2093
#
#
#
# Elastic Compliance Matrix: (Units=1/GPa)
#
#
# Indices 1 2 3 4 5 6 
#
# 1 0.018566 -0.006263 -0.003554 0.000000 -0.009759 0.000000
# 2 -0.006263 0.023147 -0.002466 0.000000 -0.001902 0.000000
# 3 -0.003554 -0.002466 0.010883 0.000000 -0.003683 0.000000
# 4 0.000000 0.000000 0.000000 0.128472 0.000000 -0.092151
# 5 -0.009759 -0.001902 -0.003683 0.000000 0.059078 0.000000
# 6 0.000000 0.000000 0.000000 -0.092151 0.000000 0.377689
#
#
# Mechanical properties :
#
#
# Convention : Reuss Voigt Hill
#
# Bulk Modulus (GPa) = 35.67815 46.60522 41.14169
# Shear Modulus (GPa) = 7.67169 17.26842 12.47006
#
# Velocity S-wave (km/s) = 2.22308 3.33530 2.83428
# Velocity P-wave (km/s) = 5.43811 6.69740 6.10034
#
# Compressibility (1/GPa) = 0.02802836
#
# Stress axis : x y z
#
# Youngs Moduli (GPa) = 53.86073 43.20183 91.88811
#
# Poissons Ratio (x) = 0.27059 0.32660
# Poissons Ratio (y) = 0.33735 0.22663
# Poissons Ratio (z) = 0.19144 0.10655
#
# Static dielectric constant tensor:
#      x y z
#    x 3.077950 0.000000 0.122720 
#    y 0.000000 2.834710 0.000000 
#    z 0.122720 0.000000 3.231100 
# 
# 
# High freq. dielectric constant tensor:
#      x y z
#    x 1.581580 0.000000 0.001110 
#    y 0.000000 1.545770 0.000000 
#    z 0.001110 0.000000 1.610140 
# 
# From -- ./inp_files/38268.got.cif
#   From: 2010.06.25/outbox.cif.g09.slc.cpg/sg10_20_cif.got.tgz:38268.got - 2010.06.27 22:07:45.
