data_PCOD8057086
_publ_section_title
;
Structure prediction by ZEFSAII (Michael W. Deem and Ramdas Pophale) SiO2 
 PCOD8057086
Probable space group: P 2/M
;
_chemical_formula_sum "Si O2"
_cell_formula_units_Z 28
_cell_length_a 14.288188
_cell_length_b 9.052035
_cell_length_c 14.226359
_cell_angle_alpha 90.000000
_cell_angle_beta 76.295130
_cell_angle_gamma 90.000000
_cell_volume 1787.610540
_symmetry_space_group_name_H-M "P 2/M"
_symmetry_group_IT_number 10
_symmetry_cell_setting 'monoclinic'
loop_
_space_group_symop_operation_xyz
x,y,z
-x,y,-z
-x,-y,-z
x,-y,z
loop_
_atom_site_type_symbol
_atom_site_label
_atom_site_fract_x
_atom_site_fract_y
_atom_site_fract_z
Si Si1 0.968576 0.173167 0.715899
Si Si2 0.366278 0.171811 0.206083
Si Si3 0.457204 0.666713 0.906475
Si Si4 0.204566 0.674815 0.349239
Si Si5 0.066295 0.825656 0.066252
Si Si6 0.088895 0.663089 0.549514
Si Si7 0.282529 0.171944 0.020847
O O1 0.875876 0.257232 0.699427
O O2 0.980662 0.214307 0.822341
O O3 0.066451 0.223130 0.639152
O O4 0.951702 0.000000 0.704619
O O5 0.473079 0.240869 0.178465
O O6 0.307328 0.252973 0.302356
O O7 0.311305 0.199680 0.121661
O O8 0.375102 0.000000 0.227829
O O9 0.448575 0.500000 0.870641
O O10 0.500000 0.670521 0.000000
O O11 0.351899 0.740604 0.933062
O O12 0.207290 0.500000 0.330931
O O13 0.180972 0.710918 0.464631
O O14 0.175057 0.764256 0.032244
O O15 0.072282 0.000000 0.052813
O O16 0.000000 0.755540 0.000000
O O17 0.104798 0.500000 0.589296
O O18 0.000000 0.658870 0.500000
O O19 0.290962 0.000000 0.993905
#
# Coordination Sequence:
#
# PCOD8057086 Si02
#       7
#     4   4   4   4   4   4   4
#     4  10  17  27  42  60  79 107 144 179 212 243
#     4  10  17  26  41  62  84 108 141 174 204 244
#     4   9  17  27  39  58  81 109 139 167 207 253
#     4  10  18  27  40  58  84 114 140 167 207 255
#     4   9  17  29  44  62  84 111 145 181 215 248
#     4   8  16  28  39  55  79 110 139 166 207 254
#     4   9  16  28  42  57  79 109 142 176 210 242
#
# _framework density 15.663368
#
# number of rings (size 3 to 8) (size 9 to 14) (size 15 to 20)
#    0.000    2.714    1.429    2.571    0.000    5.429 
#    0.000    0.000    0.000    3.857    0.000    0.000 
#    0.000    1.143    0.000   13.143    0.000    3.286 
#
# Total GULP energy -347089.207978 kJ/mol
# GULP energy per Si atom -12396.043142 kJ/mol
# Density = 1.562772 g / cm^3
# Si number density = 15.663368 Si / 1000 Ang^3
#
#
#
# Elastic Constant Matrix: (Units=GPa)
#
#
# Indices 1 2 3 4 5 6 
#
# 1 77.7461 40.1933 54.9392 0.0000 -25.4501 0.0000
# 2 40.1933 88.7590 51.7859 0.0000 -22.2949 0.0000
# 3 54.9392 51.7859 94.9648 0.0000 -30.5731 0.0000
# 4 0.0000 0.0000 0.0000 20.8376 0.0000 -13.1909
# 5 -25.4501 -22.2949 -30.5731 0.0000 30.6543 0.0000
# 6 0.0000 0.0000 0.0000 -13.1909 0.0000 17.2744
#
#
#
# Elastic Compliance Matrix: (Units=1/GPa)
#
#
# Indices 1 2 3 4 5 6 
#
# 1 0.023841 -0.003288 -0.009423 0.000000 0.008005 0.000000
# 2 -0.003288 0.017403 -0.006469 0.000000 0.003475 0.000000
# 3 -0.009423 -0.006469 0.022795 0.000000 0.010207 0.000000
# 4 0.000000 0.000000 0.000000 0.092894 0.000000 0.070935
# 5 0.008005 0.003475 0.010207 0.000000 0.051975 0.000000
# 6 0.000000 0.000000 0.000000 0.070935 0.000000 0.112056
#
#
# Mechanical properties :
#
#
# Convention : Reuss Voigt Hill
#
# Bulk Modulus (GPa) = 38.94118 61.70073 50.32095
# Shear Modulus (GPa) = 13.59131 21.39004 17.49068
#
# Velocity S-wave (km/s) = 2.94889 3.69942 3.34527
# Velocity P-wave (km/s) = 6.04234 7.59769 6.86421
#
# Compressibility (1/GPa) = 0.02567976
#
# Stress axis : x y z
#
# Youngs Moduli (GPa) = 41.94489 57.46289 43.86932
#
# Poissons Ratio (x) = 0.18893 0.41336
# Poissons Ratio (y) = 0.13791 0.28379
# Poissons Ratio (z) = 0.39523 0.37172
#
# Static dielectric constant tensor:
#      x y z
#    x 2.909020 0.000000 -0.397730 
#    y 0.000000 3.006930 0.000000 
#    z -0.397730 0.000000 3.075680 
# 
# 
# High freq. dielectric constant tensor:
#      x y z
#    x 1.565800 0.000000 -0.045470 
#    y 0.000000 1.602310 0.000000 
#    z -0.045470 0.000000 1.579450 
# 
# From -- ./inp_files/54967.got.cif
#   From: 2010.06.25/outbox.cif.g09.slc.cpg/sg10_28_cif.got.tgz:54967.got - 2010.06.27 22:07:45.
