data_PCOD8057014
_publ_section_title
;
Structure prediction by ZEFSAII (Michael W. Deem and Ramdas Pophale) SiO2 
 PCOD8057014
Probable space group: P 2/M
;
_chemical_formula_sum "Si O2"
_cell_formula_units_Z 28
_cell_length_a 21.667828
_cell_length_b 8.711336
_cell_length_c 16.657900
_cell_angle_alpha 90.000000
_cell_angle_beta 31.041416
_cell_angle_gamma 90.000000
_cell_volume 1621.368635
_symmetry_space_group_name_H-M "P 2/M"
_symmetry_group_IT_number 10
_symmetry_cell_setting 'monoclinic'
loop_
_space_group_symop_operation_xyz
x,y,z
-x,y,-z
-x,-y,-z
x,-y,z
loop_
_atom_site_type_symbol
_atom_site_label
_atom_site_fract_x
_atom_site_fract_y
_atom_site_fract_z
Si Si1 0.489694 0.818545 0.747466
Si Si2 0.408275 0.818568 0.668078
Si Si3 0.744332 0.180295 0.526281
Si Si4 0.406618 0.179331 0.006173
Si Si5 0.342255 0.680020 0.228171
Si Si6 0.170959 0.322215 0.870474
Si Si7 0.091975 0.678062 0.783113
O O1 0.442769 0.746505 0.716353
O O2 0.623521 0.757637 0.617487
O O3 0.497953 0.000000 0.730659
O O4 0.396182 0.774980 0.923361
O O5 0.500000 0.750363 0.500000
O O6 0.273359 0.777379 0.796895
O O7 0.420087 0.000000 0.658170
O O8 0.759818 0.267024 0.595138
O O9 0.857387 0.220375 0.345439
O O10 0.740037 0.000000 0.547122
O O11 0.313683 0.274208 0.166698
O O12 0.383347 0.000000 0.044882
O O13 0.541994 0.220337 0.878797
O O14 0.366902 0.500000 0.207222
O O15 0.205427 0.500000 0.837374
O O16 0.155669 0.272512 0.794986
O O17 0.049053 0.289237 0.054271
O O18 0.116522 0.500000 0.738403
#
# Coordination Sequence:
#
# PCOD8057014 Si02
#       7
#     4   4   4   4   4   4   4
#     4   8  16  28  42  63  92 123 151 185 227 264
#     4  10  19  31  47  68  94 122 153 189 224 260
#     4  10  18  29  46  68  92 119 153 187 224 271
#     4   9  15  26  41  58  86 122 157 188 221 266
#     4  10  17  25  39  62  91 119 148 184 229 273
#     4   9  19  34  49  66  90 121 153 186 227 270
#     4   9  18  33  49  65  90 120 150 188 230 267
#
# _framework density 17.269359999999999
#
# number of rings (size 3 to 8) (size 9 to 14) (size 15 to 20)
#    0.000    2.714    0.000    5.571    0.000    2.571 
#    0.000    5.714    0.000    0.000    0.000    1.000 
#    0.000    8.000    0.000    0.000    0.000    0.000 
#
# Total GULP energy -347016.863689 kJ/mol
# GULP energy per Si atom -12393.459417 kJ/mol
# Density = 1.723005 g / cm^3
# Si number density = 17.269360 Si / 1000 Ang^3
#
#
#
# Elastic Constant Matrix: (Units=GPa)
#
#
# Indices 1 2 3 4 5 6 
#
# 1 85.1244 23.1498 55.5861 0.0000 23.3193 0.0000
# 2 23.1498 41.5825 30.3700 0.0000 12.3288 0.0000
# 3 55.5861 30.3700 106.0784 0.0000 30.9291 0.0000
# 4 0.0000 0.0000 0.0000 28.0049 0.0000 3.6220
# 5 23.3193 12.3288 30.9291 0.0000 34.0316 0.0000
# 6 0.0000 0.0000 0.0000 3.6220 0.0000 18.5593
#
#
#
# Elastic Compliance Matrix: (Units=1/GPa)
#
#
# Indices 1 2 3 4 5 6 
#
# 1 0.018950 -0.003654 -0.007461 0.000000 -0.004881 0.000000
# 2 -0.003654 0.031564 -0.006147 0.000000 -0.003345 0.000000
# 3 -0.007461 -0.006147 0.017628 0.000000 -0.008681 0.000000
# 4 0.000000 0.000000 0.000000 0.036633 0.000000 -0.007149
# 5 -0.004881 -0.003345 -0.008681 0.000000 0.041830 0.000000
# 6 0.000000 0.000000 0.000000 -0.007149 0.000000 0.055276
#
#
# Mechanical properties :
#
#
# Convention : Reuss Voigt Hill
#
# Bulk Modulus (GPa) = 29.74548 50.11078 39.92813
# Shear Modulus (GPa) = 20.19302 24.36446 22.27874
#
# Velocity S-wave (km/s) = 3.42321 3.76020 3.59566
# Velocity P-wave (km/s) = 5.73466 6.92332 6.35683
#
# Compressibility (1/GPa) = 0.03361855
#
# Stress axis : x y z
#
# Youngs Moduli (GPa) = 52.76990 31.68194 56.72902
#
# Poissons Ratio (x) = 0.11576 0.42325
# Poissons Ratio (y) = 0.19280 0.34871
# Poissons Ratio (z) = 0.39372 0.19474
#
# Static dielectric constant tensor:
#      x y z
#    x 3.418610 0.000000 0.620190 
#    y 0.000000 2.991490 0.000000 
#    z 0.620190 0.000000 3.420220 
# 
# 
# High freq. dielectric constant tensor:
#      x y z
#    x 1.637900 0.000000 0.041550 
#    y 0.000000 1.656970 0.000000 
#    z 0.041550 0.000000 1.660110 
# 
# From -- ./inp_files/79839.got.cif
#   From: 2010.06.25/outbox.cif.g09.slc.cpg/sg10_40_cif.got.tgz:79839.got - 2010.06.27 22:07:45.
