data_PCOD8057252
_publ_section_title
;
Structure prediction by ZEFSAII (Michael W. Deem and Ramdas Pophale) SiO2 
 PCOD8057252
Probable space group: P 2/M
;
_chemical_formula_sum "Si O2"
_cell_formula_units_Z 32
_cell_length_a 12.840253
_cell_length_b 24.879568
_cell_length_c 5.251517
_cell_angle_alpha 90.000000
_cell_angle_beta 78.800352
_cell_angle_gamma 90.000000
_cell_volume 1645.700777
_symmetry_space_group_name_H-M "P 2/M"
_symmetry_group_IT_number 10
_symmetry_cell_setting 'monoclinic'
loop_
_space_group_symop_operation_xyz
x,y,z
-x,y,-z
-x,-y,-z
x,-y,z
loop_
_atom_site_type_symbol
_atom_site_label
_atom_site_fract_x
_atom_site_fract_y
_atom_site_fract_z
Si Si1 0.711157 0.719584 0.838846
Si Si2 0.960073 0.273109 0.768491
Si Si3 0.276906 0.561453 0.658193
Si Si4 0.377918 0.603638 0.123618
Si Si5 0.621921 0.228990 0.383460
Si Si6 0.377406 0.892914 0.771509
Si Si7 0.387566 0.937689 0.269837
Si Si8 0.948737 0.392129 0.274959
O O1 0.835582 0.718130 0.831008
O O2 0.672426 0.660804 0.785569
O O3 0.686474 0.758958 0.612481
O O4 0.654493 0.734703 0.129815
O O5 0.000000 0.240631 0.500000
O O6 0.026329 0.328835 0.736815
O O7 0.000000 0.240852 0.000000
O O8 0.239054 0.500000 0.678922
O O9 0.361771 0.569216 0.389404
O O10 0.177035 0.600106 0.657324
O O11 0.324142 0.575122 0.909993
O O12 0.500000 0.610291 0.000000
O O13 0.500000 0.240477 0.500000
O O14 0.642931 0.168603 0.282859
O O15 0.326250 0.928205 0.565366
O O16 0.501752 0.906097 0.748200
O O17 0.323012 0.910826 0.064563
O O18 0.408020 0.000000 0.205588
O O19 0.000000 0.419749 0.500000
O O20 0.000000 0.419532 0.000000
#
# Coordination Sequence:
#
# PCOD8057252 Si02
#       8
#     4   4   4   4   4   4   4   4
#     4  12  25  39  60  86 107 148 198 235 285 340
#     4  10  19  37  61  81 106 134 173 231 289 343
#     4  12  26  43  66  92 115 142 179 223 284 358
#     4  12  25  44  63  84 118 151 190 230 269 323
#     4  12  23  37  54  79 120 158 202 243 277 319
#     4  10  18  29  45  68 105 151 198 253 278 311
#     4  10  17  28  47  72 103 151 219 251 270 324
#     4  10  20  37  61  87 113 139 164 215 281 340
#
# _framework density 19.444604000000002
#
# number of rings (size 3 to 8) (size 9 to 14) (size 15 to 20)
#    0.000    1.000    1.250    9.750    1.750    2.000 
#    0.000    0.000    0.000    0.000    0.000    0.000 
#    0.000    0.000    0.000    0.000    0.000  257.500 
#
# Total GULP energy -396636.734135 kJ/mol
# GULP energy per Si atom -12394.897942 kJ/mol
# Density = 1.940035 g / cm^3
# Si number density = 19.444604 Si / 1000 Ang^3
#
#
#
# Elastic Constant Matrix: (Units=GPa)
#
#
# Indices 1 2 3 4 5 6 
#
# 1 58.2152 9.0607 26.0202 0.0000 7.5405 0.0000
# 2 9.0607 62.2029 30.2246 0.0000 6.6392 0.0000
# 3 26.0202 30.2246 190.4464 0.0000 12.6281 0.0000
# 4 0.0000 0.0000 0.0000 28.5789 0.0000 2.7214
# 5 7.5405 6.6392 12.6281 0.0000 27.5500 0.0000
# 6 0.0000 0.0000 0.0000 2.7214 0.0000 14.7705
#
#
#
# Elastic Compliance Matrix: (Units=1/GPa)
#
#
# Indices 1 2 3 4 5 6 
#
# 1 0.018824 -0.001304 -0.002108 0.000000 -0.003872 0.000000
# 2 -0.001304 0.017758 -0.002455 0.000000 -0.002797 0.000000
# 3 -0.002108 -0.002455 0.006034 0.000000 -0.001597 0.000000
# 4 0.000000 0.000000 0.000000 0.035616 0.000000 -0.006562
# 5 -0.003872 -0.002797 -0.001597 0.000000 0.038764 0.000000
# 6 0.000000 0.000000 0.000000 -0.006562 0.000000 0.068912
#
#
# Mechanical properties :
#
#
# Convention : Reuss Voigt Hill
#
# Bulk Modulus (GPa) = 32.38115 49.05285 40.71700
# Shear Modulus (GPa) = 24.04587 30.55045 27.29816
#
# Velocity S-wave (km/s) = 3.52040 3.96808 3.75092
# Velocity P-wave (km/s) = 5.76311 6.80264 6.30434
#
# Compressibility (1/GPa) = 0.03088217
#
# Stress axis : x y z
#
# Youngs Moduli (GPa) = 53.12239 56.31372 165.71869
#
# Poissons Ratio (x) = 0.07346 0.34937
# Poissons Ratio (y) = 0.06929 0.40676
# Poissons Ratio (z) = 0.11199 0.13822
#
# Static dielectric constant tensor:
#      x y z
#    x 3.322760 0.000000 0.320310 
#    y 0.000000 3.362550 0.000000 
#    z 0.320310 0.000000 6.296830 
# 
# 
# High freq. dielectric constant tensor:
#      x y z
#    x 1.715850 0.000000 0.009610 
#    y 0.000000 1.729560 0.000000 
#    z 0.009610 0.000000 1.805890 
# 
# From -- ./inp_files/8036.got.cif
#   From: 2010.06.25/outbox.cif.g09.slc.cpg/sg10_5_cif.got.tgz:8036.got - 2010.06.27 22:07:45.
