data_PCOD8057221
_publ_section_title
;
Structure prediction by ZEFSAII (Michael W. Deem and Ramdas Pophale) SiO2 
 PCOD8057221
Probable space group: P 2/M
;
_chemical_formula_sum "Si O2"
_cell_formula_units_Z 32
_cell_length_a 35.121437
_cell_length_b 8.991562
_cell_length_c 24.029782
_cell_angle_alpha 90.000000
_cell_angle_beta 15.603205
_cell_angle_gamma 90.000000
_cell_volume 2041.113071
_symmetry_space_group_name_H-M "P 2/M"
_symmetry_group_IT_number 10
_symmetry_cell_setting 'monoclinic'
loop_
_space_group_symop_operation_xyz
x,y,z
-x,y,-z
-x,-y,-z
x,-y,z
loop_
_atom_site_type_symbol
_atom_site_label
_atom_site_fract_x
_atom_site_fract_y
_atom_site_fract_z
Si Si1 0.996138 0.829286 0.414306
Si Si2 0.310494 0.831198 0.008688
Si Si3 0.818924 0.174546 0.019671
Si Si4 0.055091 0.323611 0.626151
Si Si5 0.381040 0.332070 0.620666
Si Si6 0.275374 0.324371 0.165359
Si Si7 0.585302 0.825348 0.257324
Si Si8 0.636027 0.324556 0.838840
O O1 0.141849 0.820889 0.242184
O O2 0.014923 0.737576 0.331370
O O3 0.876179 0.756233 0.621356
O O4 0.957128 0.000000 0.455176
O O5 0.359992 0.730578 0.991405
O O6 0.358452 0.000000 0.952195
O O7 0.382246 0.771734 0.851017
O O8 0.754431 0.239838 0.167464
O O9 0.718297 0.214725 0.109224
O O10 0.839345 0.000000 0.998093
O O11 0.971892 0.250442 0.794886
O O12 0.037706 0.500000 0.652396
O O13 0.220212 0.274705 0.395013
O O14 0.500000 0.326170 0.500000
O O15 0.334132 0.500000 0.673525
O O16 0.443771 0.258363 0.476556
O O17 0.251459 0.500000 0.197065
O O18 0.360484 0.276409 0.101220
O O19 0.556498 0.000000 0.300743
O O20 0.623709 0.500000 0.852766
O O21 0.500000 0.250446 0.000000
#
# Coordination Sequence:
#
# PCOD8057221 Si02
#       8
#     4   4   4   4   4   4   4   4
#     4  10  18  30  43  57  82 118 148 172 210 257
#     4  10  19  30  42  58  84 119 150 174 206 255
#     4  10  17  28  43  59  84 118 150 178 210 257
#     4  10  18  27  44  68  87 108 144 187 221 251
#     4   9  17  27  39  59  83 111 147 187 221 241
#     4  10  20  30  43  65  83 105 143 184 220 251
#     4   9  17  29  41  56  80 118 156 175 204 254
#     4   8  16  32  49  63  84 112 140 175 223 271
#
# _framework density 15.677720000000001
#
# number of rings (size 3 to 8) (size 9 to 14) (size 15 to 20)
#    0.000    2.500    1.250    3.000    0.000    5.000 
#    0.000    0.000    0.000   13.500    0.000    0.000 
#    0.000    1.000    0.000   11.500    0.000    2.875 
#
# Total GULP energy -396702.791857 kJ/mol
# GULP energy per Si atom -12396.962246 kJ/mol
# Density = 1.564204 g / cm^3
# Si number density = 15.677720 Si / 1000 Ang^3
#
#
#
# Elastic Constant Matrix: (Units=GPa)
#
#
# Indices 1 2 3 4 5 6 
#
# 1 73.8658 34.2439 59.6887 0.0000 18.4487 0.0000
# 2 34.2439 75.5250 47.8458 0.0000 11.6089 0.0000
# 3 59.6887 47.8458 92.9479 0.0000 22.6138 0.0000
# 4 0.0000 0.0000 0.0000 23.0944 0.0000 12.3496
# 5 18.4487 11.6089 22.6138 0.0000 24.4475 0.0000
# 6 0.0000 0.0000 0.0000 12.3496 0.0000 18.4334
#
#
#
# Elastic Compliance Matrix: (Units=1/GPa)
#
#
# Indices 1 2 3 4 5 6 
#
# 1 0.029005 -0.002009 -0.016128 0.000000 -0.006015 0.000000
# 2 -0.002009 0.019787 -0.009005 0.000000 0.000450 0.000000
# 3 -0.016128 -0.009005 0.028066 0.000000 -0.009514 0.000000
# 4 0.000000 0.000000 0.000000 0.067474 0.000000 -0.045205
# 5 -0.006015 0.000450 -0.009514 0.000000 0.054030 0.000000
# 6 0.000000 0.000000 0.000000 -0.045205 0.000000 0.084535
#
#
# Mechanical properties :
#
#
# Convention : Reuss Voigt Hill
#
# Bulk Modulus (GPa) = 44.30036 58.43285 51.36660
# Shear Modulus (GPa) = 14.50516 19.89907 17.20212
#
# Velocity S-wave (km/s) = 3.04502 3.56653 3.31604
# Velocity P-wave (km/s) = 6.37818 7.36969 6.89179
#
# Compressibility (1/GPa) = 0.02257318
#
# Stress axis : x y z
#
# Youngs Moduli (GPa) = 34.47726 50.53803 35.63029
#
# Poissons Ratio (x) = 0.10153 0.57466
# Poissons Ratio (y) = 0.06926 0.32084
# Poissons Ratio (z) = 0.55607 0.45509
#
# Static dielectric constant tensor:
#      x y z
#    x 2.853460 0.000000 0.224840 
#    y 0.000000 2.998390 0.000000 
#    z 0.224840 0.000000 3.063470 
# 
# 
# High freq. dielectric constant tensor:
#      x y z
#    x 1.564130 0.000000 0.035050 
#    y 0.000000 1.605520 0.000000 
#    z 0.035050 0.000000 1.584270 
# 
# From -- ./inp_files/72029.got.cif
#   From: 2010.06.25/outbox.cif.g09.slc.cpg/sg10_37_cif.got.tgz:72029.got - 2010.06.27 22:07:45.
