data_PCOD8057465
_publ_section_title
;
Structure prediction by ZEFSAII (Michael W. Deem and Ramdas Pophale) SiO2 
 PCOD8057465
Probable space group: P 2/M
;
_chemical_formula_sum "Si O2"
_cell_formula_units_Z 28
_cell_length_a 9.726240
_cell_length_b 15.975727
_cell_length_c 22.648100
_cell_angle_alpha 90.000000
_cell_angle_beta 154.442849
_cell_angle_gamma 90.000000
_cell_volume 1518.199307
_symmetry_space_group_name_H-M "P 2/M"
_symmetry_group_IT_number 10
_symmetry_cell_setting 'monoclinic'
loop_
_space_group_symop_operation_xyz
x,y,z
-x,y,-z
-x,-y,-z
x,-y,z
loop_
_atom_site_type_symbol
_atom_site_label
_atom_site_fract_x
_atom_site_fract_y
_atom_site_fract_z
Si Si1 0.957764 0.259841 0.295211
Si Si2 0.305340 0.590771 0.483585
Si Si3 0.942111 0.904103 0.911018
Si Si4 0.217459 0.908728 0.436173
Si Si5 0.262515 0.704820 0.290063
Si Si6 0.670373 0.231506 0.007070
Si Si7 0.353621 0.852644 0.613197
O O1 0.587274 0.274013 0.135708
O O2 0.046301 0.335118 0.374447
O O3 0.977853 0.169445 0.335064
O O4 0.187170 0.259329 0.326683
O O5 0.500000 0.578362 0.500000
O O6 0.150385 0.500000 0.440210
O O7 0.557901 0.616198 0.632893
O O8 0.572471 0.893981 0.748910
O O9 0.048185 0.000000 0.945938
O O10 0.000000 0.872400 0.000000
O O11 0.165519 0.850265 0.955303
O O12 0.500000 0.896782 0.500000
O O13 0.354218 0.910795 0.555556
O O14 0.051031 0.000000 0.360860
O O15 0.507693 0.763210 0.350891
O O16 0.935104 0.697639 0.125871
O O17 0.500000 0.198615 0.000000
O O18 0.000000 0.840685 0.500000
#
# Coordination Sequence:
#
# PCOD8057465 Si02
#       7
#     4   4   4   4   4   4   4
#     4  10  17  33  54  79 109 135 176 222 261 315
#     4   9  16  28  54  83 108 137 169 212 270 323
#     4  10  23  39  50  69 105 141 180 228 268 311
#     4  11  21  33  53  79 107 142 180 225 271 311
#     4   9  17  35  52  76 108 137 173 220 265 313
#     4   9  20  34  54  74 100 142 176 217 266 312
#     4  11  22  37  55  76 104 142 184 224 272 317
#
# _framework density 18.442900999999999
#
# number of rings (size 3 to 8) (size 9 to 14) (size 15 to 20)
#    0.000    2.143    2.857    0.857    2.000    2.000 
#    0.000    0.714    0.000    4.714    0.000    0.000 
#    0.000    5.143    0.000    0.000    0.000    0.000 
#
# Total GULP energy -347004.136323 kJ/mol
# GULP energy per Si atom -12393.004869 kJ/mol
# Density = 1.840092 g / cm^3
# Si number density = 18.442901 Si / 1000 Ang^3
#
#
#
# Elastic Constant Matrix: (Units=GPa)
#
#
# Indices 1 2 3 4 5 6 
#
# 1 65.0232 16.5842 46.6211 0.0000 0.4179 0.0000
# 2 16.5842 135.3619 68.8642 0.0000 -5.4230 0.0000
# 3 46.6211 68.8642 150.7615 0.0000 -8.5218 0.0000
# 4 0.0000 0.0000 0.0000 14.0784 0.0000 0.3922
# 5 0.4179 -5.4230 -8.5218 0.0000 27.5447 0.0000
# 6 0.0000 0.0000 0.0000 0.3922 0.0000 -0.0945
#
#
#
# Elastic Compliance Matrix: (Units=1/GPa)
#
#
# Indices 1 2 3 4 5 6 
#
# 1 0.019975 0.000873 -0.006700 0.000000 -0.002204 0.000000
# 2 0.000873 0.009670 -0.004662 0.000000 0.000448 0.000000
# 3 -0.006700 -0.004662 0.010980 0.000000 0.002581 0.000000
# 4 0.000000 0.000000 0.000000 0.063670 0.000000 0.264212
# 5 -0.002204 0.000448 0.002581 0.000000 0.037225 0.000000
# 6 0.000000 0.000000 0.000000 0.264212 0.000000 -9.484035
#
#
# Mechanical properties :
#
#
# Convention : Reuss Voigt Hill
#
# Bulk Modulus (GPa) = 50.89767 68.36504 59.63136
# Shear Modulus (GPa) = -0.53677 22.91086 11.18704
#
# Velocity S-wave (km/s) = -0.54007 3.52839 2.46555
# Velocity P-wave (km/s) = 5.22192 7.33133 6.36462
#
# Compressibility (1/GPa) = 0.01964726
#
# Stress axis : x y z
#
# Youngs Moduli (GPa) = 50.06340 103.41002 91.07235
#
# Poissons Ratio (x) = -0.09030 0.61022
# Poissons Ratio (y) = -0.04372 0.42456
# Poissons Ratio (z) = 0.33544 0.48208
#
# Static dielectric constant tensor:
#      x y z
#    x 3.215450 0.000000 -0.223080 
#    y 0.000000 3.442700 0.000000 
#    z -0.223080 0.000000 3.723400 
# 
# 
# High freq. dielectric constant tensor:
#      x y z
#    x 1.690530 0.000000 -0.011480 
#    y 0.000000 1.693800 0.000000 
#    z -0.011480 0.000000 1.722940 
# 
# From -- ./inp_files/35363.got.cif
#   From: 2010.06.25/outbox.cif.g09.slc.cpg/sg10_18_cif.got.tgz:35363.got - 2010.06.27 22:07:45.
