data_PCOD8057750
_publ_section_title
;
Structure prediction by ZEFSAII (Michael W. Deem and Ramdas Pophale) SiO2 
 PCOD8057750
Probable space group: P 2/M
;
_chemical_formula_sum "Si O2"
_cell_formula_units_Z 30
_cell_length_a 21.134898
_cell_length_b 15.609994
_cell_length_c 5.311929
_cell_angle_alpha 90.000000
_cell_angle_beta 75.443479
_cell_angle_gamma 90.000000
_cell_volume 1696.233837
_symmetry_space_group_name_H-M "P 2/M"
_symmetry_group_IT_number 10
_symmetry_cell_setting 'monoclinic'
loop_
_space_group_symop_operation_xyz
x,y,z
-x,y,-z
-x,-y,-z
x,-y,z
loop_
_atom_site_type_symbol
_atom_site_label
_atom_site_fract_x
_atom_site_fract_y
_atom_site_fract_z
Si Si1 0.215609 0.156063 0.034392
Si Si2 0.457243 0.000000 0.792757
Si Si3 0.366611 0.835713 0.883391
Si Si4 0.773821 0.903560 0.476178
Si Si5 0.815401 0.647772 0.934598
Si Si6 0.661148 0.238620 0.588850
Si Si7 0.745998 0.594976 0.504002
Si Si8 0.039210 0.600350 0.210791
O O1 0.182797 0.114116 0.316364
O O2 0.292234 0.129631 0.957770
O O3 0.182797 0.114114 0.818045
O O4 0.212667 0.257333 0.037331
O O5 0.500000 0.000000 0.500000
O O6 0.413259 0.916296 0.836741
O O7 0.500000 0.000000 0.000000
O O8 0.381047 0.777011 0.621849
O O9 0.381047 0.777011 0.116062
O O10 0.717861 0.832210 0.532135
O O11 0.745848 0.000000 0.504153
O O12 0.790932 0.601560 0.211221
O O13 0.790932 0.601561 0.706911
O O14 0.893438 0.651943 0.856563
O O15 0.688851 0.334879 0.561149
O O16 0.714203 0.500000 0.535798
O O17 0.055341 0.500000 0.194663
O O18 0.000000 0.626968 0.500000
O O19 0.000000 0.626967 0.000000
#
# Coordination Sequence:
#
# PCOD8057750 Si02
#       8
#     4   2   4   4   4   4   4   4
#     4  10  19  32  50  78 103 140 181 225 281 330
#     4  12  26  40  56  90 120 162 204 210 258 344
#     4  10  20  35  55  70 115 146 176 233 260 319
#     4  10  18  28  47  70 107 133 172 211 265 344
#     4  12  20  37  51  78 112 146 193 240 279 343
#     4  10  19  33  48  80 102 146 184 217 277 342
#     4  12  21  33  51  78 115 150 181 229 294 348
#     4  10  21  35  50  72 103 149 199 231 276 344
#
# _framework density 17.686240999999999
#
# number of rings (size 3 to 8) (size 9 to 14) (size 15 to 20)
#    0.000    1.333    5.333    3.200    7.467    1.067 
#    0.000    0.000    0.000    0.000    0.000    0.000 
#    0.000   21.333    0.000    0.000    0.000    0.000 
#
# Total GULP energy -371812.144585 kJ/mol
# GULP energy per Si atom -12393.738153 kJ/mol
# Density = 1.764599 g / cm^3
# Si number density = 17.686241 Si / 1000 Ang^3
#
#
#
# Elastic Constant Matrix: (Units=GPa)
#
#
# Indices 1 2 3 4 5 6 
#
# 1 69.1167 39.7461 49.6682 0.0000 8.0258 0.0000
# 2 39.7461 139.1869 52.2965 0.0000 5.1831 0.0000
# 3 49.6682 52.2965 182.2615 0.0000 38.6964 0.0000
# 4 0.0000 0.0000 0.0000 -24.8947 0.0000 41.7607
# 5 8.0258 5.1831 38.6964 0.0000 32.1076 0.0000
# 6 0.0000 0.0000 0.0000 41.7607 0.0000 -126.0795
#
#
#
# Elastic Compliance Matrix: (Units=1/GPa)
#
#
# Indices 1 2 3 4 5 6 
#
# 1 0.019890 -0.004031 -0.004497 0.000000 0.001099 0.000000
# 2 -0.004031 0.008966 -0.001856 0.000000 0.001797 0.000000
# 3 -0.004497 -0.001856 0.009329 0.000000 -0.009820 0.000000
# 4 0.000000 0.000000 0.000000 -0.090395 0.000000 -0.029941
# 5 0.001099 0.001797 -0.009820 0.000000 0.042416 0.000000
# 6 0.000000 0.000000 0.000000 -0.029941 0.000000 -0.017849
#
#
# Mechanical properties :
#
#
# Convention : Reuss Voigt Hill
#
# Bulk Modulus (GPa) = 57.40970 74.88740 66.14855
# Shear Modulus (GPa) = -4678.30791 -7.18302 -2342.74546
#
# Velocity S-wave (km/s) = -51.48699 -2.01747 -36.43474
# Velocity P-wave (km/s) = 59.17784 6.08335 41.62337
#
# Compressibility (1/GPa) = 0.01741866
#
# Stress axis : x y z
#
# Youngs Moduli (GPa) = 50.27548 111.53249 107.18730
#
# Poissons Ratio (x) = 0.44961 0.48201
# Poissons Ratio (y) = 0.20267 0.19889
# Poissons Ratio (z) = 0.22608 0.20695
#
# Static dielectric constant tensor:
#      x y z
#    x 3.061460 0.000000 0.865970 
#    y 0.000000 3.200740 0.000000 
#    z 0.865970 0.000000 5.158590 
# 
# 
# High freq. dielectric constant tensor:
#      x y z
#    x 1.624390 0.000000 0.038850 
#    y 0.000000 1.679190 0.000000 
#    z 0.038850 0.000000 1.718470 
# 
# From -- ./inp_files/11410.got.cif
#   From: 2010.06.25/outbox.cif.g09.slc.cpg/sg10_6_cif.got.tgz:11410.got - 2010.06.27 22:07:45.
