data_PCOD8057579
_publ_section_title
;
Structure prediction by ZEFSAII (Michael W. Deem and Ramdas Pophale) SiO2 
 PCOD8057579
Probable space group: P 2/M
;
_chemical_formula_sum "Si O2"
_cell_formula_units_Z 32
_cell_length_a 14.024712
_cell_length_b 9.373563
_cell_length_c 14.909936
_cell_angle_alpha 90.000000
_cell_angle_beta 88.277209
_cell_angle_gamma 90.000000
_cell_volume 1959.196876
_symmetry_space_group_name_H-M "P 2/M"
_symmetry_group_IT_number 10
_symmetry_cell_setting 'monoclinic'
loop_
_space_group_symop_operation_xyz
x,y,z
-x,y,-z
-x,-y,-z
x,-y,z
loop_
_atom_site_type_symbol
_atom_site_label
_atom_site_fract_x
_atom_site_fract_y
_atom_site_fract_z
Si Si1 0.385830 0.832634 0.759154
Si Si2 0.226816 0.331377 0.838530
Si Si3 0.472981 0.658763 0.135655
Si Si4 0.306824 0.667186 0.023107
Si Si5 0.326791 0.341380 0.302843
Si Si6 0.471593 0.833467 0.402791
Si Si7 0.018945 0.330568 0.898608
Si Si8 0.172900 0.330000 0.178658
O O1 0.282570 0.753556 0.757868
O O2 0.446606 0.772535 0.841551
O O3 0.441423 0.795885 0.665999
O O4 0.371014 0.000000 0.772393
O O5 0.231499 0.500000 0.819458
O O6 0.118378 0.276694 0.853247
O O7 0.284352 0.279880 0.924643
O O8 0.519939 0.500000 0.125013
O O9 0.417378 0.702217 0.045168
O O10 0.391884 0.653090 0.213201
O O11 0.288130 0.500000 0.028160
O O12 0.232582 0.738466 0.094638
O O13 0.317522 0.500000 0.344576
O O14 0.372695 0.240343 0.376508
O O15 0.222390 0.283136 0.272032
O O16 0.500000 0.776956 0.500000
O O17 0.449827 0.000000 0.404225
O O18 0.022789 0.500000 0.905986
O O19 0.936361 0.278916 0.831741
O O20 0.000000 0.270122 0.000000
O O21 0.177769 0.500000 0.174806
#
# Coordination Sequence:
#
# PCOD8057579 Si02
#       8
#     4   4   4   4   4   4   4   4
#     4  10  20  32  43  58  84 112 136 171 219 264
#     4  10  18  27  42  63  86 114 150 184 210 239
#     4   8  14  26  42  58  80 111 146 176 203 241
#     4   8  13  22  38  60  83 111 146 182 210 233
#     4   8  14  24  42  68  93 112 132 169 219 260
#     4   9  18  33  51  67  83 107 140 175 213 264
#     4   9  14  22  40  66  89 113 152 194 216 231
#     4   8  12  21  38  63  92 115 142 182 218 242
#
# _framework density 16.333224000000001
#
# number of rings (size 3 to 8) (size 9 to 14) (size 15 to 20)
#    0.000    3.250    1.250    1.875    0.000    1.250 
#    0.000    3.125    0.000    1.875    0.000    0.875 
#    0.000    7.000    0.000    0.000    0.000    0.000 
#
# Total GULP energy -396444.458058 kJ/mol
# GULP energy per Si atom -12388.889314 kJ/mol
# Density = 1.629605 g / cm^3
# Si number density = 16.333224 Si / 1000 Ang^3
#
#
#
# Elastic Constant Matrix: (Units=GPa)
#
#
# Indices 1 2 3 4 5 6 
#
# 1 130.2451 37.9510 57.0580 0.0000 12.1843 0.0000
# 2 37.9510 40.4269 25.5147 0.0000 3.3626 0.0000
# 3 57.0580 25.5147 61.3163 0.0000 17.9384 0.0000
# 4 0.0000 0.0000 0.0000 13.4557 0.0000 -5.0041
# 5 12.1843 3.3626 17.9384 0.0000 21.0231 0.0000
# 6 0.0000 0.0000 0.0000 -5.0041 0.0000 5.4060
#
#
#
# Elastic Compliance Matrix: (Units=1/GPa)
#
#
# Indices 1 2 3 4 5 6 
#
# 1 0.014296 -0.006484 -0.011307 0.000000 0.002400 0.000000
# 2 -0.006484 0.037731 -0.011995 0.000000 0.007958 0.000000
# 3 -0.011307 -0.011995 0.039106 0.000000 -0.024896 0.000000
# 4 0.000000 0.000000 0.000000 0.113331 0.000000 0.104904
# 5 0.002400 0.007958 -0.024896 0.000000 0.066146 0.000000
# 6 0.000000 0.000000 0.000000 0.104904 0.000000 0.282082
#
#
# Mechanical properties :
#
#
# Convention : Reuss Voigt Hill
#
# Bulk Modulus (GPa) = 31.68517 52.55952 42.12235
# Shear Modulus (GPa) = 8.02845 15.40795 11.71820
#
# Velocity S-wave (km/s) = 2.21948 3.07473 2.68142
# Velocity P-wave (km/s) = 5.09994 6.69736 5.95248
#
# Compressibility (1/GPa) = 0.03156050
#
# Stress axis : x y z
#
# Youngs Moduli (GPa) = 69.94902 26.50318 25.57158
#
# Poissons Ratio (x) = 0.17184 0.28915
# Poissons Ratio (y) = 0.45353 0.30674
# Poissons Ratio (z) = 0.79094 0.31791
#
# Static dielectric constant tensor:
#      x y z
#    x 3.384990 0.000000 0.172140 
#    y 0.000000 2.695670 0.000000 
#    z 0.172140 0.000000 2.971280 
# 
# 
# High freq. dielectric constant tensor:
#      x y z
#    x 1.633120 0.000000 0.009340 
#    y 0.000000 1.582880 0.000000 
#    z 0.009340 0.000000 1.594320 
# 
# From -- ./inp_files/66156.got.cif
#   From: 2010.06.25/outbox.cif.g09.slc.cpg/sg10_34_cif.got.tgz:66156.got - 2010.06.27 22:07:45.
