data_PCOD8057082
_publ_section_title
;
Structure prediction by ZEFSAII (Michael W. Deem and Ramdas Pophale) SiO2 
 PCOD8057082
Probable space group: P 2/M
;
_chemical_formula_sum "Si O2"
_cell_formula_units_Z 32
_cell_length_a 17.683734
_cell_length_b 13.110858
_cell_length_c 16.321151
_cell_angle_alpha 90.000000
_cell_angle_beta 147.734467
_cell_angle_gamma 90.000000
_cell_volume 2020.086902
_symmetry_space_group_name_H-M "P 2/M"
_symmetry_group_IT_number 10
_symmetry_cell_setting 'monoclinic'
loop_
_space_group_symop_operation_xyz
x,y,z
-x,y,-z
-x,-y,-z
x,-y,z
loop_
_atom_site_type_symbol
_atom_site_label
_atom_site_fract_x
_atom_site_fract_y
_atom_site_fract_z
Si Si1 0.400406 0.117286 0.758602
Si Si2 0.942955 0.120895 0.213120
Si Si3 0.652537 0.119871 0.879395
Si Si4 0.235842 0.800154 0.461842
Si Si5 0.648621 0.700565 0.174642
Si Si6 0.932327 0.739689 0.353924
Si Si7 0.190856 0.383275 0.528630
Si Si8 0.532275 0.879812 0.437899
O O1 0.544057 0.161856 0.848768
O O2 0.278538 0.128664 0.578218
O O3 0.367938 0.182788 0.809564
O O4 0.411100 0.000000 0.795877
O O5 0.079246 0.165503 0.291666
O O6 0.930660 0.163432 0.293394
O O7 0.947348 0.000000 0.221452
O O8 0.809371 0.162273 0.038233
O O9 0.602742 0.148628 0.742104
O O10 0.649615 0.000000 0.887613
O O11 0.239795 0.682457 0.494654
O O12 0.333922 0.816631 0.472770
O O13 0.772833 0.697232 0.220220
O O14 0.695263 0.630118 0.293683
O O15 0.500000 0.661192 0.000000
O O16 0.000000 0.780478 0.500000
O O17 0.032962 0.649896 0.411561
O O18 0.186831 0.500000 0.497455
O O19 0.500000 0.843593 0.500000
O O20 0.567533 0.000000 0.466184
#
# Coordination Sequence:
#
# PCOD8057082 Si02
#       8
#     4   4   4   4   4   4   4   4
#     4   9  16  27  41  57  85 123 150 170 206 259
#     4  10  17  26  41  61  88 117 146 182 213 241
#     4   8  15  26  40  60  87 121 151 170 199 244
#     4   9  17  29  46  65  82 107 148 181 205 250
#     4  10  19  28  41  64  87 108 144 190 226 258
#     4   9  19  30  41  60  84 114 148 180 221 266
#     4   9  19  35  49  58  76 110 146 183 228 270
#     4   9  16  28  47  70  97 124 141 157 194 252
#
# _framework density 15.840903000000001
#
# number of rings (size 3 to 8) (size 9 to 14) (size 15 to 20)
#    0.000    2.875    0.000    3.375    0.000    3.500 
#    0.000    0.625    0.000    3.375    0.000    0.000 
#    0.000    4.000    0.000    0.000    0.000    0.000 
#
# Total GULP energy -396690.498334 kJ/mol
# GULP energy per Si atom -12396.578073 kJ/mol
# Density = 1.580485 g / cm^3
# Si number density = 15.840903 Si / 1000 Ang^3
#
#
#
# Elastic Constant Matrix: (Units=GPa)
#
#
# Indices 1 2 3 4 5 6 
#
# 1 101.3287 38.7967 47.9603 0.0000 9.2242 0.0000
# 2 38.7967 80.1964 29.6986 0.0000 2.5829 0.0000
# 3 47.9603 29.6986 112.8820 0.0000 19.8771 0.0000
# 4 0.0000 0.0000 0.0000 9.9918 0.0000 1.9594
# 5 9.2242 2.5829 19.8771 0.0000 17.8622 0.0000
# 6 0.0000 0.0000 0.0000 1.9594 0.0000 13.3623
#
#
#
# Elastic Compliance Matrix: (Units=1/GPa)
#
#
# Indices 1 2 3 4 5 6 
#
# 1 0.014031 -0.005137 -0.004309 0.000000 -0.001708 0.000000
# 2 -0.005137 0.015790 -0.002533 0.000000 0.003188 0.000000
# 3 -0.004309 -0.002533 0.013556 0.000000 -0.012494 0.000000
# 4 0.000000 0.000000 0.000000 0.103045 0.000000 -0.015110
# 5 -0.001708 0.003188 -0.012494 0.000000 0.070308 0.000000
# 6 0.000000 0.000000 0.000000 -0.015110 0.000000 0.077053
#
#
# Mechanical properties :
#
#
# Convention : Reuss Voigt Hill
#
# Bulk Modulus (GPa) = 51.49754 58.59091 55.04422
# Shear Modulus (GPa) = 15.42197 20.10671 17.76434
#
# Velocity S-wave (km/s) = 3.12357 3.56658 3.35240
# Velocity P-wave (km/s) = 6.75194 7.35037 7.05750
#
# Compressibility (1/GPa) = 0.01941840
#
# Stress axis : x y z
#
# Youngs Moduli (GPa) = 71.27248 63.33184 73.76800
#
# Poissons Ratio (x) = 0.32533 0.31787
# Poissons Ratio (y) = 0.36612 0.18686
# Poissons Ratio (z) = 0.30712 0.16043
#
# Static dielectric constant tensor:
#      x y z
#    x 2.881270 0.000000 0.179460 
#    y 0.000000 2.670950 0.000000 
#    z 0.179460 0.000000 3.337270 
# 
# 
# High freq. dielectric constant tensor:
#      x y z
#    x 1.586900 0.000000 0.016070 
#    y 0.000000 1.571760 0.000000 
#    z 0.016070 0.000000 1.616390 
# 
# From -- ./inp_files/32200.got.cif
#   From: 2010.06.25/outbox.cif.g09.slc.cpg/sg10_17_cif.got.tgz:32200.got - 2010.06.27 22:07:45.
