data_PCOD8057591
_publ_section_title
;
Structure prediction by ZEFSAII (Michael W. Deem and Ramdas Pophale) SiO2 
 PCOD8057591
Probable space group: P 2/M
;
_chemical_formula_sum "Si O2"
_cell_formula_units_Z 20
_cell_length_a 11.230634
_cell_length_b 8.039070
_cell_length_c 20.883094
_cell_angle_alpha 90.000000
_cell_angle_beta 141.336447
_cell_angle_gamma 90.000000
_cell_volume 1177.900128
_symmetry_space_group_name_H-M "P 2/M"
_symmetry_group_IT_number 10
_symmetry_cell_setting 'monoclinic'
loop_
_space_group_symop_operation_xyz
x,y,z
-x,y,-z
-x,-y,-z
x,-y,z
loop_
_atom_site_type_symbol
_atom_site_label
_atom_site_fract_x
_atom_site_fract_y
_atom_site_fract_z
Si Si1 0.292585 0.684418 0.921419
Si Si2 0.356790 0.311828 0.496891
Si Si3 0.819527 0.500000 0.009185
Si Si4 0.911808 0.188758 0.712072
Si Si5 0.367440 0.191748 0.293226
Si Si6 0.264123 0.500000 0.168370
O O1 0.298374 0.500000 0.891770
O O2 0.238226 0.665020 0.973988
O O3 0.136170 0.791299 0.818290
O O4 0.500000 0.770499 0.000000
O O5 0.500000 0.269713 0.500000
O O6 0.370636 0.500000 0.526333
O O7 0.146613 0.277108 0.379571
O O8 0.423058 0.200214 0.585222
O O9 0.043202 0.500000 0.092223
O O10 0.704606 0.500000 0.894779
O O11 0.793081 0.254896 0.723498
O O12 0.856453 0.000000 0.679080
O O13 0.359402 0.327859 0.233218
O O14 0.332799 0.000000 0.255044
#
# Coordination Sequence:
#
# PCOD8057591 Si02
#       6
#     4   4   2   4   4   2
#     4   9  17  32  50  66  88 125 160 199 233 276
#     4   9  16  25  43  66  95 128 154 184 234 290
#     4   9  19  32  49  67  91 124 166 197 231 279
#     4  10  18  27  42  69 100 124 155 194 236 284
#     4  10  18  29  45  70 100 129 158 187 234 289
#     4  11  18  32  50  68  97 132 157 194 237 278
#
# _framework density 16.979368999999998
#
# number of rings (size 3 to 8) (size 9 to 14) (size 15 to 20)
#    0.600    1.800    3.000    1.200    1.400    2.800 
#    0.000    3.000    0.000    0.000    0.000    2.800 
#    0.000    3.200    0.000    0.000    0.000    0.000 
#
# Total GULP energy -247778.085027 kJ/mol
# GULP energy per Si atom -12388.904251 kJ/mol
# Density = 1.694072 g / cm^3
# Si number density = 16.979369 Si / 1000 Ang^3
#
#
#
# Elastic Constant Matrix: (Units=GPa)
#
#
# Indices 1 2 3 4 5 6 
#
# 1 39.5848 6.2202 37.5501 0.0000 3.1732 0.0000
# 2 6.2202 69.8819 36.4398 0.0000 -11.9708 0.0000
# 3 37.5501 36.4398 131.4209 0.0000 1.4266 0.0000
# 4 0.0000 0.0000 0.0000 23.1125 0.0000 3.3293
# 5 3.1732 -11.9708 1.4266 0.0000 17.7667 0.0000
# 6 0.0000 0.0000 0.0000 3.3293 0.0000 8.3950
#
#
#
# Elastic Compliance Matrix: (Units=1/GPa)
#
#
# Indices 1 2 3 4 5 6 
#
# 1 0.035305 0.001563 -0.010473 0.000000 -0.004412 0.000000
# 2 0.001563 0.019615 -0.006031 0.000000 0.013421 0.000000
# 3 -0.010473 -0.006031 0.012308 0.000000 -0.003181 0.000000
# 4 0.000000 0.000000 0.000000 0.045888 0.000000 -0.018199
# 5 -0.004412 0.013421 -0.003181 0.000000 0.066371 0.000000
# 6 0.000000 0.000000 0.000000 -0.018199 0.000000 0.126337
#
#
# Mechanical properties :
#
#
# Convention : Reuss Voigt Hill
#
# Bulk Modulus (GPa) = 26.77673 44.58976 35.68325
# Shear Modulus (GPa) = 14.36146 20.56665 17.46405
#
# Velocity S-wave (km/s) = 2.91145 3.48411 3.21057
# Velocity P-wave (km/s) = 5.20639 6.51947 5.89957
#
# Compressibility (1/GPa) = 0.03734586
#
# Stress axis : x y z
#
# Youngs Moduli (GPa) = 28.32463 50.98261 81.24627
#
# Poissons Ratio (x) = -0.07968 0.85089
# Poissons Ratio (y) = -0.04427 0.48998
# Poissons Ratio (z) = 0.29664 0.30747
#
# Static dielectric constant tensor:
#      x y z
#    x 2.717160 0.000000 -0.012290 
#    y 0.000000 2.982330 0.000000 
#    z -0.012290 0.000000 3.353920 
# 
# 
# High freq. dielectric constant tensor:
#      x y z
#    x 1.582040 0.000000 0.004750 
#    y 0.000000 1.648270 0.000000 
#    z 0.004750 0.000000 1.668060 
# 
# From -- ./inp_files/83251.got.cif
#   From: 2010.06.25/outbox.cif.g09.slc.cpg/sg10_42_cif.got.tgz:83251.got - 2010.06.27 22:07:45.
