data_PCOD8057813
_publ_section_title
;
Structure prediction by ZEFSAII (Michael W. Deem and Ramdas Pophale) SiO2 
 PCOD8057813
Probable space group: P 2/M
;
_chemical_formula_sum "Si O2"
_cell_formula_units_Z 32
_cell_length_a 24.943581
_cell_length_b 13.630454
_cell_length_c 17.568034
_cell_angle_alpha 90.000000
_cell_angle_beta 19.113492
_cell_angle_gamma 90.000000
_cell_volume 1955.800523
_symmetry_space_group_name_H-M "P 2/M"
_symmetry_group_IT_number 10
_symmetry_cell_setting 'monoclinic'
loop_
_space_group_symop_operation_xyz
x,y,z
-x,y,-z
-x,-y,-z
x,-y,z
loop_
_atom_site_type_symbol
_atom_site_label
_atom_site_fract_x
_atom_site_fract_y
_atom_site_fract_z
Si Si1 0.558836 0.616828 0.599418
Si Si2 0.391789 0.707648 0.074269
Si Si3 0.313997 0.607721 0.727559
Si Si4 0.781552 0.296806 0.997266
Si Si5 0.662392 0.612995 0.621804
Si Si6 0.904222 0.890080 0.750866
Si Si7 0.764219 0.890494 0.771645
Si Si8 0.876689 0.385515 0.470845
O O1 0.525432 0.500000 0.646835
O O2 0.685110 0.643254 0.361534
O O3 0.650046 0.657594 0.552881
O O4 0.382610 0.669435 0.825705
O O5 0.374634 0.809511 0.052224
O O6 0.218103 0.662834 0.331341
O O7 0.500000 0.736096 0.000000
O O8 0.485241 0.628354 0.897497
O O9 0.500000 0.591702 0.500000
O O10 0.226237 0.500000 0.854091
O O11 0.234556 0.689355 0.889409
O O12 0.825748 0.184611 0.917352
O O13 0.933306 0.364848 0.769497
O O14 0.698528 0.500000 0.562634
O O15 0.806521 0.656687 0.483285
O O16 0.829419 0.875039 0.768536
O O17 0.098208 0.874150 0.478490
O O18 0.869188 0.000000 0.828593
O O19 0.690962 0.000000 0.861258
O O20 0.839817 0.500000 0.522930
#
# Coordination Sequence:
#
# PCOD8057813 Si02
#       8
#     4   4   4   4   4   4   4   4
#     4   9  17  30  47  67  90 119 151 180 215 261
#     4  10  18  29  44  63  89 123 151 177 213 262
#     4   8  15  27  44  67  92 114 141 180 224 260
#     4  11  17  28  49  69  86 112 149 187 219 257
#     4   9  18  31  44  60  92 130 152 172 214 264
#     4   9  18  30  46  64  87 115 141 179 230 269
#     4   9  17  31  45  62  87 114 146 183 222 259
#     4  10  19  29  42  65  94 121 149 180 214 256
#
# _framework density 16.361585999999999
#
# number of rings (size 3 to 8) (size 9 to 14) (size 15 to 20)
#    0.000    2.625    1.250    3.750    0.000    1.750 
#    0.000    0.625    0.000    9.375    0.000    0.000 
#    0.000    1.000    0.000    0.000    0.000    1.000 
#
# Total GULP energy -396458.038305 kJ/mol
# GULP energy per Si atom -12389.313697 kJ/mol
# Density = 1.632435 g / cm^3
# Si number density = 16.361586 Si / 1000 Ang^3
#
#
#
# Elastic Constant Matrix: (Units=GPa)
#
#
# Indices 1 2 3 4 5 6 
#
# 1 54.0356 25.8721 10.1992 0.0000 17.7245 0.0000
# 2 25.8721 66.5565 24.5678 0.0000 6.8170 0.0000
# 3 10.1992 24.5678 46.0319 0.0000 10.1932 0.0000
# 4 0.0000 0.0000 0.0000 19.0081 0.0000 2.4614
# 5 17.7245 6.8170 10.1932 0.0000 19.7056 0.0000
# 6 0.0000 0.0000 0.0000 2.4614 0.0000 21.9161
#
#
#
# Elastic Compliance Matrix: (Units=1/GPa)
#
#
# Indices 1 2 3 4 5 6 
#
# 1 0.032103 -0.011562 0.005157 0.000000 -0.027544 0.000000
# 2 -0.011562 0.022913 -0.011536 0.000000 0.008440 0.000000
# 3 0.005157 -0.011536 0.030359 0.000000 -0.016352 0.000000
# 4 0.000000 0.000000 0.000000 0.053386 0.000000 -0.005996
# 5 -0.027544 0.008440 -0.016352 0.000000 0.081060 0.000000
# 6 0.000000 0.000000 0.000000 -0.005996 0.000000 0.046302
#
#
# Mechanical properties :
#
#
# Convention : Reuss Voigt Hill
#
# Bulk Modulus (GPa) = 20.20473 31.98913 26.09693
# Shear Modulus (GPa) = 15.69841 19.19160 17.44501
#
# Velocity S-wave (km/s) = 3.10089 3.42858 3.26884
# Velocity P-wave (km/s) = 5.01960 5.93863 5.49835
#
# Compressibility (1/GPa) = 0.04949337
#
# Stress axis : x y z
#
# Youngs Moduli (GPa) = 31.14930 43.64328 32.93874
#
# Poissons Ratio (x) = 0.50459 -0.16986
# Poissons Ratio (y) = 0.36014 0.37999
# Poissons Ratio (z) = -0.16063 0.50348
#
# Static dielectric constant tensor:
#      x y z
#    x 3.387610 0.000000 0.232390 
#    y 0.000000 2.960290 0.000000 
#    z 0.232390 0.000000 3.097720 
# 
# 
# High freq. dielectric constant tensor:
#      x y z
#    x 1.627510 0.000000 0.004730 
#    y 0.000000 1.606150 0.000000 
#    z 0.004730 0.000000 1.611480 
# 
# From -- ./inp_files/76543.got.cif
#   From: 2010.06.25/outbox.cif.g09.slc.cpg/sg10_39_cif.got.tgz:76543.got - 2010.06.27 22:07:45.
