data_PCOD8057182
_publ_section_title
;
Structure prediction by ZEFSAII (Michael W. Deem and Ramdas Pophale) SiO2 
 PCOD8057182
Probable space group: P 2/M
;
_chemical_formula_sum "Si O2"
_cell_formula_units_Z 32
_cell_length_a 20.415075
_cell_length_b 13.095029
_cell_length_c 20.270520
_cell_angle_alpha 90.000000
_cell_angle_beta 20.953217
_cell_angle_gamma 90.000000
_cell_volume 1937.878654
_symmetry_space_group_name_H-M "P 2/M"
_symmetry_group_IT_number 10
_symmetry_cell_setting 'monoclinic'
loop_
_space_group_symop_operation_xyz
x,y,z
-x,y,-z
-x,-y,-z
x,-y,z
loop_
_atom_site_type_symbol
_atom_site_label
_atom_site_fract_x
_atom_site_fract_y
_atom_site_fract_z
Si Si1 0.959814 0.116299 0.938859
Si Si2 0.365247 0.620797 0.311225
Si Si3 0.230336 0.619215 0.095124
Si Si4 0.970563 0.379598 0.455282
Si Si5 0.925419 0.302492 0.891127
Si Si6 0.679243 0.616658 0.235286
Si Si7 0.313561 0.620055 0.506675
Si Si8 0.287870 0.188187 0.715340
O O1 0.897872 0.182979 0.934174
O O2 0.153001 0.164573 0.781540
O O3 0.990975 0.000000 0.887822
O O4 0.794477 0.120607 0.147398
O O5 0.341058 0.500000 0.337618
O O6 0.559154 0.651640 0.097960
O O7 0.350913 0.666007 0.398538
O O8 0.209499 0.667745 0.410191
O O9 0.205241 0.500000 0.101710
O O10 0.144559 0.646849 0.246297
O O11 0.130362 0.681292 0.131780
O O12 0.944495 0.500000 0.487511
O O13 0.000000 0.330287 0.500000
O O14 0.135191 0.330807 0.705451
O O15 0.809652 0.373382 0.049320
O O16 0.687731 0.500000 0.253189
O O17 0.476705 0.648724 0.402597
O O18 0.731475 0.691981 0.246147
O O19 0.289114 0.500000 0.523578
O O20 0.500000 0.158564 0.500000
#
# Coordination Sequence:
#
# PCOD8057182 Si02
#       8
#     4   4   4   4   4   4   4   4
#     4  10  23  39  53  71  91 114 156 205 241 285
#     4   9  16  25  40  61  88 125 160 188 218 256
#     4  10  17  27  44  65  93 127 159 190 227 271
#     4   9  17  27  39  60  93 133 170 193 211 247
#     4  11  19  31  50  69  90 123 160 193 240 284
#     4  10  20  31  46  72 100 121 152 193 229 277
#     4  10  17  27  45  69  96 124 154 187 227 278
#     4  10  20  37  56  71  91 124 156 185 235 290
#
# _framework density 16.512900999999999
#
# number of rings (size 3 to 8) (size 9 to 14) (size 15 to 20)
#    0.000    2.125    2.500    2.625    0.000    1.750 
#    0.000    8.750    0.000    0.000    0.000    0.000 
#    0.000    0.500    0.000    1.250    0.000    0.250 
#
# Total GULP energy -396712.570235 kJ/mol
# GULP energy per Si atom -12397.267820 kJ/mol
# Density = 1.647532 g / cm^3
# Si number density = 16.512901 Si / 1000 Ang^3
#
#
#
# Elastic Constant Matrix: (Units=GPa)
#
#
# Indices 1 2 3 4 5 6 
#
# 1 43.7882 25.4033 6.6591 0.0000 2.6738 0.0000
# 2 25.4033 40.7937 11.4285 0.0000 -15.5632 0.0000
# 3 6.6591 11.4285 105.1370 0.0000 -7.8283 0.0000
# 4 0.0000 0.0000 0.0000 9.6590 0.0000 -1.4103
# 5 2.6738 -15.5632 -7.8283 0.0000 14.6374 0.0000
# 6 0.0000 0.0000 0.0000 -1.4103 0.0000 8.5145
#
#
#
# Elastic Compliance Matrix: (Units=1/GPa)
#
#
# Indices 1 2 3 4 5 6 
#
# 1 0.098088 -0.113712 -0.004362 0.000000 -0.141155 0.000000
# 2 -0.113712 0.173231 0.003783 0.000000 0.206982 0.000000
# 3 -0.004362 0.003783 0.010139 0.000000 0.010242 0.000000
# 4 0.000000 0.000000 0.000000 0.106096 0.000000 0.017573
# 5 -0.141155 0.206982 0.010242 0.000000 0.319654 0.000000
# 6 0.000000 0.000000 0.000000 0.017573 0.000000 0.120357
#
#
# Mechanical properties :
#
#
# Convention : Reuss Voigt Hill
#
# Bulk Modulus (GPa) = 18.91195 30.74451 24.82823
# Shear Modulus (GPa) = 4.65648 16.31072 10.48360
#
# Velocity S-wave (km/s) = 1.68108 3.14627 2.52240
# Velocity P-wave (km/s) = 3.90458 5.64425 4.85300
#
# Compressibility (1/GPa) = 0.05287662
#
# Stress axis : x y z
#
# Youngs Moduli (GPa) = 10.19488 5.77265 98.62876
#
# Poissons Ratio (x) = 0.65642 0.43023
# Poissons Ratio (y) = 1.15928 -0.37314
# Poissons Ratio (z) = 0.04447 -0.02184
#
# Static dielectric constant tensor:
#      x y z
#    x 3.157870 0.000000 -0.074960 
#    y 0.000000 2.674540 0.000000 
#    z -0.074960 0.000000 3.366920 
# 
# 
# High freq. dielectric constant tensor:
#      x y z
#    x 1.624100 0.000000 -0.003950 
#    y 0.000000 1.574600 0.000000 
#    z -0.003950 0.000000 1.657680 
# 
# From -- ./inp_files/86278.got.cif
#   From: 2010.06.25/outbox.cif.g09.slc.cpg/sg10_44_cif.got.tgz:86278.got - 2010.06.27 22:07:45.
