data_PCOD8057930
_publ_section_title
;
Structure prediction by ZEFSAII (Michael W. Deem and Ramdas Pophale) SiO2 
 PCOD8057930
Probable space group: P 2/M
;
_chemical_formula_sum "Si O2"
_cell_formula_units_Z 26
_cell_length_a 9.373364
_cell_length_b 12.321076
_cell_length_c 13.804165
_cell_angle_alpha 90.000000
_cell_angle_beta 112.874289
_cell_angle_gamma 90.000000
_cell_volume 1468.870744
_symmetry_space_group_name_H-M "P 2/M"
_symmetry_group_IT_number 10
_symmetry_cell_setting 'monoclinic'
loop_
_space_group_symop_operation_xyz
x,y,z
-x,y,-z
-x,-y,-z
x,-y,z
loop_
_atom_site_type_symbol
_atom_site_label
_atom_site_fract_x
_atom_site_fract_y
_atom_site_fract_z
Si Si1 0.298094 0.000000 0.557099
Si Si2 0.860321 0.763009 0.673502
Si Si3 0.741923 0.236015 0.430084
Si Si4 0.139656 0.626815 0.707172
Si Si5 0.530849 0.625817 0.115463
Si Si6 0.146343 0.000000 0.321397
Si Si7 0.593691 0.000000 0.747121
Si Si8 0.418367 0.764894 0.250739
O O1 0.219654 0.108703 0.581592
O O2 0.280970 0.000000 0.437524
O O3 0.481031 0.000000 0.623982
O O4 0.772897 0.736185 0.550138
O O5 0.737641 0.754240 0.728209
O O6 0.993793 0.674611 0.727561
O O7 0.942244 0.884122 0.692646
O O8 0.852128 0.310169 0.392928
O O9 0.562739 0.261791 0.359094
O O10 0.115699 0.500000 0.680459
O O11 0.291520 0.649401 0.810812
O O12 0.489735 0.500000 0.109969
O O13 0.414595 0.682994 0.159922
O O14 0.500000 0.671670 0.000000
O O15 0.229467 0.000000 0.240031
O O16 0.564589 0.885773 0.794162
#
# Coordination Sequence:
#
# PCOD8057930 Si02
#       8
#     2   4   4   4   4   2   2   4
#     4   8  13  23  42  66  90 125 171 197 210 251
#     4  10  18  29  47  72 102 130 158 190 223 270
#     4   9  17  29  46  69 100 134 161 188 223 268
#     4  10  21  34  47  67  95 126 157 192 240 285
#     4   9  19  38  58  70  85 114 155 203 247 283
#     4   8  15  25  40  65  97 132 159 184 223 261
#     4   8  13  24  43  69 100 123 146 191 236 268
#     4   9  17  30  50  74  97 125 160 192 228 275
#
# _framework density 17.700672999999998
#
# number of rings (size 3 to 8) (size 9 to 14) (size 15 to 20)
#    0.000    2.923    0.000    1.154    0.000    6.154 
#    0.000    4.231    0.000    7.385    0.000    3.231 
#    0.000    0.000    0.000    0.000    0.000    0.000 
#
# Total GULP energy -322109.347715 kJ/mol
# GULP energy per Si atom -12388.821066 kJ/mol
# Density = 1.766039 g / cm^3
# Si number density = 17.700673 Si / 1000 Ang^3
#
#
#
# Elastic Constant Matrix: (Units=GPa)
#
#
# Indices 1 2 3 4 5 6 
#
# 1 92.5815 56.7342 32.3064 0.0000 -8.2810 0.0000
# 2 56.7342 110.2837 46.0823 0.0000 -7.2295 0.0000
# 3 32.3064 46.0823 74.5918 0.0000 -17.7928 0.0000
# 4 0.0000 0.0000 0.0000 18.1676 0.0000 -0.7273
# 5 -8.2810 -7.2295 -17.7928 0.0000 15.9125 0.0000
# 6 0.0000 0.0000 0.0000 -0.7273 0.0000 28.5666
#
#
#
# Elastic Compliance Matrix: (Units=1/GPa)
#
#
# Indices 1 2 3 4 5 6 
#
# 1 0.016231 -0.007443 -0.001668 0.000000 0.003200 0.000000
# 2 -0.007443 0.015820 -0.007854 0.000000 -0.005468 0.000000
# 3 -0.001668 -0.007854 0.024442 0.000000 0.022894 0.000000
# 4 0.000000 0.000000 0.000000 0.055099 0.000000 0.001403
# 5 0.003200 -0.005468 0.022894 0.000000 0.087623 0.000000
# 6 0.000000 0.000000 0.000000 0.001403 0.000000 0.035042
#
#
# Mechanical properties :
#
#
# Convention : Reuss Voigt Hill
#
# Bulk Modulus (GPa) = 44.32244 60.85588 52.58916
# Shear Modulus (GPa) = 18.13514 22.01828 20.07671
#
# Velocity S-wave (km/s) = 3.20432 3.53076 3.37149
# Velocity P-wave (km/s) = 6.22773 7.14681 6.70304
#
# Compressibility (1/GPa) = 0.02256193
#
# Stress axis : x y z
#
# Youngs Moduli (GPa) = 61.61194 63.21176 40.91305
#
# Poissons Ratio (x) = 0.47047 0.06825
# Poissons Ratio (y) = 0.45857 0.32134
# Poissons Ratio (z) = 0.10279 0.49648
#
# Static dielectric constant tensor:
#      x y z
#    x 3.060150 0.000000 0.020380 
#    y 0.000000 3.575960 0.000000 
#    z 0.020380 0.000000 2.992500 
# 
# 
# High freq. dielectric constant tensor:
#      x y z
#    x 1.667060 0.000000 0.003190 
#    y 0.000000 1.696980 0.000000 
#    z 0.003190 0.000000 1.644570 
# 
# From -- ./inp_files/27970.got.cif
#   From: 2010.06.25/outbox.cif.g09.slc.cpg/sg10_14_cif.got.tgz:27970.got - 2010.06.27 22:07:45.
