data_PCOD8057123
_publ_section_title
;
Structure prediction by ZEFSAII (Michael W. Deem and Ramdas Pophale) SiO2 
 PCOD8057123
Probable space group: P 2/M
;
_chemical_formula_sum "Si O2"
_cell_formula_units_Z 24
_cell_length_a 9.192736
_cell_length_b 8.477813
_cell_length_c 20.987889
_cell_angle_alpha 90.000000
_cell_angle_beta 131.044575
_cell_angle_gamma 90.000000
_cell_volume 1233.625402
_symmetry_space_group_name_H-M "P 2/M"
_symmetry_group_IT_number 10
_symmetry_cell_setting 'monoclinic'
loop_
_space_group_symop_operation_xyz
x,y,z
-x,y,-z
-x,-y,-z
x,-y,z
loop_
_atom_site_type_symbol
_atom_site_label
_atom_site_fract_x
_atom_site_fract_y
_atom_site_fract_z
Si Si1 0.716126 0.183901 0.410347
Si Si2 0.972515 0.814587 0.919650
Si Si3 0.707042 0.313395 0.080449
Si Si4 0.050908 0.317252 0.422495
Si Si5 0.770432 0.312730 0.239033
Si Si6 0.562827 0.687205 0.761840
O O1 0.869771 0.289438 0.416731
O O2 0.506572 0.243875 0.326881
O O3 0.761177 0.219718 0.498442
O O4 0.743681 0.000000 0.404102
O O5 0.767524 0.761095 0.835209
O O6 0.136427 0.731983 0.926063
O O7 0.995177 0.000000 0.919358
O O8 0.000000 0.758262 0.000000
O O9 0.696002 0.500000 0.082627
O O10 0.761377 0.241356 0.165378
O O11 0.500000 0.244307 0.000000
O O12 0.106845 0.500000 0.437581
O O13 0.973696 0.260586 0.330596
O O14 0.761249 0.500000 0.235231
O O15 0.585875 0.253332 0.226504
O O16 0.580182 0.500000 0.763101
#
# Coordination Sequence:
#
# PCOD8057123 Si02
#       6
#     4   4   4   4   4   4
#     4  10  17  26  43  72 107 138 172 216 264 307
#     4  11  24  39  54  77 109 140 171 211 260 312
#     4  10  20  36  58  81 104 134 175 218 259 308
#     4   9  15  26  44  69 103 141 180 217 255 303
#     4   8  16  30  51  79 106 133 173 223 263 300
#     4  10  19  34  56  79 104 138 178 217 260 309
#
# _framework density 19.454854000000001
#
# number of rings (size 3 to 8) (size 9 to 14) (size 15 to 20)
#    0.000    2.333    0.000    6.000    0.000    3.000 
#    0.000    5.000    0.000    1.000    0.000    7.000 
#    0.000    0.000    0.000    0.000    0.000    0.000 
#
# Total GULP energy -297447.466421 kJ/mol
# GULP energy per Si atom -12393.644434 kJ/mol
# Density = 1.941057 g / cm^3
# Si number density = 19.454854 Si / 1000 Ang^3
#
#
#
# Elastic Constant Matrix: (Units=GPa)
#
#
# Indices 1 2 3 4 5 6 
#
# 1 1919.0054 2589.3825 1804.2195 0.0000 385.2855 0.0000
# 2 2589.3825 3652.0487 2465.9052 0.0000 538.7468 0.0000
# 3 1804.2195 2465.9052 1860.2945 0.0000 365.3335 0.0000
# 4 0.0000 0.0000 0.0000 23.2447 0.0000 -4.1516
# 5 385.2855 538.7468 365.3335 0.0000 108.1246 0.0000
# 6 0.0000 0.0000 0.0000 -4.1516 0.0000 4.6259
#
#
#
# Elastic Compliance Matrix: (Units=1/GPa)
#
#
# Indices 1 2 3 4 5 6 
#
# 1 0.014964 -0.007509 -0.004267 0.000000 -0.001492 0.000000
# 2 -0.007509 0.007082 -0.001277 0.000000 -0.004214 0.000000
# 3 -0.004267 -0.001277 0.006340 0.000000 0.000145 0.000000
# 4 0.000000 0.000000 0.000000 0.051233 0.000000 0.045980
# 5 -0.001492 -0.004214 0.000145 0.000000 0.035069 0.000000
# 6 0.000000 0.000000 0.000000 0.045980 0.000000 0.257442
#
#
# Mechanical properties :
#
#
# Convention : Reuss Voigt Hill
#
# Bulk Modulus (GPa) = 438.52472 2350.04033 1394.28253
# Shear Modulus (GPa) = 12.53151 65.32179 38.92665
#
# Velocity S-wave (km/s) = 2.54073 5.80077 4.47796
# Velocity P-wave (km/s) = 15.31348 35.43209 27.29410
#
# Compressibility (1/GPa) = 0.00228037
#
# Stress axis : x y z
#
# Youngs Moduli (GPa) = 66.82589 141.21300 157.74077
#
# Poissons Ratio (x) = 1.06036 0.67305
# Poissons Ratio (y) = 0.50179 0.20139
# Poissons Ratio (z) = 0.28513 0.18029
#
# Static dielectric constant tensor:
#      x y z
#    x 3.098470 0.000000 -0.018540 
#    y 0.000000 3.326020 0.000000 
#    z -0.018540 0.000000 4.198520 
# 
# 
# High freq. dielectric constant tensor:
#      x y z
#    x 1.701530 0.000000 0.000370 
#    y 0.000000 1.744650 0.000000 
#    z 0.000370 0.000000 1.794740 
# 
# From -- ./inp_files/81788.got.cif
#   From: 2010.06.25/outbox.cif.g09.slc.cpg/sg10_41_cif.got.tgz:81788.got - 2010.06.27 22:07:45.
