data_PCOD8057640
_publ_section_title
;
Structure prediction by ZEFSAII (Michael W. Deem and Ramdas Pophale) SiO2 
 PCOD8057640
Probable space group: P 2/M
;
_chemical_formula_sum "Si O2"
_cell_formula_units_Z 28
_cell_length_a 19.554545
_cell_length_b 9.027104
_cell_length_c 15.228558
_cell_angle_alpha 90.000000
_cell_angle_beta 135.020708
_cell_angle_gamma 90.000000
_cell_volume 1900.128291
_symmetry_space_group_name_H-M "P 2/M"
_symmetry_group_IT_number 10
_symmetry_cell_setting 'monoclinic'
loop_
_space_group_symop_operation_xyz
x,y,z
-x,y,-z
-x,-y,-z
x,-y,z
loop_
_atom_site_type_symbol
_atom_site_label
_atom_site_fract_x
_atom_site_fract_y
_atom_site_fract_z
Si Si1 0.689797 0.167357 0.475433
Si Si2 0.032883 0.832684 0.629892
Si Si3 0.590868 0.826444 0.022448
Si Si4 0.784071 0.673362 0.256822
Si Si5 0.459480 0.325615 0.556923
Si Si6 0.848048 0.673609 0.510679
Si Si7 0.513276 0.833330 0.766213
O O1 0.644642 0.245947 0.521593
O O2 0.781353 0.258375 0.525473
O O3 0.603753 0.167193 0.323847
O O4 0.722296 0.000000 0.527395
O O5 0.136442 0.753070 0.732238
O O6 0.000000 0.829396 0.500000
O O7 0.954116 0.745521 0.616214
O O8 0.041906 0.000000 0.673360
O O9 0.566680 0.775143 0.901346
O O10 0.616130 0.000000 0.050020
O O11 0.500000 0.787728 0.000000
O O12 0.679495 0.730701 0.136100
O O13 0.791915 0.500000 0.246205
O O14 0.801702 0.711468 0.374559
O O15 0.500000 0.275415 0.500000
O O16 0.445057 0.500000 0.549840
O O17 0.535193 0.271886 0.701818
O O18 0.857994 0.500000 0.535045
O O19 0.547560 0.000000 0.774999
#
# Coordination Sequence:
#
# PCOD8057640 Si02
#       7
#     4   4   4   4   4   4   4
#     4   9  17  28  43  62  85 112 143 175 212 258
#     4   9  17  29  44  59  77 108 146 183 221 261
#     4  10  19  31  44  60  85 118 154 186 214 251
#     4  10  20  30  41  60  84 113 148 185 222 257
#     4   9  17  29  45  64  88 115 141 176 223 268
#     4  10  18  28  42  61  86 112 142 183 224 261
#     4   8  17  29  42  61  85 115 148 181 213 250
#
# _framework density 14.735848000000001
#
# number of rings (size 3 to 8) (size 9 to 14) (size 15 to 20)
#    0.857    1.857    0.000    2.571    0.000    6.571 
#    0.000    0.000    0.000    0.000    0.000    0.000 
#    0.000    1.143    0.000   12.000    0.000    6.571 
#
# Total GULP energy -347008.623589 kJ/mol
# GULP energy per Si atom -12393.165128 kJ/mol
# Density = 1.470231 g / cm^3
# Si number density = 14.735848 Si / 1000 Ang^3
#
#
#
# Elastic Constant Matrix: (Units=GPa)
#
#
# Indices 1 2 3 4 5 6 
#
# 1 114.4187 61.6003 35.6072 0.0000 6.9023 0.0000
# 2 61.6003 90.4935 29.1162 0.0000 5.1623 0.0000
# 3 35.6072 29.1162 43.3946 0.0000 4.6343 0.0000
# 4 0.0000 0.0000 0.0000 20.8410 0.0000 5.4865
# 5 6.9023 5.1623 4.6343 0.0000 22.2011 0.0000
# 6 0.0000 0.0000 0.0000 5.4865 0.0000 27.2845
#
#
#
# Elastic Compliance Matrix: (Units=1/GPa)
#
#
# Indices 1 2 3 4 5 6 
#
# 1 0.015390 -0.008138 -0.007016 0.000000 -0.001428 0.000000
# 2 -0.008138 0.018434 -0.005629 0.000000 -0.000581 0.000000
# 3 -0.007016 -0.005629 0.032940 0.000000 -0.003386 0.000000
# 4 0.000000 0.000000 0.000000 0.050664 0.000000 -0.010188
# 5 -0.001428 -0.000581 -0.003386 0.000000 0.046329 0.000000
# 6 0.000000 0.000000 0.000000 -0.010188 0.000000 0.038699
#
#
# Mechanical properties :
#
#
# Convention : Reuss Voigt Hill
#
# Bulk Modulus (GPa) = 39.68453 55.66157 47.67305
# Shear Modulus (GPa) = 19.80803 22.19754 21.00278
#
# Velocity S-wave (km/s) = 3.67032 3.88540 3.77939
# Velocity P-wave (km/s) = 6.70453 7.61468 7.17405
#
# Compressibility (1/GPa) = 0.02519874
#
# Stress axis : x y z
#
# Youngs Moduli (GPa) = 64.97525 54.24650 30.35830
#
# Poissons Ratio (x) = 0.44144 0.21299
# Poissons Ratio (y) = 0.52875 0.17090
# Poissons Ratio (z) = 0.45586 0.30537
#
# Static dielectric constant tensor:
#      x y z
#    x 2.750610 0.000000 0.112210 
#    y 0.000000 2.921770 0.000000 
#    z 0.112210 0.000000 2.569300 
# 
# 
# High freq. dielectric constant tensor:
#      x y z
#    x 1.549510 0.000000 0.016830 
#    y 0.000000 1.579300 0.000000 
#    z 0.016830 0.000000 1.521060 
# 
# From -- ./inp_files/68692.got.cif
#   From: 2010.06.25/outbox.cif.g09.slc.cpg/sg10_35_cif.got.tgz:68692.got - 2010.06.27 22:07:45.
