data_PCOD8057263
_publ_section_title
;
Structure prediction by ZEFSAII (Michael W. Deem and Ramdas Pophale) SiO2 
 PCOD8057263
Probable space group: P 2/M
;
_chemical_formula_sum "Si O2"
_cell_formula_units_Z 32
_cell_length_a 28.078552
_cell_length_b 8.501601
_cell_length_c 14.415472
_cell_angle_alpha 90.000000
_cell_angle_beta 150.385302
_cell_angle_gamma 90.000000
_cell_volume 1700.498246
_symmetry_space_group_name_H-M "P 2/M"
_symmetry_group_IT_number 10
_symmetry_cell_setting 'monoclinic'
loop_
_space_group_symop_operation_xyz
x,y,z
-x,y,-z
-x,-y,-z
x,-y,z
loop_
_atom_site_type_symbol
_atom_site_label
_atom_site_fract_x
_atom_site_fract_y
_atom_site_fract_z
Si Si1 0.846660 0.818117 0.011130
Si Si2 0.101196 0.182874 0.197238
Si Si3 0.798473 0.680580 0.300615
Si Si4 0.940701 0.178117 0.670915
Si Si5 0.893811 0.814483 0.291807
Si Si6 0.628778 0.685017 0.146234
Si Si7 0.572365 0.185323 0.241761
Si Si8 0.266838 0.812554 0.350500
O O1 0.858588 0.740374 0.133265
O O2 0.945697 0.792014 0.121406
O O3 0.824324 0.000000 0.988419
O O4 0.759278 0.749091 0.798035
O O5 0.118752 0.206404 0.336040
O O6 0.188581 0.260731 0.289031
O O7 0.095072 0.000000 0.160045
O O8 0.000000 0.265172 0.000000
O O9 0.779860 0.500000 0.246230
O O10 0.899003 0.702652 0.524843
O O11 0.810110 0.771318 0.223164
O O12 0.711150 0.748953 0.215530
O O13 0.925771 0.000000 0.608327
O O14 0.000000 0.746985 0.500000
O O15 0.903120 0.000000 0.297389
O O16 0.641029 0.500000 0.184352
O O17 0.634714 0.773357 0.255304
O O18 0.526457 0.718519 0.924582
O O19 0.629032 0.236373 0.432049
O O20 0.550897 0.000000 0.204037
O O21 0.259590 0.000000 0.338897
#
# Coordination Sequence:
#
# PCOD8057263 Si02
#       8
#     4   4   4   4   4   4   4   4
#     4   9  16  28  46  71 104 134 162 200 248 303
#     4   9  14  21  39  69 101 131 159 190 229 282
#     4  11  23  35  50  72 100 134 171 215 260 300
#     4  10  17  28  48  72 100 133 169 203 240 296
#     4  10  19  33  53  76  99 132 175 213 254 301
#     4  10  21  37  54  73 102 139 172 205 257 311
#     4  10  19  32  55  84 107 128 165 213 254 296
#     4   9  16  26  43  74 108 133 160 200 251 301
#
# _framework density 18.818014999999999
#
# number of rings (size 3 to 8) (size 9 to 14) (size 15 to 20)
#    0.000    2.250    2.500    2.625    0.000    3.250 
#    0.000    0.000    0.000    4.125    0.000    5.250 
#    0.000    0.000    0.000    0.000    0.000    0.000 
#
# Total GULP energy -396510.771734 kJ/mol
# GULP energy per Si atom -12390.961617 kJ/mol
# Density = 1.877518 g / cm^3
# Si number density = 18.818015 Si / 1000 Ang^3
#
#
#
# Elastic Constant Matrix: (Units=GPa)
#
#
# Indices 1 2 3 4 5 6 
#
# 1 90.8950 7.7111 44.2306 0.0000 -11.4414 0.0000
# 2 7.7111 18.0584 4.3653 0.0000 -1.6969 0.0000
# 3 44.2306 4.3653 117.1616 0.0000 -29.2499 0.0000
# 4 0.0000 0.0000 0.0000 7.9106 0.0000 5.4515
# 5 -11.4414 -1.6969 -29.2499 0.0000 25.3446 0.0000
# 6 0.0000 0.0000 0.0000 5.4515 0.0000 18.3707
#
#
#
# Elastic Compliance Matrix: (Units=1/GPa)
#
#
# Indices 1 2 3 4 5 6 
#
# 1 0.013862 -0.004691 -0.005021 0.000000 0.000149 0.000000
# 2 -0.004691 0.057531 0.000085 0.000000 0.001832 0.000000
# 3 -0.005021 0.000085 0.013855 0.000000 0.013729 0.000000
# 4 0.000000 0.000000 0.000000 0.158911 0.000000 -0.047157
# 5 0.000149 0.001832 0.013729 0.000000 0.055490 0.000000
# 6 0.000000 0.000000 0.000000 -0.047157 0.000000 0.068428
#
#
# Mechanical properties :
#
#
# Convention : Reuss Voigt Hill
#
# Bulk Modulus (GPa) = 15.15324 37.63655 26.39489
# Shear Modulus (GPa) = 12.21510 21.64572 16.93041
#
# Velocity S-wave (km/s) = 2.55054 3.39524 3.00274
# Velocity P-wave (km/s) = 4.09190 5.95096 5.10674
#
# Compressibility (1/GPa) = 0.06599251
#
# Stress axis : x y z
#
# Youngs Moduli (GPa) = 72.14088 17.38202 72.17549
#
# Poissons Ratio (x) = 0.08154 0.36240
# Poissons Ratio (y) = 0.33844 -0.00613
# Poissons Ratio (z) = 0.36223 -0.00148
#
# Static dielectric constant tensor:
#      x y z
#    x 3.527760 0.000000 -0.176430 
#    y 0.000000 2.988810 0.000000 
#    z -0.176430 0.000000 3.631520 
# 
# 
# High freq. dielectric constant tensor:
#      x y z
#    x 1.718190 0.000000 -0.015120 
#    y 0.000000 1.684340 0.000000 
#    z -0.015120 0.000000 1.727820 
# 
# From -- ./inp_files/72571.got.cif
#   From: 2010.06.25/outbox.cif.g09.slc.cpg/sg10_37_cif.got.tgz:72571.got - 2010.06.27 22:07:45.
