data_PCOD8057018
_publ_section_title
;
Structure prediction by ZEFSAII (Michael W. Deem and Ramdas Pophale) SiO2 
 PCOD8057018
Probable space group: P 2/M
;
_chemical_formula_sum "Si O2"
_cell_formula_units_Z 32
_cell_length_a 17.011122
_cell_length_b 9.132537
_cell_length_c 13.758388
_cell_angle_alpha 90.000000
_cell_angle_beta 102.607149
_cell_angle_gamma 90.000000
_cell_volume 2085.895819
_symmetry_space_group_name_H-M "P 2/M"
_symmetry_group_IT_number 10
_symmetry_cell_setting 'monoclinic'
loop_
_space_group_symop_operation_xyz
x,y,z
-x,y,-z
-x,-y,-z
x,-y,z
loop_
_atom_site_type_symbol
_atom_site_label
_atom_site_fract_x
_atom_site_fract_y
_atom_site_fract_z
Si Si1 0.157121 0.331414 0.645501
Si Si2 0.157195 0.327636 0.421994
Si Si3 0.305052 0.169972 0.373302
Si Si4 0.469083 0.825713 0.887618
Si Si5 0.438197 0.830656 0.272814
Si Si6 0.998329 0.165126 0.384055
Si Si7 0.398266 0.165745 0.592192
Si Si8 0.331289 0.669143 0.749942
O O1 0.129857 0.500000 0.637616
O O2 0.175299 0.283628 0.538743
O O3 0.235209 0.306357 0.734412
O O4 0.085394 0.237142 0.673434
O O5 0.151944 0.500000 0.406002
O O6 0.226465 0.265725 0.370736
O O7 0.073463 0.256911 0.363416
O O8 0.352502 0.230641 0.289921
O O9 0.370297 0.190143 0.475667
O O10 0.279589 0.000000 0.356666
O O11 0.531382 0.764454 0.822240
O O12 0.380227 0.760244 0.844116
O O13 0.461542 0.000000 0.881157
O O14 0.500000 0.770727 0.000000
O O15 0.506270 0.804985 0.373301
O O16 0.423256 0.000000 0.251197
O O17 0.000000 0.169207 0.500000
O O18 0.003186 0.000000 0.345304
O O19 0.352239 0.279855 0.647459
O O20 0.378928 0.000000 0.622777
O O21 0.354109 0.500000 0.767662
#
# Coordination Sequence:
#
# PCOD8057018 Si02
#       8
#     4   4   4   4   4   4   4   4
#     4   9  17  28  40  56  82 114 143 173 210 250
#     4  10  18  28  39  54  83 118 147 174 210 249
#     4  10  17  25  40  59  82 111 146 180 207 244
#     4   9  18  33  50  65  83 109 142 180 222 262
#     4   8  15  27  42  61  81 106 140 178 217 252
#     4   9  17  27  40  58  78 106 147 184 210 240
#     4   9  16  26  40  57  81 112 144 176 209 244
#     4  10  18  28  43  64  87 112 143 175 212 256
#
# _framework density 15.34113
#
# number of rings (size 3 to 8) (size 9 to 14) (size 15 to 20)
#    0.000    2.750    1.250    2.250    0.000    4.750 
#    0.000    2.500    0.000    3.750    0.000    0.000 
#    0.000    1.000    0.000   11.500    0.000    2.875 
#
# Total GULP energy -396585.068578 kJ/mol
# GULP energy per Si atom -12393.283393 kJ/mol
# Density = 1.530621 g / cm^3
# Si number density = 15.341130 Si / 1000 Ang^3
#
#
#
# Elastic Constant Matrix: (Units=GPa)
#
#
# Indices 1 2 3 4 5 6 
#
# 1 126.4455 51.7910 44.0458 0.0000 0.9913 0.0000
# 2 51.7910 62.9327 25.4613 0.0000 3.8154 0.0000
# 3 44.0458 25.4613 50.9044 0.0000 1.1569 0.0000
# 4 0.0000 0.0000 0.0000 9.8759 0.0000 6.2668
# 5 0.9913 3.8154 1.1569 0.0000 12.5306 0.0000
# 6 0.0000 0.0000 0.0000 6.2668 0.0000 24.3171
#
#
#
# Elastic Compliance Matrix: (Units=1/GPa)
#
#
# Indices 1 2 3 4 5 6 
#
# 1 0.014207 -0.008566 -0.008059 0.000000 0.002229 0.000000
# 2 -0.008566 0.025425 -0.005155 0.000000 -0.006588 0.000000
# 3 -0.008059 -0.005155 0.029207 0.000000 -0.000490 0.000000
# 4 0.000000 0.000000 0.000000 0.121052 0.000000 -0.031197
# 5 0.002229 -0.006588 -0.000490 0.000000 0.081680 0.000000
# 6 0.000000 0.000000 0.000000 -0.031197 0.000000 0.049163
#
#
# Mechanical properties :
#
#
# Convention : Reuss Voigt Hill
#
# Bulk Modulus (GPa) = 39.55905 53.65320 46.60613
# Shear Modulus (GPa) = 13.41488 17.27703 15.34595
#
# Velocity S-wave (km/s) = 2.96030 3.35952 3.16621
# Velocity P-wave (km/s) = 6.12591 7.07798 6.61909
#
# Compressibility (1/GPa) = 0.02527867
#
# Stress axis : x y z
#
# Youngs Moduli (GPa) = 70.38801 39.33164 34.23827
#
# Poissons Ratio (x) = 0.33693 0.27591
# Poissons Ratio (y) = 0.60298 0.17650
# Poissons Ratio (z) = 0.56723 0.20275
#
# Static dielectric constant tensor:
#      x y z
#    x 3.075530 0.000000 -0.008410 
#    y 0.000000 2.884410 0.000000 
#    z -0.008410 0.000000 2.647030 
# 
# 
# High freq. dielectric constant tensor:
#      x y z
#    x 1.592550 0.000000 0.005970 
#    y 0.000000 1.582710 0.000000 
#    z 0.005970 0.000000 1.529960 
# 
# From -- ./inp_files/66130.got.cif
#   From: 2010.06.25/outbox.cif.g09.slc.cpg/sg10_34_cif.got.tgz:66130.got - 2010.06.27 22:07:45.
