data_PCOD8057491
_publ_section_title
;
Structure prediction by ZEFSAII (Michael W. Deem and Ramdas Pophale) SiO2 
 PCOD8057491
Probable space group: P 2/M
;
_chemical_formula_sum "Si O2"
_cell_formula_units_Z 32
_cell_length_a 31.551728
_cell_length_b 8.724920
_cell_length_c 16.026048
_cell_angle_alpha 90.000000
_cell_angle_beta 31.706261
_cell_angle_gamma 90.000000
_cell_volume 2318.660502
_symmetry_space_group_name_H-M "P 2/M"
_symmetry_group_IT_number 10
_symmetry_cell_setting 'monoclinic'
loop_
_space_group_symop_operation_xyz
x,y,z
-x,y,-z
-x,-y,-z
x,-y,z
loop_
_atom_site_type_symbol
_atom_site_label
_atom_site_fract_x
_atom_site_fract_y
_atom_site_fract_z
Si Si1 0.511037 0.820545 0.105913
Si Si2 0.582421 0.172133 0.311572
Si Si3 0.660040 0.320935 0.330782
Si Si4 0.753396 0.673827 0.456932
Si Si5 0.616800 0.679321 0.801139
Si Si6 0.501063 0.678743 0.300885
Si Si7 0.780296 0.821538 0.249475
Si Si8 0.914528 0.325029 0.117011
O O1 0.442288 0.721568 0.175975
O O2 0.514998 0.778690 0.195601
O O3 0.493987 0.000000 0.123132
O O4 0.595875 0.776488 0.918852
O O5 0.500000 0.174063 0.500000
O O6 0.651777 0.241351 0.254442
O O7 0.571775 0.275739 0.247043
O O8 0.606384 0.000000 0.245167
O O9 0.663734 0.500000 0.308775
O O10 0.585654 0.277403 0.515615
O O11 0.743098 0.263617 0.232258
O O12 0.727031 0.500000 0.478690
O O13 0.707474 0.723938 0.618289
O O14 0.727804 0.778719 0.420349
O O15 0.851421 0.683362 0.301430
O O16 0.609131 0.500000 0.834662
O O17 0.507538 0.500000 0.268814
O O18 0.873141 0.765323 0.108732
O O19 0.777775 0.000000 0.236513
O O20 0.928988 0.500000 0.064414
O O21 0.000000 0.249562 0.000000
#
# Coordination Sequence:
#
# PCOD8057491 Si02
#       8
#     4   4   4   4   4   4   4   4
#     4  11  21  29  39  55  77 100 132 171 209 242
#     4   9  17  28  41  57  76  97 125 164 207 241
#     4  10  18  28  41  56  76 102 135 167 196 238
#     4   8  16  28  41  57  75 101 134 162 193 236
#     4  10  18  30  43  55  74 100 134 170 204 239
#     4  10  19  30  42  55  73 102 136 167 202 241
#     4  10  18  25  38  59  81 103 130 163 197 231
#     4   8  15  29  44  58  79 106 134 161 194 238
#
# _framework density 13.801071
#
# number of rings (size 3 to 8) (size 9 to 14) (size 15 to 20)
#    0.750    1.750    0.000    4.875    0.000    7.250 
#    0.000    0.000    0.000    0.000    0.000    0.000 
#    0.000    0.000    0.000    1.125    0.000   23.250 
#
# Total GULP energy -396521.409226 kJ/mol
# GULP energy per Si atom -12391.294038 kJ/mol
# Density = 1.376966 g / cm^3
# Si number density = 13.801071 Si / 1000 Ang^3
#
#
#
# Elastic Constant Matrix: (Units=GPa)
#
#
# Indices 1 2 3 4 5 6 
#
# 1 77.1265 19.5889 24.9553 0.0000 -5.7934 0.0000
# 2 19.5889 51.4343 12.6829 0.0000 -0.1955 0.0000
# 3 24.9553 12.6829 45.0801 0.0000 -6.1704 0.0000
# 4 0.0000 0.0000 0.0000 13.3336 0.0000 3.3782
# 5 -5.7934 -0.1955 -6.1704 0.0000 17.8980 0.0000
# 6 0.0000 0.0000 0.0000 3.3782 0.0000 22.0969
#
#
#
# Elastic Compliance Matrix: (Units=1/GPa)
#
#
# Indices 1 2 3 4 5 6 
#
# 1 0.016791 -0.004497 -0.007654 0.000000 0.002747 0.000000
# 2 -0.004497 0.022157 -0.004104 0.000000 -0.002629 0.000000
# 3 -0.007654 -0.004104 0.028578 0.000000 0.007330 0.000000
# 4 0.000000 0.000000 0.000000 0.078021 0.000000 -0.011928
# 5 0.002747 -0.002629 0.007330 0.000000 0.059260 0.000000
# 6 0.000000 0.000000 0.000000 -0.011928 0.000000 0.047079
#
#
# Mechanical properties :
#
#
# Convention : Reuss Voigt Hill
#
# Bulk Modulus (GPa) = 28.55858 32.01056 30.28457
# Shear Modulus (GPa) = 16.88812 18.42661 17.65737
#
# Velocity S-wave (km/s) = 3.50191 3.65795 3.58078
# Velocity P-wave (km/s) = 6.09008 6.40979 6.25198
#
# Compressibility (1/GPa) = 0.03501575
#
# Stress axis : x y z
#
# Youngs Moduli (GPa) = 59.55678 45.13244 34.99248
#
# Poissons Ratio (x) = 0.20296 0.26782
# Poissons Ratio (y) = 0.26783 0.14361
# Poissons Ratio (z) = 0.45583 0.18522
#
# Static dielectric constant tensor:
#      x y z
#    x 2.646540 0.000000 0.000980 
#    y 0.000000 2.761150 0.000000 
#    z 0.000980 0.000000 2.616570 
# 
# 
# High freq. dielectric constant tensor:
#      x y z
#    x 1.506690 0.000000 0.002290 
#    y 0.000000 1.539670 0.000000 
#    z 0.002290 0.000000 1.484020 
# 
# From -- ./inp_files/72024.got.cif
#   From: 2010.06.25/outbox.cif.g09.slc.cpg/sg10_37_cif.got.tgz:72024.got - 2010.06.27 22:07:45.
