data_PCOD8057565
_publ_section_title
;
Structure prediction by ZEFSAII (Michael W. Deem and Ramdas Pophale) SiO2 
 PCOD8057565
Probable space group: P 2/M
;
_chemical_formula_sum "Si O2"
_cell_formula_units_Z 28
_cell_length_a 28.895915
_cell_length_b 8.987596
_cell_length_c 14.113095
_cell_angle_alpha 90.000000
_cell_angle_beta 151.451524
_cell_angle_gamma 90.000000
_cell_volume 1751.625348
_symmetry_space_group_name_H-M "P 2/M"
_symmetry_group_IT_number 10
_symmetry_cell_setting 'monoclinic'
loop_
_space_group_symop_operation_xyz
x,y,z
-x,y,-z
-x,-y,-z
x,-y,z
loop_
_atom_site_type_symbol
_atom_site_label
_atom_site_fract_x
_atom_site_fract_y
_atom_site_fract_z
Si Si1 0.552417 0.164242 0.694685
Si Si2 0.216919 0.670323 0.293151
Si Si3 0.079261 0.827251 0.721285
Si Si4 0.968635 0.329443 0.175190
Si Si5 0.277661 0.324414 0.082381
Si Si6 0.085435 0.675913 0.214718
Si Si7 0.353769 0.824960 0.407515
O O1 0.500000 0.158556 0.500000
O O2 0.642404 0.277362 0.852485
O O3 0.468780 0.215133 0.618319
O O4 0.592214 0.000000 0.792227
O O5 0.252460 0.500000 0.356235
O O6 0.187222 0.722274 0.347541
O O7 0.305574 0.773410 0.419015
O O8 0.125216 0.690522 0.059347
O O9 0.000000 0.792944 0.500000
O O10 0.036507 0.778716 0.745237
O O11 0.106814 0.000000 0.775585
O O12 0.173884 0.734408 0.862592
O O13 0.975642 0.500000 0.222929
O O14 0.066164 0.283385 0.290532
O O15 0.275351 0.500000 0.086377
O O16 0.300601 0.258964 0.226539
O O17 0.076653 0.500000 0.187802
O O18 0.000000 0.751395 0.000000
O O19 0.339679 0.000000 0.365966
#
# Coordination Sequence:
#
# PCOD8057565 Si02
#       7
#     4   4   4   4   4   4   4
#     4   8  16  29  42  58  83 115 143 170 210 257
#     4   9  15  24  41  64  88 116 145 173 208 252
#     4  11  23  35  46  61  84 115 148 183 222 260
#     4   9  16  28  45  62  82 112 146 181 216 250
#     4  11  20  30  45  62  81 109 145 185 220 251
#     4   7  12  23  39  60  85 111 140 171 210 256
#     4  10  18  27  41  62  90 119 144 172 209 255
#
# _framework density 15.985153
#
# number of rings (size 3 to 8) (size 9 to 14) (size 15 to 20)
#    0.000    2.714    1.429    4.714    0.000    4.286 
#    0.000    0.714    0.000    2.571    0.000    0.000 
#    0.000    1.143    0.000   12.857    0.000    5.714 
#
# Total GULP energy -346904.447192 kJ/mol
# GULP energy per Si atom -12389.444543 kJ/mol
# Density = 1.594877 g / cm^3
# Si number density = 15.985153 Si / 1000 Ang^3
#
#
#
# Elastic Constant Matrix: (Units=GPa)
#
#
# Indices 1 2 3 4 5 6 
#
# 1 123.0979 47.2870 44.3853 0.0000 37.9250 0.0000
# 2 47.2870 86.9401 38.6927 0.0000 18.6144 0.0000
# 3 44.3853 38.6927 47.8117 0.0000 16.9491 0.0000
# 4 0.0000 0.0000 0.0000 11.5404 0.0000 5.9375
# 5 37.9250 18.6144 16.9491 0.0000 23.1742 0.0000
# 6 0.0000 0.0000 0.0000 5.9375 0.0000 19.6868
#
#
#
# Elastic Compliance Matrix: (Units=1/GPa)
#
#
# Indices 1 2 3 4 5 6 
#
# 1 0.018961 -0.001761 -0.007666 0.000000 -0.024009 0.000000
# 2 -0.001761 0.018604 -0.012346 0.000000 -0.003032 0.000000
# 3 -0.007666 -0.012346 0.040582 0.000000 -0.007218 0.000000
# 4 0.000000 0.000000 0.000000 0.102568 0.000000 -0.030934
# 5 -0.024009 -0.003032 -0.007218 0.000000 0.090157 0.000000
# 6 0.000000 0.000000 0.000000 -0.030934 0.000000 0.060125
#
#
# Mechanical properties :
#
#
# Convention : Reuss Voigt Hill
#
# Bulk Modulus (GPa) = 28.90068 57.61997 43.26032
# Shear Modulus (GPa) = 12.95076 19.37925 16.16501
#
# Velocity S-wave (km/s) = 2.84944 3.48563 3.18347
# Velocity P-wave (km/s) = 5.38003 7.23351 6.37450
#
# Compressibility (1/GPa) = 0.03460126
#
# Stress axis : x y z
#
# Youngs Moduli (GPa) = 52.73969 53.75307 24.64117
#
# Poissons Ratio (x) = 0.09464 0.18891
# Poissons Ratio (y) = 0.09285 0.30422
# Poissons Ratio (z) = 0.40432 0.66364
#
# Static dielectric constant tensor:
#      x y z
#    x 3.573880 0.000000 0.426070 
#    y 0.000000 2.947480 0.000000 
#    z 0.426070 0.000000 2.657530 
# 
# 
# High freq. dielectric constant tensor:
#      x y z
#    x 1.623530 0.000000 0.037630 
#    y 0.000000 1.607600 0.000000 
#    z 0.037630 0.000000 1.550710 
# 
# From -- ./inp_files/72477.got.cif
#   From: 2010.06.25/outbox.cif.g09.slc.cpg/sg10_37_cif.got.tgz:72477.got - 2010.06.27 22:07:45.
