data_PCOD8057390
_publ_section_title
;
Structure prediction by ZEFSAII (Michael W. Deem and Ramdas Pophale) SiO2 
 PCOD8057390
Probable space group: P 2/M
;
_chemical_formula_sum "Si O2"
_cell_formula_units_Z 28
_cell_length_a 15.143191
_cell_length_b 8.903686
_cell_length_c 12.421154
_cell_angle_alpha 90.000000
_cell_angle_beta 54.065763
_cell_angle_gamma 90.000000
_cell_volume 1356.027675
_symmetry_space_group_name_H-M "P 2/M"
_symmetry_group_IT_number 10
_symmetry_cell_setting 'monoclinic'
loop_
_space_group_symop_operation_xyz
x,y,z
-x,y,-z
-x,-y,-z
x,-y,z
loop_
_atom_site_type_symbol
_atom_site_label
_atom_site_fract_x
_atom_site_fract_y
_atom_site_fract_z
Si Si1 0.407715 0.837708 0.985406
Si Si2 0.471178 0.326620 0.736691
Si Si3 0.226070 0.823719 0.270952
Si Si4 0.227607 0.323206 0.884781
Si Si5 0.100296 0.822900 0.165087
Si Si6 0.865725 0.177988 0.254591
Si Si7 0.697264 0.178331 0.554824
O O1 0.454533 0.713302 0.872499
O O2 0.373284 0.000000 0.955195
O O3 0.500000 0.883584 0.000000
O O4 0.311765 0.762689 0.122631
O O5 0.499825 0.500000 0.702119
O O6 0.354655 0.286289 0.764494
O O7 0.574826 0.235411 0.617474
O O8 0.114005 0.786533 0.284993
O O9 0.248058 0.753237 0.373748
O O10 0.239779 0.000000 0.277616
O O11 0.208691 0.500000 0.904511
O O12 0.151372 0.253457 0.848168
O O13 0.194318 0.253059 0.023917
O O14 0.981551 0.764400 0.216272
O O15 0.110367 0.000000 0.139460
O O16 0.773045 0.232997 0.403316
O O17 0.864147 0.000000 0.241464
O O18 0.692153 0.000000 0.564825
#
# Coordination Sequence:
#
# PCOD8057390 Si02
#       7
#     4   4   4   4   4   4   4
#     4  10  17  30  54  83 113 148 185 226 282 339
#     4  11  23  36  54  84 116 148 189 236 283 332
#     4   9  17  31  57  88 116 146 179 223 280 340
#     4  11  24  40  59  83 113 150 191 238 289 335
#     4  10  20  37  62  90 115 143 186 237 284 330
#     4  10  23  40  60  85 113 148 193 240 277 327
#     4  10  21  39  59  84 118 154 188 222 278 346
#
# _framework density 20.648547000000001
#
# number of rings (size 3 to 8) (size 9 to 14) (size 15 to 20)
#    0.000    1.857    2.857    1.286    0.000    6.000 
#    0.000    6.429    0.000    0.000    0.000    3.000 
#    0.000    0.000    0.000    0.000    0.000    0.000 
#
# Total GULP energy -346882.057703 kJ/mol
# GULP energy per Si atom -12388.644918 kJ/mol
# Density = 2.060155 g / cm^3
# Si number density = 20.648547 Si / 1000 Ang^3
#
#
#
# Elastic Constant Matrix: (Units=GPa)
#
#
# Indices 1 2 3 4 5 6 
#
# 1 99.0478 21.0130 9.5450 0.0000 -6.2461 0.0000
# 2 21.0130 31.5179 17.0764 0.0000 -0.6044 0.0000
# 3 9.5450 17.0764 59.2115 0.0000 -5.9712 0.0000
# 4 0.0000 0.0000 0.0000 9.3058 0.0000 -5.3455
# 5 -6.2461 -0.6044 -5.9712 0.0000 25.9280 0.0000
# 6 0.0000 0.0000 0.0000 -5.3455 0.0000 16.5686
#
#
#
# Elastic Compliance Matrix: (Units=1/GPa)
#
#
# Indices 1 2 3 4 5 6 
#
# 1 0.011973 -0.008342 0.000765 0.000000 0.002866 0.000000
# 2 -0.008342 0.043485 -0.011565 0.000000 -0.003659 0.000000
# 3 0.000765 -0.011565 0.020570 0.000000 0.004652 0.000000
# 4 0.000000 0.000000 0.000000 0.131906 0.000000 0.042557
# 5 0.002866 -0.003659 0.004652 0.000000 0.040245 0.000000
# 6 0.000000 0.000000 0.000000 0.042557 0.000000 0.074085
#
#
# Mechanical properties :
#
#
# Convention : Reuss Voigt Hill
#
# Bulk Modulus (GPa) = 26.49470 31.67178 29.08324
# Shear Modulus (GPa) = 13.40016 19.83665 16.61841
#
# Velocity S-wave (km/s) = 2.55024 3.10285 2.84002
# Velocity P-wave (km/s) = 4.64012 5.31118 4.98695
#
# Compressibility (1/GPa) = 0.03774340
#
# Stress axis : x y z
#
# Youngs Moduli (GPa) = 83.52217 22.99623 48.61485
#
# Poissons Ratio (x) = 0.19183 -0.03717
# Poissons Ratio (y) = 0.69672 0.56225
# Poissons Ratio (z) = -0.06387 0.26596
#
# Static dielectric constant tensor:
#      x y z
#    x 4.061210 0.000000 -0.055810 
#    y 0.000000 3.378060 0.000000 
#    z -0.055810 0.000000 3.681790 
# 
# 
# High freq. dielectric constant tensor:
#      x y z
#    x 1.829060 0.000000 -0.001680 
#    y 0.000000 1.772950 0.000000 
#    z -0.001680 0.000000 1.793420 
# 
# From -- ./inp_files/49661.got.cif
#   From: 2010.06.25/outbox.cif.g09.slc.cpg/sg10_25_cif.got.tgz:49661.got - 2010.06.27 22:07:45.
