data_PCOD8057314
_publ_section_title
;
Structure prediction by ZEFSAII (Michael W. Deem and Ramdas Pophale) SiO2 
 PCOD8057314
Probable space group: P 2/M
;
_chemical_formula_sum "Si O2"
_cell_formula_units_Z 32
_cell_length_a 11.888465
_cell_length_b 8.653861
_cell_length_c 20.483700
_cell_angle_alpha 90.000000
_cell_angle_beta 58.106918
_cell_angle_gamma 90.000000
_cell_volume 1789.245558
_symmetry_space_group_name_H-M "P 2/M"
_symmetry_group_IT_number 10
_symmetry_cell_setting 'monoclinic'
loop_
_space_group_symop_operation_xyz
x,y,z
-x,y,-z
-x,-y,-z
x,-y,z
loop_
_atom_site_type_symbol
_atom_site_label
_atom_site_fract_x
_atom_site_fract_y
_atom_site_fract_z
Si Si1 0.592584 0.317568 0.031801
Si Si2 0.889242 0.322109 0.192559
Si Si3 0.898561 0.821285 0.327512
Si Si4 0.852916 0.181754 0.901227
Si Si5 0.595355 0.321652 0.279169
Si Si6 0.161792 0.681321 0.237705
Si Si7 0.607788 0.183149 0.416715
Si Si8 0.562238 0.316949 0.794173
O O1 0.617510 0.500000 0.025153
O O2 0.522451 0.255472 0.118747
O O3 0.500000 0.270033 0.000000
O O4 0.732405 0.231886 0.983969
O O5 0.909988 0.500000 0.208405
O O6 0.895457 0.206244 0.251446
O O7 0.744933 0.301951 0.204228
O O8 0.013774 0.265734 0.110670
O O9 0.754205 0.763778 0.397378
O O10 0.024692 0.726508 0.317324
O O11 0.921566 0.000000 0.336534
O O12 0.825570 0.234114 0.835361
O O13 0.871984 0.000000 0.898438
O O14 0.563517 0.500000 0.301417
O O15 0.574883 0.239009 0.354256
O O16 0.496193 0.249064 0.255674
O O17 0.167866 0.500000 0.222194
O O18 0.284608 0.733771 0.245397
O O19 0.500000 0.251724 0.500000
O O20 0.602748 0.000000 0.416622
O O21 0.548681 0.500000 0.796708
#
# Coordination Sequence:
#
# PCOD8057314 Si02
#       8
#     4   4   4   4   4   4   4   4
#     4  10  18  32  50  67  90 126 167 202 244 291
#     4   9  16  28  47  67  90 122 158 194 238 288
#     4   9  16  27  45  71  98 121 153 197 235 270
#     4  11  20  29  44  68  96 122 158 208 249 278
#     4   9  18  33  52  75  98 122 158 201 238 279
#     4  10  17  29  48  69  94 127 163 196 238 287
#     4   9  18  33  53  76 102 130 156 187 233 286
#     4   9  18  32  50  70  95 126 160 200 243 287
#
# _framework density 17.884630999999999
#
# number of rings (size 3 to 8) (size 9 to 14) (size 15 to 20)
#    0.000    2.500    1.250    3.750    0.000    1.500 
#    0.000    2.500    0.000    4.500    0.000    5.250 
#    0.000    0.000    0.000    0.000    0.000    0.000 
#
# Total GULP energy -396529.871348 kJ/mol
# GULP energy per Si atom -12391.558480 kJ/mol
# Density = 1.784393 g / cm^3
# Si number density = 17.884631 Si / 1000 Ang^3
#
#
#
# Elastic Constant Matrix: (Units=GPa)
#
#
# Indices 1 2 3 4 5 6 
#
# 1 144.6328 26.8652 72.0775 0.0000 -20.8814 0.0000
# 2 26.8652 39.5823 22.9991 0.0000 -7.1267 0.0000
# 3 72.0775 22.9991 101.7200 0.0000 -22.5647 0.0000
# 4 0.0000 0.0000 0.0000 18.5292 0.0000 -8.0937
# 5 -20.8814 -7.1267 -22.5647 0.0000 30.5871 0.0000
# 6 0.0000 0.0000 0.0000 -8.0937 0.0000 11.0363
#
#
#
# Elastic Compliance Matrix: (Units=1/GPa)
#
#
# Indices 1 2 3 4 5 6 
#
# 1 0.011161 -0.003321 -0.006743 0.000000 0.001872 0.000000
# 2 -0.003321 0.030209 -0.004088 0.000000 0.001756 0.000000
# 3 -0.006743 -0.004088 0.017099 0.000000 0.007058 0.000000
# 4 0.000000 0.000000 0.000000 0.079406 0.000000 0.058235
# 5 0.001872 0.001756 0.007058 0.000000 0.039588 0.000000
# 6 0.000000 0.000000 0.000000 0.058235 0.000000 0.133318
#
#
# Mechanical properties :
#
#
# Convention : Reuss Voigt Hill
#
# Bulk Modulus (GPa) = 33.14916 58.86877 46.00896
# Shear Modulus (GPa) = 14.32093 22.96338 18.64215
#
# Velocity S-wave (km/s) = 2.83280 3.58714 3.23206
# Velocity P-wave (km/s) = 5.41063 7.08125 6.30155
#
# Compressibility (1/GPa) = 0.03016668
#
# Stress axis : x y z
#
# Youngs Moduli (GPa) = 89.59497 33.10278 58.48350
#
# Poissons Ratio (x) = 0.10992 0.39434
# Poissons Ratio (y) = 0.29750 0.23907
# Poissons Ratio (z) = 0.60412 0.13532
#
# Static dielectric constant tensor:
#      x y z
#    x 3.792440 0.000000 -0.502190 
#    y 0.000000 3.144540 0.000000 
#    z -0.502190 0.000000 3.312990 
# 
# 
# High freq. dielectric constant tensor:
#      x y z
#    x 1.695690 0.000000 -0.035550 
#    y 0.000000 1.681680 0.000000 
#    z -0.035550 0.000000 1.655940 
# 
# From -- ./inp_files/83357.got.cif
#   From: 2010.06.25/outbox.cif.g09.slc.cpg/sg10_42_cif.got.tgz:83357.got - 2010.06.27 22:07:45.
