data_PCOD8057256
_publ_section_title
;
Structure prediction by ZEFSAII (Michael W. Deem and Ramdas Pophale) SiO2 
 PCOD8057256
Probable space group: P 2/M
;
_chemical_formula_sum "Si O2"
_cell_formula_units_Z 28
_cell_length_a 19.528351
_cell_length_b 8.242706
_cell_length_c 13.012209
_cell_angle_alpha 90.000000
_cell_angle_beta 48.513083
_cell_angle_gamma 90.000000
_cell_volume 1569.026471
_symmetry_space_group_name_H-M "P 2/M"
_symmetry_group_IT_number 10
_symmetry_cell_setting 'monoclinic'
loop_
_space_group_symop_operation_xyz
x,y,z
-x,y,-z
-x,-y,-z
x,-y,z
loop_
_atom_site_type_symbol
_atom_site_label
_atom_site_fract_x
_atom_site_fract_y
_atom_site_fract_z
Si Si1 0.895474 0.688935 0.099349
Si Si2 0.790156 0.806755 0.401332
Si Si3 0.599165 0.807758 0.515797
Si Si4 0.896742 0.807468 0.491214
Si Si5 0.400520 0.806703 0.716003
Si Si6 0.214336 0.189586 0.983046
Si Si7 0.101794 0.193368 0.283449
O O1 0.889552 0.500000 0.079795
O O2 0.848670 0.725754 0.253972
O O3 0.845665 0.784949 0.058459
O O4 0.000000 0.748767 0.000000
O O5 0.684321 0.748173 0.500008
O O6 0.827688 0.741744 0.473154
O O7 0.798577 0.000000 0.382287
O O8 0.500388 0.748305 0.658645
O O9 0.612212 0.741130 0.387336
O O10 0.597958 0.000000 0.512762
O O11 0.864883 0.748652 0.636422
O O12 0.998818 0.742756 0.366236
O O13 0.897935 0.000000 0.487988
O O14 0.316681 0.735773 0.867078
O O15 0.395069 0.000000 0.720965
O O16 0.222971 0.000000 0.993810
O O17 0.167257 0.269549 0.130521
O O18 0.102131 0.000000 0.277182
#
# Coordination Sequence:
#
# PCOD8057256 Si02
#       7
#     4   4   4   4   4   4   4
#     4  11  23  33  40  59  94 122 135 167 226 267
#     4  10  17  28  48  67  82 111 153 181 201 251
#     4   8  13  22  38  62  88 109 135 175 217 251
#     4   8  14  24  39  62  88 109 136 181 224 246
#     4   8  13  22  38  62  88 109 135 175 217 251
#     4  10  17  28  48  67  82 111 153 181 201 251
#     4   8  14  24  39  62  88 109 136 181 224 246
#
# _framework density 17.845459999999999
#
# number of rings (size 3 to 8) (size 9 to 14) (size 15 to 20)
#    0.000    3.000    1.429    3.000    0.000    2.286 
#    0.000    0.000    0.000    3.429    0.000   10.000 
#    0.000    0.000    0.000    2.571    0.000    3.143 
#
# Total GULP energy -346921.819867 kJ/mol
# GULP energy per Si atom -12390.064995 kJ/mol
# Density = 1.780484 g / cm^3
# Si number density = 17.845460 Si / 1000 Ang^3
#
#
#
# Elastic Constant Matrix: (Units=GPa)
#
#
# Indices 1 2 3 4 5 6 
#
# 1 157.2137 -0.7270 100.3545 0.0000 -11.7684 0.0000
# 2 -0.7270 6.0220 0.4921 0.0000 -2.7291 0.0000
# 3 100.3545 0.4921 151.3389 0.0000 -11.0276 0.0000
# 4 0.0000 0.0000 0.0000 4.9047 0.0000 -2.0709
# 5 -11.7684 -2.7291 -11.0276 0.0000 32.8751 0.0000
# 6 0.0000 0.0000 0.0000 -2.0709 0.0000 3.1571
#
#
#
# Elastic Compliance Matrix: (Units=1/GPa)
#
#
# Indices 1 2 3 4 5 6 
#
# 1 0.011149 0.002747 -0.007272 0.000000 0.001780 0.000000
# 2 0.002747 0.173261 -0.001297 0.000000 0.014931 0.000000
# 3 -0.007272 -0.001297 0.011518 0.000000 0.001153 0.000000
# 4 0.000000 0.000000 0.000000 0.281991 0.000000 0.184979
# 5 0.001780 0.014931 0.001153 0.000000 0.032681 0.000000
# 6 0.000000 0.000000 0.000000 0.184979 0.000000 0.438091
#
#
# Mechanical properties :
#
#
# Convention : Reuss Voigt Hill
#
# Bulk Modulus (GPa) = 5.42642 57.20154 31.31398
# Shear Modulus (GPa) = 4.89350 22.48438 13.68894
#
# Velocity S-wave (km/s) = 1.65774 3.55343 2.77263
# Velocity P-wave (km/s) = 2.59066 6.99709 5.27592
#
# Compressibility (1/GPa) = 0.18428363
#
# Stress axis : x y z
#
# Youngs Moduli (GPa) = 89.69676 5.77164 86.81993
#
# Poissons Ratio (x) = -0.01585 0.63136
# Poissons Ratio (y) = -0.24636 0.11258
# Poissons Ratio (z) = 0.65228 0.00748
#
# Static dielectric constant tensor:
#      x y z
#    x 3.696280 0.000000 -0.207320 
#    y 0.000000 2.718260 0.000000 
#    z -0.207320 0.000000 3.685450 
# 
# 
# High freq. dielectric constant tensor:
#      x y z
#    x 1.687850 0.000000 -0.013610 
#    y 0.000000 1.637340 0.000000 
#    z -0.013610 0.000000 1.684320 
# 
# From -- ./inp_files/54688.got.cif
#   From: 2010.06.25/outbox.cif.g09.slc.cpg/sg10_28_cif.got.tgz:54688.got - 2010.06.27 22:07:45.
