data_PCOD8057115
_publ_section_title
;
Structure prediction by ZEFSAII (Michael W. Deem and Ramdas Pophale) SiO2 
 PCOD8057115
Probable space group: P 2/M
;
_chemical_formula_sum "Si O2"
_cell_formula_units_Z 32
_cell_length_a 21.397672
_cell_length_b 8.900368
_cell_length_c 31.002038
_cell_angle_alpha 90.000000
_cell_angle_beta 160.576437
_cell_angle_gamma 90.000000
_cell_volume 1963.452449
_symmetry_space_group_name_H-M "P 2/M"
_symmetry_group_IT_number 10
_symmetry_cell_setting 'monoclinic'
loop_
_space_group_symop_operation_xyz
x,y,z
-x,y,-z
-x,-y,-z
x,-y,z
loop_
_atom_site_type_symbol
_atom_site_label
_atom_site_fract_x
_atom_site_fract_y
_atom_site_fract_z
Si Si1 0.622650 0.830572 0.622647
Si Si2 0.697087 0.676984 0.538843
Si Si3 0.318964 0.821199 0.006857
Si Si4 0.060972 0.821611 0.473233
Si Si5 0.675942 0.821703 0.087972
Si Si6 0.929452 0.821201 0.617348
Si Si7 0.935888 0.323016 0.777640
Si Si8 0.710016 0.178391 0.297754
O O1 0.500000 0.828756 0.500000
O O2 0.508490 0.745040 0.585676
O O3 0.817233 0.745026 0.740045
O O4 0.665853 0.000000 0.665848
O O5 0.676823 0.500000 0.521550
O O6 0.767083 0.746006 0.539721
O O7 0.842918 0.722375 0.671457
O O8 0.333881 0.764327 0.967412
O O9 0.142358 0.746014 0.914995
O O10 0.296902 0.000000 0.994735
O O11 0.503432 0.761182 0.151883
O O12 0.097248 0.761185 0.448794
O O13 0.229398 0.769074 0.614700
O O14 0.862049 0.760246 0.362048
O O15 0.050529 0.000000 0.465146
O O16 0.868011 0.764326 0.234481
O O17 0.666901 0.000000 0.083452
O O18 0.500000 0.754059 0.000000
O O19 0.911743 0.000000 0.609585
O O20 0.944284 0.500000 0.789001
O O21 0.708986 0.000000 0.294371
#
# Coordination Sequence:
#
# PCOD8057115 Si02
#       8
#     4   4   4   4   4   4   4   4
#     4   9  17  29  47  67  88 115 150 185 217 257
#     4  10  19  30  43  62  92 124 150 178 219 269
#     4  10  17  26  43  65  89 117 151 188 224 264
#     4   8  14  25  42  65  90 115 149 195 238 267
#     4   9  16  24  37  60  87 114 147 185 222 259
#     4  10  17  26  43  65  89 117 151 188 224 264
#     4  10  19  30  43  62  92 124 150 178 219 269
#     4   8  14  25  42  65  90 115 149 195 238 267
#
# _framework density 16.297822
#
# number of rings (size 3 to 8) (size 9 to 14) (size 15 to 20)
#    0.000    2.750    1.250    2.625    0.000    5.500 
#    0.000    0.000    0.000    4.500    0.000    2.625 
#    0.000    7.000    0.000    0.000    0.000    0.000 
#
# Total GULP energy -396726.565295 kJ/mol
# GULP energy per Si atom -12397.705165 kJ/mol
# Density = 1.626073 g / cm^3
# Si number density = 16.297822 Si / 1000 Ang^3
#
#
#
# Elastic Constant Matrix: (Units=GPa)
#
#
# Indices 1 2 3 4 5 6 
#
# 1 136.5252 35.3355 83.3343 0.0000 16.1613 0.0000
# 2 35.3355 43.2027 31.0314 0.0000 6.4940 0.0000
# 3 83.3343 31.0314 118.6639 0.0000 10.7817 0.0000
# 4 0.0000 0.0000 0.0000 5.8616 0.0000 -3.0021
# 5 16.1613 6.4940 10.7817 0.0000 29.3554 0.0000
# 6 0.0000 0.0000 0.0000 -3.0021 0.0000 3.8743
#
#
#
# Elastic Compliance Matrix: (Units=1/GPa)
#
#
# Indices 1 2 3 4 5 6 
#
# 1 0.014097 -0.005063 -0.008248 0.000000 -0.003612 0.000000
# 2 -0.005063 0.030710 -0.004253 0.000000 -0.002444 0.000000
# 3 -0.008248 -0.004253 0.015346 0.000000 -0.000155 0.000000
# 4 0.000000 0.000000 0.000000 0.282851 0.000000 0.219170
# 5 -0.003612 -0.002444 -0.000155 0.000000 0.036651 0.000000
# 6 0.000000 0.000000 0.000000 0.219170 0.000000 0.427935
#
#
# Mechanical properties :
#
#
# Convention : Reuss Voigt Hill
#
# Bulk Modulus (GPa) = 39.96035 66.42159 53.19097
# Shear Modulus (GPa) = 5.87503 17.73096 11.80300
#
# Velocity S-wave (km/s) = 1.90069 3.30196 2.69403
# Velocity P-wave (km/s) = 5.42115 7.44182 6.51036
#
# Compressibility (1/GPa) = 0.02502480
#
# Stress axis : x y z
#
# Youngs Moduli (GPa) = 70.93733 32.56257 65.16509
#
# Poissons Ratio (x) = 0.16486 0.53747
# Poissons Ratio (y) = 0.35915 0.27717
# Poissons Ratio (z) = 0.58507 0.13850
#
# Static dielectric constant tensor:
#      x y z
#    x 3.166900 0.000000 0.083790 
#    y 0.000000 2.734930 0.000000 
#    z 0.083790 0.000000 3.111320 
# 
# 
# High freq. dielectric constant tensor:
#      x y z
#    x 1.621380 0.000000 0.018880 
#    y 0.000000 1.595540 0.000000 
#    z 0.018880 0.000000 1.608870 
# 
# From -- ./inp_files/72565.got.cif
#   From: 2010.06.25/outbox.cif.g09.slc.cpg/sg10_37_cif.got.tgz:72565.got - 2010.06.27 22:07:45.
