data_PCOD8057866
_publ_section_title
;
Structure prediction by ZEFSAII (Michael W. Deem and Ramdas Pophale) SiO2 
 PCOD8057866
Probable space group: P 2/M
;
_chemical_formula_sum "Si O2"
_cell_formula_units_Z 32
_cell_length_a 8.871146
_cell_length_b 14.204417
_cell_length_c 28.435293
_cell_angle_alpha 90.000000
_cell_angle_beta 29.198579
_cell_angle_gamma 90.000000
_cell_volume 1747.980095
_symmetry_space_group_name_H-M "P 2/M"
_symmetry_group_IT_number 10
_symmetry_cell_setting 'monoclinic'
loop_
_space_group_symop_operation_xyz
x,y,z
-x,y,-z
-x,-y,-z
x,-y,z
loop_
_atom_site_type_symbol
_atom_site_label
_atom_site_fract_x
_atom_site_fract_y
_atom_site_fract_z
Si Si1 0.104663 0.257650 0.292959
Si Si2 0.596895 0.221565 0.228626
Si Si3 0.709265 0.107516 0.607470
Si Si4 0.534726 0.393875 0.680795
Si Si5 0.745509 0.605704 0.339014
Si Si6 0.917535 0.105669 0.274402
Si Si7 0.159276 0.110621 0.109349
Si Si8 0.848799 0.394397 0.438830
O O1 0.451380 0.230547 0.215520
O O2 0.059293 0.334794 0.263438
O O3 0.958836 0.163222 0.311252
O O4 0.921883 0.305371 0.385902
O O5 0.352238 0.169058 0.329391
O O6 0.642807 0.328590 0.233372
O O7 0.920948 0.166237 0.140322
O O8 0.434086 0.113203 0.645335
O O9 0.000000 0.148562 0.500000
O O10 0.765563 0.000000 0.608625
O O11 0.416079 0.500000 0.721143
O O12 0.437301 0.355176 0.656269
O O13 0.907005 0.388692 0.584537
O O14 0.853775 0.500000 0.300913
O O15 0.504844 0.614395 0.448006
O O16 0.123632 0.140998 0.173658
O O17 0.013910 0.000000 0.261045
O O18 0.083721 0.000000 0.124483
O O19 0.500000 0.136750 0.000000
O O20 0.891574 0.500000 0.403728
#
# Coordination Sequence:
#
# PCOD8057866 Si02
#       8
#     4   4   4   4   4   4   4   4
#     4  11  21  29  43  68 102 135 156 188 248 304
#     4  10  20  32  50  74 102 131 162 203 246 297
#     4   9  18  33  50  66  90 130 176 213 242 279
#     4   9  18  31  48  69  94 132 178 219 255 286
#     4  10  18  29  46  67  95 134 181 225 255 282
#     4   9  19  34  50  71  99 127 159 200 241 290
#     4   9  18  37  64  84  95 115 154 205 256 301
#     4   9  18  31  45  66  97 134 180 225 255 281
#
# _framework density 18.306846
#
# number of rings (size 3 to 8) (size 9 to 14) (size 15 to 20)
#    0.000    2.500    0.000    3.750    0.000    9.000 
#    0.000    0.625    0.000    6.375    0.000    0.000 
#    0.000    9.000    0.000    0.000    0.000    0.000 
#
# Total GULP energy -396456.358295 kJ/mol
# GULP energy per Si atom -12389.261197 kJ/mol
# Density = 1.826518 g / cm^3
# Si number density = 18.306846 Si / 1000 Ang^3
#
#
#
# Elastic Constant Matrix: (Units=GPa)
#
#
# Indices 1 2 3 4 5 6 
#
# 1 125.2319 55.0502 29.7283 0.0000 -8.8718 0.0000
# 2 55.0502 88.4780 27.3490 0.0000 -6.6663 0.0000
# 3 29.7283 27.3490 76.5197 0.0000 -15.4275 0.0000
# 4 0.0000 0.0000 0.0000 15.5538 0.0000 -0.4130
# 5 -8.8718 -6.6663 -15.4275 0.0000 20.0718 0.0000
# 6 0.0000 0.0000 0.0000 -0.4130 0.0000 37.0871
#
#
#
# Elastic Compliance Matrix: (Units=1/GPa)
#
#
# Indices 1 2 3 4 5 6 
#
# 1 0.011323 -0.006370 -0.001822 0.000000 0.001489 0.000000
# 2 -0.006370 0.016302 -0.003346 0.000000 0.000027 0.000000
# 3 -0.001822 -0.003346 0.017261 0.000000 0.011350 0.000000
# 4 0.000000 0.000000 0.000000 0.064312 0.000000 0.000716
# 5 0.001489 0.000027 0.011350 0.000000 0.059212 0.000000
# 6 0.000000 0.000000 0.000000 0.000716 0.000000 0.026972
#
#
# Mechanical properties :
#
#
# Convention : Reuss Voigt Hill
#
# Bulk Modulus (GPa) = 45.85275 57.16496 51.50885
# Shear Modulus (GPa) = 22.15052 26.41601 24.28326
#
# Velocity S-wave (km/s) = 3.48222 3.80275 3.64601
# Velocity P-wave (km/s) = 6.42409 7.11161 6.77658
#
# Compressibility (1/GPa) = 0.02180894
#
# Stress axis : x y z
#
# Youngs Moduli (GPa) = 88.31326 61.34265 57.93433
#
# Poissons Ratio (x) = 0.39074 0.10558
# Poissons Ratio (y) = 0.56254 0.19387
# Poissons Ratio (z) = 0.16094 0.20528
#
# Static dielectric constant tensor:
#      x y z
#    x 3.647640 0.000000 -0.087490 
#    y 0.000000 3.616760 0.000000 
#    z -0.087490 0.000000 2.890110 
# 
# 
# High freq. dielectric constant tensor:
#      x y z
#    x 1.725880 0.000000 -0.008250 
#    y 0.000000 1.724740 0.000000 
#    z -0.008250 0.000000 1.639530 
# 
# From -- ./inp_files/92374.got.cif
#   From: 2010.06.25/outbox.cif.g09.slc.cpg/sg10_47_cif.got.tgz:92374.got - 2010.06.27 22:07:45.
