data_PCOD8057847
_publ_section_title
;
Structure prediction by ZEFSAII (Michael W. Deem and Ramdas Pophale) SiO2 
 PCOD8057847
Probable space group: P 2/M
;
_chemical_formula_sum "Si O2"
_cell_formula_units_Z 30
_cell_length_a 18.651611
_cell_length_b 8.858112
_cell_length_c 14.991115
_cell_angle_alpha 90.000000
_cell_angle_beta 40.313402
_cell_angle_gamma 90.000000
_cell_volume 1602.412624
_symmetry_space_group_name_H-M "P 2/M"
_symmetry_group_IT_number 10
_symmetry_cell_setting 'monoclinic'
loop_
_space_group_symop_operation_xyz
x,y,z
-x,y,-z
-x,-y,-z
x,-y,z
loop_
_atom_site_type_symbol
_atom_site_label
_atom_site_fract_x
_atom_site_fract_y
_atom_site_fract_z
Si Si1 0.372452 0.670059 0.595137
Si Si2 0.681911 0.175767 0.178232
Si Si3 0.060580 0.337469 0.628091
Si Si4 0.000000 0.743026 0.500000
Si Si5 0.174331 0.319506 0.107078
Si Si6 0.232044 0.832093 0.230887
Si Si7 0.708537 0.680861 0.647664
Si Si8 0.569802 0.824029 0.634305
O O1 0.500000 0.667506 0.500000
O O2 0.325244 0.500000 0.633236
O O3 0.305468 0.763334 0.733090
O O4 0.358101 0.752683 0.514195
O O5 0.559620 0.206675 0.256834
O O6 0.711515 0.000000 0.148611
O O7 0.768729 0.267707 0.037338
O O8 0.076593 0.500000 0.659301
O O9 0.954050 0.255651 0.774807
O O10 0.026266 0.365302 0.557731
O O11 0.180952 0.255412 0.510325
O O12 0.895955 0.849715 0.620270
O O13 0.173143 0.500000 0.115970
O O14 0.242502 0.253640 0.126409
O O15 0.298461 0.741534 0.244541
O O16 0.282882 0.000000 0.172652
O O17 0.709495 0.500000 0.649344
O O18 0.602579 0.743023 0.695382
O O19 0.597028 0.000000 0.613360
#
# Coordination Sequence:
#
# PCOD8057847 Si02
#       8
#     4   4   4   2   4   4   4   4
#     4   9  17  31  53  78  99 122 157 199 241 287
#     4  10  20  34  52  75 102 129 158 197 245 291
#     4   8  15  27  45  69  96 126 160 201 244 283
#     4   8  14  24  42  66  91 122 161 204 243 282
#     4  10  19  32  50  72  99 131 167 203 241 287
#     4  10  18  29  45  68  98 130 165 203 244 286
#     4  10  19  32  50  72  99 131 167 203 241 287
#     4  10  20  34  52  75 102 129 158 197 245 291
#
# _framework density 18.721769999999999
#
# number of rings (size 3 to 8) (size 9 to 14) (size 15 to 20)
#    0.000    2.533    0.000    2.800    0.000    6.400 
#    0.000    2.667    0.000    4.800    0.000    5.600 
#    0.000    0.000    0.000    0.000    0.000    0.000 
#
# Total GULP energy -371736.454009 kJ/mol
# GULP energy per Si atom -12391.215134 kJ/mol
# Density = 1.867916 g / cm^3
# Si number density = 18.721770 Si / 1000 Ang^3
#
#
#
# Elastic Constant Matrix: (Units=GPa)
#
#
# Indices 1 2 3 4 5 6 
#
# 1 11.9594 0.6509 -15.7907 0.0000 -0.4840 0.0000
# 2 0.6509 89.6191 12.1086 0.0000 -1.5694 0.0000
# 3 -15.7907 12.1086 66.1673 0.0000 6.4445 0.0000
# 4 0.0000 0.0000 0.0000 25.2074 0.0000 9.3670
# 5 -0.4840 -1.5694 6.4445 0.0000 16.4143 0.0000
# 6 0.0000 0.0000 0.0000 9.3670 0.0000 23.6326
#
#
#
# Elastic Compliance Matrix: (Units=1/GPa)
#
#
# Indices 1 2 3 4 5 6 
#
# 1 0.125611 -0.005381 0.031870 0.000000 -0.009323 0.000000
# 2 -0.005381 0.011735 -0.003666 0.000000 0.002403 0.000000
# 3 0.031870 -0.003666 0.024260 0.000000 -0.008936 0.000000
# 4 0.000000 0.000000 0.000000 0.046523 0.000000 -0.018440
# 5 -0.009323 0.002403 -0.008936 0.000000 0.064386 0.000000
# 6 0.000000 0.000000 0.000000 -0.018440 0.000000 0.049623
#
#
# Mechanical properties :
#
#
# Convention : Reuss Voigt Hill
#
# Bulk Modulus (GPa) = 4.82509 17.96484 11.39497
# Shear Modulus (GPa) = 14.46859 24.43599 19.45229
#
# Velocity S-wave (km/s) = 2.78298 3.61670 3.22688
# Velocity P-wave (km/s) = 3.59298 5.20165 4.47028
#
# Compressibility (1/GPa) = 0.20724983
#
# Stress axis : x y z
#
# Youngs Moduli (GPa) = 7.96111 85.21679 41.22024
#
# Poissons Ratio (x) = 0.45859 -1.31367
# Poissons Ratio (y) = 0.04284 0.15110
# Poissons Ratio (z) = -0.25372 0.31238
#
# Static dielectric constant tensor:
#      x y z
#    x 3.264340 0.000000 0.029620 
#    y 0.000000 3.331150 0.000000 
#    z 0.029620 0.000000 3.388570 
# 
# 
# High freq. dielectric constant tensor:
#      x y z
#    x 1.699490 0.000000 0.009340 
#    y 0.000000 1.726400 0.000000 
#    z 0.009340 0.000000 1.712000 
# 
# From -- ./inp_files/69752.got.cif
#   From: 2010.06.25/outbox.cif.g09.slc.cpg/sg10_35_cif.got.tgz:69752.got - 2010.06.27 22:07:45.
