data_PCOD8057521
_publ_section_title
;
Structure prediction by ZEFSAII (Michael W. Deem and Ramdas Pophale) SiO2 
 PCOD8057521
Probable space group: P 2/M
;
_chemical_formula_sum "Si O2"
_cell_formula_units_Z 32
_cell_length_a 26.612134
_cell_length_b 9.148332
_cell_length_c 9.810065
_cell_angle_alpha 90.000000
_cell_angle_beta 51.058658
_cell_angle_gamma 90.000000
_cell_volume 1857.615249
_symmetry_space_group_name_H-M "P 2/M"
_symmetry_group_IT_number 10
_symmetry_cell_setting 'monoclinic'
loop_
_space_group_symop_operation_xyz
x,y,z
-x,y,-z
-x,-y,-z
x,-y,z
loop_
_atom_site_type_symbol
_atom_site_label
_atom_site_fract_x
_atom_site_fract_y
_atom_site_fract_z
Si Si1 0.890244 0.332888 0.497771
Si Si2 0.146461 0.173069 0.167454
Si Si3 0.318438 0.174222 0.501324
Si Si4 0.571060 0.171120 0.885208
Si Si5 0.988811 0.837651 0.680324
Si Si6 0.286370 0.827660 0.850586
Si Si7 0.326991 0.828527 0.072522
Si Si8 0.763111 0.668384 0.569126
O O1 0.900246 0.500000 0.523757
O O2 0.860535 0.247806 0.675171
O O3 0.959990 0.268657 0.333254
O O4 0.840320 0.317953 0.457320
O O5 0.085935 0.212668 0.170891
O O6 0.147955 0.000000 0.192069
O O7 0.212732 0.230338 0.986495
O O8 0.383324 0.230767 0.314638
O O9 0.319763 0.231212 0.655312
O O10 0.256360 0.244791 0.533795
O O11 0.311860 0.000000 0.500949
O O12 0.603727 0.205578 0.976064
O O13 0.563036 0.000000 0.876611
O O14 0.500000 0.245715 0.000000
O O15 0.000000 0.835578 0.500000
O O16 0.999701 0.000000 0.720840
O O17 0.284090 0.000000 0.844624
O O18 0.328413 0.780548 0.911142
O O19 0.271464 0.737510 0.240542
O O20 0.310026 0.000000 0.116751
O O21 0.741790 0.500000 0.592770
#
# Coordination Sequence:
#
# PCOD8057521 Si02
#       8
#     4   4   4   4   4   4   4   4
#     4  10  18  26  40  63  89 115 148 190 229 268
#     4   9  16  27  43  62  88 117 146 186 231 271
#     4   9  18  31  48  68  91 122 155 187 228 272
#     4   8  14  26  45  70  98 124 151 182 217 264
#     4   8  15  25  38  59  85 115 147 183 229 272
#     4   9  16  28  47  70  92 116 154 195 227 269
#     4   9  16  28  49  70  90 121 154 186 227 268
#     4  10  19  30  44  66  93 119 153 194 231 268
#
# _framework density 17.226386999999999
#
# number of rings (size 3 to 8) (size 9 to 14) (size 15 to 20)
#    0.000    3.000    1.250    2.250    0.000    3.750 
#    0.000    1.875    0.000   10.500    0.000    5.250 
#    0.000    8.000    0.000    0.000    0.000    0.000 
#
# Total GULP energy -396529.167460 kJ/mol
# GULP energy per Si atom -12391.536483 kJ/mol
# Density = 1.718718 g / cm^3
# Si number density = 17.226387 Si / 1000 Ang^3
#
#
#
# Elastic Constant Matrix: (Units=GPa)
#
#
# Indices 1 2 3 4 5 6 
#
# 1 129.8927 30.0656 72.7232 0.0000 -8.2219 0.0000
# 2 30.0656 43.4777 16.2155 0.0000 -2.4914 0.0000
# 3 72.7232 16.2155 90.6280 0.0000 1.2487 0.0000
# 4 0.0000 0.0000 0.0000 5.5551 0.0000 -1.5486
# 5 -8.2219 -2.4914 1.2487 0.0000 33.1722 0.0000
# 6 0.0000 0.0000 0.0000 -1.5486 0.0000 14.2443
#
#
#
# Elastic Compliance Matrix: (Units=1/GPa)
#
#
# Indices 1 2 3 4 5 6 
#
# 1 0.016029 -0.006474 -0.011758 0.000000 0.003929 0.000000
# 2 -0.006474 0.027395 0.000287 0.000000 0.000442 0.000000
# 3 -0.011758 0.000287 0.020468 0.000000 -0.003663 0.000000
# 4 0.000000 0.000000 0.000000 0.185641 0.000000 0.020183
# 5 0.003929 0.000442 -0.003663 0.000000 0.031291 0.000000
# 6 0.000000 0.000000 0.000000 0.020183 0.000000 0.072398
#
#
# Mechanical properties :
#
#
# Convention : Reuss Voigt Hill
#
# Bulk Modulus (GPa) = 35.71046 55.77857 45.74452
# Shear Modulus (GPa) = 12.54877 20.26059 16.40468
#
# Velocity S-wave (km/s) = 2.70193 3.43321 3.08928
# Velocity P-wave (km/s) = 5.52350 6.94017 6.27196
#
# Compressibility (1/GPa) = 0.02800300
#
# Stress axis : x y z
#
# Youngs Moduli (GPa) = 62.38813 36.50256 48.85642
#
# Poissons Ratio (x) = 0.23631 0.57445
# Poissons Ratio (y) = 0.40389 -0.01402
# Poissons Ratio (z) = 0.73355 -0.01048
#
# Static dielectric constant tensor:
#      x y z
#    x 3.475690 0.000000 -0.208550 
#    y 0.000000 2.989430 0.000000 
#    z -0.208550 0.000000 3.322100 
# 
# 
# High freq. dielectric constant tensor:
#      x y z
#    x 1.667760 0.000000 -0.014930 
#    y 0.000000 1.637640 0.000000 
#    z -0.014930 0.000000 1.632120 
# 
# From -- ./inp_files/57181.got.cif
#   From: 2010.06.25/outbox.cif.g09.slc.cpg/sg10_29_cif.got.tgz:57181.got - 2010.06.27 22:07:45.
