data_PCOD8057161
_publ_section_title
;
Structure prediction by ZEFSAII (Michael W. Deem and Ramdas Pophale) SiO2 
 PCOD8057161
Probable space group: P 2/M
;
_chemical_formula_sum "Si O2"
_cell_formula_units_Z 28
_cell_length_a 17.420128
_cell_length_b 9.204401
_cell_length_c 14.585972
_cell_angle_alpha 90.000000
_cell_angle_beta 130.654061
_cell_angle_gamma 90.000000
_cell_volume 1774.302568
_symmetry_space_group_name_H-M "P 2/M"
_symmetry_group_IT_number 10
_symmetry_cell_setting 'monoclinic'
loop_
_space_group_symop_operation_xyz
x,y,z
-x,y,-z
-x,-y,-z
x,-y,z
loop_
_atom_site_type_symbol
_atom_site_label
_atom_site_fract_x
_atom_site_fract_y
_atom_site_fract_z
Si Si1 0.086086 0.329429 0.682376
Si Si2 0.922982 0.166710 0.816026
Si Si3 0.118674 0.667611 0.906097
Si Si4 0.386498 0.329529 0.430885
Si Si5 0.747915 0.167764 0.535094
Si Si6 0.785544 0.666469 0.839119
Si Si7 0.859880 0.672315 0.471659
O O1 0.081421 0.500000 0.666131
O O2 0.143886 0.281940 0.821210
O O3 0.145922 0.273094 0.639120
O O4 0.969530 0.276235 0.595135
O O5 0.846671 0.188501 0.673215
O O6 0.876664 0.237934 0.870802
O O7 0.027088 0.240830 0.873031
O O8 0.943628 0.000000 0.854237
O O9 0.084445 0.500000 0.876728
O O10 0.214414 0.688897 0.049721
O O11 0.500000 0.277346 0.500000
O O12 0.381528 0.500000 0.448948
O O13 0.346584 0.244284 0.488648
O O14 0.321493 0.288888 0.289212
O O15 0.770637 0.245322 0.456083
O O16 0.720737 0.000000 0.497355
O O17 0.809499 0.500000 0.832832
O O18 0.843420 0.500000 0.470185
#
# Coordination Sequence:
#
# PCOD8057161 Si02
#       7
#     4   4   4   4   4   4   4
#     4   8  15  25  41  62  84 114 149 180 206 239
#     4  10  19  28  38  57  87 119 146 171 201 243
#     4  10  17  27  42  60  84 114 145 174 205 243
#     4   9  18  33  50  66  84 108 140 178 219 262
#     4  10  19  29  43  65  90 115 143 177 216 251
#     4   9  18  29  43  62  82 108 141 175 211 252
#     4   9  15  27  44  61  83 115 151 178 205 246
#
# _framework density 15.780848000000001
#
# number of rings (size 3 to 8) (size 9 to 14) (size 15 to 20)
#    0.000    2.714    1.429    2.143    0.000    3.714 
#    0.000    2.143    0.000    0.000    0.000    1.000 
#    0.000    8.000    0.000    0.000    0.000    0.000 
#
# Total GULP energy -347006.610546 kJ/mol
# GULP energy per Si atom -12393.093234 kJ/mol
# Density = 1.574493 g / cm^3
# Si number density = 15.780848 Si / 1000 Ang^3
#
#
#
# Elastic Constant Matrix: (Units=GPa)
#
#
# Indices 1 2 3 4 5 6 
#
# 1 122.4673 45.5437 65.2258 0.0000 -15.1617 0.0000
# 2 45.5437 55.8474 30.1891 0.0000 -4.7324 0.0000
# 3 65.2258 30.1891 73.1374 0.0000 -18.9327 0.0000
# 4 0.0000 0.0000 0.0000 11.3381 0.0000 2.6612
# 5 -15.1617 -4.7324 -18.9327 0.0000 26.3154 0.0000
# 6 0.0000 0.0000 0.0000 2.6612 0.0000 -4.2437
#
#
#
# Elastic Compliance Matrix: (Units=1/GPa)
#
#
# Indices 1 2 3 4 5 6 
#
# 1 0.017763 -0.007599 -0.012791 0.000000 -0.000335 0.000000
# 2 -0.007599 0.026538 -0.005008 0.000000 -0.003209 0.000000
# 3 -0.012791 -0.005008 0.030729 0.000000 0.013838 0.000000
# 4 0.000000 0.000000 0.000000 0.076882 0.000000 0.048212
# 5 -0.000335 -0.003209 0.013838 0.000000 0.047186 0.000000
# 6 0.000000 0.000000 0.000000 0.048212 0.000000 -0.205410
#
#
# Mechanical properties :
#
#
# Convention : Reuss Voigt Hill
#
# Bulk Modulus (GPa) = 41.26378 59.26326 50.26352
# Shear Modulus (GPa) = 95.12393 14.04820 54.58607
#
# Velocity S-wave (km/s) = 7.77232 2.98687 5.88771
# Velocity P-wave (km/s) = 10.33199 7.03780 8.83970
#
# Compressibility (1/GPa) = 0.02423433
#
# Stress axis : x y z
#
# Youngs Moduli (GPa) = 56.29836 37.68139 32.54205
#
# Poissons Ratio (x) = 0.28636 0.41625
# Poissons Ratio (y) = 0.42783 0.16296
# Poissons Ratio (z) = 0.72011 0.18869
#
# Static dielectric constant tensor:
#      x y z
#    x 2.997450 0.000000 -0.331990 
#    y 0.000000 2.898310 0.000000 
#    z -0.331990 0.000000 3.097220 
# 
# 
# High freq. dielectric constant tensor:
#      x y z
#    x 1.585170 0.000000 -0.028810 
#    y 0.000000 1.595760 0.000000 
#    z -0.028810 0.000000 1.586420 
# 
# From -- ./inp_files/49599.got.cif
#   From: 2010.06.25/outbox.cif.g09.slc.cpg/sg10_25_cif.got.tgz:49599.got - 2010.06.27 22:07:45.
