data_PCOD8057788
_publ_section_title
;
Structure prediction by ZEFSAII (Michael W. Deem and Ramdas Pophale) SiO2 
 PCOD8057788
Probable space group: P 2/M
;
_chemical_formula_sum "Si O2"
_cell_formula_units_Z 32
_cell_length_a 13.163778
_cell_length_b 9.113675
_cell_length_c 28.850977
_cell_angle_alpha 90.000000
_cell_angle_beta 144.421280
_cell_angle_gamma 90.000000
_cell_volume 2013.835344
_symmetry_space_group_name_H-M "P 2/M"
_symmetry_group_IT_number 10
_symmetry_cell_setting 'monoclinic'
loop_
_space_group_symop_operation_xyz
x,y,z
-x,y,-z
-x,-y,-z
x,-y,z
loop_
_atom_site_type_symbol
_atom_site_label
_atom_site_fract_x
_atom_site_fract_y
_atom_site_fract_z
Si Si1 0.830573 0.172316 0.341882
Si Si2 0.728630 0.668920 0.807801
Si Si3 0.750145 0.834922 0.910508
Si Si4 0.464706 0.672315 0.037982
Si Si5 0.117880 0.665649 0.498411
Si Si6 0.886872 0.331729 0.043480
Si Si7 0.598541 0.827722 0.344265
Si Si8 0.617632 0.836516 0.175825
O O1 0.687068 0.210464 0.327835
O O2 0.759090 0.223747 0.265321
O O3 0.010960 0.258160 0.417252
O O4 0.870031 0.000000 0.357852
O O5 0.668268 0.500000 0.785607
O O6 0.728403 0.727693 0.859653
O O7 0.596157 0.761389 0.727018
O O8 0.926454 0.685663 0.861469
O O9 0.567027 0.838885 0.868024
O O10 0.804770 0.000000 0.915634
O O11 0.891683 0.769611 0.999177
O O12 0.492300 0.500000 0.048481
O O13 0.608397 0.736515 0.126743
O O14 0.500000 0.737257 0.000000
O O15 0.267484 0.717022 0.979110
O O16 0.165734 0.500000 0.501791
O O17 0.294319 0.755623 0.573771
O O18 0.000000 0.669186 0.500000
O O19 0.857314 0.500000 0.016694
O O20 0.587969 0.000000 0.349048
O O21 0.670460 0.000000 0.179838
#
# Coordination Sequence:
#
# PCOD8057788 Si02
#       8
#     4   4   4   4   4   4   4   4
#     4   9  16  28  42  58  83 114 146 179 212 248
#     4  11  20  28  40  58  85 115 145 179 213 251
#     4  10  18  29  42  59  83 113 146 178 210 248
#     4   9  18  33  50  65  83 109 142 180 222 265
#     4   9  17  27  39  59  83 111 148 182 213 247
#     4   9  19  32  43  60  83 110 141 177 220 258
#     4  10  18  29  42  57  82 117 152 180 211 247
#     4   9  17  29  44  64  87 112 144 178 215 256
#
# _framework density 15.890078000000001
#
# number of rings (size 3 to 8) (size 9 to 14) (size 15 to 20)
#    0.000    2.500    1.250    1.875    0.000    5.750 
#    0.000    0.000    0.000    0.000    0.000    0.000 
#    0.000    1.000    0.000   11.500    0.000    2.875 
#
# Total GULP energy -396730.790319 kJ/mol
# GULP energy per Si atom -12397.837197 kJ/mol
# Density = 1.585391 g / cm^3
# Si number density = 15.890078 Si / 1000 Ang^3
#
#
#
# Elastic Constant Matrix: (Units=GPa)
#
#
# Indices 1 2 3 4 5 6 
#
# 1 35.2059 22.2253 31.3290 0.0000 -6.5076 0.0000
# 2 22.2253 78.6182 57.8902 0.0000 1.5662 0.0000
# 3 31.3290 57.8902 146.0215 0.0000 0.2177 0.0000
# 4 0.0000 0.0000 0.0000 33.2947 0.0000 -0.7725
# 5 -6.5076 1.5662 0.2177 0.0000 17.0254 0.0000
# 6 0.0000 0.0000 0.0000 -0.7725 0.0000 11.9344
#
#
#
# Elastic Compliance Matrix: (Units=1/GPa)
#
#
# Indices 1 2 3 4 5 6 
#
# 1 0.041627 -0.007776 -0.005873 0.000000 0.016701 0.000000
# 2 -0.007776 0.019458 -0.006039 0.000000 -0.004685 0.000000
# 3 -0.005873 -0.006039 0.010505 0.000000 -0.001824 0.000000
# 4 0.000000 0.000000 0.000000 0.030080 0.000000 0.001947
# 5 0.016701 -0.004685 -0.001824 0.000000 0.065574 0.000000
# 6 0.000000 0.000000 0.000000 0.001947 0.000000 0.083917
#
#
# Mechanical properties :
#
#
# Convention : Reuss Voigt Hill
#
# Bulk Modulus (GPa) = 31.04226 53.63718 42.33972
# Shear Modulus (GPa) = 16.59615 22.34431 19.47023
#
# Velocity S-wave (km/s) = 3.23528 3.75398 3.50424
# Velocity P-wave (km/s) = 5.79086 7.25384 6.56324
#
# Compressibility (1/GPa) = 0.03221415
#
# Stress axis : x y z
#
# Youngs Moduli (GPa) = 24.02300 51.39301 95.19100
#
# Poissons Ratio (x) = 0.39963 0.55908
# Poissons Ratio (y) = 0.18680 0.57484
# Poissons Ratio (z) = 0.14109 0.31035
#
# Static dielectric constant tensor:
#      x y z
#    x 2.654570 0.000000 0.071870 
#    y 0.000000 3.184470 0.000000 
#    z 0.071870 0.000000 3.229630 
# 
# 
# High freq. dielectric constant tensor:
#      x y z
#    x 1.545410 0.000000 0.009320 
#    y 0.000000 1.620740 0.000000 
#    z 0.009320 0.000000 1.617630 
# 
# From -- ./inp_files/66201.got.cif
#   From: 2010.06.25/outbox.cif.g09.slc.cpg/sg10_34_cif.got.tgz:66201.got - 2010.06.27 22:07:45.
