data_PCOD8057174
_publ_section_title
;
Structure prediction by ZEFSAII (Michael W. Deem and Ramdas Pophale) SiO2 
 PCOD8057174
Probable space group: P 2/M
;
_chemical_formula_sum "Si O2"
_cell_formula_units_Z 28
_cell_length_a 13.881533
_cell_length_b 14.490857
_cell_length_c 13.336813
_cell_angle_alpha 90.000000
_cell_angle_beta 40.813466
_cell_angle_gamma 90.000000
_cell_volume 1753.454936
_symmetry_space_group_name_H-M "P 2/M"
_symmetry_group_IT_number 10
_symmetry_cell_setting 'monoclinic'
loop_
_space_group_symop_operation_xyz
x,y,z
-x,y,-z
-x,-y,-z
x,-y,z
loop_
_atom_site_type_symbol
_atom_site_label
_atom_site_fract_x
_atom_site_fract_y
_atom_site_fract_z
Si Si1 0.345174 0.791400 0.416856
Si Si2 0.647566 0.106885 0.197117
Si Si3 0.065364 0.105120 0.141147
Si Si4 0.725413 0.399713 0.273905
Si Si5 0.809319 0.793463 0.248446
Si Si6 0.920015 0.107723 0.461583
Si Si7 0.561218 0.399939 0.613166
O O1 0.496638 0.845695 0.284419
O O2 0.285253 0.802574 0.576068
O O3 0.228487 0.832278 0.430084
O O4 0.374193 0.682913 0.369775
O O5 0.715459 0.149501 0.243396
O O6 0.616407 0.000000 0.242399
O O7 0.762070 0.121095 0.015091
O O8 0.971983 0.166178 0.136475
O O9 0.030693 0.131319 0.283250
O O10 0.019264 0.000000 0.156073
O O11 0.806059 0.500000 0.196728
O O12 0.835045 0.312364 0.191539
O O13 0.638516 0.401183 0.445607
O O14 0.612508 0.384039 0.270575
O O15 0.000000 0.137993 0.500000
O O16 0.876854 0.000000 0.496970
O O17 0.585849 0.500000 0.647134
#
# Coordination Sequence:
#
# PCOD8057174 Si02
#       7
#     4   4   4   4   4   4   4
#     4  10  18  28  45  69  88 112 153 187 212 249
#     4  11  20  28  40  63  94 121 147 179 211 253
#     4   9  19  32  44  61  88 122 151 173 216 269
#     4   8  13  22  38  60  86 117 151 181 208 244
#     4  10  17  27  43  63  91 125 151 175 207 252
#     4   9  18  34  52  66  84 111 143 183 227 266
#     4   8  13  23  39  61  89 115 142 180 219 250
#
# _framework density 15.968472999999999
#
# number of rings (size 3 to 8) (size 9 to 14) (size 15 to 20)
#    0.000    2.714    1.429    2.571    0.000    3.429 
#    0.000    0.714    0.000    6.429    0.000    0.000 
#    0.000    1.143    0.000    0.000    0.000    0.000 
#
# Total GULP energy -347021.925848 kJ/mol
# GULP energy per Si atom -12393.640209 kJ/mol
# Density = 1.593213 g / cm^3
# Si number density = 15.968473 Si / 1000 Ang^3
#
#
#
# Elastic Constant Matrix: (Units=GPa)
#
#
# Indices 1 2 3 4 5 6 
#
# 1 95.8215 58.5042 32.3864 0.0000 -11.6412 0.0000
# 2 58.5042 132.0758 38.4627 0.0000 -15.7170 0.0000
# 3 32.3864 38.4627 55.2718 0.0000 -15.5660 0.0000
# 4 0.0000 0.0000 0.0000 10.9892 0.0000 -2.3594
# 5 -11.6412 -15.7170 -15.5660 0.0000 15.3791 0.0000
# 6 0.0000 0.0000 0.0000 -2.3594 0.0000 14.8039
#
#
#
# Elastic Compliance Matrix: (Units=1/GPa)
#
#
# Indices 1 2 3 4 5 6 
#
# 1 0.015505 -0.005239 -0.005094 0.000000 0.001227 0.000000
# 2 -0.005239 0.011466 -0.003813 0.000000 0.003893 0.000000
# 3 -0.005094 -0.003813 0.030138 0.000000 0.022752 0.000000
# 4 0.000000 0.000000 0.000000 0.094223 0.000000 0.015017
# 5 0.001227 0.003893 0.022752 0.000000 0.092959 0.000000
# 6 0.000000 0.000000 0.000000 0.015017 0.000000 0.069943
#
#
# Mechanical properties :
#
#
# Convention : Reuss Voigt Hill
#
# Bulk Modulus (GPa) = 34.70104 60.20841 47.45473
# Shear Modulus (GPa) = 14.19926 18.48882 16.34404
#
# Velocity S-wave (km/s) = 2.98519 3.40639 3.20272
# Velocity P-wave (km/s) = 5.80172 7.29779 6.59233
#
# Compressibility (1/GPa) = 0.02881758
#
# Stress axis : x y z
#
# Youngs Moduli (GPa) = 64.49340 87.21780 33.18057
#
# Poissons Ratio (x) = 0.45691 0.16903
# Poissons Ratio (y) = 0.33787 0.12651
# Poissons Ratio (z) = 0.32855 0.33253
#
# Static dielectric constant tensor:
#      x y z
#    x 2.738460 0.000000 -0.116300 
#    y 0.000000 3.557100 0.000000 
#    z -0.116300 0.000000 2.928130 
# 
# 
# High freq. dielectric constant tensor:
#      x y z
#    x 1.570940 0.000000 -0.014670 
#    y 0.000000 1.626870 0.000000 
#    z -0.014670 0.000000 1.596280 
# 
# From -- ./inp_files/28849.got.cif
#   From: 2010.06.25/outbox.cif.g09.slc.cpg/sg10_15_cif.got.tgz:28849.got - 2010.06.27 22:07:45.
