data_PCOD8057896
_publ_section_title
;
Structure prediction by ZEFSAII (Michael W. Deem and Ramdas Pophale) SiO2 
 PCOD8057896
Probable space group: P 2/M
;
_chemical_formula_sum "Si O2"
_cell_formula_units_Z 32
_cell_length_a 20.211359
_cell_length_b 9.266412
_cell_length_c 12.450639
_cell_angle_alpha 90.000000
_cell_angle_beta 120.551319
_cell_angle_gamma 90.000000
_cell_volume 2008.120564
_symmetry_space_group_name_H-M "P 2/M"
_symmetry_group_IT_number 10
_symmetry_cell_setting 'monoclinic'
loop_
_space_group_symop_operation_xyz
x,y,z
-x,y,-z
-x,-y,-z
x,-y,z
loop_
_atom_site_type_symbol
_atom_site_label
_atom_site_fract_x
_atom_site_fract_y
_atom_site_fract_z
Si Si1 0.559250 0.828989 0.808506
Si Si2 0.327364 0.670614 0.248551
Si Si3 0.978730 0.838766 0.107298
Si Si4 0.591048 0.158763 0.066747
Si Si5 0.159548 0.659076 0.053734
Si Si6 0.598281 0.328974 0.276063
Si Si7 0.282774 0.670373 0.445189
Si Si8 0.118350 0.660602 0.268230
O O1 0.604281 0.762182 0.746056
O O2 0.477052 0.751953 0.745295
O O3 0.546782 0.000000 0.783047
O O4 0.608471 0.796684 0.957817
O O5 0.345264 0.500000 0.255657
O O6 0.248191 0.709038 0.121266
O O7 0.322101 0.724837 0.367502
O O8 0.044267 0.758837 0.230943
O O9 0.973024 0.000000 0.147000
O O10 0.895670 0.765760 0.058065
O O11 0.000000 0.835949 0.000000
O O12 0.623278 0.276005 0.177582
O O13 0.625638 0.000000 0.121539
O O14 0.500000 0.150704 0.000000
O O15 0.150864 0.500000 0.995669
O O16 0.133522 0.652758 0.154704
O O17 0.583853 0.500000 0.262699
O O18 0.666978 0.283501 0.411816
O O19 0.274709 0.500000 0.427019
O O20 0.195194 0.729140 0.386453
O O21 0.100827 0.500000 0.298024
#
# Coordination Sequence:
#
# PCOD8057896 Si02
#       8
#     4   4   4   4   4   4   4   4
#     4  10  20  32  44  60  84 111 138 171 213 252
#     4   9  17  30  45  60  82 112 145 174 201 241
#     4   9  15  21  32  53  78 102 132 169 202 231
#     4   8  16  31  46  60  81 105 130 168 216 255
#     4   8  14  24  38  54  73 103 138 167 197 236
#     4  10  18  29  47  66  82 104 139 177 210 246
#     4   8  16  29  43  61  85 112 139 172 210 242
#     4   8  13  24  39  52  73 106 138 163 195 240
#
# _framework density 15.935298
#
# number of rings (size 3 to 8) (size 9 to 14) (size 15 to 20)
#    0.000    3.250    0.000    3.375    0.000    5.250 
#    0.000    6.875    0.000    0.000    0.000    0.000 
#    0.000    1.000    0.000   11.250    0.000    8.750 
#
# Total GULP energy -396543.461978 kJ/mol
# GULP energy per Si atom -12391.983187 kJ/mol
# Density = 1.589903 g / cm^3
# Si number density = 15.935298 Si / 1000 Ang^3
#
#
#
# Elastic Constant Matrix: (Units=GPa)
#
#
# Indices 1 2 3 4 5 6 
#
# 1 19.3744 23.1632 33.1361 0.0000 15.7190 0.0000
# 2 23.1632 83.8286 47.0575 0.0000 16.2322 0.0000
# 3 33.1361 47.0575 95.9415 0.0000 17.8267 0.0000
# 4 0.0000 0.0000 0.0000 14.0459 0.0000 -5.5549
# 5 15.7190 16.2322 17.8267 0.0000 20.3839 0.0000
# 6 0.0000 0.0000 0.0000 -5.5549 0.0000 8.9551
#
#
#
# Elastic Compliance Matrix: (Units=1/GPa)
#
#
# Indices 1 2 3 4 5 6 
#
# 1 0.408891 -0.019327 -0.090763 0.000000 -0.220548 0.000000
# 2 -0.019327 0.018316 -0.002827 0.000000 0.002791 0.000000
# 3 -0.090763 -0.002827 0.035503 0.000000 0.041194 0.000000
# 4 0.000000 0.000000 0.000000 0.094338 0.000000 0.058517
# 5 -0.220548 0.002791 0.041194 0.000000 0.180885 0.000000
# 6 0.000000 0.000000 0.000000 0.058517 0.000000 0.147966
#
#
# Mechanical properties :
#
#
# Convention : Reuss Voigt Hill
#
# Bulk Modulus (GPa) = 4.22162 45.09534 24.65848
# Shear Modulus (GPa) = 4.19924 15.06282 9.63103
#
# Velocity S-wave (km/s) = 1.62509 3.07783 2.46109
# Velocity P-wave (km/s) = 2.48519 6.40243 4.85630
#
# Compressibility (1/GPa) = 0.23687573
#
# Stress axis : x y z
#
# Youngs Moduli (GPa) = 2.44564 54.59691 28.16652
#
# Poissons Ratio (x) = 1.05519 2.55648
# Poissons Ratio (y) = 0.04727 0.07963
# Poissons Ratio (z) = 0.22197 0.15435
#
# Static dielectric constant tensor:
#      x y z
#    x 2.903520 0.000000 0.193590 
#    y 0.000000 3.065290 0.000000 
#    z 0.193590 0.000000 3.064770 
# 
# 
# High freq. dielectric constant tensor:
#      x y z
#    x 1.580350 0.000000 0.024250 
#    y 0.000000 1.608940 0.000000 
#    z 0.024250 0.000000 1.587320 
# 
# From -- ./inp_files/54900.got.cif
#   From: 2010.06.25/outbox.cif.g09.slc.cpg/sg10_28_cif.got.tgz:54900.got - 2010.06.27 22:07:45.
