data_PCOD8057317
_publ_section_title
;
Structure prediction by ZEFSAII (Michael W. Deem and Ramdas Pophale) SiO2 
 PCOD8057317
Probable space group: P 2/M
;
_chemical_formula_sum "Si O2"
_cell_formula_units_Z 28
_cell_length_a 17.540312
_cell_length_b 9.371719
_cell_length_c 10.382508
_cell_angle_alpha 90.000000
_cell_angle_beta 109.069927
_cell_angle_gamma 90.000000
_cell_volume 1613.043368
_symmetry_space_group_name_H-M "P 2/M"
_symmetry_group_IT_number 10
_symmetry_cell_setting 'monoclinic'
loop_
_space_group_symop_operation_xyz
x,y,z
-x,y,-z
-x,-y,-z
x,-y,z
loop_
_atom_site_type_symbol
_atom_site_label
_atom_site_fract_x
_atom_site_fract_y
_atom_site_fract_z
Si Si1 0.084028 0.664864 0.887057
Si Si2 0.504642 0.170188 0.148346
Si Si3 0.664299 0.169304 0.847605
Si Si4 0.098879 0.334915 0.191122
Si Si5 0.775226 0.169149 0.142686
Si Si6 0.324291 0.830627 0.666836
Si Si7 0.248053 0.830300 0.359665
O O1 0.105381 0.500000 0.877628
O O2 0.137019 0.759736 0.819877
O O3 0.990490 0.693493 0.803425
O O4 0.102722 0.709951 0.043911
O O5 0.426858 0.226919 0.184058
O O6 0.585573 0.230179 0.260320
O O7 0.505876 0.000000 0.147181
O O8 0.500000 0.227768 0.000000
O O9 0.698878 0.225360 0.731304
O O10 0.663549 0.000000 0.849308
O O11 0.719792 0.224758 0.994792
O O12 0.122353 0.500000 0.220183
O O13 0.159602 0.238019 0.305989
O O14 0.734939 0.222073 0.252881
O O15 0.785851 0.000000 0.145258
O O16 0.291875 0.774719 0.512484
O O17 0.327852 0.000000 0.670234
O O18 0.238247 0.000000 0.353096
#
# Coordination Sequence:
#
# PCOD8057317 Si02
#       7
#     4   4   4   4   4   4   4
#     4   9  18  32  51  74  95 119 159 203 237 279
#     4   9  14  24  42  66  97 130 160 192 235 279
#     4   9  16  25  43  69  96 124 159 197 229 275
#     4   9  18  33  51  71  96 125 157 195 240 288
#     4  10  17  29  48  73  98 124 159 196 236 283
#     4   9  18  29  44  68 102 134 156 191 242 285
#     4  10  19  31  46  72 103 126 156 199 241 279
#
# _framework density 17.358491000000001
#
# number of rings (size 3 to 8) (size 9 to 14) (size 15 to 20)
#    0.000    2.714    2.857    0.857    0.000    1.143 
#    0.000    5.714    0.000    4.286    0.000    6.000 
#    0.000    0.000    0.000    0.000    0.000    0.000 
#
# Total GULP energy -347150.568137 kJ/mol
# GULP energy per Si atom -12398.234576 kJ/mol
# Density = 1.731898 g / cm^3
# Si number density = 17.358491 Si / 1000 Ang^3
#
#
#
# Elastic Constant Matrix: (Units=GPa)
#
#
# Indices 1 2 3 4 5 6 
#
# 1 149.2853 33.0468 70.8314 0.0000 2.1151 0.0000
# 2 33.0468 22.5074 23.5384 0.0000 3.6838 0.0000
# 3 70.8314 23.5384 135.1742 0.0000 2.5913 0.0000
# 4 0.0000 0.0000 0.0000 12.0563 0.0000 -1.5910
# 5 2.1151 3.6838 2.5913 0.0000 30.5056 0.0000
# 6 0.0000 0.0000 0.0000 -1.5910 0.0000 3.6853
#
#
#
# Elastic Compliance Matrix: (Units=1/GPa)
#
#
# Indices 1 2 3 4 5 6 
#
# 1 0.011288 -0.012892 -0.003691 0.000000 0.001088 0.000000
# 2 -0.012892 0.070078 -0.005311 0.000000 -0.007118 0.000000
# 3 -0.003691 -0.005311 0.010256 0.000000 0.000026 0.000000
# 4 0.000000 0.000000 0.000000 0.087955 0.000000 0.037971
# 5 0.001088 -0.007118 0.000026 0.000000 0.033563 0.000000
# 6 0.000000 0.000000 0.000000 0.037971 0.000000 0.287740
#
#
# Mechanical properties :
#
#
# Convention : Reuss Voigt Hill
#
# Bulk Modulus (GPa) = 20.90539 62.42223 41.66381
# Shear Modulus (GPa) = 8.91880 21.21947 15.06913
#
# Velocity S-wave (km/s) = 2.26918 3.50011 2.94957
# Velocity P-wave (km/s) = 4.35144 7.23693 5.97110
#
# Compressibility (1/GPa) = 0.04783455
#
# Stress axis : x y z
#
# Youngs Moduli (GPa) = 88.58686 14.26972 97.50139
#
# Poissons Ratio (x) = 0.18397 0.35988
# Poissons Ratio (y) = 1.14209 0.51783
# Poissons Ratio (z) = 0.32697 0.07579
#
# Static dielectric constant tensor:
#      x y z
#    x 3.426630 0.000000 0.007860 
#    y 0.000000 2.694700 0.000000 
#    z 0.007860 0.000000 3.256960 
# 
# 
# High freq. dielectric constant tensor:
#      x y z
#    x 1.686040 0.000000 0.002730 
#    y 0.000000 1.616530 0.000000 
#    z 0.002730 0.000000 1.659400 
# 
# From -- ./inp_files/28341.got.cif
#   From: 2010.06.25/outbox.cif.g09.slc.cpg/sg10_15_cif.got.tgz:28341.got - 2010.06.27 22:07:45.
