data_PCOD8057299
_publ_section_title
;
Structure prediction by ZEFSAII (Michael W. Deem and Ramdas Pophale) SiO2 
 PCOD8057299
Probable space group: P 2/M
;
_chemical_formula_sum "Si O2"
_cell_formula_units_Z 28
_cell_length_a 13.979990
_cell_length_b 12.639248
_cell_length_c 14.382751
_cell_angle_alpha 90.000000
_cell_angle_beta 134.664117
_cell_angle_gamma 90.000000
_cell_volume 1807.532614
_symmetry_space_group_name_H-M "P 2/M"
_symmetry_group_IT_number 10
_symmetry_cell_setting 'monoclinic'
loop_
_space_group_symop_operation_xyz
x,y,z
-x,y,-z
-x,-y,-z
x,-y,z
loop_
_atom_site_type_symbol
_atom_site_label
_atom_site_fract_x
_atom_site_fract_y
_atom_site_fract_z
Si Si1 0.101265 0.190056 0.653218
Si Si2 0.703149 0.000000 0.193971
Si Si3 0.034978 0.873544 0.805937
Si Si4 0.294399 0.378613 0.804768
Si Si5 0.289885 0.195718 0.090909
Si Si6 0.427377 0.379235 0.091588
Si Si7 0.414607 0.000000 0.086323
Si Si8 0.138503 0.117163 0.150291
O O1 0.166423 0.306279 0.695409
O O2 0.000000 0.178018 0.500000
O O3 0.016257 0.168448 0.688863
O O4 0.218501 0.104599 0.722871
O O5 0.565623 0.000000 0.154886
O O6 0.684994 0.000000 0.070339
O O7 0.898819 0.843875 0.770730
O O8 0.059500 0.000000 0.827130
O O9 0.160754 0.812730 0.936383
O O10 0.246030 0.500000 0.768256
O O11 0.413153 0.359507 0.811019
O O12 0.352605 0.349602 0.945208
O O13 0.366694 0.306389 0.130973
O O14 0.245335 0.190855 0.169105
O O15 0.392085 0.102371 0.134352
O O16 0.399338 0.500000 0.100355
O O17 0.202043 0.000000 0.196763
O O18 0.000000 0.112908 0.000000
#
# Coordination Sequence:
#
# PCOD8057299 Si02
#       8
#     4   2   4   4   4   4   2   4
#     4  12  21  31  46  65  93 128 155 179 223 266
#     4  11  21  30  39  69  99 118 140 185 231 283
#     4  10  17  29  42  64  94 125 154 180 213 266
#     4   9  18  33  46  65  90 119 157 187 219 268
#     4  11  14  26  45  69  93 112 147 184 224 274
#     4   9  17  28  48  68  92 121 141 182 239 277
#     4  11  18  26  48  68  91 118 143 184 239 260
#     4   8  15  24  41  63  91 119 150 181 215 262
#
# _framework density 15.490731
#
# number of rings (size 3 to 8) (size 9 to 14) (size 15 to 20)
#    0.000    2.000    5.000    2.786    0.000    2.571 
#    0.000    0.000    0.000    4.714    0.000    5.000 
#    0.000    2.286    0.000    0.000    0.000    0.000 
#
# Total GULP energy -347098.053553 kJ/mol
# GULP energy per Si atom -12396.359055 kJ/mol
# Density = 1.545547 g / cm^3
# Si number density = 15.490731 Si / 1000 Ang^3
#
#
#
# Elastic Constant Matrix: (Units=GPa)
#
#
# Indices 1 2 3 4 5 6 
#
# 1 131.6751 53.3988 29.7143 0.0000 -8.3928 0.0000
# 2 53.3988 86.7501 20.5070 0.0000 2.8417 0.0000
# 3 29.7143 20.5070 52.7387 0.0000 -3.5272 0.0000
# 4 0.0000 0.0000 0.0000 -3.0115 0.0000 -3.5264
# 5 -8.3928 2.8417 -3.5272 0.0000 13.5817 0.0000
# 6 0.0000 0.0000 0.0000 -3.5264 0.0000 23.7058
#
#
#
# Elastic Compliance Matrix: (Units=1/GPa)
#
#
# Indices 1 2 3 4 5 6 
#
# 1 0.011493 -0.006510 -0.003438 0.000000 0.007571 0.000000
# 2 -0.006510 0.016599 -0.003346 0.000000 -0.008365 0.000000
# 3 -0.003438 -0.003346 0.022495 0.000000 0.004418 0.000000
# 4 0.000000 0.000000 0.000000 -0.282797 0.000000 -0.042068
# 5 0.007571 -0.008365 0.004418 0.000000 0.081205 0.000000
# 6 0.000000 0.000000 0.000000 -0.042068 0.000000 0.035926
#
#
# Mechanical properties :
#
#
# Convention : Reuss Voigt Hill
#
# Bulk Modulus (GPa) = 41.66705 53.15602 47.41154
# Shear Modulus (GPa) = -62.11818 18.02476 -22.04671
#
# Velocity S-wave (km/s) = -6.33934 3.41483 -3.77665
# Velocity P-wave (km/s) = 5.16010 7.06664 3.41400
#
# Compressibility (1/GPa) = 0.02399978
#
# Stress axis : x y z
#
# Youngs Moduli (GPa) = 87.01187 60.24305 44.45447
#
# Poissons Ratio (x) = 0.39216 0.15282
# Poissons Ratio (y) = 0.56642 0.14876
# Poissons Ratio (z) = 0.29912 0.20159
#
# Static dielectric constant tensor:
#      x y z
#    x 3.277860 0.000000 -0.066970 
#    y 0.000000 2.894550 0.000000 
#    z -0.066970 0.000000 2.503490 
# 
# 
# High freq. dielectric constant tensor:
#      x y z
#    x 1.606450 0.000000 0.003320 
#    y 0.000000 1.586710 0.000000 
#    z 0.003320 0.000000 1.537430 
# 
# From -- ./inp_files/67154.got.cif
#   From: 2010.06.25/outbox.cif.g09.slc.cpg/sg10_34_cif.got.tgz:67154.got - 2010.06.27 22:07:45.
