data_PCOD8057960
_publ_section_title
;
Structure prediction by ZEFSAII (Michael W. Deem and Ramdas Pophale) SiO2 
 PCOD8057960
Probable space group: P 2/M
;
_chemical_formula_sum "Si O2"
_cell_formula_units_Z 32
_cell_length_a 17.317476
_cell_length_b 13.570663
_cell_length_c 14.427426
_cell_angle_alpha 90.000000
_cell_angle_beta 31.805453
_cell_angle_gamma 90.000000
_cell_volume 1786.962164
_symmetry_space_group_name_H-M "P 2/M"
_symmetry_group_IT_number 10
_symmetry_cell_setting 'monoclinic'
loop_
_space_group_symop_operation_xyz
x,y,z
-x,y,-z
-x,-y,-z
x,-y,z
loop_
_atom_site_type_symbol
_atom_site_label
_atom_site_fract_x
_atom_site_fract_y
_atom_site_fract_z
Si Si1 0.027140 0.650970 0.772010
Si Si2 0.258694 0.605842 0.020193
Si Si3 0.418662 0.111118 0.679578
Si Si4 0.480995 0.704253 0.326001
Si Si5 0.124648 0.217151 0.943847
Si Si6 0.280167 0.616583 0.385581
Si Si7 0.749490 0.609757 0.302975
Si Si8 0.160111 0.615399 0.313892
O O1 0.134591 0.665824 0.575890
O O2 0.113989 0.599204 0.766767
O O3 0.895722 0.583391 0.871142
O O4 0.961743 0.755839 0.873470
O O5 0.336895 0.500000 0.957231
O O6 0.230971 0.660843 0.147726
O O7 0.352004 0.668757 0.852048
O O8 0.500000 0.123729 0.500000
O O9 0.504944 0.179830 0.665474
O O10 0.246772 0.135522 0.840369
O O11 0.429940 0.000000 0.705764
O O12 0.413505 0.678523 0.293922
O O13 0.393943 0.649240 0.496603
O O14 0.207605 0.315482 0.822032
O O15 0.000000 0.177151 0.000000
O O16 0.290637 0.500000 0.400028
O O17 0.274440 0.633034 0.281131
O O18 0.716124 0.500000 0.297299
O O19 0.136857 0.500000 0.317985
O O20 0.000000 0.661702 0.500000
#
# Coordination Sequence:
#
# PCOD8057960 Si02
#       8
#     4   4   4   4   4   4   4   4
#     4  10  18  29  48  71 105 140 180 206 241 289
#     4  11  19  28  48  77 108 140 179 212 245 300
#     4  11  23  42  59  73  98 133 172 223 279 318
#     4  11  21  35  51  75 102 136 179 213 258 307
#     4  10  21  36  54  79 104 132 175 217 257 313
#     4  10  19  33  51  74 114 150 174 208 249 300
#     4  10  20  33  47  71 112 149 172 201 248 300
#     4   9  17  29  46  73 107 147 182 207 245 295
#
# _framework density 17.907485999999999
#
# number of rings (size 3 to 8) (size 9 to 14) (size 15 to 20)
#    0.000    1.750    3.750    3.000    0.000    4.000 
#    0.000    2.500    0.000    0.000    0.000    1.750 
#    0.000    2.000    0.000    0.000    0.000    0.000 
#
# Total GULP energy -396554.625278 kJ/mol
# GULP energy per Si atom -12392.332040 kJ/mol
# Density = 1.786673 g / cm^3
# Si number density = 17.907486 Si / 1000 Ang^3
#
#
#
# Elastic Constant Matrix: (Units=GPa)
#
#
# Indices 1 2 3 4 5 6 
#
# 1 79.1884 38.5355 26.1800 0.0000 -1.1462 0.0000
# 2 38.5355 88.9749 32.1316 0.0000 -1.5127 0.0000
# 3 26.1800 32.1316 83.0637 0.0000 -1.6908 0.0000
# 4 0.0000 0.0000 0.0000 14.9516 0.0000 -3.5514
# 5 -1.1462 -1.5127 -1.6908 0.0000 24.6510 0.0000
# 6 0.0000 0.0000 0.0000 -3.5514 0.0000 15.3540
#
#
#
# Elastic Compliance Matrix: (Units=1/GPa)
#
#
# Indices 1 2 3 4 5 6 
#
# 1 0.016559 -0.006143 -0.002839 0.000000 0.000198 0.000000
# 2 -0.006143 0.015348 -0.003993 0.000000 0.000382 0.000000
# 3 -0.002839 -0.003993 0.014491 0.000000 0.000617 0.000000
# 4 0.000000 0.000000 0.000000 0.070771 0.000000 0.016370
# 5 0.000198 0.000382 0.000617 0.000000 0.040641 0.000000
# 6 0.000000 0.000000 0.000000 0.016370 0.000000 0.068916
#
#
# Mechanical properties :
#
#
# Convention : Reuss Voigt Hill
#
# Bulk Modulus (GPa) = 48.90447 49.43567 49.17007
# Shear Modulus (GPa) = 19.26840 21.28332 20.27586
#
# Velocity S-wave (km/s) = 3.28380 3.45123 3.36855
# Velocity P-wave (km/s) = 6.46116 6.59904 6.53046
#
# Compressibility (1/GPa) = 0.02044803
#
# Stress axis : x y z
#
# Youngs Moduli (GPa) = 60.39028 65.15342 69.00897
#
# Poissons Ratio (x) = 0.40026 0.19589
# Poissons Ratio (y) = 0.37100 0.27557
# Poissons Ratio (z) = 0.17142 0.26017
#
# Static dielectric constant tensor:
#      x y z
#    x 3.346690 0.000000 -0.050740 
#    y 0.000000 2.907530 0.000000 
#    z -0.050740 0.000000 3.519510 
# 
# 
# High freq. dielectric constant tensor:
#      x y z
#    x 1.695050 0.000000 -0.008770 
#    y 0.000000 1.626720 0.000000 
#    z -0.008770 0.000000 1.707750 
# 
# From -- ./inp_files/38310.got.cif
#   From: 2010.06.25/outbox.cif.g09.slc.cpg/sg10_20_cif.got.tgz:38310.got - 2010.06.27 22:07:45.
