data_PCOD8057594
_publ_section_title
;
Structure prediction by ZEFSAII (Michael W. Deem and Ramdas Pophale) SiO2 
 PCOD8057594
Probable space group: P 2/M
;
_chemical_formula_sum "Si O2"
_cell_formula_units_Z 32
_cell_length_a 35.225888
_cell_length_b 9.009832
_cell_length_c 23.932049
_cell_angle_alpha 90.000000
_cell_angle_beta 164.323468
_cell_angle_gamma 90.000000
_cell_volume 2052.360713
_symmetry_space_group_name_H-M "P 2/M"
_symmetry_group_IT_number 10
_symmetry_cell_setting 'monoclinic'
loop_
_space_group_symop_operation_xyz
x,y,z
-x,y,-z
-x,-y,-z
x,-y,z
loop_
_atom_site_type_symbol
_atom_site_label
_atom_site_fract_x
_atom_site_fract_y
_atom_site_fract_z
Si Si1 0.320225 0.175450 0.488634
Si Si2 0.109406 0.325208 0.275642
Si Si3 0.869524 0.324544 0.350757
Si Si4 0.808207 0.829517 0.498370
Si Si5 0.435834 0.326383 0.116190
Si Si6 0.103792 0.836001 0.095117
Si Si7 0.801819 0.170689 0.365545
Si Si8 0.502993 0.832194 0.103211
O O1 0.230968 0.245203 0.412851
O O2 0.478763 0.240671 0.713987
O O3 0.253501 0.215697 0.333408
O O4 0.321000 0.000000 0.499272
O O5 0.128068 0.500000 0.296605
O O6 0.116979 0.276388 0.350908
O O7 0.954923 0.279073 0.033746
O O8 0.873778 0.500000 0.361346
O O9 0.879906 0.263825 0.428396
O O10 0.000000 0.262430 0.500000
O O11 0.726358 0.272876 0.116728
O O12 0.858830 0.783845 0.507748
O O13 0.639960 0.809356 0.259782
O O14 0.848134 0.000000 0.568176
O O15 0.447482 0.500000 0.143925
O O16 0.511285 0.284944 0.165215
O O17 0.116372 0.000000 0.085570
O O18 0.000000 0.844660 0.000000
O O19 0.835264 0.000000 0.400736
O O20 0.634602 0.200114 0.128508
O O21 0.497693 0.000000 0.120344
#
# Coordination Sequence:
#
# PCOD8057594 Si02
#       8
#     4   4   4   4   4   4   4   4
#     4  10  18  29  43  59  83 115 148 182 219 258
#     4  11  20  27  39  60  86 116 151 184 213 247
#     4   9  19  35  50  64  88 118 142 174 226 273
#     4  10  18  28  42  59  87 120 147 178 215 256
#     4  10  18  27  43  66  87 111 147 184 215 255
#     4   8  16  29  42  55  77 113 151 180 214 256
#     4   9  18  30  45  66  84 108 149 186 215 251
#     4   9  16  27  42  58  83 116 145 175 214 255
#
# _framework density 15.591801
#
# number of rings (size 3 to 8) (size 9 to 14) (size 15 to 20)
#    0.000    2.500    1.250    3.000    0.000    5.500 
#    0.000    0.000    0.000    3.750    0.000    0.000 
#    0.000    1.000    0.000   11.250    0.000    5.000 
#
# Total GULP energy -396638.707138 kJ/mol
# GULP energy per Si atom -12394.959598 kJ/mol
# Density = 1.555631 g / cm^3
# Si number density = 15.591801 Si / 1000 Ang^3
#
#
#
# Elastic Constant Matrix: (Units=GPa)
#
#
# Indices 1 2 3 4 5 6 
#
# 1 72.4976 32.4803 49.4039 0.0000 -7.5180 0.0000
# 2 32.4803 67.8763 40.9734 0.0000 -9.0071 0.0000
# 3 49.4039 40.9734 84.2725 0.0000 -14.2766 0.0000
# 4 0.0000 0.0000 0.0000 16.7602 0.0000 0.0785
# 5 -7.5180 -9.0071 -14.2766 0.0000 21.5027 0.0000
# 6 0.0000 0.0000 0.0000 0.0785 0.0000 14.0537
#
#
#
# Elastic Compliance Matrix: (Units=1/GPa)
#
#
# Indices 1 2 3 4 5 6 
#
# 1 0.023830 -0.004270 -0.012152 0.000000 -0.001525 0.000000
# 2 -0.004270 0.021716 -0.007625 0.000000 0.002541 0.000000
# 3 -0.012152 -0.007625 0.024153 0.000000 0.008594 0.000000
# 4 0.000000 0.000000 0.000000 0.059667 0.000000 -0.000333
# 5 -0.001525 0.002541 0.008594 0.000000 0.052743 0.000000
# 6 0.000000 0.000000 0.000000 -0.000333 0.000000 0.071157
#
#
# Mechanical properties :
#
#
# Convention : Reuss Voigt Hill
#
# Bulk Modulus (GPa) = 46.28477 52.26241 49.27359
# Shear Modulus (GPa) = 16.20428 17.24924 16.72676
#
# Velocity S-wave (km/s) = 3.22729 3.32972 3.27890
# Velocity P-wave (km/s) = 6.60583 6.95519 6.78276
#
# Compressibility (1/GPa) = 0.02160538
#
# Stress axis : x y z
#
# Youngs Moduli (GPa) = 41.96476 46.04986 41.40201
#
# Poissons Ratio (x) = 0.19662 0.50313
# Poissons Ratio (y) = 0.17918 0.31567
# Poissons Ratio (z) = 0.50997 0.35111
#
# Static dielectric constant tensor:
#      x y z
#    x 2.728960 0.000000 -0.304820 
#    y 0.000000 2.952640 0.000000 
#    z -0.304820 0.000000 3.268020 
# 
# 
# High freq. dielectric constant tensor:
#      x y z
#    x 1.554090 0.000000 -0.031860 
#    y 0.000000 1.599550 0.000000 
#    z -0.031860 0.000000 1.586990 
# 
# From -- ./inp_files/87220.got.cif
#   From: 2010.06.25/outbox.cif.g09.slc.cpg/sg10_44_cif.got.tgz:87220.got - 2010.06.27 22:07:45.
