data_PCOD8057464
_publ_section_title
;
Structure prediction by ZEFSAII (Michael W. Deem and Ramdas Pophale) SiO2 
 PCOD8057464
Probable space group: P 2/M
;
_chemical_formula_sum "Si O2"
_cell_formula_units_Z 28
_cell_length_a 15.719993
_cell_length_b 18.030255
_cell_length_c 9.129707
_cell_angle_alpha 90.000000
_cell_angle_beta 142.498424
_cell_angle_gamma 90.000000
_cell_volume 1575.338013
_symmetry_space_group_name_H-M "P 2/M"
_symmetry_group_IT_number 10
_symmetry_cell_setting 'monoclinic'
loop_
_space_group_symop_operation_xyz
x,y,z
-x,y,-z
-x,-y,-z
x,-y,z
loop_
_atom_site_type_symbol
_atom_site_label
_atom_site_fract_x
_atom_site_fract_y
_atom_site_fract_z
Si Si1 0.160552 0.585448 0.232663
Si Si2 0.351783 0.000000 0.221717
Si Si3 0.624277 0.709615 0.966721
Si Si4 0.697209 0.290615 0.394511
Si Si5 0.351789 0.160952 0.219359
Si Si6 0.836849 0.000000 0.763703
Si Si7 0.354794 0.585294 0.228191
Si Si8 0.164827 0.839478 0.245491
O O1 0.178445 0.500000 0.303688
O O2 0.233143 0.633290 0.457403
O O3 0.230463 0.600860 0.171467
O O4 0.000000 0.608740 0.000000
O O5 0.500000 0.000000 0.500000
O O6 0.342556 0.079424 0.125734
O O7 0.224334 0.000000 0.158422
O O8 0.704062 0.710754 0.229105
O O9 0.458967 0.713328 0.759686
O O10 0.675178 0.779694 0.943185
O O11 0.669923 0.634093 0.949125
O O12 0.782388 0.220327 0.567648
O O13 0.500000 0.173441 0.500000
O O14 0.233771 0.171833 0.180911
O O15 0.792902 0.078618 0.629547
O O16 0.000000 0.000000 0.000000
O O17 0.500000 0.609664 0.500000
O O18 0.359954 0.500000 0.185136
O O19 0.000000 0.830864 0.000000
#
# Coordination Sequence:
#
# PCOD8057464 Si02
#       8
#     4   2   4   4   4   2   4   4
#     4  10  21  38  59  81 105 134 171 216 261 305
#     4   8  16  26  49  77  97 127 176 220 253 292
#     4  11  22  34  52  78 111 140 171 213 260 304
#     4  11  22  35  51  79 110 140 172 211 261 311
#     4  10  17  33  54  75 102 138 177 216 254 304
#     4   8  16  30  51  77 101 129 170 219 259 298
#     4  10  19  35  58  80 100 133 181 215 248 304
#     4  10  19  34  56  79 103 135 177 218 258 306
#
# _framework density 17.773962999999998
#
# number of rings (size 3 to 8) (size 9 to 14) (size 15 to 20)
#    0.000    2.000    2.857    1.714    0.000    0.571 
#    0.000    5.000    0.000    4.286    0.000    6.000 
#    0.000    0.000    0.000    0.000    0.000    0.000 
#
# Total GULP energy -347042.283776 kJ/mol
# GULP energy per Si atom -12394.367278 kJ/mol
# Density = 1.773351 g / cm^3
# Si number density = 17.773963 Si / 1000 Ang^3
#
#
#
# Elastic Constant Matrix: (Units=GPa)
#
#
# Indices 1 2 3 4 5 6 
#
# 1 109.5873 52.6353 55.5874 0.0000 3.3990 0.0000
# 2 52.6353 148.4677 62.8935 0.0000 -25.0825 0.0000
# 3 55.5874 62.8935 84.7538 0.0000 -7.3812 0.0000
# 4 0.0000 0.0000 0.0000 11.6678 0.0000 7.7292
# 5 3.3990 -25.0825 -7.3812 0.0000 32.0481 0.0000
# 6 0.0000 0.0000 0.0000 7.7292 0.0000 20.7835
#
#
#
# Elastic Compliance Matrix: (Units=1/GPa)
#
#
# Indices 1 2 3 4 5 6 
#
# 1 0.014724 -0.002718 -0.008125 0.000000 -0.005560 0.000000
# 2 -0.002718 0.011668 -0.006179 0.000000 0.007997 0.000000
# 3 -0.008125 -0.006179 0.021804 0.000000 0.001047 0.000000
# 4 0.000000 0.000000 0.000000 0.113722 0.000000 -0.042292
# 5 -0.005560 0.007997 0.001047 0.000000 0.038293 0.000000
# 6 0.000000 0.000000 0.000000 -0.042292 0.000000 0.063843
#
#
# Mechanical properties :
#
#
# Convention : Reuss Voigt Hill
#
# Bulk Modulus (GPa) = 70.65741 76.11570 73.38656
# Shear Modulus (GPa) = 16.51179 24.34606 20.42893
#
# Velocity S-wave (km/s) = 3.05124 3.70504 3.39392
# Velocity P-wave (km/s) = 7.22862 7.82434 7.53238
#
# Compressibility (1/GPa) = 0.01415280
#
# Stress axis : x y z
#
# Youngs Moduli (GPa) = 67.91635 85.70742 45.86248
#
# Poissons Ratio (x) = 0.23292 0.37261
# Poissons Ratio (y) = 0.18457 0.28340
# Poissons Ratio (z) = 0.55179 0.52962
#
# Static dielectric constant tensor:
#      x y z
#    x 3.376880 0.000000 0.230630 
#    y 0.000000 3.818320 0.000000 
#    z 0.230630 0.000000 3.008460 
# 
# 
# High freq. dielectric constant tensor:
#      x y z
#    x 1.689870 0.000000 0.026730 
#    y 0.000000 1.716630 0.000000 
#    z 0.026730 0.000000 1.649810 
# 
# From -- ./inp_files/30218.got.cif
#   From: 2010.06.25/outbox.cif.g09.slc.cpg/sg10_16_cif.got.tgz:30218.got - 2010.06.27 22:07:45.
