data_PCOD8057776
_publ_section_title
;
Structure prediction by ZEFSAII (Michael W. Deem and Ramdas Pophale) SiO2 
 PCOD8057776
Probable space group: P 2/M
;
_chemical_formula_sum "Si O2"
_cell_formula_units_Z 32
_cell_length_a 15.742699
_cell_length_b 9.005746
_cell_length_c 27.678966
_cell_angle_alpha 90.000000
_cell_angle_beta 27.887670
_cell_angle_gamma 90.000000
_cell_volume 1835.493726
_symmetry_space_group_name_H-M "P 2/M"
_symmetry_group_IT_number 10
_symmetry_cell_setting 'monoclinic'
loop_
_space_group_symop_operation_xyz
x,y,z
-x,y,-z
-x,-y,-z
x,-y,z
loop_
_atom_site_type_symbol
_atom_site_label
_atom_site_fract_x
_atom_site_fract_y
_atom_site_fract_z
Si Si1 0.200099 0.826444 0.342170
Si Si2 0.789735 0.172669 0.551683
Si Si3 0.202148 0.670904 0.078384
Si Si4 0.799491 0.823871 0.820421
Si Si5 0.169163 0.674512 0.631054
Si Si6 0.443881 0.674452 0.409418
Si Si7 0.578977 0.328311 0.850089
Si Si8 0.802452 0.674003 0.274505
O O1 0.247227 0.791919 0.373840
O O2 0.339990 0.733266 0.240145
O O3 0.993314 0.775567 0.434910
O O4 0.222770 0.000000 0.319171
O O5 0.637327 0.255164 0.597792
O O6 0.771415 0.000000 0.550610
O O7 0.190588 0.500000 0.101942
O O8 0.244491 0.770220 0.103603
O O9 0.005965 0.717050 0.154280
O O10 0.359475 0.691307 0.959403
O O11 0.645515 0.763196 0.862576
O O12 0.990397 0.762712 0.704674
O O13 0.799446 0.000000 0.818891
O O14 0.125152 0.500000 0.652440
O O15 0.327155 0.717685 0.514952
O O16 0.225719 0.728575 0.656198
O O17 0.444839 0.500000 0.400205
O O18 0.646703 0.740564 0.317598
O O19 0.633680 0.500000 0.828258
O O20 0.769848 0.500000 0.290105
#
# Coordination Sequence:
#
# PCOD8057776 Si02
#       8
#     4   4   4   4   4   4   4   4
#     4   9  19  36  54  71  95 127 157 188 233 288
#     4   9  19  35  52  71  98 128 154 186 236 290
#     4   9  19  35  51  67  94 130 163 198 238 276
#     4  11  21  31  46  70 100 132 163 194 231 280
#     4   9  17  30  47  69  99 131 161 196 236 277
#     4  10  18  28  49  76  96 122 162 200 235 280
#     4  11  21  32  50  74  96 122 159 200 241 282
#     4   8  15  30  49  68  94 128 163 197 234 276
#
# _framework density 17.434000999999999
#
# number of rings (size 3 to 8) (size 9 to 14) (size 15 to 20)
#    0.000    2.500    0.000    4.500    0.000    7.500 
#    0.000    3.750    0.000    4.500    0.000    5.250 
#    0.000    0.000    0.000    0.000    0.000    0.000 
#
# Total GULP energy -396698.791288 kJ/mol
# GULP energy per Si atom -12396.837228 kJ/mol
# Density = 1.739432 g / cm^3
# Si number density = 17.434001 Si / 1000 Ang^3
#
#
#
# Elastic Constant Matrix: (Units=GPa)
#
#
# Indices 1 2 3 4 5 6 
#
# 1 100.8998 34.0277 61.8429 0.0000 -20.0185 0.0000
# 2 34.0277 65.6223 48.1251 0.0000 -2.0207 0.0000
# 3 61.8429 48.1251 129.6464 0.0000 -10.1739 0.0000
# 4 0.0000 0.0000 0.0000 10.5148 0.0000 13.7420
# 5 -20.0185 -2.0207 -10.1739 0.0000 23.1261 0.0000
# 6 0.0000 0.0000 0.0000 13.7420 0.0000 15.5090
#
#
#
# Elastic Compliance Matrix: (Units=1/GPa)
#
#
# Indices 1 2 3 4 5 6 
#
# 1 0.017259 -0.004445 -0.005635 0.000000 0.012072 0.000000
# 2 -0.004445 0.022144 -0.006473 0.000000 -0.004761 0.000000
# 3 -0.005635 -0.006473 0.012820 0.000000 0.000196 0.000000
# 4 0.000000 0.000000 0.000000 -0.601840 0.000000 0.533271
# 5 0.012072 -0.004761 0.000196 0.000000 0.053361 0.000000
# 6 0.000000 0.000000 0.000000 0.533271 0.000000 -0.408036
#
#
# Mechanical properties :
#
#
# Convention : Reuss Voigt Hill
#
# Bulk Modulus (GPa) = 52.31294 64.90666 58.60980
# Shear Modulus (GPa) = -5.78161 19.97484 7.09662
#
# Velocity S-wave (km/s) = -1.82304 3.38855 2.01975
# Velocity P-wave (km/s) = 5.06361 7.25400 6.25542
#
# Compressibility (1/GPa) = 0.01911573
#
# Stress axis : x y z
#
# Youngs Moduli (GPa) = 57.94076 45.15839 78.00455
#
# Poissons Ratio (x) = 0.20072 0.43959
# Poissons Ratio (y) = 0.25754 0.50495
# Poissons Ratio (z) = 0.32652 0.29232
#
# Static dielectric constant tensor:
#      x y z
#    x 3.208140 0.000000 -0.220730 
#    y 0.000000 3.071560 0.000000 
#    z -0.220730 0.000000 3.373820 
# 
# 
# High freq. dielectric constant tensor:
#      x y z
#    x 1.657350 0.000000 -0.012050 
#    y 0.000000 1.658230 0.000000 
#    z -0.012050 0.000000 1.674020 
# 
# From -- ./inp_files/66535.got.cif
#   From: 2010.06.25/outbox.cif.g09.slc.cpg/sg10_34_cif.got.tgz:66535.got - 2010.06.27 22:07:45.
