data_PCOD8057787
_publ_section_title
;
Structure prediction by ZEFSAII (Michael W. Deem and Ramdas Pophale) SiO2 
 PCOD8057787
Probable space group: P 2/M
;
_chemical_formula_sum "Si O2"
_cell_formula_units_Z 32
_cell_length_a 17.139805
_cell_length_b 9.206190
_cell_length_c 13.754577
_cell_angle_alpha 90.000000
_cell_angle_beta 77.733920
_cell_angle_gamma 90.000000
_cell_volume 2120.820196
_symmetry_space_group_name_H-M "P 2/M"
_symmetry_group_IT_number 10
_symmetry_cell_setting 'monoclinic'
loop_
_space_group_symop_operation_xyz
x,y,z
-x,y,-z
-x,-y,-z
x,-y,z
loop_
_atom_site_type_symbol
_atom_site_label
_atom_site_fract_x
_atom_site_fract_y
_atom_site_fract_z
Si Si1 0.347585 0.832478 0.423838
Si Si2 0.653232 0.165883 0.351246
Si Si3 0.173214 0.833105 0.734494
Si Si4 0.909002 0.327639 0.413053
Si Si5 0.949945 0.832228 0.713478
Si Si6 0.498863 0.663872 0.615966
Si Si7 0.177857 0.833428 0.397973
Si Si8 0.022236 0.831376 0.891239
O O1 0.328344 0.793712 0.541195
O O2 0.422574 0.742167 0.363118
O O3 0.271183 0.790898 0.377721
O O4 0.370441 0.000000 0.406943
O O5 0.733404 0.194490 0.266558
O O6 0.582268 0.261515 0.324524
O O7 0.625187 0.000000 0.351386
O O8 0.149749 0.723170 0.656350
O O9 0.116033 0.803296 0.842436
O O10 0.162282 0.000000 0.701556
O O11 0.916575 0.500000 0.411640
O O12 0.873120 0.274774 0.523524
O O13 0.996051 0.258045 0.375845
O O14 0.857670 0.817394 0.702660
O O15 0.965295 0.771505 0.818925
O O16 0.978132 0.000000 0.702184
O O17 0.500000 0.675557 0.500000
O O18 0.499405 0.500000 0.653583
O O19 0.168029 0.000000 0.437406
O O20 0.003687 0.000000 0.906971
O O21 0.000000 0.754202 0.000000
#
# Coordination Sequence:
#
# PCOD8057787 Si02
#       8
#     4   4   4   4   4   4   4   4
#     4   9  16  26  39  53  73 104 140 169 194 230
#     4   9  15  25  40  55  74 103 139 170 194 229
#     4   9  16  28  44  61  81 109 142 170 201 244
#     4  11  20  27  38  57  83 109 136 172 208 236
#     4   9  18  30  44  58  77 107 140 169 201 244
#     4   9  17  26  36  53  78 105 133 164 200 237
#     4  10  18  29  42  56  77 109 144 171 196 236
#     4   8  14  26  45  66  84 102 130 170 210 245
#
# _framework density 15.088502999999999
#
# number of rings (size 3 to 8) (size 9 to 14) (size 15 to 20)
#    0.000    2.750    1.250    2.625    0.000    4.500 
#    0.000    0.000    0.000    6.000    0.000    0.000 
#    0.000    1.000    0.000   12.750    0.000    1.250 
#
# Total GULP energy -396559.377498 kJ/mol
# GULP energy per Si atom -12392.480547 kJ/mol
# Density = 1.505416 g / cm^3
# Si number density = 15.088503 Si / 1000 Ang^3
#
#
#
# Elastic Constant Matrix: (Units=GPa)
#
#
# Indices 1 2 3 4 5 6 
#
# 1 141.3449 46.6273 48.9973 0.0000 5.3884 0.0000
# 2 46.6273 66.1154 22.7192 0.0000 2.8739 0.0000
# 3 48.9973 22.7192 55.2237 0.0000 -1.1086 0.0000
# 4 0.0000 0.0000 0.0000 4.0348 0.0000 1.0038
# 5 5.3884 2.8739 -1.1086 0.0000 12.7750 0.0000
# 6 0.0000 0.0000 0.0000 1.0038 0.0000 8.5188
#
#
#
# Elastic Compliance Matrix: (Units=1/GPa)
#
#
# Indices 1 2 3 4 5 6 
#
# 1 0.011950 -0.005303 -0.008513 0.000000 -0.004586 0.000000
# 2 -0.005303 0.020243 -0.003676 0.000000 -0.002636 0.000000
# 3 -0.008513 -0.003676 0.027310 0.000000 0.006788 0.000000
# 4 0.000000 0.000000 0.000000 0.255328 0.000000 -0.030087
# 5 -0.004586 -0.002636 0.006788 0.000000 0.081394 0.000000
# 6 0.000000 0.000000 0.000000 -0.030087 0.000000 0.120933
#
#
# Mechanical properties :
#
#
# Convention : Reuss Voigt Hill
#
# Bulk Modulus (GPa) = 40.78472 55.48571 48.13522
# Shear Modulus (GPa) = 8.92356 14.68841 11.80599
#
# Velocity S-wave (km/s) = 2.43454 3.12345 2.80026
# Velocity P-wave (km/s) = 5.91537 7.06125 6.51356
#
# Compressibility (1/GPa) = 0.02451898
#
# Stress axis : x y z
#
# Youngs Moduli (GPa) = 83.68037 49.40064 36.61660
#
# Poissons Ratio (x) = 0.26197 0.31173
# Poissons Ratio (y) = 0.44376 0.13459
# Poissons Ratio (z) = 0.71239 0.18158
#
# Static dielectric constant tensor:
#      x y z
#    x 3.062920 0.000000 0.037520 
#    y 0.000000 2.787480 0.000000 
#    z 0.037520 0.000000 2.655780 
# 
# 
# High freq. dielectric constant tensor:
#      x y z
#    x 1.585150 0.000000 0.004970 
#    y 0.000000 1.565880 0.000000 
#    z 0.004970 0.000000 1.516000 
# 
# From -- ./inp_files/52743.got.cif
#   From: 2010.06.25/outbox.cif.g09.slc.cpg/sg10_27_cif.got.tgz:52743.got - 2010.06.27 22:07:45.
