data_PCOD8057388
_publ_section_title
;
Structure prediction by ZEFSAII (Michael W. Deem and Ramdas Pophale) SiO2 
 PCOD8057388
Probable space group: P 2/M
;
_chemical_formula_sum "Si O2"
_cell_formula_units_Z 32
_cell_length_a 14.267399
_cell_length_b 8.413859
_cell_length_c 24.122190
_cell_angle_alpha 90.000000
_cell_angle_beta 147.045085
_cell_angle_gamma 90.000000
_cell_volume 1575.211416
_symmetry_space_group_name_H-M "P 2/M"
_symmetry_group_IT_number 10
_symmetry_cell_setting 'monoclinic'
loop_
_space_group_symop_operation_xyz
x,y,z
-x,y,-z
-x,-y,-z
x,-y,z
loop_
_atom_site_type_symbol
_atom_site_label
_atom_site_fract_x
_atom_site_fract_y
_atom_site_fract_z
Si Si1 0.702266 0.310784 0.486453
Si Si2 0.189810 0.685270 0.342288
Si Si3 0.333896 0.185425 0.798040
Si Si4 0.307144 0.685652 0.013332
Si Si5 0.021931 0.687422 0.574445
Si Si6 0.817096 0.184784 0.159407
Si Si7 0.005905 0.689234 0.065163
Si Si8 0.322561 0.689353 0.293182
O O1 0.710527 0.500000 0.492365
O O2 0.734119 0.238658 0.563671
O O3 0.514757 0.254868 0.371272
O O4 0.851402 0.246422 0.520362
O O5 0.228258 0.500000 0.362638
O O6 0.282635 0.759395 0.334539
O O7 0.987249 0.711678 0.237123
O O8 0.507199 0.279614 0.867344
O O9 0.188519 0.226439 0.681283
O O10 0.277191 0.239809 0.831334
O O11 0.373961 0.000000 0.816089
O O12 0.282328 0.500000 0.989600
O O13 0.302311 0.780134 0.952798
O O14 0.158705 0.748647 0.981292
O O15 0.044900 0.500000 0.594261
O O16 0.000000 0.734547 0.500000
O O17 0.865019 0.000000 0.186282
O O18 0.006324 0.500000 0.063580
O O19 0.181562 0.755737 0.180097
O O20 0.000000 0.758961 0.000000
O O21 0.309336 0.500000 0.288068
#
# Coordination Sequence:
#
# PCOD8057388 Si02
#       8
#     4   4   4   4   4   4   4   4
#     4   9  17  29  51  81 112 140 173 229 284 326
#     4  10  17  30  54  81 106 139 184 228 281 337
#     4  11  24  40  58  82 114 155 192 230 285 345
#     4  11  22  37  60  89 115 146 187 236 286 335
#     4  10  21  37  58  86 114 145 191 240 281 326
#     4  11  22  36  56  82 114 151 188 229 285 345
#     4   9  18  32  52  82 115 144 178 225 279 331
#     4   9  16  28  49  80 111 138 175 223 277 332
#
# _framework density 20.314734999999999
#
# number of rings (size 3 to 8) (size 9 to 14) (size 15 to 20)
#    0.000    2.000    2.500    1.875    0.000    5.750 
#    0.000    3.750    0.000    3.750    0.000    0.000 
#    0.000    0.000    0.000    0.000    0.000    0.000 
#
# Total GULP energy -396806.747676 kJ/mol
# GULP energy per Si atom -12400.210865 kJ/mol
# Density = 2.026850 g / cm^3
# Si number density = 20.314735 Si / 1000 Ang^3
#
#
#
# Elastic Constant Matrix: (Units=GPa)
#
#
# Indices 1 2 3 4 5 6 
#
# 1 106.6299 11.0472 87.3360 0.0000 -9.6570 0.0000
# 2 11.0472 17.9140 6.6721 0.0000 -4.9508 0.0000
# 3 87.3360 6.6721 161.1049 0.0000 8.7364 0.0000
# 4 0.0000 0.0000 0.0000 14.6658 0.0000 -3.2928
# 5 -9.6570 -4.9508 8.7364 0.0000 41.3584 0.0000
# 6 0.0000 0.0000 0.0000 -3.2928 0.0000 9.2083
#
#
#
# Elastic Compliance Matrix: (Units=1/GPa)
#
#
# Indices 1 2 3 4 5 6 
#
# 1 0.019086 -0.006262 -0.010408 0.000000 0.005906 0.000000
# 2 -0.006262 0.061061 0.000555 0.000000 0.005730 0.000000
# 3 -0.010408 0.000555 0.012093 0.000000 -0.004918 0.000000
# 4 0.000000 0.000000 0.000000 0.074138 0.000000 0.026511
# 5 0.005906 0.005730 -0.004918 0.000000 0.027283 0.000000
# 6 0.000000 0.000000 0.000000 0.026511 0.000000 0.118077
#
#
# Mechanical properties :
#
#
# Convention : Reuss Voigt Hill
#
# Bulk Modulus (GPa) = 16.66362 55.08437 35.87400
# Shear Modulus (GPa) = 13.73738 25.08607 19.41173
#
# Velocity S-wave (km/s) = 2.60326 3.51788 3.09455
# Velocity P-wave (km/s) = 4.15409 6.60871 5.51958
#
# Compressibility (1/GPa) = 0.06001097
#
# Stress axis : x y z
#
# Youngs Moduli (GPa) = 52.39352 16.37718 82.69271
#
# Poissons Ratio (x) = 0.10255 0.86064
# Poissons Ratio (y) = 0.32807 -0.04589
# Poissons Ratio (z) = 0.54530 -0.00909
#
# Static dielectric constant tensor:
#      x y z
#    x 3.872930 0.000000 -0.005740 
#    y 0.000000 3.160000 0.000000 
#    z -0.005740 0.000000 3.823840 
# 
# 
# High freq. dielectric constant tensor:
#      x y z
#    x 1.796440 0.000000 0.006180 
#    y 0.000000 1.745010 0.000000 
#    z 0.006180 0.000000 1.806070 
# 
# From -- ./inp_files/66526.got.cif
#   From: 2010.06.25/outbox.cif.g09.slc.cpg/sg10_34_cif.got.tgz:66526.got - 2010.06.27 22:07:45.
