data_PCOD8057009
_publ_section_title
;
Structure prediction by ZEFSAII (Michael W. Deem and Ramdas Pophale) SiO2 
 PCOD8057009
Probable space group: P 2/M
;
_chemical_formula_sum "Si O2"
_cell_formula_units_Z 28
_cell_length_a 17.726868
_cell_length_b 9.188989
_cell_length_c 14.442274
_cell_angle_alpha 90.000000
_cell_angle_beta 50.822235
_cell_angle_gamma 90.000000
_cell_volume 1823.657675
_symmetry_space_group_name_H-M "P 2/M"
_symmetry_group_IT_number 10
_symmetry_cell_setting 'monoclinic'
loop_
_space_group_symop_operation_xyz
x,y,z
-x,y,-z
-x,-y,-z
x,-y,z
loop_
_atom_site_type_symbol
_atom_site_label
_atom_site_fract_x
_atom_site_fract_y
_atom_site_fract_z
Si Si1 0.216904 0.331857 0.304018
Si Si2 0.524058 0.172025 0.707158
Si Si3 0.287432 0.172364 0.559876
Si Si4 0.954864 0.835501 0.636462
Si Si5 0.593388 0.169390 0.367330
Si Si6 0.561956 0.329271 0.863186
Si Si7 0.129718 0.330632 0.572134
O O1 0.202940 0.500000 0.288509
O O2 0.151203 0.238507 0.284559
O O3 0.327354 0.279168 0.205692
O O4 0.186895 0.302979 0.432782
O O5 0.625331 0.211672 0.578220
O O6 0.431455 0.229799 0.716483
O O7 0.515601 0.250169 0.811438
O O8 0.517522 0.000000 0.727267
O O9 0.314589 0.227650 0.644005
O O10 0.190959 0.258751 0.607082
O O11 0.267134 0.000000 0.573103
O O12 0.000000 0.831732 0.500000
O O13 0.024197 0.745350 0.651516
O O14 0.944548 0.000000 0.681189
O O15 0.500000 0.203772 0.500000
O O16 0.609275 0.000000 0.344440
O O17 0.557522 0.500000 0.847015
O O18 0.500000 0.283138 0.000000
O O19 0.114636 0.500000 0.604187
#
# Coordination Sequence:
#
# PCOD8057009 Si02
#       7
#     4   4   4   4   4   4   4
#     4   9  17  29  41  54  77 109 140 171 207 243
#     4   9  16  27  43  59  79 107 141 178 210 240
#     4   9  15  24  40  60  83 110 139 168 202 246
#     4   9  17  27  40  58  78 103 136 170 205 247
#     4   7  12  23  38  57  79 106 136 166 204 247
#     4  10  20  32  44  59  82 113 146 177 210 246
#     4  10  17  25  39  59  84 111 138 167 201 244
#
# _framework density 15.353759
#
# number of rings (size 3 to 8) (size 9 to 14) (size 15 to 20)
#    0.000    3.000    1.429    2.571    0.000    3.143 
#    0.000    0.714    0.000    2.571    0.000    0.000 
#    0.000    1.143    0.000   13.143    0.000    4.000 
#
# Total GULP energy -346938.993034 kJ/mol
# GULP energy per Si atom -12390.678323 kJ/mol
# Density = 1.531881 g / cm^3
# Si number density = 15.353759 Si / 1000 Ang^3
#
#
#
# Elastic Constant Matrix: (Units=GPa)
#
#
# Indices 1 2 3 4 5 6 
#
# 1 172.0826 65.5635 44.6340 0.0000 -2.1460 0.0000
# 2 65.5635 64.7017 21.9667 0.0000 -1.0974 0.0000
# 3 44.6340 21.9667 44.6199 0.0000 1.2039 0.0000
# 4 0.0000 0.0000 0.0000 10.7808 0.0000 -6.6365
# 5 -2.1460 -1.0974 1.2039 0.0000 16.2257 0.0000
# 6 0.0000 0.0000 0.0000 -6.6365 0.0000 18.8072
#
#
#
# Elastic Compliance Matrix: (Units=1/GPa)
#
#
# Indices 1 2 3 4 5 6 
#
# 1 0.010878 -0.008757 -0.006606 0.000000 0.001337 0.000000
# 2 -0.008757 0.025668 -0.003900 0.000000 0.000867 0.000000
# 3 -0.006606 -0.003900 0.031032 0.000000 -0.003440 0.000000
# 4 0.000000 0.000000 0.000000 0.118498 0.000000 0.041814
# 5 0.001337 0.000867 -0.003440 0.000000 0.062121 0.000000
# 6 0.000000 0.000000 0.000000 0.041814 0.000000 0.067926
#
#
# Mechanical properties :
#
#
# Convention : Reuss Voigt Hill
#
# Bulk Modulus (GPa) = 34.42124 60.63698 47.52911
# Shear Modulus (GPa) = 13.72365 19.11206 16.41785
#
# Velocity S-wave (km/s) = 2.99294 3.53197 3.27357
# Velocity P-wave (km/s) = 5.86609 7.49747 6.73139
#
# Compressibility (1/GPa) = 0.02905183
#
# Stress axis : x y z
#
# Youngs Moduli (GPa) = 91.93064 38.95876 32.22432
#
# Poissons Ratio (x) = 0.34117 0.21288
# Poissons Ratio (y) = 0.80505 0.12568
# Poissons Ratio (z) = 0.60730 0.15194
#
# Static dielectric constant tensor:
#      x y z
#    x 3.301000 0.000000 -0.042520 
#    y 0.000000 2.834150 0.000000 
#    z -0.042520 0.000000 2.484680 
# 
# 
# High freq. dielectric constant tensor:
#      x y z
#    x 1.607660 0.000000 -0.008240 
#    y 0.000000 1.580300 0.000000 
#    z -0.008240 0.000000 1.519620 
# 
# From -- ./inp_files/54969.got.cif
#   From: 2010.06.25/outbox.cif.g09.slc.cpg/sg10_28_cif.got.tgz:54969.got - 2010.06.27 22:07:45.
