data_PCOD8057719
_publ_section_title
;
Structure prediction by ZEFSAII (Michael W. Deem and Ramdas Pophale) SiO2 
 PCOD8057719
Probable space group: P 2/M
;
_chemical_formula_sum "Si O2"
_cell_formula_units_Z 32
_cell_length_a 11.693402
_cell_length_b 8.975293
_cell_length_c 18.358678
_cell_angle_alpha 90.000000
_cell_angle_beta 90.680977
_cell_angle_gamma 90.000000
_cell_volume 1926.638547
_symmetry_space_group_name_H-M "P 2/M"
_symmetry_group_IT_number 10
_symmetry_cell_setting 'monoclinic'
loop_
_space_group_symop_operation_xyz
x,y,z
-x,y,-z
-x,-y,-z
x,-y,z
loop_
_atom_site_type_symbol
_atom_site_label
_atom_site_fract_x
_atom_site_fract_y
_atom_site_fract_z
Si Si1 0.636888 0.834076 0.428243
Si Si2 0.760608 0.323763 0.865838
Si Si3 0.766761 0.825009 0.133663
Si Si4 0.365782 0.671435 0.992852
Si Si5 0.617019 0.323180 0.728494
Si Si6 0.365676 0.168395 0.416076
Si Si7 0.373062 0.822692 0.727223
Si Si8 0.993610 0.675963 0.083823
O O1 0.675521 0.759029 0.505839
O O2 0.501236 0.837123 0.420039
O O3 0.678669 0.763237 0.351471
O O4 0.685831 0.000000 0.434519
O O5 0.752469 0.500000 0.867249
O O6 0.690898 0.262208 0.934628
O O7 0.704171 0.264363 0.791109
O O8 0.891991 0.271948 0.873358
O O9 0.719245 0.780378 0.212686
O O10 0.889568 0.751401 0.124702
O O11 0.780033 0.000000 0.125095
O O12 0.675939 0.767622 0.074853
O O13 0.328982 0.500000 0.980009
O O14 0.500000 0.688585 0.000000
O O15 0.605417 0.500000 0.727842
O O16 0.671556 0.270346 0.652033
O O17 0.493453 0.255140 0.745398
O O18 0.318187 0.000000 0.405188
O O19 0.395387 0.000000 0.723431
O O20 0.976024 0.500000 0.086713
O O21 0.000000 0.729230 0.000000
#
# Coordination Sequence:
#
# PCOD8057719 Si02
#       8
#     4   4   4   4   4   4   4   4
#     4   7  11  23  43  61  83 124 163 180 203 266
#     4   9  18  32  48  68  89 118 156 191 228 269
#     4  11  22  33  48  72  98 118 147 197 247 278
#     4  10  19  33  52  69  90 124 162 188 215 274
#     4  10  18  28  45  70  98 121 150 191 231 270
#     4   8  13  24  42  63  89 122 157 183 216 268
#     4   9  18  32  46  64  96 130 154 180 225 279
#     4  10  19  36  57  67  82 118 163 200 228 274
#
# _framework density 16.609238999999999
#
# number of rings (size 3 to 8) (size 9 to 14) (size 15 to 20)
#    0.000    2.750    1.250    3.000    0.000    2.500 
#    0.000    7.500    0.000    0.000    0.000    0.875 
#    0.000    7.000    0.000    0.000    0.000    0.000 
#
# Total GULP energy -396477.370510 kJ/mol
# GULP energy per Si atom -12389.917828 kJ/mol
# Density = 1.657144 g / cm^3
# Si number density = 16.609239 Si / 1000 Ang^3
#
#
#
# Elastic Constant Matrix: (Units=GPa)
#
#
# Indices 1 2 3 4 5 6 
#
# 1 82.5324 29.5548 66.0004 0.0000 -7.0403 0.0000
# 2 29.5548 39.0822 41.3736 0.0000 -1.1778 0.0000
# 3 66.0004 41.3736 177.4199 0.0000 -11.9919 0.0000
# 4 0.0000 0.0000 0.0000 23.1660 0.0000 -0.6898
# 5 -7.0403 -1.1778 -11.9919 0.0000 9.6094 0.0000
# 6 0.0000 0.0000 0.0000 -0.6898 0.0000 7.0656
#
#
#
# Elastic Compliance Matrix: (Units=1/GPa)
#
#
# Indices 1 2 3 4 5 6 
#
# 1 0.020052 -0.010074 -0.004588 0.000000 0.007731 0.000000
# 2 -0.010074 0.039383 -0.006126 0.000000 -0.010198 0.000000
# 3 -0.004588 -0.006126 0.009276 0.000000 0.007464 0.000000
# 4 0.000000 0.000000 0.000000 0.043293 0.000000 0.004226
# 5 0.007731 -0.010198 0.007464 0.000000 0.117794 0.000000
# 6 0.000000 0.000000 0.000000 0.004226 0.000000 0.141943
#
#
# Mechanical properties :
#
#
# Convention : Reuss Voigt Hill
#
# Bulk Modulus (GPa) = 36.85144 63.65467 50.25306
# Shear Modulus (GPa) = 11.83821 18.77523 15.30672
#
# Velocity S-wave (km/s) = 2.67263 3.36580 3.03905
# Velocity P-wave (km/s) = 5.63555 7.31525 6.52964
#
# Compressibility (1/GPa) = 0.02713598
#
# Stress axis : x y z
#
# Youngs Moduli (GPa) = 49.86964 25.39168 107.80654
#
# Poissons Ratio (x) = 0.25581 0.49457
# Poissons Ratio (y) = 0.50241 0.66038
# Poissons Ratio (z) = 0.22878 0.15554
#
# Static dielectric constant tensor:
#      x y z
#    x 2.885650 0.000000 -0.046230 
#    y 0.000000 2.925410 0.000000 
#    z -0.046230 0.000000 3.813430 
# 
# 
# High freq. dielectric constant tensor:
#      x y z
#    x 1.601760 0.000000 -0.002760 
#    y 0.000000 1.614740 0.000000 
#    z -0.002760 0.000000 1.660610 
# 
# From -- ./inp_files/75976.got.cif
#   From: 2010.06.25/outbox.cif.g09.slc.cpg/sg10_38_cif.got.tgz:75976.got - 2010.06.27 22:07:45.
