data_PCOD8057283
_publ_section_title
;
Structure prediction by ZEFSAII (Michael W. Deem and Ramdas Pophale) SiO2 
 PCOD8057283
Probable space group: P 2/M
;
_chemical_formula_sum "Si O2"
_cell_formula_units_Z 32
_cell_length_a 20.268815
_cell_length_b 8.812791
_cell_length_c 12.179159
_cell_angle_alpha 90.000000
_cell_angle_beta 123.001480
_cell_angle_gamma 90.000000
_cell_volume 1824.497391
_symmetry_space_group_name_H-M "P 2/M"
_symmetry_group_IT_number 10
_symmetry_cell_setting 'monoclinic'
loop_
_space_group_symop_operation_xyz
x,y,z
-x,y,-z
-x,-y,-z
x,-y,z
loop_
_atom_site_type_symbol
_atom_site_label
_atom_site_fract_x
_atom_site_fract_y
_atom_site_fract_z
Si Si1 0.630906 0.320526 0.820573
Si Si2 0.063400 0.179442 0.413804
Si Si3 0.331589 0.678602 0.393477
Si Si4 0.325031 0.677262 0.726622
Si Si5 0.455998 0.324223 0.678981
Si Si6 0.103762 0.819920 0.690415
Si Si7 0.217196 0.179142 0.446306
Si Si8 0.275031 0.819942 0.900870
O O1 0.635881 0.500000 0.846633
O O2 0.656317 0.276950 0.720918
O O3 0.543230 0.253530 0.761655
O O4 0.690308 0.234105 0.953048
O O5 0.094412 0.243894 0.558426
O O6 0.124841 0.226861 0.373976
O O7 0.973442 0.235532 0.309678
O O8 0.061786 0.000000 0.423605
O O9 0.325114 0.500000 0.405799
O O10 0.404041 0.744516 0.531887
O O11 0.250428 0.750932 0.363927
O O12 0.304788 0.500000 0.712945
O O13 0.412063 0.703392 0.754704
O O14 0.261324 0.759272 0.593391
O O15 0.325384 0.747677 0.847871
O O16 0.467573 0.500000 0.663097
O O17 0.185059 0.758121 0.815062
O O18 0.108078 0.000000 0.693600
O O19 0.227839 0.000000 0.453037
O O20 0.279830 0.000000 0.895389
#
# Coordination Sequence:
#
# PCOD8057283 Si02
#       8
#     4   4   4   4   4   4   4   4
#     4  10  20  35  53  70  92 128 171 205 237 282
#     4   8  13  24  46  73  96 123 159 193 231 278
#     4   9  18  33  53  74  95 124 163 205 244 283
#     4  10  19  32  50  72  99 130 163 196 238 289
#     4   8  16  32  54  74  90 119 166 210 236 273
#     4   8  14  26  45  69  97 127 159 193 228 279
#     4  10  17  28  50  78 103 124 153 199 250 289
#     4  11  21  33  49  71 102 132 160 197 244 291
#
# _framework density 17.539076000000001
#
# number of rings (size 3 to 8) (size 9 to 14) (size 15 to 20)
#    0.000    2.750    1.250    3.000    0.000    2.500 
#    0.000    5.625    0.000    8.250    0.000    5.250 
#    0.000    0.000    0.000    0.000    0.000    0.000 
#
# Total GULP energy -396579.360956 kJ/mol
# GULP energy per Si atom -12393.105030 kJ/mol
# Density = 1.749916 g / cm^3
# Si number density = 17.539076 Si / 1000 Ang^3
#
#
#
# Elastic Constant Matrix: (Units=GPa)
#
#
# Indices 1 2 3 4 5 6 
#
# 1 164.5135 38.0674 75.1061 0.0000 15.9259 0.0000
# 2 38.0674 33.9715 24.4358 0.0000 0.8947 0.0000
# 3 75.1061 24.4358 96.9476 0.0000 4.0981 0.0000
# 4 0.0000 0.0000 0.0000 7.7918 0.0000 -12.3241
# 5 15.9259 0.8947 4.0981 0.0000 18.0816 0.0000
# 6 0.0000 0.0000 0.0000 -12.3241 0.0000 16.8468
#
#
#
# Elastic Compliance Matrix: (Units=1/GPa)
#
#
# Indices 1 2 3 4 5 6 
#
# 1 0.011912 -0.008239 -0.006791 0.000000 -0.008546 0.000000
# 2 -0.008239 0.041655 -0.004378 0.000000 0.006188 0.000000
# 3 -0.006791 -0.004378 0.016576 0.000000 0.002441 0.000000
# 4 0.000000 0.000000 0.000000 -0.817114 0.000000 -0.597752
# 5 -0.008546 0.006188 0.002441 0.000000 0.061972 0.000000
# 6 0.000000 0.000000 0.000000 -0.597752 0.000000 -0.377921
#
#
# Mechanical properties :
#
#
# Convention : Reuss Voigt Hill
#
# Bulk Modulus (GPa) = 31.92038 63.40569 47.66303
# Shear Modulus (GPa) = -4.93262 19.06559 7.06649
#
# Velocity S-wave (km/s) = -1.67883 3.30060 2.00941
# Velocity P-wave (km/s) = 3.80541 7.12424 5.71122
#
# Compressibility (1/GPa) = 0.03132795
#
# Stress axis : x y z
#
# Youngs Moduli (GPa) = 83.94549 24.00671 60.32815
#
# Poissons Ratio (x) = 0.19779 0.40968
# Poissons Ratio (y) = 0.69163 0.26411
# Poissons Ratio (z) = 0.57006 0.10510
#
# Static dielectric constant tensor:
#      x y z
#    x 3.720630 0.000000 0.216990 
#    y 0.000000 2.963790 0.000000 
#    z 0.216990 0.000000 3.105850 
# 
# 
# High freq. dielectric constant tensor:
#      x y z
#    x 1.695220 0.000000 0.008750 
#    y 0.000000 1.647820 0.000000 
#    z 0.008750 0.000000 1.647150 
# 
# From -- ./inp_files/55187.got.cif
#   From: 2010.06.25/outbox.cif.g09.slc.cpg/sg10_28_cif.got.tgz:55187.got - 2010.06.27 22:07:45.
