data_PCOD8057809
_publ_section_title
;
Structure prediction by ZEFSAII (Michael W. Deem and Ramdas Pophale) SiO2 
 PCOD8057809
Probable space group: P 2/M
;
_chemical_formula_sum "Si O2"
_cell_formula_units_Z 28
_cell_length_a 11.775758
_cell_length_b 8.689545
_cell_length_c 19.039815
_cell_angle_alpha 90.000000
_cell_angle_beta 52.528440
_cell_angle_gamma 90.000000
_cell_volume 1546.253217
_symmetry_space_group_name_H-M "P 2/M"
_symmetry_group_IT_number 10
_symmetry_cell_setting 'monoclinic'
loop_
_space_group_symop_operation_xyz
x,y,z
-x,y,-z
-x,-y,-z
x,-y,z
loop_
_atom_site_type_symbol
_atom_site_label
_atom_site_fract_x
_atom_site_fract_y
_atom_site_fract_z
Si Si1 0.131839 0.681606 0.403378
Si Si2 0.849300 0.180908 0.756422
Si Si3 0.728850 0.181817 0.187923
Si Si4 0.561914 0.682584 0.862863
Si Si5 0.728945 0.817082 0.027607
Si Si6 0.418766 0.181670 0.298872
Si Si7 0.996924 0.818728 0.838653
O O1 0.139401 0.500000 0.395583
O O2 0.110266 0.746509 0.333351
O O3 0.277574 0.742639 0.386585
O O4 0.000000 0.738629 0.500000
O O5 0.704694 0.251027 0.846073
O O6 0.975589 0.219981 0.764409
O O7 0.828513 0.000000 0.754607
O O8 0.746034 0.240888 0.101584
O O9 0.570688 0.224935 0.278713
O O10 0.852980 0.254249 0.190518
O O11 0.744832 0.000000 0.180647
O O12 0.565881 0.500000 0.861527
O O13 0.414127 0.741800 0.953029
O O14 0.571844 0.751433 0.781895
O O15 0.713002 0.000000 0.028851
O O16 0.865703 0.753411 0.934141
O O17 0.396738 0.000000 0.304171
O O18 0.000266 0.000000 0.849255
#
# Coordination Sequence:
#
# PCOD8057809 Si02
#       7
#     4   4   4   4   4   4   4
#     4  10  20  34  53  74  95 118 145 182 229 281
#     4  10  19  31  48  70  95 121 152 189 231 280
#     4   8  14  26  46  71  95 121 156 194 229 264
#     4  10  18  29  44  62  92 127 158 195 235 274
#     4   9  16  28  47  68  90 121 164 204 231 261
#     4   9  16  28  50  75  95 117 149 189 229 271
#     4   9  17  28  45  69  95 124 157 195 234 269
#
# _framework density 18.108288999999999
#
# number of rings (size 3 to 8) (size 9 to 14) (size 15 to 20)
#    0.000    2.714    0.000    5.571    0.000    3.429 
#    0.000    4.286    0.000   17.143    0.000    6.000 
#    0.000    0.000    0.000    0.000    0.000    0.000 
#
# Total GULP energy -346916.001247 kJ/mol
# GULP energy per Si atom -12389.857187 kJ/mol
# Density = 1.806707 g / cm^3
# Si number density = 18.108289 Si / 1000 Ang^3
#
#
#
# Elastic Constant Matrix: (Units=GPa)
#
#
# Indices 1 2 3 4 5 6 
#
# 1 112.7539 26.7912 65.8285 0.0000 -23.0765 0.0000
# 2 26.7912 62.7769 29.6518 0.0000 -9.2779 0.0000
# 3 65.8285 29.6518 112.5508 0.0000 -28.2501 0.0000
# 4 0.0000 0.0000 0.0000 18.2178 0.0000 -6.0631
# 5 -23.0765 -9.2779 -28.2501 0.0000 26.3260 0.0000
# 6 0.0000 0.0000 0.0000 -6.0631 0.0000 1.2092
#
#
#
# Elastic Compliance Matrix: (Units=1/GPa)
#
#
# Indices 1 2 3 4 5 6 
#
# 1 0.014165 -0.002281 -0.006527 0.000000 0.004608 0.000000
# 2 -0.002281 0.018619 -0.003320 0.000000 0.000999 0.000000
# 3 -0.006527 -0.003320 0.016215 0.000000 0.010508 0.000000
# 4 0.000000 0.000000 0.000000 -0.082078 0.000000 -0.411555
# 5 0.004608 0.000999 0.010508 0.000000 0.053653 0.000000
# 6 0.000000 0.000000 0.000000 -0.411555 0.000000 -1.236608
#
#
# Mechanical properties :
#
#
# Convention : Reuss Voigt Hill
#
# Bulk Modulus (GPa) = 40.41753 59.18050 49.79902
# Shear Modulus (GPa) = -4.22465 20.20461 7.98998
#
# Velocity S-wave (km/s) = -1.52907 3.34393 2.10283
# Velocity P-wave (km/s) = 4.38759 6.90374 5.78414
#
# Compressibility (1/GPa) = 0.02474174
#
# Stress axis : x y z
#
# Youngs Moduli (GPa) = 70.59845 53.70895 61.67269
#
# Poissons Ratio (x) = 0.12251 0.40253
# Poissons Ratio (y) = 0.16104 0.20477
# Poissons Ratio (z) = 0.46079 0.17833
#
# Static dielectric constant tensor:
#      x y z
#    x 3.989720 0.000000 -0.557350 
#    y 0.000000 3.119640 0.000000 
#    z -0.557350 0.000000 3.428450 
# 
# 
# High freq. dielectric constant tensor:
#      x y z
#    x 1.704320 0.000000 -0.026590 
#    y 0.000000 1.680260 0.000000 
#    z -0.026590 0.000000 1.673530 
# 
# From -- ./inp_files/83306.got.cif
#   From: 2010.06.25/outbox.cif.g09.slc.cpg/sg10_42_cif.got.tgz:83306.got - 2010.06.27 22:07:45.
