data_PCOD8057746
_publ_section_title
;
Structure prediction by ZEFSAII (Michael W. Deem and Ramdas Pophale) SiO2 
 PCOD8057746
Probable space group: P 2/M
;
_chemical_formula_sum "Si O2"
_cell_formula_units_Z 32
_cell_length_a 14.573974
_cell_length_b 8.941906
_cell_length_c 25.930111
_cell_angle_alpha 90.000000
_cell_angle_beta 147.282465
_cell_angle_gamma 90.000000
_cell_volume 1826.444266
_symmetry_space_group_name_H-M "P 2/M"
_symmetry_group_IT_number 10
_symmetry_cell_setting 'monoclinic'
loop_
_space_group_symop_operation_xyz
x,y,z
-x,y,-z
-x,-y,-z
x,-y,z
loop_
_atom_site_type_symbol
_atom_site_label
_atom_site_fract_x
_atom_site_fract_y
_atom_site_fract_z
Si Si1 0.105656 0.823217 0.342861
Si Si2 0.741589 0.677433 0.896313
Si Si3 0.940969 0.322344 0.892482
Si Si4 0.638054 0.323429 0.284352
Si Si5 0.155294 0.166245 0.535188
Si Si6 0.938743 0.675988 0.352084
Si Si7 0.201406 0.676638 0.282353
Si Si8 0.466914 0.836923 0.544111
O O1 0.113325 0.753729 0.289573
O O2 0.272742 0.780434 0.455925
O O3 0.947298 0.753930 0.299769
O O4 0.084678 0.000000 0.327025
O O5 0.744670 0.500000 0.896633
O O6 0.551396 0.733160 0.818896
O O7 0.805126 0.737041 0.870557
O O8 0.870568 0.733861 0.001976
O O9 0.934401 0.500000 0.888596
O O10 0.896019 0.262691 0.814371
O O11 0.647703 0.500000 0.298591
O O12 0.688713 0.244156 0.361743
O O13 0.761926 0.277494 0.295857
O O14 0.000000 0.152695 0.500000
O O15 0.099523 0.267554 0.460995
O O16 0.208852 0.000000 0.541431
O O17 0.952129 0.500000 0.351438
O O18 0.188378 0.500000 0.283024
O O19 0.400001 0.719621 0.369247
O O20 0.500000 0.857838 0.500000
O O21 0.489729 0.000000 0.581746
#
# Coordination Sequence:
#
# PCOD8057746 Si02
#       8
#     4   4   4   4   4   4   4   4
#     4  10  20  33  47  64  91 130 166 192 228 278
#     4   8  14  28  48  70  96 122 148 184 234 284
#     4   8  15  27  46  72  97 119 147 186 232 283
#     4   9  17  29  48  72  96 123 156 195 235 272
#     4   9  17  29  44  63  91 126 158 186 222 272
#     4  10  19  30  45  68  96 124 159 201 235 265
#     4  10  18  28  46  73  98 120 153 195 234 274
#     4   8  16  30  44  60  86 120 155 187 222 269
#
# _framework density 17.520381
#
# number of rings (size 3 to 8) (size 9 to 14) (size 15 to 20)
#    0.000    3.000    0.000    3.000    0.000    5.750 
#    0.000    1.250    0.000    3.000    0.000    9.625 
#    0.000    0.000    0.000    0.000    0.000    0.000 
#
# Total GULP energy -396544.871634 kJ/mol
# GULP energy per Si atom -12392.027239 kJ/mol
# Density = 1.748050 g / cm^3
# Si number density = 17.520381 Si / 1000 Ang^3
#
#
#
# Elastic Constant Matrix: (Units=GPa)
#
#
# Indices 1 2 3 4 5 6 
#
# 1 107.6587 37.4758 67.6989 0.0000 -2.3437 0.0000
# 2 37.4758 60.5502 36.2476 0.0000 -3.9030 0.0000
# 3 67.6989 36.2476 125.7930 0.0000 -2.4161 0.0000
# 4 0.0000 0.0000 0.0000 4.9718 0.0000 4.2476
# 5 -2.3437 -3.9030 -2.4161 0.0000 24.5665 0.0000
# 6 0.0000 0.0000 0.0000 4.2476 0.0000 -14.3624
#
#
#
# Elastic Compliance Matrix: (Units=1/GPa)
#
#
# Indices 1 2 3 4 5 6 
#
# 1 0.015437 -0.005540 -0.006713 0.000000 -0.000068 0.000000
# 2 -0.005540 0.022115 -0.003340 0.000000 0.002656 0.000000
# 3 -0.006713 -0.003340 0.012526 0.000000 0.000061 0.000000
# 4 0.000000 0.000000 0.000000 0.160566 0.000000 0.047487
# 5 -0.000068 0.002656 0.000061 0.000000 0.041127 0.000000
# 6 0.000000 0.000000 0.000000 0.047487 0.000000 -0.055582
#
#
# Mechanical properties :
#
#
# Convention : Reuss Voigt Hill
#
# Bulk Modulus (GPa) = 52.93231 64.09406 58.51319
# Shear Modulus (GPa) = 21.39766 13.20715 17.30241
#
# Velocity S-wave (km/s) = 3.49850 2.74855 3.14595
# Velocity P-wave (km/s) = 6.82618 6.83628 6.83123
#
# Compressibility (1/GPa) = 0.01889205
#
# Stress axis : x y z
#
# Youngs Moduli (GPa) = 64.78078 45.21886 79.83594
#
# Poissons Ratio (x) = 0.25051 0.53591
# Poissons Ratio (y) = 0.35889 0.26664
# Poissons Ratio (z) = 0.43485 0.15102
#
# Static dielectric constant tensor:
#      x y z
#    x 3.419750 0.000000 0.138850 
#    y 0.000000 3.110090 0.000000 
#    z 0.138850 0.000000 3.457670 
# 
# 
# High freq. dielectric constant tensor:
#      x y z
#    x 1.675070 0.000000 0.001490 
#    y 0.000000 1.660120 0.000000 
#    z 0.001490 0.000000 1.654240 
# 
# From -- ./inp_files/93110.got.cif
#   From: 2010.06.25/outbox.cif.g09.slc.cpg/sg10_47_cif.got.tgz:93110.got - 2010.06.27 22:07:45.
