data_PCOD8057268
_publ_section_title
;
Structure prediction by ZEFSAII (Michael W. Deem and Ramdas Pophale) SiO2 
 PCOD8057268
Probable space group: P 2/M
;
_chemical_formula_sum "Si O2"
_cell_formula_units_Z 28
_cell_length_a 14.440862
_cell_length_b 9.385762
_cell_length_c 14.405937
_cell_angle_alpha 90.000000
_cell_angle_beta 121.274083
_cell_angle_gamma 90.000000
_cell_volume 1668.839958
_symmetry_space_group_name_H-M "P 2/M"
_symmetry_group_IT_number 10
_symmetry_cell_setting 'monoclinic'
loop_
_space_group_symop_operation_xyz
x,y,z
-x,y,-z
-x,-y,-z
x,-y,z
loop_
_atom_site_type_symbol
_atom_site_label
_atom_site_fract_x
_atom_site_fract_y
_atom_site_fract_z
Si Si1 0.016423 0.837368 0.903919
Si Si2 0.617066 0.332546 0.519416
Si Si3 0.792136 0.659077 0.079384
Si Si4 0.319097 0.340835 0.169699
Si Si5 0.559077 0.332005 0.288699
Si Si6 0.605473 0.329784 0.110499
Si Si7 0.779070 0.162933 0.730060
O O1 0.908328 0.826847 0.784829
O O2 0.105328 0.754691 0.890786
O O3 0.055288 0.000000 0.934935
O O4 0.000000 0.773763 0.000000
O O5 0.500000 0.287447 0.500000
O O6 0.634532 0.500000 0.543909
O O7 0.627480 0.290923 0.415790
O O8 0.714520 0.249298 0.618584
O O9 0.834716 0.500000 0.124966
O O10 0.719231 0.723364 0.125116
O O11 0.708513 0.651771 0.951743
O O12 0.311119 0.500000 0.210072
O O13 0.438278 0.275159 0.243095
O O14 0.239975 0.231870 0.179317
O O15 0.550938 0.500000 0.272697
O O16 0.606650 0.269824 0.217140
O O17 0.603238 0.500000 0.105655
O O18 0.500000 0.270902 0.000000
O O19 0.739524 0.000000 0.707957
#
# Coordination Sequence:
#
# PCOD8057268 Si02
#       7
#     4   4   4   4   4   4   4
#     4  10  21  36  50  67  98 136 167 201 253 303
#     4  10  19  32  51  74 101 132 165 200 245 296
#     4  10  19  29  50  80 103 128 165 206 240 287
#     4  10  17  28  48  75 104 131 161 197 240 293
#     4   9  16  28  47  72 105 138 158 187 244 301
#     4   9  15  26  47  77 107 130 157 196 245 294
#     4  11  22  34  49  70  98 134 169 204 246 293
#
# _framework density 16.778122
#
# number of rings (size 3 to 8) (size 9 to 14) (size 15 to 20)
#    0.000    2.143    4.286    0.429    0.000    1.714 
#    0.000    0.000    0.000    3.000    0.000    6.000 
#    0.000    0.000    0.000    0.000    0.000    0.000 
#
# Total GULP energy -347031.959264 kJ/mol
# GULP energy per Si atom -12393.998545 kJ/mol
# Density = 1.673993 g / cm^3
# Si number density = 16.778122 Si / 1000 Ang^3
#
#
#
# Elastic Constant Matrix: (Units=GPa)
#
#
# Indices 1 2 3 4 5 6 
#
# 1 112.8720 42.2006 42.9709 0.0000 -7.5194 0.0000
# 2 42.2006 53.6848 28.8165 0.0000 3.0623 0.0000
# 3 42.9709 28.8165 90.2760 0.0000 -6.9753 0.0000
# 4 0.0000 0.0000 0.0000 18.3342 0.0000 9.3123
# 5 -7.5194 3.0623 -6.9753 0.0000 28.8688 0.0000
# 6 0.0000 0.0000 0.0000 9.3123 0.0000 -0.4027
#
#
#
# Elastic Compliance Matrix: (Units=1/GPa)
#
#
# Indices 1 2 3 4 5 6 
#
# 1 0.013869 -0.009332 -0.003329 0.000000 0.003798 0.000000
# 2 -0.009332 0.029268 -0.005430 0.000000 -0.006847 0.000000
# 3 -0.003329 -0.005430 0.014646 0.000000 0.003248 0.000000
# 4 0.000000 0.000000 0.000000 0.004279 0.000000 0.098959
# 5 0.003798 -0.006847 0.003248 0.000000 0.037140 0.000000
# 6 0.000000 0.000000 0.000000 0.098959 0.000000 -0.194832
#
#
# Mechanical properties :
#
#
# Convention : Reuss Voigt Hill
#
# Bulk Modulus (GPa) = 46.29345 53.86766 50.08055
# Shear Modulus (GPa) = -95.69747 18.88304 -38.40722
#
# Velocity S-wave (km/s) = -7.56048 3.35842 -4.78967
# Velocity P-wave (km/s) = 6.96872 6.87126 0.82122
#
# Compressibility (1/GPa) = 0.02160133
#
# Stress axis : x y z
#
# Youngs Moduli (GPa) = 72.10284 34.16730 68.27794
#
# Poissons Ratio (x) = 0.31884 0.22733
# Poissons Ratio (y) = 0.67284 0.37072
# Poissons Ratio (z) = 0.24006 0.18552
#
# Static dielectric constant tensor:
#      x y z
#    x 3.142530 0.000000 -0.136120 
#    y 0.000000 2.876230 0.000000 
#    z -0.136120 0.000000 3.192180 
# 
# 
# High freq. dielectric constant tensor:
#      x y z
#    x 1.637810 0.000000 -0.002020 
#    y 0.000000 1.613710 0.000000 
#    z -0.002020 0.000000 1.641400 
# 
# From -- ./inp_files/49190.got.cif
#   From: 2010.06.25/outbox.cif.g09.slc.cpg/sg10_25_cif.got.tgz:49190.got - 2010.06.27 22:07:45.
