data_PCOD8057368
_publ_section_title
;
Structure prediction by ZEFSAII (Michael W. Deem and Ramdas Pophale) SiO2 
 PCOD8057368
Probable space group: P 2/M
;
_chemical_formula_sum "Si O2"
_cell_formula_units_Z 28
_cell_length_a 16.890407
_cell_length_b 8.836004
_cell_length_c 15.144274
_cell_angle_alpha 90.000000
_cell_angle_beta 46.279828
_cell_angle_gamma 90.000000
_cell_volume 1633.491474
_symmetry_space_group_name_H-M "P 2/M"
_symmetry_group_IT_number 10
_symmetry_cell_setting 'monoclinic'
loop_
_space_group_symop_operation_xyz
x,y,z
-x,y,-z
-x,-y,-z
x,-y,z
loop_
_atom_site_type_symbol
_atom_site_label
_atom_site_fract_x
_atom_site_fract_y
_atom_site_fract_z
Si Si1 0.339959 0.320888 0.561745
Si Si2 0.996864 0.678016 0.604889
Si Si3 0.209264 0.821595 0.517125
Si Si4 0.603737 0.679567 0.104737
Si Si5 0.641104 0.320772 0.746065
Si Si6 0.245214 0.320486 0.164738
Si Si7 0.577529 0.679270 0.318112
O O1 0.323774 0.500000 0.563398
O O2 0.240034 0.234831 0.591750
O O3 0.342172 0.272605 0.663690
O O4 0.453782 0.264805 0.430411
O O5 0.017983 0.500000 0.598754
O O6 0.087661 0.766995 0.589031
O O7 0.000000 0.724621 0.500000
O O8 0.881029 0.729301 0.735346
O O9 0.296554 0.753179 0.382934
O O10 0.213333 0.000000 0.509403
O O11 0.612496 0.500000 0.100123
O O12 0.485484 0.727632 0.158603
O O13 0.620637 0.744698 0.191128
O O14 0.697159 0.746311 0.967797
O O15 0.656091 0.500000 0.725365
O O16 0.691981 0.257930 0.797669
O O17 0.254988 0.500000 0.158319
O O18 0.571979 0.500000 0.318698
#
# Coordination Sequence:
#
# PCOD8057368 Si02
#       7
#     4   4   4   4   4   4   4
#     4   9  16  30  50  73  97 127 160 194 245 295
#     4  10  19  34  53  71  94 127 167 206 243 283
#     4  12  23  32  47  72 101 131 166 205 242 281
#     4   9  15  25  48  80 105 123 152 199 244 286
#     4  10  17  30  50  73 102 133 159 191 238 293
#     4   9  17  28  47  76 101 125 161 200 240 286
#     4   8  14  25  48  77 101 122 153 197 244 292
#
# _framework density 17.141197999999999
#
# number of rings (size 3 to 8) (size 9 to 14) (size 15 to 20)
#    0.000    2.429    2.857    2.571    0.000    2.000 
#    0.000    1.429    0.000    3.429    0.000    6.000 
#    0.000    0.000    0.000    0.000    0.000    0.000 
#
# Total GULP energy -347092.372606 kJ/mol
# GULP energy per Si atom -12396.156164 kJ/mol
# Density = 1.710218 g / cm^3
# Si number density = 17.141198 Si / 1000 Ang^3
#
#
#
# Elastic Constant Matrix: (Units=GPa)
#
#
# Indices 1 2 3 4 5 6 
#
# 1 140.1779 32.2679 69.3704 0.0000 7.2839 0.0000
# 2 32.2679 28.0219 30.6297 0.0000 -0.9773 0.0000
# 3 69.3704 30.6297 105.0088 0.0000 -2.0016 0.0000
# 4 0.0000 0.0000 0.0000 3.7753 0.0000 -0.0748
# 5 7.2839 -0.9773 -2.0016 0.0000 27.2533 0.0000
# 6 0.0000 0.0000 0.0000 -0.0748 0.0000 1.2140
#
#
#
# Elastic Compliance Matrix: (Units=1/GPa)
#
#
# Indices 1 2 3 4 5 6 
#
# 1 0.011921 -0.007596 -0.005734 0.000000 -0.003880 0.000000
# 2 -0.007596 0.057245 -0.011618 0.000000 0.003230 0.000000
# 3 -0.005734 -0.011618 0.016744 0.000000 0.002346 0.000000
# 4 0.000000 0.000000 0.000000 0.265202 0.000000 0.016339
# 5 -0.003880 0.003230 0.002346 0.000000 0.038018 0.000000
# 6 0.000000 0.000000 0.000000 0.016339 0.000000 0.824732
#
#
# Mechanical properties :
#
#
# Convention : Reuss Voigt Hill
#
# Bulk Modulus (GPa) = 27.76593 59.74939 43.75766
# Shear Modulus (GPa) = 3.91922 15.84456 9.88189
#
# Velocity S-wave (km/s) = 1.51374 3.04362 2.40365
# Velocity P-wave (km/s) = 4.39189 6.87636 5.76945
#
# Compressibility (1/GPa) = 0.03601536
#
# Stress axis : x y z
#
# Youngs Moduli (GPa) = 83.88294 17.46880 59.72124
#
# Poissons Ratio (x) = 0.13269 0.34243
# Poissons Ratio (y) = 0.63714 0.69386
# Poissons Ratio (z) = 0.48097 0.20296
#
# Static dielectric constant tensor:
#      x y z
#    x 3.448000 0.000000 0.214070 
#    y 0.000000 2.708290 0.000000 
#    z 0.214070 0.000000 3.493400 
# 
# 
# High freq. dielectric constant tensor:
#      x y z
#    x 1.668920 0.000000 0.010270 
#    y 0.000000 1.610770 0.000000 
#    z 0.010270 0.000000 1.649360 
# 
# From -- ./inp_files/49150.got.cif
#   From: 2010.06.25/outbox.cif.g09.slc.cpg/sg10_25_cif.got.tgz:49150.got - 2010.06.27 22:07:45.
