data_PCOD8057003
_publ_section_title
;
Structure prediction by ZEFSAII (Michael W. Deem and Ramdas Pophale) SiO2 
 PCOD8057003
Probable space group: P 2/M
;
_chemical_formula_sum "Si O2"
_cell_formula_units_Z 32
_cell_length_a 34.777791
_cell_length_b 8.947432
_cell_length_c 23.193300
_cell_angle_alpha 90.000000
_cell_angle_beta 163.328947
_cell_angle_gamma 90.000000
_cell_volume 2070.417965
_symmetry_space_group_name_H-M "P 2/M"
_symmetry_group_IT_number 10
_symmetry_cell_setting 'monoclinic'
loop_
_space_group_symop_operation_xyz
x,y,z
-x,y,-z
-x,-y,-z
x,-y,z
loop_
_atom_site_type_symbol
_atom_site_label
_atom_site_fract_x
_atom_site_fract_y
_atom_site_fract_z
Si Si1 0.564872 0.678050 0.175357
Si Si2 0.004084 0.326703 0.938576
Si Si3 0.191549 0.175948 0.427348
Si Si4 0.332931 0.174664 0.794641
Si Si5 0.473129 0.830839 0.393838
Si Si6 0.944050 0.828764 0.647532
Si Si7 0.211647 0.325329 0.038357
Si Si8 0.734986 0.674087 0.754411
O O1 0.557436 0.500000 0.166723
O O2 0.664619 0.739370 0.368053
O O3 0.622328 0.737783 0.197937
O O4 0.413904 0.749076 0.964407
O O5 0.976235 0.500000 0.884014
O O6 0.890652 0.226413 0.746440
O O7 0.000000 0.293662 0.000000
O O8 0.150109 0.279020 0.125289
O O9 0.110022 0.222678 0.367556
O O10 0.218455 0.000000 0.464551
O O11 0.171884 0.193773 0.567566
O O12 0.369884 0.000000 0.842269
O O13 0.500000 0.815516 0.500000
O O14 0.334391 0.747919 0.179508
O O15 0.598309 0.757781 0.540111
O O16 0.459665 0.000000 0.353826
O O17 0.990447 0.000000 0.717323
O O18 0.070643 0.730542 0.810295
O O19 0.222868 0.500000 0.045599
O O20 0.216705 0.277832 0.112614
O O21 0.702638 0.500000 0.705955
#
# Coordination Sequence:
#
# PCOD8057003 Si02
#       8
#     4   4   4   4   4   4   4   4
#     4  10  17  25  39  56  75 101 136 172 205 244
#     4  10  20  33  47  63  83 107 138 178 219 254
#     4  10  19  30  43  57  77 106 139 175 212 249
#     4   9  16  26  37  54  79 106 135 167 203 240
#     4   9  17  27  40  57  77 102 132 167 204 245
#     4   9  17  26  38  56  80 109 137 168 202 241
#     4  10  17  25  40  59  80 106 136 170 203 243
#     4   9  17  29  42  58  78 103 134 170 209 248
#
# _framework density 15.455817
#
# number of rings (size 3 to 8) (size 9 to 14) (size 15 to 20)
#    0.000    2.500    1.250    4.125    0.000    5.250 
#    0.000    0.000    0.000    0.000    0.000    0.000 
#    0.000    0.000    0.000    1.125    0.000   21.750 
#
# Total GULP energy -396661.752393 kJ/mol
# GULP energy per Si atom -12395.679762 kJ/mol
# Density = 1.542064 g / cm^3
# Si number density = 15.455817 Si / 1000 Ang^3
#
#
#
# Elastic Constant Matrix: (Units=GPa)
#
#
# Indices 1 2 3 4 5 6 
#
# 1 33.7066 20.1720 33.7257 0.0000 4.5119 0.0000
# 2 20.1720 92.2072 68.3038 0.0000 1.1723 0.0000
# 3 33.7257 68.3038 145.8496 0.0000 6.2934 0.0000
# 4 0.0000 0.0000 0.0000 34.0944 0.0000 1.3044
# 5 4.5119 1.1723 6.2934 0.0000 12.2499 0.0000
# 6 0.0000 0.0000 0.0000 1.3044 0.0000 10.7011
#
#
#
# Elastic Compliance Matrix: (Units=1/GPa)
#
#
# Indices 1 2 3 4 5 6 
#
# 1 0.040422 -0.003257 -0.007356 0.000000 -0.010797 0.000000
# 2 -0.003257 0.016941 -0.007325 0.000000 0.003341 0.000000
# 3 -0.007356 -0.007325 0.012109 0.000000 -0.002811 0.000000
# 4 0.000000 0.000000 0.000000 0.029468 0.000000 -0.003592
# 5 -0.010797 0.003341 -0.002811 0.000000 0.086735 0.000000
# 6 0.000000 0.000000 0.000000 -0.003592 0.000000 0.093886
#
#
# Mechanical properties :
#
#
# Convention : Reuss Voigt Hill
#
# Bulk Modulus (GPa) = 29.76448 57.35183 43.55816
# Shear Modulus (GPa) = 15.30760 21.37988 18.34374
#
# Velocity S-wave (km/s) = 3.15049 3.72330 3.44881
# Velocity P-wave (km/s) = 5.70383 7.46133 6.64098
#
# Compressibility (1/GPa) = 0.03359709
#
# Stress axis : x y z
#
# Youngs Moduli (GPa) = 24.73882 59.02771 82.58305
#
# Poissons Ratio (x) = 0.19224 0.60748
# Poissons Ratio (y) = 0.08057 0.60492
# Poissons Ratio (z) = 0.18198 0.43237
#
# Static dielectric constant tensor:
#      x y z
#    x 2.389660 0.000000 -0.004230 
#    y 0.000000 2.982540 0.000000 
#    z -0.004230 0.000000 3.494050 
# 
# 
# High freq. dielectric constant tensor:
#      x y z
#    x 1.505700 0.000000 0.005720 
#    y 0.000000 1.605740 0.000000 
#    z 0.005720 0.000000 1.612070 
# 
# From -- ./inp_files/70040.got.cif
#   From: 2010.06.25/outbox.cif.g09.slc.cpg/sg10_36_cif.got.tgz:70040.got - 2010.06.27 22:07:45.
