data_PCOD8057666
_publ_section_title
;
Structure prediction by ZEFSAII (Michael W. Deem and Ramdas Pophale) SiO2 
 PCOD8057666
Probable space group: P 2/M
;
_chemical_formula_sum "Si O2"
_cell_formula_units_Z 32
_cell_length_a 13.264908
_cell_length_b 18.820994
_cell_length_c 20.519668
_cell_angle_alpha 90.000000
_cell_angle_beta 162.222618
_cell_angle_gamma 90.000000
_cell_volume 1564.125358
_symmetry_space_group_name_H-M "P 2/M"
_symmetry_group_IT_number 10
_symmetry_cell_setting 'monoclinic'
loop_
_space_group_symop_operation_xyz
x,y,z
-x,y,-z
-x,-y,-z
x,-y,z
loop_
_atom_site_type_symbol
_atom_site_label
_atom_site_fract_x
_atom_site_fract_y
_atom_site_fract_z
Si Si1 0.098057 0.713346 0.889563
Si Si2 0.387345 0.077881 0.249303
Si Si3 0.913208 0.419774 0.548419
Si Si4 0.221221 0.790106 0.697861
Si Si5 0.115833 0.296992 0.755073
Si Si6 0.734903 0.157123 0.704238
Si Si7 0.573783 0.917260 0.870937
Si Si8 0.447624 0.419220 0.145439
O O1 0.971249 0.722910 0.736840
O O2 0.842736 0.759808 0.775429
O O3 0.458681 0.744395 0.119641
O O4 0.133464 0.631826 0.936095
O O5 0.460633 0.136475 0.349815
O O6 0.545555 0.099814 0.277094
O O7 0.520220 0.000000 0.352719
O O8 0.000000 0.072201 0.000000
O O9 0.911202 0.500000 0.573915
O O10 0.908701 0.365882 0.605778
O O11 0.250431 0.404375 0.717339
O O12 0.589021 0.406505 0.304975
O O13 0.064759 0.767011 0.671162
O O14 0.325245 0.873387 0.764680
O O15 0.000000 0.771171 0.500000
O O16 0.500000 0.316639 0.000000
O O17 0.500000 0.141231 0.500000
O O18 0.050223 0.106528 0.887397
O O19 0.539703 0.000000 0.866721
O O20 0.320193 0.500000 0.059629
#
# Coordination Sequence:
#
# PCOD8057666 Si02
#       8
#     4   4   4   4   4   4   4   4
#     4  10  20  32  46  70 101 135 165 195 237 287
#     4   8  15  31  54  76  94 112 149 209 261 291
#     4   9  16  26  45  72  99 129 165 202 236 274
#     4  10  19  31  49  69  99 137 164 188 231 287
#     4  10  18  28  43  67 105 139 163 190 227 281
#     4  10  20  33  52  73  98 123 158 204 253 293
#     4   9  19  35  54  75  96 120 158 204 249 293
#     4   9  16  28  47  70  97 128 166 203 236 278
#
# _framework density 20.458717
#
# number of rings (size 3 to 8) (size 9 to 14) (size 15 to 20)
#    0.000    2.625    2.500    2.625    0.000    3.000 
#    0.000    2.500    0.000   10.500    0.000    0.000 
#    0.000   15.500    0.000    0.000    0.000    0.000 
#
# Total GULP energy -396586.384900 kJ/mol
# GULP energy per Si atom -12393.324528 kJ/mol
# Density = 2.041215 g / cm^3
# Si number density = 20.458717 Si / 1000 Ang^3
#
#
#
# Elastic Constant Matrix: (Units=GPa)
#
#
# Indices 1 2 3 4 5 6 
#
# 1 50.9359 64.7427 34.9432 0.0000 -19.6346 0.0000
# 2 64.7427 156.2129 49.8032 0.0000 -23.2412 0.0000
# 3 34.9432 49.8032 76.7744 0.0000 -32.9193 0.0000
# 4 0.0000 0.0000 0.0000 16.1018 0.0000 -11.2018
# 5 -19.6346 -23.2412 -32.9193 0.0000 21.2815 0.0000
# 6 0.0000 0.0000 0.0000 -11.2018 0.0000 16.0840
#
#
#
# Elastic Compliance Matrix: (Units=1/GPa)
#
#
# Indices 1 2 3 4 5 6 
#
# 1 0.054083 -0.017902 0.000029 0.000000 0.030392 0.000000
# 2 -0.017902 0.014029 -0.004351 0.000000 -0.007927 0.000000
# 3 0.000029 -0.004351 0.041007 0.000000 0.058706 0.000000
# 4 0.000000 0.000000 0.000000 0.120477 0.000000 0.083907
# 5 0.030392 -0.007927 0.058706 0.000000 0.157182 0.000000
# 6 0.000000 0.000000 0.000000 0.083907 0.000000 0.120611
#
#
# Mechanical properties :
#
#
# Convention : Reuss Voigt Hill
#
# Bulk Modulus (GPa) = 15.46329 64.76682 40.11505
# Shear Modulus (GPa) = 8.72001 19.65574 14.18788
#
# Velocity S-wave (km/s) = 2.06676 3.10296 2.63627
# Velocity P-wave (km/s) = 3.64281 6.67562 5.37745
#
# Compressibility (1/GPa) = 0.06466931
#
# Stress axis : x y z
#
# Youngs Moduli (GPa) = 18.49025 71.28044 24.38628
#
# Poissons Ratio (x) = 1.27608 -0.00071
# Poissons Ratio (y) = 0.33102 0.10612
# Poissons Ratio (z) = -0.00054 0.31017
#
# Static dielectric constant tensor:
#      x y z
#    x 3.644760 0.000000 -0.312020 
#    y 0.000000 4.012210 0.000000 
#    z -0.312020 0.000000 3.544170 
# 
# 
# High freq. dielectric constant tensor:
#      x y z
#    x 1.760060 0.000000 -0.025370 
#    y 0.000000 1.807330 0.000000 
#    z -0.025370 0.000000 1.782910 
# 
# From -- ./inp_files/85502.got.cif
#   From: 2010.06.25/outbox.cif.g09.slc.cpg/sg10_43_cif.got.tgz:85502.got - 2010.06.27 22:07:45.
