data_PCOD8057143
_publ_section_title
;
Structure prediction by ZEFSAII (Michael W. Deem and Ramdas Pophale) SiO2 
 PCOD8057143
Probable space group: P 2/M
;
_chemical_formula_sum "Si O2"
_cell_formula_units_Z 32
_cell_length_a 17.585974
_cell_length_b 8.930795
_cell_length_c 23.906024
_cell_angle_alpha 90.000000
_cell_angle_beta 31.132556
_cell_angle_gamma 90.000000
_cell_volume 1941.203478
_symmetry_space_group_name_H-M "P 2/M"
_symmetry_group_IT_number 10
_symmetry_cell_setting 'monoclinic'
loop_
_space_group_symop_operation_xyz
x,y,z
-x,y,-z
-x,-y,-z
x,-y,z
loop_
_atom_site_type_symbol
_atom_site_label
_atom_site_fract_x
_atom_site_fract_y
_atom_site_fract_z
Si Si1 0.393473 0.177282 0.302459
Si Si2 0.937960 0.177765 0.480662
Si Si3 0.669191 0.676321 0.177228
Si Si4 0.822808 0.178035 0.755610
Si Si5 0.222682 0.177668 0.090981
Si Si6 0.120689 0.168776 0.875975
Si Si7 0.096034 0.323570 0.064118
Si Si8 0.548503 0.177577 0.859437
O O1 0.229970 0.227277 0.423408
O O2 0.506260 0.259013 0.272569
O O3 0.420987 0.234898 0.222273
O O4 0.416755 0.000000 0.292540
O O5 0.000000 0.243799 0.500000
O O6 0.036513 0.239222 0.367324
O O7 0.947954 0.000000 0.477372
O O8 0.663567 0.500000 0.188634
O O9 0.734949 0.746923 0.192455
O O10 0.767658 0.722124 0.061570
O O11 0.834982 0.230064 0.812079
O O12 0.673550 0.242983 0.821848
O O13 0.816787 0.000000 0.756611
O O14 0.120975 0.257143 0.109630
O O15 0.212590 0.000000 0.088801
O O16 0.390129 0.234817 0.979491
O O17 0.055975 0.254755 0.863117
O O18 0.162689 0.000000 0.832309
O O19 0.000000 0.170422 0.000000
O O20 0.077314 0.500000 0.079232
O O21 0.554644 0.000000 0.856916
#
# Coordination Sequence:
#
# PCOD8057143 Si02
#       8
#     4   4   4   4   4   4   4   4
#     4  10  17  26  45  68  90 119 156 195 232 272
#     4   9  15  25  42  66  92 117 152 200 244 273
#     4  10  19  30  44  65  95 125 152 184 226 276
#     4   9  16  26  41  65  92 120 156 199 240 272
#     4  10  18  27  43  66  93 122 156 194 230 273
#     4   9  17  29  47  69  93 120 151 185 222 269
#     4  10  19  30  44  64  94 127 154 181 223 276
#     4   9  15  24  40  64  91 118 152 194 235 270
#
# _framework density 16.484618999999999
#
# number of rings (size 3 to 8) (size 9 to 14) (size 15 to 20)
#    0.000    2.500    2.500    1.500    0.000    4.000 
#    0.000    0.000    0.000    3.375    0.000    0.875 
#    0.000    7.000    0.000    0.000    0.000    0.000 
#
# Total GULP energy -396767.104095 kJ/mol
# GULP energy per Si atom -12398.972003 kJ/mol
# Density = 1.644710 g / cm^3
# Si number density = 16.484619 Si / 1000 Ang^3
#
#
#
# Elastic Constant Matrix: (Units=GPa)
#
#
# Indices 1 2 3 4 5 6 
#
# 1 160.1076 44.6056 73.7297 0.0000 -15.1620 0.0000
# 2 44.6056 47.3399 25.0570 0.0000 -6.1879 0.0000
# 3 73.7297 25.0570 102.5398 0.0000 1.5239 0.0000
# 4 0.0000 0.0000 0.0000 8.2664 0.0000 1.7811
# 5 -15.1620 -6.1879 1.5239 0.0000 23.6978 0.0000
# 6 0.0000 0.0000 0.0000 1.7811 0.0000 2.8601
#
#
#
# Elastic Compliance Matrix: (Units=1/GPa)
#
#
# Indices 1 2 3 4 5 6 
#
# 1 0.011969 -0.006709 -0.007061 0.000000 0.006360 0.000000
# 2 -0.006709 0.029142 -0.002349 0.000000 0.003468 0.000000
# 3 -0.007061 -0.002349 0.015495 0.000000 -0.006127 0.000000
# 4 0.000000 0.000000 0.000000 0.139719 0.000000 -0.087011
# 5 0.006360 0.003468 -0.006127 0.000000 0.047567 0.000000
# 6 0.000000 0.000000 0.000000 -0.087011 0.000000 0.403823
#
#
# Mechanical properties :
#
#
# Convention : Reuss Voigt Hill
#
# Bulk Modulus (GPa) = 41.03822 66.30797 53.67309
# Shear Modulus (GPa) = 7.26665 18.07120 12.66893
#
# Velocity S-wave (km/s) = 2.10184 3.31455 2.77525
# Velocity P-wave (km/s) = 5.55330 7.41349 6.54977
#
# Compressibility (1/GPa) = 0.02436753
#
# Stress axis : x y z
#
# Youngs Moduli (GPa) = 83.55086 34.31515 64.53880
#
# Poissons Ratio (x) = 0.23021 0.45572
# Poissons Ratio (y) = 0.56052 0.15160
# Poissons Ratio (z) = 0.58996 0.08060
#
# Static dielectric constant tensor:
#      x y z
#    x 3.196480 0.000000 -0.073980 
#    y 0.000000 2.756260 0.000000 
#    z -0.073980 0.000000 3.049230 
# 
# 
# High freq. dielectric constant tensor:
#      x y z
#    x 1.640320 0.000000 -0.012660 
#    y 0.000000 1.601860 0.000000 
#    z -0.012660 0.000000 1.603950 
# 
# From -- ./inp_files/52792.got.cif
#   From: 2010.06.25/outbox.cif.g09.slc.cpg/sg10_27_cif.got.tgz:52792.got - 2010.06.27 22:07:45.
