data_PCOD8057690
_publ_section_title
;
Structure prediction by ZEFSAII (Michael W. Deem and Ramdas Pophale) SiO2 
 PCOD8057690
Probable space group: P 2/M
;
_chemical_formula_sum "Si O2"
_cell_formula_units_Z 32
_cell_length_a 20.675157
_cell_length_b 8.871861
_cell_length_c 12.449327
_cell_angle_alpha 90.000000
_cell_angle_beta 65.433468
_cell_angle_gamma 90.000000
_cell_volume 2076.835744
_symmetry_space_group_name_H-M "P 2/M"
_symmetry_group_IT_number 10
_symmetry_cell_setting 'monoclinic'
loop_
_space_group_symop_operation_xyz
x,y,z
-x,y,-z
-x,-y,-z
x,-y,z
loop_
_atom_site_type_symbol
_atom_site_label
_atom_site_fract_x
_atom_site_fract_y
_atom_site_fract_z
Si Si1 0.340638 0.325891 0.479372
Si Si2 0.593062 0.825822 0.771287
Si Si3 0.569218 0.827006 0.160753
Si Si4 0.666068 0.677263 0.923750
Si Si5 0.077342 0.672420 0.428027
Si Si6 0.571426 0.672916 0.384091
Si Si7 0.788651 0.670027 0.555811
Si Si8 0.797354 0.175350 0.756211
O O1 0.362219 0.500000 0.447339
O O2 0.381251 0.230333 0.362278
O O3 0.363000 0.277785 0.583593
O O4 0.254563 0.300066 0.524586
O O5 0.508581 0.803036 0.834429
O O6 0.625416 0.731824 0.846008
O O7 0.614071 0.000000 0.771750
O O8 0.571923 0.782255 0.283198
O O9 0.592783 0.000000 0.133704
O O10 0.623911 0.723907 0.058747
O O11 0.674046 0.500000 0.914288
O O12 0.745555 0.748913 0.879319
O O13 0.066107 0.500000 0.400200
O O14 0.124634 0.685728 0.506738
O O15 0.122196 0.754976 0.301958
O O16 0.000000 0.748619 0.500000
O O17 0.500000 0.697261 0.500000
O O18 0.578798 0.500000 0.340712
O O19 0.770869 0.500000 0.608431
O O20 0.759977 0.786595 0.666348
O O21 0.803063 0.000000 0.774325
#
# Coordination Sequence:
#
# PCOD8057690 Si02
#       8
#     4   4   4   4   4   4   4   4
#     4  10  18  30  50  68  91 123 159 197 235 285
#     4  11  21  32  48  69  91 116 151 196 247 292
#     4  11  24  37  48  66  91 119 155 202 250 289
#     4  12  23  35  50  66  90 123 159 196 237 289
#     4   8  14  26  44  66  96 131 161 186 217 268
#     4  10  20  34  51  69  88 118 161 203 242 285
#     4   8  15  27  42  65  92 124 156 184 225 270
#     4  10  18  28  44  67  95 124 152 185 227 273
#
# _framework density 15.408056
#
# number of rings (size 3 to 8) (size 9 to 14) (size 15 to 20)
#    0.750    1.250    2.500    3.000    0.000    4.000 
#    0.000    0.000    0.000    0.000    0.000    0.000 
#    0.000    1.000    0.000   11.750    0.000    2.250 
#
# Total GULP energy -396430.826345 kJ/mol
# GULP energy per Si atom -12388.463323 kJ/mol
# Density = 1.537299 g / cm^3
# Si number density = 15.408056 Si / 1000 Ang^3
#
#
#
# Elastic Constant Matrix: (Units=GPa)
#
#
# Indices 1 2 3 4 5 6 
#
# 1 82.1442 31.7833 33.1580 0.0000 -16.9708 0.0000
# 2 31.7833 89.1265 33.6779 0.0000 -12.3437 0.0000
# 3 33.1580 33.6779 60.4931 0.0000 -10.1500 0.0000
# 4 0.0000 0.0000 0.0000 16.9503 0.0000 -2.7073
# 5 -16.9708 -12.3437 -10.1500 0.0000 20.4676 0.0000
# 6 0.0000 0.0000 0.0000 -2.7073 0.0000 16.7247
#
#
#
# Elastic Compliance Matrix: (Units=1/GPa)
#
#
# Indices 1 2 3 4 5 6 
#
# 1 0.017929 -0.002440 -0.006786 0.000000 0.010029 0.000000
# 2 -0.002440 0.015040 -0.006384 0.000000 0.003881 0.000000
# 3 -0.006786 -0.006384 0.024231 0.000000 0.002539 0.000000
# 4 0.000000 0.000000 0.000000 0.060562 0.000000 0.009803
# 5 0.010029 0.003881 0.002539 0.000000 0.060773 0.000000
# 6 0.000000 0.000000 0.000000 0.009803 0.000000 0.061379
#
#
# Mechanical properties :
#
#
# Convention : Reuss Voigt Hill
#
# Bulk Modulus (GPa) = 38.49358 47.66690 43.08024
# Shear Modulus (GPa) = 17.87020 19.70481 18.78751
#
# Velocity S-wave (km/s) = 3.40927 3.58000 3.49568
# Velocity P-wave (km/s) = 6.36667 6.93484 6.65682
#
# Compressibility (1/GPa) = 0.02597836
#
# Stress axis : x y z
#
# Youngs Moduli (GPa) = 55.77498 66.48821 41.26973
#
# Poissons Ratio (x) = 0.16226 0.28006
# Poissons Ratio (y) = 0.13612 0.26348
# Poissons Ratio (z) = 0.37849 0.42449
#
# Static dielectric constant tensor:
#      x y z
#    x 3.132080 0.000000 -0.103890 
#    y 0.000000 2.961640 0.000000 
#    z -0.103890 0.000000 2.727650 
# 
# 
# High freq. dielectric constant tensor:
#      x y z
#    x 1.582570 0.000000 -0.009650 
#    y 0.000000 1.598340 0.000000 
#    z -0.009650 0.000000 1.551510 
# 
# From -- ./inp_files/56287.got.cif
#   From: 2010.06.25/outbox.cif.g09.slc.cpg/sg10_29_cif.got.tgz:56287.got - 2010.06.27 22:07:45.
