data_PCOD8057923
_publ_section_title
;
Structure prediction by ZEFSAII (Michael W. Deem and Ramdas Pophale) SiO2 
 PCOD8057923
Probable space group: P 2/M
;
_chemical_formula_sum "Si O2"
_cell_formula_units_Z 32
_cell_length_a 21.033231
_cell_length_b 9.458418
_cell_length_c 12.597799
_cell_angle_alpha 90.000000
_cell_angle_beta 53.205473
_cell_angle_gamma 90.000000
_cell_volume 2006.952271
_symmetry_space_group_name_H-M "P 2/M"
_symmetry_group_IT_number 10
_symmetry_cell_setting 'monoclinic'
loop_
_space_group_symop_operation_xyz
x,y,z
-x,y,-z
-x,-y,-z
x,-y,z
loop_
_atom_site_type_symbol
_atom_site_label
_atom_site_fract_x
_atom_site_fract_y
_atom_site_fract_z
Si Si1 0.410247 0.668228 0.589753
Si Si2 0.409668 0.836501 0.967442
Si Si3 0.148684 0.337818 0.728339
Si Si4 0.000000 0.840135 0.126280
Si Si5 0.590332 0.836501 0.786778
Si Si6 0.319468 0.334590 0.886716
Si Si7 0.851316 0.662181 0.025707
Si Si8 0.680532 0.334590 0.525651
O O1 0.500000 0.724704 0.500000
O O2 0.405871 0.500000 0.594128
O O3 0.366673 0.726518 0.737948
O O4 0.366673 0.726518 0.528706
O O5 0.500000 0.793154 0.849061
O O6 0.348345 0.743664 0.962681
O O7 0.395805 0.000000 0.954252
O O8 0.392434 0.806632 0.107566
O O9 0.122047 0.500000 0.741521
O O10 0.078425 0.239479 0.753681
O O11 0.168058 0.306037 0.831942
O O12 0.226408 0.304037 0.582040
O O13 0.000000 0.000000 0.169822
O O14 0.000000 0.835714 0.000000
O O15 0.078425 0.760521 0.089469
O O16 0.651655 0.743663 0.659371
O O17 0.604195 0.000000 0.745862
O O18 0.336369 0.500000 0.883463
O O19 0.226408 0.304038 0.965143
O O20 0.877953 0.500000 0.985615
O O21 0.663631 0.500000 0.556201
#
# Coordination Sequence:
#
# PCOD8057923 Si02
#       8
#     4   4   4   4   4   4   4   4
#     4   9  16  26  41  64  95 124 148 181 227 273
#     4   9  19  35  50  64  88 123 160 198 239 277
#     4   9  16  28  44  64  93 125 153 182 224 277
#     4   9  17  27  41  63  90 121 158 191 221 259
#     4   9  19  35  50  64  88 123 160 198 239 277
#     4  10  18  29  47  71  94 120 155 192 230 275
#     4   9  16  28  44  64  93 125 153 182 224 277
#     4  10  18  29  47  71  94 120 155 192 230 275
#
# _framework density 15.944575
#
# number of rings (size 3 to 8) (size 9 to 14) (size 15 to 20)
#    0.000    2.750    1.250    1.875    0.000    4.500 
#    0.000    1.875    0.000    2.250    0.000    0.875 
#    0.000    7.000    0.000    0.000    0.000    0.000 
#
# Total GULP energy -396804.691193 kJ/mol
# GULP energy per Si atom -12400.146600 kJ/mol
# Density = 1.590828 g / cm^3
# Si number density = 15.944575 Si / 1000 Ang^3
#
#
#
# Elastic Constant Matrix: (Units=GPa)
#
#
# Indices 1 2 3 4 5 6 
#
# 1 105.3375 60.9100 54.6479 0.0000 -13.6798 0.0000
# 2 60.9100 77.2178 50.3432 0.0000 -11.3399 0.0000
# 3 54.6479 50.3432 81.6854 0.0000 -11.7032 0.0000
# 4 0.0000 0.0000 0.0000 23.6798 0.0000 -1.3299
# 5 -13.6798 -11.3399 -11.7032 0.0000 21.0927 0.0000
# 6 0.0000 0.0000 0.0000 -1.3299 0.0000 24.9190
#
#
#
# Elastic Compliance Matrix: (Units=1/GPa)
#
#
# Indices 1 2 3 4 5 6 
#
# 1 0.019189 -0.011005 -0.005562 0.000000 0.003443 0.000000
# 2 -0.011005 0.028379 -0.009739 0.000000 0.002717 0.000000
# 3 -0.005562 -0.009739 0.022486 0.000000 0.003633 0.000000
# 4 0.000000 0.000000 0.000000 0.042357 0.000000 0.002261
# 5 0.003443 0.002717 0.003633 0.000000 0.053119 0.000000
# 6 0.000000 0.000000 0.000000 0.002261 0.000000 0.040251
#
#
# Mechanical properties :
#
#
# Convention : Reuss Voigt Hill
#
# Bulk Modulus (GPa) = 57.33017 66.22698 61.77857
# Shear Modulus (GPa) = 18.92452 20.49427 19.70940
#
# Velocity S-wave (km/s) = 3.44887 3.58906 3.51966
# Velocity P-wave (km/s) = 7.20372 7.66818 7.43958
#
# Compressibility (1/GPa) = 0.01744282
#
# Stress axis : x y z
#
# Youngs Moduli (GPa) = 52.11224 35.23683 44.47227
#
# Poissons Ratio (x) = 0.38777 0.24736
# Poissons Ratio (y) = 0.57348 0.43311
# Poissons Ratio (z) = 0.28986 0.34317
#
# Static dielectric constant tensor:
#      x y z
#    x 2.974060 0.000000 -0.157950 
#    y 0.000000 2.903910 0.000000 
#    z -0.157950 0.000000 2.826880 
# 
# 
# High freq. dielectric constant tensor:
#      x y z
#    x 1.606800 0.000000 -0.018020 
#    y 0.000000 1.601160 0.000000 
#    z -0.018020 0.000000 1.590010 
# 
# From -- ./inp_files/54814.got.cif
#   From: 2010.06.25/outbox.cif.g09.slc.cpg/sg10_28_cif.got.tgz:54814.got - 2010.06.27 22:07:45.
