data_PCOD8057085
_publ_section_title
;
Structure prediction by ZEFSAII (Michael W. Deem and Ramdas Pophale) SiO2 
 PCOD8057085
Probable space group: P 2/M
;
_chemical_formula_sum "Si O2"
_cell_formula_units_Z 32
_cell_length_a 19.971373
_cell_length_b 10.263333
_cell_length_c 13.817674
_cell_angle_alpha 90.000000
_cell_angle_beta 135.444312
_cell_angle_gamma 90.000000
_cell_volume 1987.111369
_symmetry_space_group_name_H-M "P 2/M"
_symmetry_group_IT_number 10
_symmetry_cell_setting 'monoclinic'
loop_
_space_group_symop_operation_xyz
x,y,z
-x,y,-z
-x,-y,-z
x,-y,z
loop_
_atom_site_type_symbol
_atom_site_label
_atom_site_fract_x
_atom_site_fract_y
_atom_site_fract_z
Si Si1 0.843466 0.645091 0.529836
Si Si2 0.278260 0.858641 0.140717
Si Si3 0.232039 0.351020 0.355270
Si Si4 0.099346 0.216841 0.070541
Si Si5 0.159880 0.853922 0.843371
Si Si6 0.042979 0.357732 0.828663
Si Si7 0.891808 0.851477 0.418020
Si Si8 0.391336 0.349331 0.373161
O O1 0.829992 0.500000 0.469347
O O2 0.759113 0.679728 0.520016
O O3 0.850891 0.753109 0.455269
O O4 0.931039 0.643197 0.694570
O O5 0.175273 0.868802 0.088670
O O6 0.345073 0.741170 0.243074
O O7 0.328194 0.000000 0.207675
O O8 0.257638 0.835542 0.005032
O O9 0.202962 0.500000 0.308335
O O10 0.151618 0.265366 0.220440
O O11 0.336025 0.323495 0.416341
O O12 0.066585 0.333391 0.965486
O O13 0.000000 0.143404 0.000000
O O14 0.082804 0.750097 0.797545
O O15 0.176714 0.834681 0.746030
O O16 0.118474 0.000000 0.817762
O O17 0.085935 0.500000 0.846699
O O18 0.000000 0.814790 0.500000
O O19 0.887890 0.000000 0.453748
O O20 0.500000 0.307139 0.500000
O O21 0.383372 0.500000 0.331349
#
# Coordination Sequence:
#
# PCOD8057085 Si02
#       8
#     4   4   4   4   4   4   4   4
#     4  10  19  28  40  62  89 118 154 196 233 265
#     4   9  19  32  46  69  96 121 152 192 235 275
#     4   9  17  29  44  65  96 124 152 189 232 279
#     4  10  17  26  41  61  92 130 161 184 217 269
#     4   9  18  32  45  59  86 122 159 194 232 270
#     4  10  18  25  39  62  85 116 159 196 225 259
#     4  10  19  31  45  59  82 125 169 200 232 270
#     4   9  18  34  56  77  96 121 152 186 229 286
#
# _framework density 16.103776
#
# number of rings (size 3 to 8) (size 9 to 14) (size 15 to 20)
#    0.000    2.500    2.500    0.375    0.000    4.750 
#    0.000    2.500    0.000    0.000    0.000    0.875 
#    0.000    7.000    0.000    0.000    0.000    0.000 
#
# Total GULP energy -396431.281277 kJ/mol
# GULP energy per Si atom -12388.477540 kJ/mol
# Density = 1.606712 g / cm^3
# Si number density = 16.103776 Si / 1000 Ang^3
#
#
#
# Elastic Constant Matrix: (Units=GPa)
#
#
# Indices 1 2 3 4 5 6 
#
# 1 68.8785 38.4734 47.2283 0.0000 -6.7191 0.0000
# 2 38.4734 90.9832 47.2786 0.0000 -11.3731 0.0000
# 3 47.2283 47.2786 81.7798 0.0000 -10.2571 0.0000
# 4 0.0000 0.0000 0.0000 23.1047 0.0000 -8.3144
# 5 -6.7191 -11.3731 -10.2571 0.0000 28.9266 0.0000
# 6 0.0000 0.0000 0.0000 -8.3144 0.0000 -10.6212
#
#
#
# Elastic Compliance Matrix: (Units=1/GPa)
#
#
# Indices 1 2 3 4 5 6 
#
# 1 0.025225 -0.004439 -0.012020 0.000000 -0.000148 0.000000
# 2 -0.004439 0.016761 -0.006728 0.000000 0.003173 0.000000
# 3 -0.012020 -0.006728 0.023419 0.000000 0.002867 0.000000
# 4 0.000000 0.000000 0.000000 0.033769 0.000000 -0.026435
# 5 -0.000148 0.003173 0.002867 0.000000 0.036800 0.000000
# 6 0.000000 0.000000 0.000000 -0.026435 0.000000 -0.073458
#
#
# Mechanical properties :
#
#
# Convention : Reuss Voigt Hill
#
# Bulk Modulus (GPa) = 52.54767 56.40023 54.47395
# Shear Modulus (GPa) = 43.38997 15.52610 29.45804
#
# Velocity S-wave (km/s) = 5.19639 3.10841 4.28163
# Velocity P-wave (km/s) = 8.28883 6.92690 7.63828
#
# Compressibility (1/GPa) = 0.01903034
#
# Stress axis : x y z
#
# Youngs Moduli (GPa) = 39.64277 59.66165 42.70070
#
# Poissons Ratio (x) = 0.26486 0.51326
# Poissons Ratio (y) = 0.17599 0.28730
# Poissons Ratio (z) = 0.47650 0.40142
#
# Static dielectric constant tensor:
#      x y z
#    x 2.959310 0.000000 -0.173310 
#    y 0.000000 3.068340 0.000000 
#    z -0.173310 0.000000 2.950970 
# 
# 
# High freq. dielectric constant tensor:
#      x y z
#    x 1.587840 0.000000 -0.021420 
#    y 0.000000 1.622560 0.000000 
#    z -0.021420 0.000000 1.599600 
# 
# From -- ./inp_files/53550.got.cif
#   From: 2010.06.25/outbox.cif.g09.slc.cpg/sg10_27_cif.got.tgz:53550.got - 2010.06.27 22:07:45.
