data_PCOD8057068
_publ_section_title
;
Structure prediction by ZEFSAII (Michael W. Deem and Ramdas Pophale) SiO2 
 PCOD8057068
Probable space group: P 2/M
;
_chemical_formula_sum "Si O2"
_cell_formula_units_Z 28
_cell_length_a 14.282790
_cell_length_b 9.223130
_cell_length_c 29.053250
_cell_angle_alpha 90.000000
_cell_angle_beta 28.688557
_cell_angle_gamma 90.000000
_cell_volume 1837.261792
_symmetry_space_group_name_H-M "P 2/M"
_symmetry_group_IT_number 10
_symmetry_cell_setting 'monoclinic'
loop_
_space_group_symop_operation_xyz
x,y,z
-x,y,-z
-x,-y,-z
x,-y,z
loop_
_atom_site_type_symbol
_atom_site_label
_atom_site_fract_x
_atom_site_fract_y
_atom_site_fract_z
Si Si1 0.342202 0.171627 0.470515
Si Si2 0.595951 0.828373 0.216768
Si Si3 0.728160 0.660978 0.412854
Si Si4 0.908874 0.668084 0.141921
Si Si5 0.743511 0.331916 0.307283
Si Si6 0.799656 0.828291 0.566781
Si Si7 0.194885 0.339022 0.946130
O O1 0.223273 0.230637 0.566267
O O2 0.558494 0.234773 0.374735
O O3 0.229477 0.222625 0.473284
O O4 0.357333 0.000000 0.467775
O O5 0.741196 0.765228 0.192035
O O6 0.378808 0.777371 0.323956
O O7 0.645345 0.769364 0.144194
O O8 0.617984 0.000000 0.207121
O O9 0.500000 0.664525 0.500000
O O10 0.795211 0.500000 0.398724
O O11 0.831407 0.708469 0.319965
O O12 0.863155 0.500000 0.149573
O O13 0.908624 0.693966 0.197125
O O14 0.122713 0.708468 0.028661
O O15 0.675031 0.500000 0.337698
O O16 0.000000 0.759784 0.500000
O O17 0.811266 0.000000 0.562912
O O18 0.286595 0.500000 0.907340
O O19 0.000000 0.335474 0.000000
#
# Coordination Sequence:
#
# PCOD8057068 Si02
#       7
#     4   4   4   4   4   4   4
#     4  10  17  26  40  56  74 100 133 166 198 226
#     4  10  17  26  40  56  74 100 133 166 198 226
#     4   8  15  26  38  54  76 103 129 153 189 235
#     4   9  16  26  40  56  78 107 132 153 185 233
#     4   9  16  26  40  56  78 107 132 153 185 233
#     4   9  18  30  41  55  77 105 137 169 200 235
#     4   8  15  26  38  54  76 103 129 153 189 235
#
# _framework density 15.240071
#
# number of rings (size 3 to 8) (size 9 to 14) (size 15 to 20)
#    0.000    3.000    1.429    2.571    0.000    5.143 
#    0.000    0.000    0.000    6.857    0.000    0.000 
#    0.000    1.143    0.000   14.286    0.000    0.000 
#
# Total GULP energy -346912.361007 kJ/mol
# GULP energy per Si atom -12389.727179 kJ/mol
# Density = 1.520538 g / cm^3
# Si number density = 15.240071 Si / 1000 Ang^3
#
#
#
# Elastic Constant Matrix: (Units=GPa)
#
#
# Indices 1 2 3 4 5 6 
#
# 1 78.8658 34.0009 61.3087 0.0000 26.8990 0.0000
# 2 34.0009 60.1347 40.1272 0.0000 11.0574 0.0000
# 3 61.3087 40.1272 113.5698 0.0000 35.7384 0.0000
# 4 0.0000 0.0000 0.0000 16.8357 0.0000 11.0164
# 5 26.8990 11.0574 35.7384 0.0000 32.1836 0.0000
# 6 0.0000 0.0000 0.0000 11.0164 0.0000 10.7321
#
#
#
# Elastic Compliance Matrix: (Units=1/GPa)
#
#
# Indices 1 2 3 4 5 6 
#
# 1 0.025400 -0.007153 -0.008112 0.000000 -0.009764 0.000000
# 2 -0.007153 0.023830 -0.005938 0.000000 0.004385 0.000000
# 3 -0.008112 -0.005938 0.019225 0.000000 -0.012528 0.000000
# 4 0.000000 0.000000 0.000000 0.180913 0.000000 -0.185705
# 5 -0.009764 0.004385 -0.012528 0.000000 0.051637 0.000000
# 6 0.000000 0.000000 0.000000 -0.185705 0.000000 0.283802
#
#
# Mechanical properties :
#
#
# Convention : Reuss Voigt Hill
#
# Bulk Modulus (GPa) = 38.39057 58.16042 48.27549
# Shear Modulus (GPa) = 7.86292 19.75918 13.81105
#
# Velocity S-wave (km/s) = 2.27389 3.60464 3.01364
# Velocity P-wave (km/s) = 5.66916 7.45455 6.62229
#
# Compressibility (1/GPa) = 0.02604806
#
# Stress axis : x y z
#
# Youngs Moduli (GPa) = 39.37059 41.96401 52.01656
#
# Poissons Ratio (x) = 0.30017 0.42194
# Poissons Ratio (y) = 0.28162 0.30889
# Poissons Ratio (z) = 0.31936 0.24919
#
# Static dielectric constant tensor:
#      x y z
#    x 2.954800 0.000000 0.572830 
#    y 0.000000 2.873890 0.000000 
#    z 0.572830 0.000000 3.272220 
# 
# 
# High freq. dielectric constant tensor:
#      x y z
#    x 1.544010 0.000000 0.050700 
#    y 0.000000 1.578550 0.000000 
#    z 0.050700 0.000000 1.572100 
# 
# From -- ./inp_files/68587.got.cif
#   From: 2010.06.25/outbox.cif.g09.slc.cpg/sg10_35_cif.got.tgz:68587.got - 2010.06.27 22:07:45.
