data_PCOD8057312
_publ_section_title
;
Structure prediction by ZEFSAII (Michael W. Deem and Ramdas Pophale) SiO2 
 PCOD8057312
Probable space group: P 2/M
;
_chemical_formula_sum "Si O2"
_cell_formula_units_Z 32
_cell_length_a 11.698642
_cell_length_b 9.075305
_cell_length_c 21.587580
_cell_angle_alpha 90.000000
_cell_angle_beta 126.590540
_cell_angle_gamma 90.000000
_cell_volume 1840.224049
_symmetry_space_group_name_H-M "P 2/M"
_symmetry_group_IT_number 10
_symmetry_cell_setting 'monoclinic'
loop_
_space_group_symop_operation_xyz
x,y,z
-x,y,-z
-x,-y,-z
x,-y,z
loop_
_atom_site_type_symbol
_atom_site_label
_atom_site_fract_x
_atom_site_fract_y
_atom_site_fract_z
Si Si1 0.648570 0.173511 0.793042
Si Si2 0.739502 0.338002 0.184746
Si Si3 0.135997 0.826301 0.239218
Si Si4 0.938185 0.325540 0.414751
Si Si5 0.063647 0.337609 0.331134
Si Si6 0.838940 0.172872 0.966600
Si Si7 0.142292 0.325993 0.902285
Si Si8 0.661961 0.173914 0.275897
O O1 0.720566 0.218725 0.751177
O O2 0.737930 0.236621 0.879847
O O3 0.485925 0.229015 0.741633
O O4 0.651897 0.000000 0.801740
O O5 0.670254 0.500000 0.171869
O O6 0.737975 0.291717 0.111826
O O7 0.660387 0.221150 0.202987
O O8 0.904150 0.346365 0.255421
O O9 0.153123 0.771267 0.315797
O O10 0.005769 0.752409 0.161520
O O11 0.110041 0.000000 0.230879
O O12 0.911726 0.500000 0.404193
O O13 0.787321 0.248555 0.355158
O O14 0.000000 0.271758 0.500000
O O15 0.053744 0.280439 0.399096
O O16 0.134371 0.500000 0.351247
O O17 0.816820 0.000000 0.971812
O O18 0.796417 0.261673 0.014379
O O19 0.000000 0.207820 0.000000
O O20 0.114295 0.500000 0.898186
O O21 0.681540 0.000000 0.285465
#
# Coordination Sequence:
#
# PCOD8057312 Si02
#       8
#     4   4   4   4   4   4   4   4
#     4   9  19  33  47  68  98 129 160 199 244 285
#     4   8  16  31  47  64  94 129 158 195 243 291
#     4  10  17  29  48  68  94 130 165 194 237 289
#     4   9  18  34  55  76 101 130 154 185 235 288
#     4   8  15  28  46  72  99 119 152 200 236 268
#     4  10  18  32  50  66  90 128 168 203 243 291
#     4  10  19  30  45  69  96 120 157 211 253 278
#     4  10  19  32  51  74  99 124 158 201 236 278
#
# _framework density 17.389188000000001
#
# number of rings (size 3 to 8) (size 9 to 14) (size 15 to 20)
#    0.000    2.750    1.250    2.625    0.000    5.500 
#    0.000    4.375    0.000    4.500    0.000    5.250 
#    0.000    0.000    0.000    0.000    0.000    0.000 
#
# Total GULP energy -396619.063239 kJ/mol
# GULP energy per Si atom -12394.345726 kJ/mol
# Density = 1.734961 g / cm^3
# Si number density = 17.389188 Si / 1000 Ang^3
#
#
#
# Elastic Constant Matrix: (Units=GPa)
#
#
# Indices 1 2 3 4 5 6 
#
# 1 124.0626 50.1185 67.5033 0.0000 -19.1096 0.0000
# 2 50.1185 65.7190 39.6408 0.0000 -8.0477 0.0000
# 3 67.5033 39.6408 105.3204 0.0000 -26.8054 0.0000
# 4 0.0000 0.0000 0.0000 18.1098 0.0000 -13.6366
# 5 -19.1096 -8.0477 -26.8054 0.0000 28.8567 0.0000
# 6 0.0000 0.0000 0.0000 -13.6366 0.0000 13.7920
#
#
#
# Elastic Compliance Matrix: (Units=1/GPa)
#
#
# Indices 1 2 3 4 5 6 
#
# 1 0.014623 -0.007191 -0.006170 0.000000 0.001946 0.000000
# 2 -0.007191 0.023296 -0.004868 0.000000 -0.002788 0.000000
# 3 -0.006170 -0.004868 0.018199 0.000000 0.011462 0.000000
# 4 0.000000 0.000000 0.000000 0.216125 0.000000 0.213689
# 5 0.001946 -0.002788 0.011462 0.000000 0.045812 0.000000
# 6 0.000000 0.000000 0.000000 0.213689 0.000000 0.283786
#
#
# Mechanical properties :
#
#
# Convention : Reuss Voigt Hill
#
# Bulk Modulus (GPa) = 50.87106 67.73636 59.30371
# Shear Modulus (GPa) = 7.75371 21.34100 14.54735
#
# Velocity S-wave (km/s) = 2.11391 3.50702 2.89550
# Velocity P-wave (km/s) = 5.93937 7.44558 6.73471
#
# Compressibility (1/GPa) = 0.01965754
#
# Stress axis : x y z
#
# Youngs Moduli (GPa) = 68.38753 42.92607 54.94851
#
# Poissons Ratio (x) = 0.30870 0.33903
# Poissons Ratio (y) = 0.49181 0.26752
# Poissons Ratio (z) = 0.42195 0.20899
#
# Static dielectric constant tensor:
#      x y z
#    x 3.485280 0.000000 -0.444280 
#    y 0.000000 3.164820 0.000000 
#    z -0.444280 0.000000 3.288350 
# 
# 
# High freq. dielectric constant tensor:
#      x y z
#    x 1.663830 0.000000 -0.031200 
#    y 0.000000 1.664160 0.000000 
#    z -0.031200 0.000000 1.647850 
# 
# From -- ./inp_files/83373.got.cif
#   From: 2010.06.25/outbox.cif.g09.slc.cpg/sg10_42_cif.got.tgz:83373.got - 2010.06.27 22:07:45.
