data_PCOD8057441
_publ_section_title
;
Structure prediction by ZEFSAII (Michael W. Deem and Ramdas Pophale) SiO2 
 PCOD8057441
Probable space group: P 2/M
;
_chemical_formula_sum "Si O2"
_cell_formula_units_Z 32
_cell_length_a 29.269631
_cell_length_b 13.822712
_cell_length_c 9.591077
_cell_angle_alpha 90.000000
_cell_angle_beta 25.982048
_cell_angle_gamma 90.000000
_cell_volume 1699.967984
_symmetry_space_group_name_H-M "P 2/M"
_symmetry_group_IT_number 10
_symmetry_cell_setting 'monoclinic'
loop_
_space_group_symop_operation_xyz
x,y,z
-x,y,-z
-x,-y,-z
x,-y,z
loop_
_atom_site_type_symbol
_atom_site_label
_atom_site_fract_x
_atom_site_fract_y
_atom_site_fract_z
Si Si1 0.113262 0.390960 0.646727
Si Si2 0.428688 0.324718 0.814367
Si Si3 0.515313 0.186944 0.112801
Si Si4 0.271881 0.603290 0.448171
Si Si5 0.740687 0.813358 0.432499
Si Si6 0.114551 0.112305 0.732166
Si Si7 0.244331 0.224124 0.170059
Si Si8 0.700880 0.109175 0.248709
O O1 0.112343 0.500000 0.585597
O O2 0.166787 0.388579 0.649952
O O3 0.168598 0.318674 0.384540
O O4 0.000000 0.352915 0.000000
O O5 0.500000 0.375405 0.500000
O O6 0.502100 0.268116 0.722075
O O7 0.363926 0.402342 0.079706
O O8 0.353215 0.247691 0.945524
O O9 0.424903 0.107949 0.386723
O O10 0.500000 0.232259 0.000000
O O11 0.633800 0.143575 0.795718
O O12 0.275587 0.500000 0.520857
O O13 0.279486 0.696784 0.527047
O O14 0.842197 0.833448 0.248383
O O15 0.758808 0.859728 0.232166
O O16 0.192449 0.134600 0.392771
O O17 0.112966 0.000000 0.771635
O O18 0.000000 0.148922 0.000000
O O19 0.261434 0.187798 0.966628
O O20 0.734635 0.000000 0.116417
#
# Coordination Sequence:
#
# PCOD8057441 Si02
#       8
#     4   4   4   4   4   4   4   4
#     4   9  17  32  59  88 108 133 181 235 279 326
#     4  10  17  32  52  80 112 147 173 218 274 333
#     4   9  18  33  54  77 107 145 185 230 269 323
#     4   9  18  32  55  83 106 138 182 225 277 331
#     4  10  20  38  57  78 111 148 185 234 277 324
#     4  11  22  36  57  80 104 143 194 233 273 330
#     4  11  20  35  54  81 117 144 178 228 281 324
#     4  11  23  36  54  81 114 152 187 226 277 328
#
# _framework density 18.823882999999999
#
# number of rings (size 3 to 8) (size 9 to 14) (size 15 to 20)
#    0.000    2.000    5.000    1.125    0.000    3.000 
#    0.000    1.875    0.000   26.250    0.000    2.625 
#    0.000    0.000    0.000    0.000    0.000    0.000 
#
# Total GULP energy -396445.992014 kJ/mol
# GULP energy per Si atom -12388.937250 kJ/mol
# Density = 1.878104 g / cm^3
# Si number density = 18.823883 Si / 1000 Ang^3
#
#
#
# Elastic Constant Matrix: (Units=GPa)
#
#
# Indices 1 2 3 4 5 6 
#
# 1 90.2573 34.0916 39.7936 0.0000 -3.6200 0.0000
# 2 34.0916 114.5845 31.7026 0.0000 4.7476 0.0000
# 3 39.7936 31.7026 71.7074 0.0000 -6.3038 0.0000
# 4 0.0000 0.0000 0.0000 1.1442 0.0000 11.0649
# 5 -3.6200 4.7476 -6.3038 0.0000 30.4782 0.0000
# 6 0.0000 0.0000 0.0000 11.0649 0.0000 18.9196
#
#
#
# Elastic Compliance Matrix: (Units=1/GPa)
#
#
# Indices 1 2 3 4 5 6 
#
# 1 0.015289 -0.002561 -0.007290 0.000000 0.000707 0.000000
# 2 -0.002561 0.010564 -0.003484 0.000000 -0.002670 0.000000
# 3 -0.007290 -0.003484 0.019864 0.000000 0.003785 0.000000
# 4 0.000000 0.000000 0.000000 -0.187725 0.000000 0.109788
# 5 0.000707 -0.002670 0.003785 0.000000 0.034093 0.000000
# 6 0.000000 0.000000 0.000000 0.109788 0.000000 -0.011353
#
#
# Mechanical properties :
#
#
# Convention : Reuss Voigt Hill
#
# Bulk Modulus (GPa) = 52.50203 54.19166 53.34685
# Shear Modulus (GPa) = -57.97238 21.50583 -18.23327
#
# Velocity S-wave (km/s) = -5.55555 3.38372 -3.11565
# Velocity P-wave (km/s) = 3.63324 6.64209 3.93173
#
# Compressibility (1/GPa) = 0.01904688
#
# Stress axis : x y z
#
# Youngs Moduli (GPa) = 65.40467 94.66378 50.34177
#
# Poissons Ratio (x) = 0.24246 0.36701
# Poissons Ratio (y) = 0.16752 0.17538
# Poissons Ratio (z) = 0.47682 0.32978
#
# Static dielectric constant tensor:
#      x y z
#    x 3.420670 0.000000 -0.168400 
#    y 0.000000 3.438660 0.000000 
#    z -0.168400 0.000000 3.489220 
# 
# 
# High freq. dielectric constant tensor:
#      x y z
#    x 1.716700 0.000000 -0.015640 
#    y 0.000000 1.723240 0.000000 
#    z -0.015640 0.000000 1.722460 
# 
# From -- ./inp_files/37688.got.cif
#   From: 2010.06.25/outbox.cif.g09.slc.cpg/sg10_19_cif.got.tgz:37688.got - 2010.06.27 22:07:45.
