data_PCOD8057573
_publ_section_title
;
Structure prediction by ZEFSAII (Michael W. Deem and Ramdas Pophale) SiO2 
 PCOD8057573
Probable space group: P 2/M
;
_chemical_formula_sum "Si O2"
_cell_formula_units_Z 32
_cell_length_a 30.323662
_cell_length_b 9.156591
_cell_length_c 16.129927
_cell_angle_alpha 90.000000
_cell_angle_beta 29.445819
_cell_angle_gamma 90.000000
_cell_volume 2201.709437
_symmetry_space_group_name_H-M "P 2/M"
_symmetry_group_IT_number 10
_symmetry_cell_setting 'monoclinic'
loop_
_space_group_symop_operation_xyz
x,y,z
-x,y,-z
-x,-y,-z
x,-y,z
loop_
_atom_site_type_symbol
_atom_site_label
_atom_site_fract_x
_atom_site_fract_y
_atom_site_fract_z
Si Si1 0.807162 0.672900 0.399699
Si Si2 0.524211 0.171234 0.272878
Si Si3 0.175556 0.171306 0.801956
Si Si4 0.643406 0.827465 0.742939
Si Si5 0.664555 0.831385 0.338172
Si Si6 0.476625 0.828042 0.910445
Si Si7 0.597391 0.335136 0.300227
Si Si8 0.003723 0.660501 0.092188
O O1 0.794842 0.500000 0.408787
O O2 0.797174 0.746366 0.326286
O O3 0.734086 0.738186 0.581436
O O4 0.903809 0.709348 0.283602
O O5 0.422464 0.207290 0.464946
O O6 0.538233 0.235254 0.157286
O O7 0.595219 0.251578 0.216135
O O8 0.544444 0.000000 0.245011
O O9 0.248567 0.210459 0.751386
O O10 0.171722 0.000000 0.789197
O O11 0.079391 0.223898 0.995505
O O12 0.569670 0.770595 0.797491
O O13 0.661460 0.000000 0.704049
O O14 0.607676 0.788297 0.893425
O O15 0.667318 0.740352 0.248390
O O16 0.663783 0.000000 0.314094
O O17 0.487546 0.000000 0.886867
O O18 0.500000 0.326673 0.500000
O O19 0.628817 0.500000 0.233102
O O20 0.027733 0.500000 0.089170
O O21 0.000000 0.650321 0.000000
#
# Coordination Sequence:
#
# PCOD8057573 Si02
#       8
#     4   4   4   4   4   4   4   4
#     4  10  19  29  40  56  81 111 138 163 198 239
#     4   9  15  26  42  56  76 107 136 160 195 237
#     4  10  18  27  42  62  80 101 135 171 198 232
#     4   9  16  28  44  60  79 104 138 173 200 231
#     4   9  17  27  40  59  80 103 131 162 196 235
#     4   8  15  27  43  61  80 104 134 171 208 234
#     4   9  17  27  38  55  78 103 132 164 194 226
#     4   8  16  29  40  53  78 108 133 160 197 238
#
# _framework density 14.534162
#
# number of rings (size 3 to 8) (size 9 to 14) (size 15 to 20)
#    0.000    3.000    0.000    3.375    0.000    7.250 
#    0.000    5.000    0.000    0.000    0.000    0.000 
#    0.000    1.000    0.000   11.250    0.000    5.625 
#
# Total GULP energy -396664.622433 kJ/mol
# GULP energy per Si atom -12395.769451 kJ/mol
# Density = 1.450108 g / cm^3
# Si number density = 14.534162 Si / 1000 Ang^3
#
#
#
# Elastic Constant Matrix: (Units=GPa)
#
#
# Indices 1 2 3 4 5 6 
#
# 1 103.4678 50.8050 49.1891 0.0000 5.7939 0.0000
# 2 50.8050 69.1517 39.9936 0.0000 -3.4620 0.0000
# 3 49.1891 39.9936 86.5067 0.0000 -4.4778 0.0000
# 4 0.0000 0.0000 0.0000 15.9734 0.0000 -4.5869
# 5 5.7939 -3.4620 -4.4778 0.0000 22.3752 0.0000
# 6 0.0000 0.0000 0.0000 -4.5869 0.0000 11.8849
#
#
#
# Elastic Compliance Matrix: (Units=1/GPa)
#
#
# Indices 1 2 3 4 5 6 
#
# 1 0.017795 -0.010059 -0.005848 0.000000 -0.007334 0.000000
# 2 -0.010059 0.025459 -0.005771 0.000000 0.005389 0.000000
# 3 -0.005848 -0.005771 0.017769 0.000000 0.004177 0.000000
# 4 0.000000 0.000000 0.000000 0.070408 0.000000 0.027174
# 5 -0.007334 0.005389 0.004177 0.000000 0.048261 0.000000
# 6 0.000000 0.000000 0.000000 0.027174 0.000000 0.094628
#
#
# Mechanical properties :
#
#
# Convention : Reuss Voigt Hill
#
# Bulk Modulus (GPa) = 56.60296 59.90019 58.25158
# Shear Modulus (GPa) = 15.45288 17.98925 16.72107
#
# Velocity S-wave (km/s) = 3.26423 3.52194 3.39553
# Velocity P-wave (km/s) = 7.29632 7.60537 7.45245
#
# Compressibility (1/GPa) = 0.01766692
#
# Stress axis : x y z
#
# Youngs Moduli (GPa) = 56.19678 39.27929 56.27674
#
# Poissons Ratio (x) = 0.39510 0.32908
# Poissons Ratio (y) = 0.56527 0.32480
# Poissons Ratio (z) = 0.32862 0.22670
#
# Static dielectric constant tensor:
#      x y z
#    x 2.889590 0.000000 -0.040950 
#    y 0.000000 2.793710 0.000000 
#    z -0.040950 0.000000 2.846290 
# 
# 
# High freq. dielectric constant tensor:
#      x y z
#    x 1.539780 0.000000 -0.006120 
#    y 0.000000 1.553050 0.000000 
#    z -0.006120 0.000000 1.528480 
# 
# From -- ./inp_files/72527.got.cif
#   From: 2010.06.25/outbox.cif.g09.slc.cpg/sg10_37_cif.got.tgz:72527.got - 2010.06.27 22:07:45.
