data_PCOD8057485
_publ_section_title
;
Structure prediction by ZEFSAII (Michael W. Deem and Ramdas Pophale) SiO2 
 PCOD8057485
Probable space group: P 2/M
;
_chemical_formula_sum "Si O2"
_cell_formula_units_Z 30
_cell_length_a 11.803710
_cell_length_b 24.580327
_cell_length_c 8.259526
_cell_angle_alpha 90.000000
_cell_angle_beta 141.980540
_cell_angle_gamma 90.000000
_cell_volume 1476.019249
_symmetry_space_group_name_H-M "P 2/M"
_symmetry_group_IT_number 10
_symmetry_cell_setting 'monoclinic'
loop_
_space_group_symop_operation_xyz
x,y,z
-x,y,-z
-x,-y,-z
x,-y,z
loop_
_atom_site_type_symbol
_atom_site_label
_atom_site_fract_x
_atom_site_fract_y
_atom_site_fract_z
Si Si1 0.613748 0.264128 0.891898
Si Si2 0.755712 0.939436 0.559713
Si Si3 0.090688 0.665558 0.926481
Si Si4 0.546889 0.857959 0.740996
Si Si5 0.159940 0.059542 0.967009
Si Si6 0.840951 0.439830 0.192457
Si Si7 0.720357 0.311808 0.355716
Si Si8 0.500000 0.590785 0.000000
O O1 0.605857 0.199499 0.878662
O O2 0.399320 0.281919 0.639562
O O3 0.737347 0.292090 0.889427
O O4 0.696417 0.283697 0.155085
O O5 0.621419 0.889585 0.360727
O O6 0.947699 0.928835 0.685515
O O7 0.677386 0.000000 0.426632
O O8 0.795976 0.938717 0.794424
O O9 0.157208 0.605682 0.945741
O O10 0.934893 0.689355 0.633686
O O11 0.000000 0.661545 0.000000
O O12 0.500000 0.851204 0.500000
O O13 0.721337 0.894445 0.983346
O O14 0.214665 0.000000 0.961481
O O15 0.882003 0.500000 0.165883
O O16 0.000000 0.424488 0.500000
O O17 0.635679 0.443972 0.038703
O O18 0.641030 0.372923 0.263900
#
# Coordination Sequence:
#
# PCOD8057485 Si02
#       8
#     4   4   4   4   4   4   4   2
#     4  10  22  39  58  81 113 158 196 246 283 348
#     4   8  14  26  43  66 104 149 187 226 283 350
#     4  12  24  39  62  87 120 157 188 242 300 346
#     4  10  19  28  46  78 114 140 188 245 290 334
#     4   8  14  26  43  66 104 152 187 224 284 348
#     4  11  21  38  65  95 123 156 200 238 279 342
#     4  10  21  41  65  77 110 157 207 231 283 354
#     4  10  17  38  68  86 116 152 201 240 266 332
#
# _framework density 20.324936999999998
#
# number of rings (size 3 to 8) (size 9 to 14) (size 15 to 20)
#    0.000    2.267    4.000    1.800    1.867    2.933 
#    2.400    0.000    0.000    0.800    0.000    7.467 
#    0.000   17.067    0.000    0.000    0.000    0.533 
#
# Total GULP energy -371661.340281 kJ/mol
# GULP energy per Si atom -12388.711343 kJ/mol
# Density = 2.027868 g / cm^3
# Si number density = 20.324937 Si / 1000 Ang^3
#
#
#
# Elastic Constant Matrix: (Units=GPa)
#
#
# Indices 1 2 3 4 5 6 
#
# 1 103.0929 50.9806 27.0737 0.0000 21.7822 0.0000
# 2 50.9806 163.6571 34.2776 0.0000 17.8286 0.0000
# 3 27.0737 34.2776 43.7112 0.0000 15.3172 0.0000
# 4 0.0000 0.0000 0.0000 3.3472 0.0000 -13.5254
# 5 21.7822 17.8286 15.3172 0.0000 26.9421 0.0000
# 6 0.0000 0.0000 0.0000 -13.5254 0.0000 -31.0694
#
#
#
# Elastic Compliance Matrix: (Units=1/GPa)
#
#
# Indices 1 2 3 4 5 6 
#
# 1 0.013486 -0.002637 -0.003841 0.000000 -0.006975 0.000000
# 2 -0.002637 0.007911 -0.004350 0.000000 -0.000631 0.000000
# 3 -0.003841 -0.004350 0.033181 0.000000 -0.012880 0.000000
# 4 0.000000 0.000000 0.000000 0.108282 0.000000 -0.047138
# 5 -0.006975 -0.000631 -0.012880 0.000000 0.050496 0.000000
# 6 0.000000 0.000000 0.000000 -0.047138 0.000000 -0.011665
#
#
# Mechanical properties :
#
#
# Convention : Reuss Voigt Hill
#
# Bulk Modulus (GPa) = 30.37394 59.45833 44.91614
# Shear Modulus (GPa) = 21.33822 13.05260 17.19541
#
# Velocity S-wave (km/s) = 3.24366 2.53691 2.91181
# Velocity P-wave (km/s) = 5.38563 6.15618 5.78376
#
# Compressibility (1/GPa) = 0.03292295
#
# Stress axis : x y z
#
# Youngs Moduli (GPa) = 74.14904 126.39863 30.13751
#
# Poissons Ratio (x) = 0.33328 0.11577
# Poissons Ratio (y) = 0.19551 0.13110
# Poissons Ratio (z) = 0.28483 0.54983
#
# Static dielectric constant tensor:
#      x y z
#    x 3.757150 0.000000 0.555120 
#    y 0.000000 3.780740 0.000000 
#    z 0.555120 0.000000 3.598150 
# 
# 
# High freq. dielectric constant tensor:
#      x y z
#    x 1.782260 0.000000 0.037990 
#    y 0.000000 1.797220 0.000000 
#    z 0.037990 0.000000 1.769650 
# 
# From -- ./inp_files/26167.got.cif
#   From: 2010.06.25/outbox.cif.g09.slc.cpg/sg10_14_cif.got.tgz:26167.got - 2010.06.27 22:07:45.
