data_PCOD8057817
_publ_section_title
;
Structure prediction by ZEFSAII (Michael W. Deem and Ramdas Pophale) SiO2 
 PCOD8057817
Probable space group: P 2/M
;
_chemical_formula_sum "Si O2"
_cell_formula_units_Z 32
_cell_length_a 28.419832
_cell_length_b 9.036993
_cell_length_c 14.488256
_cell_angle_alpha 90.000000
_cell_angle_beta 150.728566
_cell_angle_gamma 90.000000
_cell_volume 1819.381961
_symmetry_space_group_name_H-M "P 2/M"
_symmetry_group_IT_number 10
_symmetry_cell_setting 'monoclinic'
loop_
_space_group_symop_operation_xyz
x,y,z
-x,y,-z
-x,-y,-z
x,-y,z
loop_
_atom_site_type_symbol
_atom_site_label
_atom_site_fract_x
_atom_site_fract_y
_atom_site_fract_z
Si Si1 0.082213 0.324711 0.761384
Si Si2 0.194538 0.175099 0.449116
Si Si3 0.818168 0.674235 0.884343
Si Si4 0.709215 0.173841 0.202661
Si Si5 0.870540 0.324781 0.361355
Si Si6 0.691033 0.824153 0.529739
Si Si7 0.500935 0.174973 0.896651
Si Si8 0.986548 0.163971 0.084341
O O1 0.078843 0.500000 0.758525
O O2 0.126407 0.272129 0.740003
O O3 0.970641 0.269950 0.580878
O O4 0.151126 0.265540 0.961469
O O5 0.264251 0.228202 0.649341
O O6 0.232352 0.233690 0.415431
O O7 0.087871 0.229613 0.294351
O O8 0.193940 0.000000 0.440274
O O9 0.801790 0.500000 0.856647
O O10 0.720642 0.750857 0.678714
O O11 0.905329 0.717291 0.966502
O O12 0.775113 0.254417 0.240864
O O13 0.725830 0.000000 0.218461
O O14 0.596830 0.217483 0.002934
O O15 0.860944 0.500000 0.352473
O O16 0.587257 0.766649 0.316926
O O17 0.692683 0.000000 0.545395
O O18 0.491556 0.000000 0.891258
O O19 0.500000 0.241313 0.000000
O O20 0.961920 0.000000 0.083827
O O21 0.000000 0.144185 0.000000
#
# Coordination Sequence:
#
# PCOD8057817 Si02
#       8
#     4   4   4   4   4   4   4   4
#     4   8  17  34  54  72  96 130 167 198 237 299
#     4   9  16  27  45  67  95 127 160 193 229 279
#     4  11  21  32  47  70  98 128 162 205 246 282
#     4  10  18  29  49  78 102 121 155 208 253 284
#     4   9  17  34  56  74  94 128 165 199 244 299
#     4  10  18  32  50  68  93 132 171 195 228 288
#     4   9  16  29  52  74  95 129 170 203 237 287
#     4  10  18  29  44  64  94 132 164 189 223 283
#
# _framework density 17.58839
#
# number of rings (size 3 to 8) (size 9 to 14) (size 15 to 20)
#    0.000    2.500    2.500    1.875    0.000    0.250 
#    0.000    4.375    0.000    1.500    0.000    5.250 
#    0.000    0.000    0.000    0.000    0.000    0.000 
#
# Total GULP energy -396489.045023 kJ/mol
# GULP energy per Si atom -12390.282657 kJ/mol
# Density = 1.754836 g / cm^3
# Si number density = 17.588390 Si / 1000 Ang^3
#
#
#
# Elastic Constant Matrix: (Units=GPa)
#
#
# Indices 1 2 3 4 5 6 
#
# 1 91.1205 23.9474 59.1300 0.0000 -0.9254 0.0000
# 2 23.9474 31.7701 30.1213 0.0000 -1.7989 0.0000
# 3 59.1300 30.1213 161.7408 0.0000 -6.6196 0.0000
# 4 0.0000 0.0000 0.0000 18.3464 0.0000 -4.6163
# 5 -0.9254 -1.7989 -6.6196 0.0000 26.3782 0.0000
# 6 0.0000 0.0000 0.0000 -4.6163 0.0000 -5.8428
#
#
#
# Elastic Compliance Matrix: (Units=1/GPa)
#
#
# Indices 1 2 3 4 5 6 
#
# 1 0.015876 -0.007874 -0.004382 0.000000 -0.001080 0.000000
# 2 -0.007874 0.042148 -0.004915 0.000000 0.001365 0.000000
# 3 -0.004382 -0.004915 0.008770 0.000000 0.001712 0.000000
# 4 0.000000 0.000000 0.000000 0.045468 0.000000 -0.035923
# 5 -0.001080 0.001365 0.001712 0.000000 0.038395 0.000000
# 6 0.000000 0.000000 0.000000 -0.035923 0.000000 -0.142768
#
#
# Mechanical properties :
#
#
# Convention : Reuss Voigt Hill
#
# Bulk Modulus (GPa) = 30.81342 56.78096 43.79719
# Shear Modulus (GPa) = 94.25382 19.20520 56.72951
#
# Velocity S-wave (km/s) = 7.32837 3.30801 5.68542
# Velocity P-wave (km/s) = 9.44266 6.85156 8.24948
#
# Compressibility (1/GPa) = 0.03245339
#
# Stress axis : x y z
#
# Youngs Moduli (GPa) = 62.98663 23.72576 114.02335
#
# Poissons Ratio (x) = 0.18681 0.49965
# Poissons Ratio (y) = 0.49594 0.56043
# Poissons Ratio (z) = 0.27601 0.11661
#
# Static dielectric constant tensor:
#      x y z
#    x 3.203060 0.000000 -0.063640 
#    y 0.000000 2.865110 0.000000 
#    z -0.063640 0.000000 3.882190 
# 
# 
# High freq. dielectric constant tensor:
#      x y z
#    x 1.657620 0.000000 -0.003050 
#    y 0.000000 1.636900 0.000000 
#    z -0.003050 0.000000 1.691700 
# 
# From -- ./inp_files/72583.got.cif
#   From: 2010.06.25/outbox.cif.g09.slc.cpg/sg10_37_cif.got.tgz:72583.got - 2010.06.27 22:07:45.
