data_PCOD8057586
_publ_section_title
;
Structure prediction by ZEFSAII (Michael W. Deem and Ramdas Pophale) SiO2 
 PCOD8057586
Probable space group: P 2/M
;
_chemical_formula_sum "Si O2"
_cell_formula_units_Z 32
_cell_length_a 14.351269
_cell_length_b 8.976824
_cell_length_c 15.677312
_cell_angle_alpha 90.000000
_cell_angle_beta 88.579236
_cell_angle_gamma 90.000000
_cell_volume 2019.068630
_symmetry_space_group_name_H-M "P 2/M"
_symmetry_group_IT_number 10
_symmetry_cell_setting 'monoclinic'
loop_
_space_group_symop_operation_xyz
x,y,z
-x,y,-z
-x,-y,-z
x,-y,z
loop_
_atom_site_type_symbol
_atom_site_label
_atom_site_fract_x
_atom_site_fract_y
_atom_site_fract_z
Si Si1 0.090715 0.178128 0.309554
Si Si2 0.879783 0.178179 0.324836
Si Si3 0.107643 0.825751 0.982920
Si Si4 0.213080 0.676905 0.828590
Si Si5 0.213129 0.823664 0.150872
Si Si6 0.394344 0.323889 0.099659
Si Si7 0.400553 0.675840 0.907270
Si Si8 0.110143 0.162688 0.491020
O O1 0.152754 0.240213 0.230910
O O2 0.130495 0.244347 0.399541
O O3 0.984211 0.228284 0.296426
O O4 0.093749 0.000000 0.314725
O O5 0.807931 0.255005 0.262904
O O6 0.855494 0.239722 0.421464
O O7 0.870119 0.000000 0.320834
O O8 0.140636 0.735194 0.900135
O O9 0.122610 0.000000 0.964547
O O10 0.165226 0.771592 0.064080
O O11 0.000000 0.788777 0.000000
O O12 0.206567 0.500000 0.825205
O O13 0.317646 0.733158 0.848767
O O14 0.316455 0.757130 0.157915
O O15 0.218017 0.000000 0.155588
O O16 0.379086 0.500000 0.106520
O O17 0.497593 0.276320 0.130720
O O18 0.384314 0.263502 0.003166
O O19 0.398967 0.500000 0.914783
O O20 0.000000 0.142844 0.500000
O O21 0.157406 0.000000 0.486930
#
# Coordination Sequence:
#
# PCOD8057586 Si02
#       8
#     4   4   4   4   4   4   4   4
#     4   8  14  26  44  65  90 117 144 174 209 254
#     4   9  16  28  46  66  88 116 148 178 209 249
#     4  10  20  32  43  58  87 124 151 170 200 246
#     4  11  20  30  44  64  87 113 146 180 215 254
#     4  10  18  27  42  66  90 111 139 178 219 249
#     4   9  16  31  49  60  77 109 147 181 216 260
#     4   8  16  30  47  61  77 109 147 181 216 257
#     4   7  11  22  43  66  83 108 148 181 203 242
#
# _framework density 15.848891
#
# number of rings (size 3 to 8) (size 9 to 14) (size 15 to 20)
#    0.000    3.000    1.250    3.375    0.000    2.250 
#    0.000    4.375    0.000    4.125    0.000    0.875 
#    0.000    7.000    0.000    0.000    0.000    0.000 
#
# Total GULP energy -396479.247822 kJ/mol
# GULP energy per Si atom -12389.976494 kJ/mol
# Density = 1.581282 g / cm^3
# Si number density = 15.848891 Si / 1000 Ang^3
#
#
#
# Elastic Constant Matrix: (Units=GPa)
#
#
# Indices 1 2 3 4 5 6 
#
# 1 100.8389 19.7091 44.6400 0.0000 11.9827 0.0000
# 2 19.7091 21.8202 18.5735 0.0000 5.5895 0.0000
# 3 44.6400 18.5735 96.7754 0.0000 20.6667 0.0000
# 4 0.0000 0.0000 0.0000 7.3454 0.0000 0.7123
# 5 11.9827 5.5895 20.6667 0.0000 19.6008 0.0000
# 6 0.0000 0.0000 0.0000 0.7123 0.0000 22.1696
#
#
#
# Elastic Compliance Matrix: (Units=1/GPa)
#
#
# Indices 1 2 3 4 5 6 
#
# 1 0.013641 -0.008208 -0.004435 0.000000 -0.001323 0.000000
# 2 -0.008208 0.060242 -0.006684 0.000000 -0.005114 0.000000
# 3 -0.004435 -0.006684 0.016359 0.000000 -0.012632 0.000000
# 4 0.000000 0.000000 0.000000 0.136565 0.000000 -0.004388
# 5 -0.001323 -0.005114 -0.012632 0.000000 0.066604 0.000000
# 6 0.000000 0.000000 0.000000 -0.004388 0.000000 0.045248
#
#
# Mechanical properties :
#
#
# Convention : Reuss Voigt Hill
#
# Bulk Modulus (GPa) = 19.38349 42.80885 31.09617
# Shear Modulus (GPa) = 12.67400 18.92396 15.79898
#
# Velocity S-wave (km/s) = 2.83092 3.45921 3.16072
# Velocity P-wave (km/s) = 4.78981 6.55928 5.74310
#
# Compressibility (1/GPa) = 0.05159029
#
# Stress axis : x y z
#
# Youngs Moduli (GPa) = 73.30623 16.59968 61.12837
#
# Poissons Ratio (x) = 0.13625 0.27108
# Poissons Ratio (y) = 0.60169 0.40856
# Poissons Ratio (z) = 0.32508 0.11095
#
# Static dielectric constant tensor:
#      x y z
#    x 3.097290 0.000000 0.095000 
#    y 0.000000 2.637350 0.000000 
#    z 0.095000 0.000000 3.275660 
# 
# 
# High freq. dielectric constant tensor:
#      x y z
#    x 1.593730 0.000000 0.005850 
#    y 0.000000 1.572450 0.000000 
#    z 0.005850 0.000000 1.604120 
# 
# From -- ./inp_files/66031.got.cif
#   From: 2010.06.25/outbox.cif.g09.slc.cpg/sg10_34_cif.got.tgz:66031.got - 2010.06.27 22:07:45.
