data_PCOD8057399
_publ_section_title
;
Structure prediction by ZEFSAII (Michael W. Deem and Ramdas Pophale) SiO2 
 PCOD8057399
Probable space group: P 2/M
;
_chemical_formula_sum "Si O2"
_cell_formula_units_Z 30
_cell_length_a 12.540371
_cell_length_b 8.477006
_cell_length_c 16.639942
_cell_angle_alpha 90.000000
_cell_angle_beta 58.962602
_cell_angle_gamma 90.000000
_cell_volume 1515.653148
_symmetry_space_group_name_H-M "P 2/M"
_symmetry_group_IT_number 10
_symmetry_cell_setting 'monoclinic'
loop_
_space_group_symop_operation_xyz
x,y,z
-x,y,-z
-x,-y,-z
x,-y,z
loop_
_atom_site_type_symbol
_atom_site_label
_atom_site_fract_x
_atom_site_fract_y
_atom_site_fract_z
Si Si1 0.055014 0.314753 0.186217
Si Si2 0.127735 0.685011 0.984830
Si Si3 0.657063 0.687221 0.213138
Si Si4 0.187469 0.670116 0.293207
Si Si5 0.608446 0.816441 0.683806
Si Si6 0.789905 0.183656 0.311831
Si Si7 0.778917 0.313608 0.490145
Si Si8 0.000000 0.717529 0.500000
O O1 0.024268 0.500000 0.205872
O O2 0.126736 0.253137 0.237250
O O3 0.926315 0.222840 0.225705
O O4 0.139099 0.277972 0.075372
O O5 0.123856 0.500000 0.970118
O O6 0.246529 0.753676 0.891285
O O7 0.000000 0.760326 0.000000
O O8 0.661942 0.500000 0.218439
O O9 0.521800 0.743540 0.237965
O O10 0.688056 0.762804 0.287020
O O11 0.247884 0.500000 0.247961
O O12 0.292679 0.789156 0.283076
O O13 0.083104 0.629938 0.400871
O O14 0.651909 0.727918 0.585662
O O15 0.594564 0.000000 0.671573
O O16 0.762114 0.278235 0.403809
O O17 0.775937 0.000000 0.334811
O O18 0.811283 0.500000 0.489355
O O19 0.891442 0.203638 0.486000
#
# Coordination Sequence:
#
# PCOD8057399 Si02
#       8
#     4   4   4   4   4   4   4   2
#     4  10  19  36  60  89 120 154 194 247 295 342
#     4   9  17  33  62  93 114 141 195 253 295 335
#     4  11  22  41  65  85 112 155 202 244 290 350
#     4  10  19  34  58  86 118 156 200 239 285 345
#     4  11  24  41  58  84 121 157 195 242 294 350
#     4  12  24  36  55  90 127 156 188 237 297 354
#     4  11  21  38  60  86 116 157 203 240 285 341
#     4  10  17  30  57  88 113 146 193 244 281 330
#
# _framework density 19.793447
#
# number of rings (size 3 to 8) (size 9 to 14) (size 15 to 20)
#    0.000    1.467    2.667    5.200    0.000    1.067 
#    0.000    7.000    0.000    4.000    0.000    0.000 
#    0.000    0.000    0.000    0.000    0.000    0.000 
#
# Total GULP energy -371715.118794 kJ/mol
# GULP energy per Si atom -12390.503960 kJ/mol
# Density = 1.974840 g / cm^3
# Si number density = 19.793447 Si / 1000 Ang^3
#
#
#
# Elastic Constant Matrix: (Units=GPa)
#
#
# Indices 1 2 3 4 5 6 
#
# 1 105.8493 16.7229 70.1138 0.0000 -0.3311 0.0000
# 2 16.7229 61.0438 25.7501 0.0000 -2.3054 0.0000
# 3 70.1138 25.7501 119.0930 0.0000 -3.3802 0.0000
# 4 0.0000 0.0000 0.0000 -17.7778 0.0000 -15.4134
# 5 -0.3311 -2.3054 -3.3802 0.0000 39.4812 0.0000
# 6 0.0000 0.0000 0.0000 -15.4134 0.0000 11.4651
#
#
#
# Elastic Compliance Matrix: (Units=1/GPa)
#
#
# Indices 1 2 3 4 5 6 
#
# 1 0.015515 -0.000456 -0.009055 0.000000 -0.000672 0.000000
# 2 -0.000456 0.018060 -0.003615 0.000000 0.000741 0.000000
# 3 -0.009055 -0.003615 0.014536 0.000000 0.000958 0.000000
# 4 0.000000 0.000000 0.000000 -0.025975 0.000000 -0.034920
# 5 -0.000672 0.000741 0.000958 0.000000 0.025448 0.000000
# 6 0.000000 0.000000 0.000000 -0.034920 0.000000 0.040276
#
#
# Mechanical properties :
#
#
# Convention : Reuss Voigt Hill
#
# Bulk Modulus (GPa) = 45.74767 56.79552 51.27160
# Shear Modulus (GPa) = 41.18637 18.19366 29.69002
#
# Velocity S-wave (km/s) = 4.56654 3.03508 3.87717
# Velocity P-wave (km/s) = 7.13912 6.40614 6.78254
#
# Compressibility (1/GPa) = 0.02185904
#
# Stress axis : x y z
#
# Youngs Moduli (GPa) = 64.45328 55.37208 68.79274
#
# Poissons Ratio (x) = 0.02526 0.62290
# Poissons Ratio (y) = 0.02940 0.24870
# Poissons Ratio (z) = 0.58360 0.20018
#
# Static dielectric constant tensor:
#      x y z
#    x 3.660190 0.000000 0.038510 
#    y 0.000000 3.269970 0.000000 
#    z 0.038510 0.000000 3.723160 
# 
# 
# High freq. dielectric constant tensor:
#      x y z
#    x 1.771200 0.000000 0.008770 
#    y 0.000000 1.742820 0.000000 
#    z 0.008770 0.000000 1.772860 
# 
# From -- ./inp_files/76207.got.cif
#   From: 2010.06.25/outbox.cif.g09.slc.cpg/sg10_39_cif.got.tgz:76207.got - 2010.06.27 22:07:45.
