data_PCOD8057688
_publ_section_title
;
Structure prediction by ZEFSAII (Michael W. Deem and Ramdas Pophale) SiO2 
 PCOD8057688
Probable space group: P 2/M
;
_chemical_formula_sum "Si O2"
_cell_formula_units_Z 32
_cell_length_a 19.319846
_cell_length_b 9.111192
_cell_length_c 12.445409
_cell_angle_alpha 90.000000
_cell_angle_beta 117.349335
_cell_angle_gamma 90.000000
_cell_volume 1945.850849
_symmetry_space_group_name_H-M "P 2/M"
_symmetry_group_IT_number 10
_symmetry_cell_setting 'monoclinic'
loop_
_space_group_symop_operation_xyz
x,y,z
-x,y,-z
-x,-y,-z
x,-y,z
loop_
_atom_site_type_symbol
_atom_site_label
_atom_site_fract_x
_atom_site_fract_y
_atom_site_fract_z
Si Si1 0.659225 0.331051 0.210340
Si Si2 0.912102 0.825549 0.275419
Si Si3 0.067331 0.669638 0.326178
Si Si4 0.827408 0.666202 0.402417
Si Si5 0.656491 0.826792 0.984627
Si Si6 0.814937 0.172974 0.003297
Si Si7 0.512065 0.837051 0.135891
Si Si8 0.082268 0.170585 0.115421
O O1 0.642802 0.500000 0.174489
O O2 0.734586 0.305754 0.338443
O O3 0.583519 0.267798 0.219040
O O4 0.674645 0.251728 0.109112
O O5 0.869498 0.779139 0.353674
O O6 0.996888 0.754580 0.332112
O O7 0.920947 0.000000 0.279980
O O8 0.862912 0.764818 0.138955
O O9 0.044385 0.500000 0.296234
O O10 0.142515 0.690117 0.455441
O O11 0.089076 0.735462 0.227036
O O12 0.845293 0.500000 0.375856
O O13 0.723915 0.781890 0.948105
O O14 0.571500 0.782878 0.875337
O O15 0.658085 0.000000 0.010462
O O16 0.850598 0.231138 0.917041
O O17 0.825640 0.000000 0.012609
O O18 0.532161 0.000000 0.191977
O O19 0.500000 0.836920 0.000000
O O20 0.093457 0.000000 0.152804
O O21 0.000000 0.196269 0.000000
#
# Coordination Sequence:
#
# PCOD8057688 Si02
#       8
#     4   4   4   4   4   4   4   4
#     4  10  18  28  44  66  94 127 159 190 231 276
#     4  11  20  33  53  74  95 125 165 201 238 284
#     4  11  23  37  50  67  97 131 164 200 242 286
#     4  10  22  36  47  67 100 134 162 197 240 284
#     4   9  16  29  46  67  95 127 156 185 234 289
#     4   9  17  30  50  72  96 124 153 196 243 280
#     4   8  15  26  42  64  93 125 155 186 227 284
#     4  10  19  35  54  72  94 120 159 206 246 282
#
# _framework density 16.445247999999999
#
# number of rings (size 3 to 8) (size 9 to 14) (size 15 to 20)
#    0.000    2.250    2.500    2.250    0.000    5.500 
#    0.000    0.625    0.000    0.000    0.000    0.875 
#    0.000    7.000    0.000    0.000    0.000    0.000 
#
# Total GULP energy -396708.057158 kJ/mol
# GULP energy per Si atom -12397.126786 kJ/mol
# Density = 1.640782 g / cm^3
# Si number density = 16.445248 Si / 1000 Ang^3
#
#
#
# Elastic Constant Matrix: (Units=GPa)
#
#
# Indices 1 2 3 4 5 6 
#
# 1 134.8168 48.9771 52.5958 0.0000 19.7670 0.0000
# 2 48.9771 72.9110 43.2823 0.0000 6.7072 0.0000
# 3 52.5958 43.2823 79.4466 0.0000 5.2102 0.0000
# 4 0.0000 0.0000 0.0000 20.1085 0.0000 1.6550
# 5 19.7670 6.7072 5.2102 0.0000 21.5044 0.0000
# 6 0.0000 0.0000 0.0000 1.6550 0.0000 20.1599
#
#
#
# Elastic Compliance Matrix: (Units=1/GPa)
#
#
# Indices 1 2 3 4 5 6 
#
# 1 0.012311 -0.004390 -0.005188 0.000000 -0.008690 0.000000
# 2 -0.004390 0.022132 -0.009108 0.000000 -0.000661 0.000000
# 3 -0.005188 -0.009108 0.020815 0.000000 0.002567 0.000000
# 4 0.000000 0.000000 0.000000 0.050068 0.000000 -0.004110
# 5 -0.008690 -0.000661 0.002567 0.000000 0.054074 0.000000
# 6 0.000000 0.000000 0.000000 -0.004110 0.000000 0.049941
#
#
# Mechanical properties :
#
#
# Convention : Reuss Voigt Hill
#
# Bulk Modulus (GPa) = 55.91101 64.09829 60.00465
# Shear Modulus (GPa) = 19.78828 21.84250 20.81539
#
# Velocity S-wave (km/s) = 3.47260 3.64839 3.56158
# Velocity P-wave (km/s) = 7.08171 7.53718 7.31300
#
# Compressibility (1/GPa) = 0.01788557
#
# Stress axis : x y z
#
# Youngs Moduli (GPa) = 81.23121 45.18406 48.04155
#
# Poissons Ratio (x) = 0.19837 0.24925
# Poissons Ratio (y) = 0.35662 0.43754
# Poissons Ratio (z) = 0.42145 0.41152
#
# Static dielectric constant tensor:
#      x y z
#    x 3.533340 0.000000 0.186540 
#    y 0.000000 3.074060 0.000000 
#    z 0.186540 0.000000 2.904640 
# 
# 
# High freq. dielectric constant tensor:
#      x y z
#    x 1.639220 0.000000 0.017550 
#    y 0.000000 1.628810 0.000000 
#    z 0.017550 0.000000 1.597120 
# 
# From -- ./inp_files/52757.got.cif
#   From: 2010.06.25/outbox.cif.g09.slc.cpg/sg10_27_cif.got.tgz:52757.got - 2010.06.27 22:07:45.
