data_PCOD8057545
_publ_section_title
;
Structure prediction by ZEFSAII (Michael W. Deem and Ramdas Pophale) SiO2 
 PCOD8057545
Probable space group: P 2/M
;
_chemical_formula_sum "Si O2"
_cell_formula_units_Z 24
_cell_length_a 12.309928
_cell_length_b 9.307257
_cell_length_c 21.527134
_cell_angle_alpha 90.000000
_cell_angle_beta 37.951047
_cell_angle_gamma 90.000000
_cell_volume 1516.806083
_symmetry_space_group_name_H-M "P 2/M"
_symmetry_group_IT_number 10
_symmetry_cell_setting 'monoclinic'
loop_
_space_group_symop_operation_xyz
x,y,z
-x,y,-z
-x,-y,-z
x,-y,z
loop_
_atom_site_type_symbol
_atom_site_label
_atom_site_fract_x
_atom_site_fract_y
_atom_site_fract_z
Si Si1 0.162470 0.170125 0.010981
Si Si2 0.401224 0.168603 0.336660
Si Si3 0.785139 0.831945 0.151418
Si Si4 0.547794 0.667019 0.047369
Si Si5 0.732087 0.667804 0.722230
Si Si6 0.052676 0.840315 0.548196
O O1 0.222374 0.226078 0.915896
O O2 0.279291 0.247197 0.009891
O O3 0.186161 0.000000 0.008763
O O4 0.957040 0.222057 0.111934
O O5 0.600757 0.207014 0.269191
O O6 0.364162 0.257568 0.291599
O O7 0.260873 0.205966 0.454891
O O8 0.385078 0.000000 0.326615
O O9 0.811793 0.000000 0.132352
O O10 0.596412 0.500000 0.027608
O O11 0.378874 0.701312 0.166240
O O12 0.500000 0.718174 0.000000
O O13 0.748805 0.500000 0.700856
O O14 0.930351 0.731331 0.642082
O O15 0.000000 0.838450 0.500000
O O16 0.028456 0.000000 0.587173
#
# Coordination Sequence:
#
# PCOD8057545 Si02
#       6
#     4   4   4   4   4   4
#     4   9  16  28  46  66  85 110 144 177 210 252
#     4   9  15  26  43  62  87 116 137 159 205 264
#     4   8  14  25  44  67  90 112 134 169 215 258
#     4  10  21  34  44  58  85 119 150 180 217 252
#     4  10  18  27  40  58  82 112 143 179 213 242
#     4   8  15  25  39  59  83 112 139 164 204 257
#
# _framework density 15.822722000000001
#
# number of rings (size 3 to 8) (size 9 to 14) (size 15 to 20)
#    0.000    3.000    1.667    2.500    0.000    4.000 
#    0.000    2.500    0.000    0.000    0.000    1.167 
#    0.000    9.333    0.000    0.000    0.000    0.000 
#
# Total GULP energy -297361.519332 kJ/mol
# GULP energy per Si atom -12390.063306 kJ/mol
# Density = 1.578671 g / cm^3
# Si number density = 15.822722 Si / 1000 Ang^3
#
#
#
# Elastic Constant Matrix: (Units=GPa)
#
#
# Indices 1 2 3 4 5 6 
#
# 1 94.7188 38.8863 61.4065 0.0000 -21.2464 0.0000
# 2 38.8863 55.9850 46.8588 0.0000 -8.9428 0.0000
# 3 61.4065 46.8588 117.3421 0.0000 -35.0883 0.0000
# 4 0.0000 0.0000 0.0000 11.8819 0.0000 2.2761
# 5 -21.2464 -8.9428 -35.0883 0.0000 30.4147 0.0000
# 6 0.0000 0.0000 0.0000 2.2761 0.0000 12.5646
#
#
#
# Elastic Compliance Matrix: (Units=1/GPa)
#
#
# Indices 1 2 3 4 5 6 
#
# 1 0.017911 -0.007516 -0.005025 0.000000 0.004505 0.000000
# 2 -0.007516 0.030945 -0.011104 0.000000 -0.008962 0.000000
# 3 -0.005025 -0.011104 0.020701 0.000000 0.017107 0.000000
# 4 0.000000 0.000000 0.000000 0.087187 0.000000 -0.015794
# 5 0.004505 -0.008962 0.017107 0.000000 0.053127 0.000000
# 6 0.000000 0.000000 0.000000 -0.015794 0.000000 0.082450
#
#
# Mechanical properties :
#
#
# Convention : Reuss Voigt Hill
#
# Bulk Modulus (GPa) = 44.90642 62.48321 53.69481
# Shear Modulus (GPa) = 14.40785 19.03185 16.71985
#
# Velocity S-wave (km/s) = 3.02085 3.47193 3.25422
# Velocity P-wave (km/s) = 6.37260 7.45974 6.93749
#
# Compressibility (1/GPa) = 0.02226853
#
# Stress axis : x y z
#
# Youngs Moduli (GPa) = 55.83118 32.31583 48.30596
#
# Poissons Ratio (x) = 0.24287 0.24272
# Poissons Ratio (y) = 0.41960 0.53639
# Poissons Ratio (z) = 0.28053 0.35884
#
# Static dielectric constant tensor:
#      x y z
#    x 2.818470 0.000000 -0.478490 
#    y 0.000000 2.874810 0.000000 
#    z -0.478490 0.000000 3.418940 
# 
# 
# High freq. dielectric constant tensor:
#      x y z
#    x 1.563770 0.000000 -0.039020 
#    y 0.000000 1.593320 0.000000 
#    z -0.039020 0.000000 1.611220 
# 
# From -- ./inp_files/48884.got.cif
#   From: 2010.06.25/outbox.cif.g09.slc.cpg/sg10_25_cif.got.tgz:48884.got - 2010.06.27 22:07:45.
