data_PCOD8057758
_publ_section_title
;
Structure prediction by ZEFSAII (Michael W. Deem and Ramdas Pophale) SiO2 
 PCOD8057758
Probable space group: P 2/M
;
_chemical_formula_sum "Si O2"
_cell_formula_units_Z 32
_cell_length_a 21.261445
_cell_length_b 9.083519
_cell_length_c 27.863464
_cell_angle_alpha 90.000000
_cell_angle_beta 18.987400
_cell_angle_gamma 90.000000
_cell_volume 1750.840005
_symmetry_space_group_name_H-M "P 2/M"
_symmetry_group_IT_number 10
_symmetry_cell_setting 'monoclinic'
loop_
_space_group_symop_operation_xyz
x,y,z
-x,y,-z
-x,-y,-z
x,-y,z
loop_
_atom_site_type_symbol
_atom_site_label
_atom_site_fract_x
_atom_site_fract_y
_atom_site_fract_z
Si Si1 0.162658 0.175186 0.918718
Si Si2 0.105474 0.833656 0.557814
Si Si3 0.837330 0.326395 0.581250
Si Si4 0.150609 0.673181 0.674658
Si Si5 0.452402 0.166335 0.884183
Si Si6 0.142223 0.167166 0.178813
Si Si7 0.909437 0.827903 0.922493
Si Si8 0.418206 0.827888 0.413594
O O1 0.370916 0.234104 0.751672
O O2 0.165638 0.000000 0.917227
O O3 0.118823 0.234103 0.003604
O O4 0.000000 0.236199 0.000000
O O5 0.112957 0.725805 0.507860
O O6 0.277753 0.795296 0.470116
O O7 0.898388 0.813485 0.734950
O O8 0.128365 0.000000 0.522205
O O9 0.835309 0.500000 0.582244
O O10 0.629711 0.274248 0.749234
O O11 0.000000 0.265087 0.500000
O O12 0.175141 0.500000 0.662374
O O13 0.349041 0.742587 0.511237
O O14 0.981846 0.711619 0.759108
O O15 0.092451 0.742552 0.767894
O O16 0.526248 0.000000 0.823073
O O17 0.365362 0.186520 0.001249
O O18 0.286050 0.204605 0.965948
O O19 0.074333 0.000000 0.212781
O O20 0.958311 0.000000 0.886886
O O21 0.422395 0.000000 0.422642
#
# Coordination Sequence:
#
# PCOD8057758 Si02
#       8
#     4   4   4   4   4   4   4   4
#     4   9  17  30  51  77 100 127 168 212 250 291
#     4   9  17  32  55  77  96 125 163 202 246 293
#     4  11  24  37  47  67 102 137 166 200 242 287
#     4  10  18  28  47  76 103 129 165 201 239 294
#     4   9  17  32  55  77  96 125 163 202 246 293
#     4   8  16  32  53  78 103 123 153 203 255 292
#     4   9  17  32  53  76 102 128 159 205 253 291
#     4   9  17  32  53  76 102 128 159 205 253 291
#
# _framework density 18.276941000000001
#
# number of rings (size 3 to 8) (size 9 to 14) (size 15 to 20)
#    0.000    2.750    0.000    3.750    0.000    7.000 
#    0.000    1.875    0.000    9.000    0.000    0.000 
#    0.000    0.000    0.000    0.000    0.000    0.000 
#
# Total GULP energy -396646.966446 kJ/mol
# GULP energy per Si atom -12395.217701 kJ/mol
# Density = 1.823534 g / cm^3
# Si number density = 18.276941 Si / 1000 Ang^3
#
#
#
# Elastic Constant Matrix: (Units=GPa)
#
#
# Indices 1 2 3 4 5 6 
#
# 1 75.9980 38.4003 88.1585 0.0000 9.5478 0.0000
# 2 38.4003 67.1468 53.1878 0.0000 10.5818 0.0000
# 3 88.1585 53.1878 145.4505 0.0000 40.1483 0.0000
# 4 0.0000 0.0000 0.0000 14.9833 0.0000 1.0019
# 5 9.5478 10.5818 40.1483 0.0000 21.9219 0.0000
# 6 0.0000 0.0000 0.0000 1.0019 0.0000 13.5178
#
#
#
# Elastic Compliance Matrix: (Units=1/GPa)
#
#
# Indices 1 2 3 4 5 6 
#
# 1 0.418764 -0.005181 -0.409053 0.000000 0.569264 0.000000
# 2 -0.005181 0.021734 -0.005125 0.000000 0.001152 0.000000
# 3 -0.409053 -0.005125 0.418259 0.000000 -0.585379 0.000000
# 4 0.000000 0.000000 0.000000 0.067074 0.000000 -0.004971
# 5 0.569264 0.001152 -0.585379 0.000000 0.869204 0.000000
# 6 0.000000 0.000000 0.000000 -0.004971 0.000000 0.074345
#
#
# Mechanical properties :
#
#
# Convention : Reuss Voigt Hill
#
# Bulk Modulus (GPa) = 49.90376 72.00981 60.95679
# Shear Modulus (GPa) = 1.84177 17.34117 9.59147
#
# Velocity S-wave (km/s) = 1.00493 3.08360 2.29330
# Velocity P-wave (km/s) = 5.35817 7.22239 6.35897
#
# Compressibility (1/GPa) = 0.02003857
#
# Stress axis : x y z
#
# Youngs Moduli (GPa) = 2.38798 46.01086 2.39086
#
# Poissons Ratio (x) = 0.23838 0.97799
# Poissons Ratio (y) = 0.01237 0.01225
# Poissons Ratio (z) = 0.97681 0.23582
#
# Static dielectric constant tensor:
#      x y z
#    x 3.248740 0.000000 0.296160 
#    y 0.000000 3.067660 0.000000 
#    z 0.296160 0.000000 3.669510 
# 
# 
# High freq. dielectric constant tensor:
#      x y z
#    x 1.679940 0.000000 0.028860 
#    y 0.000000 1.684010 0.000000 
#    z 0.028860 0.000000 1.721000 
# 
# From -- ./inp_files/93605.got.cif
#   From: 2010.06.25/outbox.cif.g09.slc.cpg/sg10_47_cif.got.tgz:93605.got - 2010.06.27 22:07:45.
