data_PCOD8057103
_publ_section_title
;
Structure prediction by ZEFSAII (Michael W. Deem and Ramdas Pophale) SiO2 
 PCOD8057103
Probable space group: P 2/M
;
_chemical_formula_sum "Si O2"
_cell_formula_units_Z 32
_cell_length_a 17.602527
_cell_length_b 9.017759
_cell_length_c 23.925177
_cell_angle_alpha 90.000000
_cell_angle_beta 31.405830
_cell_angle_gamma 90.000000
_cell_volume 1979.005234
_symmetry_space_group_name_H-M "P 2/M"
_symmetry_group_IT_number 10
_symmetry_cell_setting 'monoclinic'
loop_
_space_group_symop_operation_xyz
x,y,z
-x,y,-z
-x,-y,-z
x,-y,z
loop_
_atom_site_type_symbol
_atom_site_label
_atom_site_fract_x
_atom_site_fract_y
_atom_site_fract_z
Si Si1 0.949806 0.676325 0.143029
Si Si2 0.675400 0.676882 0.246184
Si Si3 0.164984 0.175726 0.174780
Si Si4 0.264872 0.324987 0.913031
Si Si5 0.562023 0.323804 0.519438
Si Si6 0.612145 0.326122 0.048040
Si Si7 0.389737 0.836360 0.120567
Si Si8 0.890594 0.675439 0.305881
O O1 0.951100 0.500000 0.141152
O O2 0.822449 0.737132 0.182957
O O3 0.920331 0.730315 0.224360
O O4 0.103887 0.741871 0.025255
O O5 0.674828 0.500000 0.247553
O O6 0.670226 0.738301 0.185842
O O7 0.535389 0.737397 0.368079
O O8 0.235292 0.216100 0.191346
O O9 0.002665 0.241778 0.276637
O O10 0.164004 0.000000 0.166506
O O11 0.258293 0.246563 0.066257
O O12 0.247932 0.500000 0.918469
O O13 0.372969 0.284180 0.895968
O O14 0.500000 0.259008 0.500000
O O15 0.553258 0.500000 0.521912
O O16 0.728249 0.273710 0.424879
O O17 0.629662 0.500000 0.026711
O O18 0.451460 0.274925 0.128770
O O19 0.375918 0.000000 0.156191
O O20 0.500000 0.842088 0.000000
O O21 0.912049 0.500000 0.298559
#
# Coordination Sequence:
#
# PCOD8057103 Si02
#       8
#     4   4   4   4   4   4   4   4
#     4   9  14  22  36  57  87 117 143 174 209 249
#     4   9  15  23  36  57  88 121 147 174 213 257
#     4  10  19  30  43  61  87 117 146 174 212 264
#     4   9  16  23  34  59  91 118 143 172 210 254
#     4   9  15  24  39  61  88 115 144 182 223 254
#     4  10  17  26  42  65  91 115 141 176 215 254
#     4   8  16  29  42  59  85 115 144 171 207 263
#     4  10  17  26  43  66  89 111 143 186 220 248
#
# _framework density 16.169740000000001
#
# number of rings (size 3 to 8) (size 9 to 14) (size 15 to 20)
#    0.000    2.750    2.500    1.875    0.000    4.250 
#    0.000    0.000    0.000    0.375    0.000    5.250 
#    0.000    7.000    0.000    0.000    0.000    0.000 
#
# Total GULP energy -396610.537769 kJ/mol
# GULP energy per Si atom -12394.079305 kJ/mol
# Density = 1.613294 g / cm^3
# Si number density = 16.169740 Si / 1000 Ang^3
#
#
#
# Elastic Constant Matrix: (Units=GPa)
#
#
# Indices 1 2 3 4 5 6 
#
# 1 144.9260 36.5506 77.3188 0.0000 -17.7077 0.0000
# 2 36.5506 34.8896 21.7562 0.0000 -6.9293 0.0000
# 3 77.3188 21.7562 112.5760 0.0000 -1.2158 0.0000
# 4 0.0000 0.0000 0.0000 6.0442 0.0000 -4.5488
# 5 -17.7077 -6.9293 -1.2158 0.0000 23.9999 0.0000
# 6 0.0000 0.0000 0.0000 -4.5488 0.0000 4.2906
#
#
#
# Elastic Compliance Matrix: (Units=1/GPa)
#
#
# Indices 1 2 3 4 5 6 
#
# 1 0.014277 -0.008373 -0.008104 0.000000 0.007706 0.000000
# 2 -0.008373 0.039612 -0.001849 0.000000 0.005166 0.000000
# 3 -0.008104 -0.001849 0.014744 0.000000 -0.005767 0.000000
# 4 0.000000 0.000000 0.000000 0.818530 0.000000 0.867780
# 5 0.007706 0.005166 -0.005767 0.000000 0.048552 0.000000
# 6 0.000000 0.000000 0.000000 0.867780 0.000000 1.153060
#
#
# Mechanical properties :
#
#
# Convention : Reuss Voigt Hill
#
# Bulk Modulus (GPa) = 31.26851 62.62700 46.94776
# Shear Modulus (GPa) = 2.34073 17.31800 9.82937
#
# Velocity S-wave (km/s) = 1.20447 3.27618 2.46821
# Velocity P-wave (km/s) = 4.61671 7.28878 6.10083
#
# Compressibility (1/GPa) = 0.03198106
#
# Stress axis : x y z
#
# Youngs Moduli (GPa) = 70.04345 25.24485 67.82365
#
# Poissons Ratio (x) = 0.21136 0.54966
# Poissons Ratio (y) = 0.58644 0.12542
# Poissons Ratio (z) = 0.56765 0.04668
#
# Static dielectric constant tensor:
#      x y z
#    x 3.380520 0.000000 -0.132590 
#    y 0.000000 2.644510 0.000000 
#    z -0.132590 0.000000 3.079210 
# 
# 
# High freq. dielectric constant tensor:
#      x y z
#    x 1.628290 0.000000 -0.014700 
#    y 0.000000 1.575910 0.000000 
#    z -0.014700 0.000000 1.593190 
# 
# From -- ./inp_files/54926.got.cif
#   From: 2010.06.25/outbox.cif.g09.slc.cpg/sg10_28_cif.got.tgz:54926.got - 2010.06.27 22:07:45.
