data_PCOD8057476
_publ_section_title
;
Structure prediction by ZEFSAII (Michael W. Deem and Ramdas Pophale) SiO2 
 PCOD8057476
Probable space group: P 2/M
;
_chemical_formula_sum "Si O2"
_cell_formula_units_Z 24
_cell_length_a 17.883789
_cell_length_b 11.489005
_cell_length_c 11.125317
_cell_angle_alpha 90.000000
_cell_angle_beta 37.405474
_cell_angle_gamma 90.000000
_cell_volume 1388.564720
_symmetry_space_group_name_H-M "P 2/M"
_symmetry_group_IT_number 10
_symmetry_cell_setting 'monoclinic'
loop_
_space_group_symop_operation_xyz
x,y,z
-x,y,-z
-x,-y,-z
x,-y,z
loop_
_atom_site_type_symbol
_atom_site_label
_atom_site_fract_x
_atom_site_fract_y
_atom_site_fract_z
Si Si1 0.683260 0.781956 0.698602
Si Si2 0.931559 0.000000 0.897112
Si Si3 0.264707 0.000000 0.050528
Si Si4 0.000000 0.805490 0.000000
Si Si5 0.531555 0.367429 0.586417
Si Si6 0.791971 0.634025 0.362391
Si Si7 0.160000 0.000000 0.441845
Si Si8 0.571664 0.788387 0.087256
O O1 0.747177 0.672476 0.552033
O O2 0.563282 0.831156 0.782347
O O3 0.776800 0.887655 0.582766
O O4 0.647273 0.738533 0.877331
O O5 0.946658 0.885607 0.960782
O O6 0.022404 0.000000 0.667089
O O7 0.799946 0.000000 0.997687
O O8 0.353903 0.109854 0.943901
O O9 0.168099 0.000000 0.286030
O O10 0.895469 0.721243 0.184078
O O11 0.500000 0.306625 0.500000
O O12 0.490492 0.500000 0.636047
O O13 0.676737 0.353157 0.420986
O O14 0.444569 0.314844 0.798907
O O15 0.839026 0.500000 0.307749
#
# Coordination Sequence:
#
# PCOD8057476 Si02
#       8
#     4   2   2   2   4   4   2   4
#     4   9  17  32  55  80 108 134 171 210 260 302
#     4  11  23  36  53  75 103 137 182 217 258 309
#     4  10  21  33  53  82 104 137 175 206 263 316
#     4  11  23  38  54  74 105 137 176 226 262 295
#     4   9  19  34  53  77 106 139 170 206 260 315
#     4  10  20  35  56  78 101 136 178 216 257 307
#     4  10  17  35  55  74 105 140 169 217 258 308
#     4   9  18  32  53  81 109 138 165 212 254 313
#
# _framework density 17.284033999999998
#
# number of rings (size 3 to 8) (size 9 to 14) (size 15 to 20)
#    0.000    2.333    1.667    1.000    2.333    2.667 
#    0.000    3.750    0.000    0.000    0.000    2.333 
#    0.000    0.000    0.000    0.000    0.000    0.000 
#
# Total GULP energy -297489.179610 kJ/mol
# GULP energy per Si atom -12395.382484 kJ/mol
# Density = 1.724469 g / cm^3
# Si number density = 17.284034 Si / 1000 Ang^3
#
#
#
# Elastic Constant Matrix: (Units=GPa)
#
#
# Indices 1 2 3 4 5 6 
#
# 1 119.3836 59.1479 44.7813 0.0000 8.0138 0.0000
# 2 59.1479 107.9847 57.0990 0.0000 3.3025 0.0000
# 3 44.7813 57.0990 98.3213 0.0000 4.4659 0.0000
# 4 0.0000 0.0000 0.0000 37.3236 0.0000 1.0291
# 5 8.0138 3.3025 4.4659 0.0000 15.3939 0.0000
# 6 0.0000 0.0000 0.0000 1.0291 0.0000 19.1686
#
#
#
# Elastic Compliance Matrix: (Units=1/GPa)
#
#
# Indices 1 2 3 4 5 6 
#
# 1 0.012166 -0.005346 -0.002231 0.000000 -0.004540 0.000000
# 2 -0.005346 0.015719 -0.006756 0.000000 0.001371 0.000000
# 3 -0.002231 -0.006756 0.015192 0.000000 -0.001797 0.000000
# 4 0.000000 0.000000 0.000000 0.026832 0.000000 -0.001441
# 5 -0.004540 0.001371 -0.001797 0.000000 0.067551 0.000000
# 6 0.000000 0.000000 0.000000 -0.001441 0.000000 0.052246
#
#
# Mechanical properties :
#
#
# Convention : Reuss Voigt Hill
#
# Bulk Modulus (GPa) = 69.38518 71.97179 70.67848
# Shear Modulus (GPa) = 22.40381 25.35464 23.87923
#
# Velocity S-wave (km/s) = 3.60420 3.83422 3.72099
# Velocity P-wave (km/s) = 7.58628 7.83152 7.70987
#
# Compressibility (1/GPa) = 0.01441230
#
# Stress axis : x y z
#
# Youngs Moduli (GPa) = 82.19432 63.61623 65.82438
#
# Poissons Ratio (x) = 0.34007 0.14683
# Poissons Ratio (y) = 0.43939 0.44473
# Poissons Ratio (z) = 0.18334 0.42981
#
# Static dielectric constant tensor:
#      x y z
#    x 3.303240 0.000000 0.116000 
#    y 0.000000 3.213350 0.000000 
#    z 0.116000 0.000000 3.260870 
# 
# 
# High freq. dielectric constant tensor:
#      x y z
#    x 1.666290 0.000000 0.008080 
#    y 0.000000 1.661170 0.000000 
#    z 0.008080 0.000000 1.671670 
# 
# From -- ./inp_files/53628.got.cif
#   From: 2010.06.25/outbox.cif.g09.slc.cpg/sg10_27_cif.got.tgz:53628.got - 2010.06.27 22:07:45.
