data_PCOD8057409
_publ_section_title
;
Structure prediction by ZEFSAII (Michael W. Deem and Ramdas Pophale) SiO2 
 PCOD8057409
Probable space group: P 2/M
;
_chemical_formula_sum "Si O2"
_cell_formula_units_Z 26
_cell_length_a 5.091619
_cell_length_b 12.667093
_cell_length_c 21.478897
_cell_angle_alpha 90.000000
_cell_angle_beta 108.982811
_cell_angle_gamma 90.000000
_cell_volume 1309.965141
_symmetry_space_group_name_H-M "P 2/M"
_symmetry_group_IT_number 10
_symmetry_cell_setting 'monoclinic'
loop_
_space_group_symop_operation_xyz
x,y,z
-x,y,-z
-x,-y,-z
x,-y,z
loop_
_atom_site_type_symbol
_atom_site_label
_atom_site_fract_x
_atom_site_fract_y
_atom_site_fract_z
Si Si1 0.911038 0.748587 0.423672
Si Si2 0.957029 0.115886 0.786802
Si Si3 0.978076 0.664471 0.843369
Si Si4 0.350440 0.169489 0.705689
Si Si5 0.626907 0.384717 0.235393
Si Si6 0.589146 0.614832 0.576374
Si Si7 0.812241 0.500000 0.045457
O O1 0.798145 0.848301 0.373287
O O2 0.672027 0.661302 0.407717
O O3 0.000000 0.787279 0.500000
O O4 0.160457 0.698136 0.402986
O O5 0.002643 0.206580 0.843007
O O6 0.660210 0.124886 0.729886
O O7 0.187236 0.119917 0.750717
O O8 0.980266 0.000000 0.820544
O O9 0.657122 0.632127 0.825408
O O10 0.108568 0.622100 0.789554
O O11 0.136328 0.608661 0.912443
O O12 0.356885 0.296935 0.710511
O O13 0.625793 0.500000 0.266720
O O14 0.500000 0.593962 0.500000
O O15 0.672502 0.500000 0.611845
O O16 0.500000 0.500000 0.000000
O O17 0.000000 0.500000 0.000000
#
# Coordination Sequence:
#
# PCOD8057409 Si02
#       7
#     4   4   4   4   4   4   2
#     4  10  19  32  47  67 102 140 175 228 292 352
#     4  10  21  39  62  81 104 141 189 245 281 314
#     4  10  20  35  55  82 116 150 187 217 265 320
#     4  10  21  33  53  82 102 135 187 234 289 343
#     4  10  17  31  51  74 110 145 178 231 274 314
#     4   9  17  28  43  62  91 137 183 214 256 333
#     4  12  22  34  58  90 128 160 181 210 253 316
#
# _framework density 19.847854999999999
#
# number of rings (size 3 to 8) (size 9 to 14) (size 15 to 20)
#    0.000    2.000    1.538    2.769    0.000    3.077 
#    0.000    0.000    0.000    3.692    0.000    0.000 
#    0.000    0.000    0.000    0.000    0.000    0.000 
#
# Total GULP energy -322186.197049 kJ/mol
# GULP energy per Si atom -12391.776810 kJ/mol
# Density = 1.980268 g / cm^3
# Si number density = 19.847855 Si / 1000 Ang^3
#
#
#
# Elastic Constant Matrix: (Units=GPa)
#
#
# Indices 1 2 3 4 5 6 
#
# 1 87.4433 9.7604 13.2509 0.0000 14.3460 0.0000
# 2 9.7604 138.8177 34.1356 0.0000 4.5674 0.0000
# 3 13.2509 34.1356 79.0842 0.0000 9.7226 0.0000
# 4 0.0000 0.0000 0.0000 9.4247 0.0000 -6.6747
# 5 14.3460 4.5674 9.7226 0.0000 24.7337 0.0000
# 6 0.0000 0.0000 0.0000 -6.6747 0.0000 12.1776
#
#
#
# Elastic Compliance Matrix: (Units=1/GPa)
#
#
# Indices 1 2 3 4 5 6 
#
# 1 0.012782 -0.000396 -0.001123 0.000000 -0.006900 0.000000
# 2 -0.000396 0.008072 -0.003428 0.000000 0.000087 0.000000
# 3 -0.001123 -0.003428 0.014874 0.000000 -0.004562 0.000000
# 4 0.000000 0.000000 0.000000 0.173422 0.000000 0.095055
# 5 -0.006900 0.000087 -0.004562 0.000000 0.046210 0.000000
# 6 0.000000 0.000000 0.000000 0.095055 0.000000 0.134218
#
#
# Mechanical properties :
#
#
# Convention : Reuss Voigt Hill
#
# Bulk Modulus (GPa) = 38.70868 46.62655 42.66761
# Shear Modulus (GPa) = 12.25241 25.81376 19.03309
#
# Velocity S-wave (km/s) = 2.48728 3.61027 3.10005
# Velocity P-wave (km/s) = 5.27198 6.39701 5.86155
#
# Compressibility (1/GPa) = 0.02583400
#
# Stress axis : x y z
#
# Youngs Moduli (GPa) = 78.23373 123.88941 67.23330
#
# Poissons Ratio (x) = 0.04902 0.07548
# Poissons Ratio (y) = 0.03095 0.23050
# Poissons Ratio (z) = 0.08783 0.42474
#
# Static dielectric constant tensor:
#      x y z
#    x 3.672110 0.000000 0.209270 
#    y 0.000000 3.880040 0.000000 
#    z 0.209270 0.000000 3.262810 
# 
# 
# High freq. dielectric constant tensor:
#      x y z
#    x 1.799350 0.000000 0.001830 
#    y 0.000000 1.757450 0.000000 
#    z 0.001830 0.000000 1.734830 
# 
# From -- ./inp_files/12292.got.cif
#   From: 2010.06.25/outbox.cif.g09.slc.cpg/sg10_7_cif.got.tgz:12292.got - 2010.06.27 22:07:45.
