data_PCOD8057428
_publ_section_title
;
Structure prediction by ZEFSAII (Michael W. Deem and Ramdas Pophale) SiO2 
 PCOD8057428
Probable space group: P 2/M
;
_chemical_formula_sum "Si O2"
_cell_formula_units_Z 32
_cell_length_a 18.958347
_cell_length_b 8.940380
_cell_length_c 12.688101
_cell_angle_alpha 90.000000
_cell_angle_beta 130.150566
_cell_angle_gamma 90.000000
_cell_volume 1643.791919
_symmetry_space_group_name_H-M "P 2/M"
_symmetry_group_IT_number 10
_symmetry_cell_setting 'monoclinic'
loop_
_space_group_symop_operation_xyz
x,y,z
-x,y,-z
-x,-y,-z
x,-y,z
loop_
_atom_site_type_symbol
_atom_site_label
_atom_site_fract_x
_atom_site_fract_y
_atom_site_fract_z
Si Si1 0.841139 0.674962 0.046419
Si Si2 0.785906 0.174536 0.598116
Si Si3 0.692553 0.176171 0.296465
Si Si4 0.014807 0.177083 0.135668
Si Si5 0.264666 0.166413 0.226423
Si Si6 0.701254 0.677453 0.093497
Si Si7 0.512644 0.823364 0.844904
Si Si8 0.531586 0.832841 0.636047
O O1 0.856201 0.500000 0.071278
O O2 0.773210 0.733675 0.073593
O O3 0.940145 0.755052 0.145023
O O4 0.799719 0.713777 0.892163
O O5 0.740366 0.243909 0.448462
O O6 0.887318 0.236566 0.725079
O O7 0.720770 0.210260 0.636683
O O8 0.791266 0.000000 0.581804
O O9 0.737688 0.261038 0.240717
O O10 0.582499 0.209024 0.186748
O O11 0.710280 0.000000 0.302859
O O12 0.008728 0.000000 0.135545
O O13 0.000000 0.231015 0.000000
O O14 0.358845 0.162848 0.253833
O O15 0.217762 0.000000 0.176581
O O16 0.696381 0.500000 0.089729
O O17 0.598352 0.739738 0.978724
O O18 0.497741 0.758994 0.711730
O O19 0.535501 0.000000 0.864465
O O20 0.500000 0.743657 0.500000
O O21 0.488241 0.000000 0.588761
#
# Coordination Sequence:
#
# PCOD8057428 Si02
#       8
#     4   4   4   4   4   4   4   4
#     4  11  23  37  54  80 112 145 186 232 273 318
#     4   9  18  34  57  87 117 141 175 226 281 336
#     4  10  21  37  58  84 113 144 184 235 281 326
#     4  10  19  35  61  89 114 143 178 220 276 342
#     4  10  17  31  56  81 111 146 178 219 275 333
#     4  11  24  40  56  76 110 154 196 234 272 321
#     4  10  19  33  56  85 111 141 187 235 277 326
#     4   9  16  26  47  81 114 143 177 219 272 330
#
# _framework density 19.467182999999999
#
# number of rings (size 3 to 8) (size 9 to 14) (size 15 to 20)
#    0.000    2.000    2.500    1.875    0.000    6.750 
#    0.000    1.875    0.000    6.750    0.000    0.000 
#    0.000    0.000    0.000    0.000    0.000    0.000 
#
# Total GULP energy -396600.387465 kJ/mol
# GULP energy per Si atom -12393.762108 kJ/mol
# Density = 1.942287 g / cm^3
# Si number density = 19.467183 Si / 1000 Ang^3
#
#
#
# Elastic Constant Matrix: (Units=GPa)
#
#
# Indices 1 2 3 4 5 6 
#
# 1 104.1443 32.4916 43.9395 0.0000 -12.9564 0.0000
# 2 32.4916 35.4425 22.6658 0.0000 -2.1380 0.0000
# 3 43.9395 22.6658 85.1917 0.0000 -20.7401 0.0000
# 4 0.0000 0.0000 0.0000 5.4296 0.0000 -4.4947
# 5 -12.9564 -2.1380 -20.7401 0.0000 33.2968 0.0000
# 6 0.0000 0.0000 0.0000 -4.4947 0.0000 24.1081
#
#
#
# Elastic Compliance Matrix: (Units=1/GPa)
#
#
# Indices 1 2 3 4 5 6 
#
# 1 0.015153 -0.011007 -0.004271 0.000000 0.002529 0.000000
# 2 -0.011007 0.042469 -0.007074 0.000000 -0.005962 0.000000
# 3 -0.004271 -0.007074 0.018044 0.000000 0.009123 0.000000
# 4 0.000000 0.000000 0.000000 0.217790 0.000000 0.040604
# 5 0.002529 -0.005962 0.009123 0.000000 0.036317 0.000000
# 6 0.000000 0.000000 0.000000 0.040604 0.000000 0.049050
#
#
# Mechanical properties :
#
#
# Convention : Reuss Voigt Hill
#
# Bulk Modulus (GPa) = 32.29700 46.99691 39.64696
# Shear Modulus (GPa) = 11.52476 20.94567 16.23522
#
# Velocity S-wave (km/s) = 2.43576 3.28372 2.89100
# Velocity P-wave (km/s) = 4.95349 6.21057 5.61730
#
# Compressibility (1/GPa) = 0.03096263
#
# Stress axis : x y z
#
# Youngs Moduli (GPa) = 65.99424 23.54634 55.41936
#
# Poissons Ratio (x) = 0.25918 0.23670
# Poissons Ratio (y) = 0.72641 0.39201
# Poissons Ratio (z) = 0.28187 0.16656
#
# Static dielectric constant tensor:
#      x y z
#    x 3.730470 0.000000 -0.121680 
#    y 0.000000 3.120390 0.000000 
#    z -0.121680 0.000000 3.753530 
# 
# 
# High freq. dielectric constant tensor:
#      x y z
#    x 1.766800 0.000000 -0.008520 
#    y 0.000000 1.709330 0.000000 
#    z -0.008520 0.000000 1.758070 
# 
# From -- ./inp_files/55331.got.cif
#   From: 2010.06.25/outbox.cif.g09.slc.cpg/sg10_28_cif.got.tgz:55331.got - 2010.06.27 22:07:45.
