data_PCOD8057471
_publ_section_title
;
Structure prediction by ZEFSAII (Michael W. Deem and Ramdas Pophale) SiO2 
 PCOD8057471
Probable space group: P 2/M
;
_chemical_formula_sum "Si O2"
_cell_formula_units_Z 30
_cell_length_a 11.842345
_cell_length_b 14.147687
_cell_length_c 11.953848
_cell_angle_alpha 90.000000
_cell_angle_beta 47.661382
_cell_angle_gamma 90.000000
_cell_volume 1480.401471
_symmetry_space_group_name_H-M "P 2/M"
_symmetry_group_IT_number 10
_symmetry_cell_setting 'monoclinic'
loop_
_space_group_symop_operation_xyz
x,y,z
-x,y,-z
-x,-y,-z
x,-y,z
loop_
_atom_site_type_symbol
_atom_site_label
_atom_site_fract_x
_atom_site_fract_y
_atom_site_fract_z
Si Si1 0.265981 0.607765 0.370819
Si Si2 0.935009 0.711890 0.330472
Si Si3 0.424216 0.307129 0.794508
Si Si4 0.470709 0.898337 0.255134
Si Si5 0.847034 0.611363 0.169712
Si Si6 0.281701 0.692478 0.125587
Si Si7 0.115562 0.893387 0.522566
Si Si8 0.500000 0.147288 0.000000
O O1 0.236091 0.500000 0.420899
O O2 0.121579 0.666376 0.514516
O O3 0.415157 0.643477 0.338055
O O4 0.284895 0.617454 0.224371
O O5 0.843876 0.666298 0.288839
O O6 0.910514 0.824832 0.354083
O O7 0.112421 0.695822 0.190734
O O8 0.440186 0.193854 0.757127
O O9 0.297877 0.351638 0.800484
O O10 0.388331 0.332404 0.948150
O O11 0.290212 0.880852 0.369920
O O12 0.528205 0.915289 0.090008
O O13 0.507503 0.000000 0.292542
O O14 0.833189 0.500000 0.201325
O O15 0.000000 0.635734 0.000000
O O16 0.348254 0.790325 0.129275
O O17 0.000000 0.863825 0.500000
O O18 0.079683 0.000000 0.585361
#
# Coordination Sequence:
#
# PCOD8057471 Si02
#       8
#     4   4   4   4   4   4   4   2
#     4  12  24  38  60  93 126 161 202 259 329 383
#     4  12  23  41  63  93 129 160 207 273 308 366
#     4  11  22  44  62  89 126 166 209 264 309 372
#     4  10  19  34  60  91 124 163 206 249 309 379
#     4  11  25  45  68  88 117 174 226 260 309 375
#     4  11  21  37  63  88 132 163 196 254 329 377
#     4  10  20  37  64  96 133 171 204 248 320 391
#     4  10  17  34  55  92 122 168 199 242 305 378
#
# _framework density 20.264773000000002
#
# number of rings (size 3 to 8) (size 9 to 14) (size 15 to 20)
#    0.000    1.067    5.333    3.000    0.000    3.733 
#    0.000    4.667    0.000    2.400    0.000    0.000 
#    0.000    0.000    0.000    0.000    0.000    0.000 
#
# Total GULP energy -371829.101577 kJ/mol
# GULP energy per Si atom -12394.303386 kJ/mol
# Density = 2.021865 g / cm^3
# Si number density = 20.264773 Si / 1000 Ang^3
#
#
#
# Elastic Constant Matrix: (Units=GPa)
#
#
# Indices 1 2 3 4 5 6 
#
# 1 71.0607 34.2004 18.7733 0.0000 3.4695 0.0000
# 2 34.2004 119.9695 32.1637 0.0000 7.9867 0.0000
# 3 18.7733 32.1637 65.5132 0.0000 -6.6130 0.0000
# 4 0.0000 0.0000 0.0000 6.6408 0.0000 3.0635
# 5 3.4695 7.9867 -6.6130 0.0000 30.2998 0.0000
# 6 0.0000 0.0000 0.0000 3.0635 0.0000 29.5881
#
#
#
# Elastic Compliance Matrix: (Units=1/GPa)
#
#
# Indices 1 2 3 4 5 6 
#
# 1 0.016824 -0.003864 -0.003083 0.000000 -0.001581 0.000000
# 2 -0.003864 0.010896 -0.004588 0.000000 -0.003431 0.000000
# 3 -0.003083 -0.004588 0.018976 0.000000 0.005704 0.000000
# 4 0.000000 0.000000 0.000000 0.158137 0.000000 -0.016373
# 5 -0.001581 -0.003431 0.005704 0.000000 0.035334 0.000000
# 6 0.000000 0.000000 0.000000 -0.016373 0.000000 0.035493
#
#
# Mechanical properties :
#
#
# Convention : Reuss Voigt Hill
#
# Bulk Modulus (GPa) = 42.33002 47.42423 44.87713
# Shear Modulus (GPa) = 16.30760 24.73282 20.52021
#
# Velocity S-wave (km/s) = 2.83985 3.49733 3.18560
# Velocity P-wave (km/s) = 5.62910 6.30568 5.97697
#
# Compressibility (1/GPa) = 0.02362390
#
# Stress axis : x y z
#
# Youngs Moduli (GPa) = 59.43871 91.78080 52.69806
#
# Poissons Ratio (x) = 0.35466 0.16249
# Poissons Ratio (y) = 0.22968 0.24179
# Poissons Ratio (z) = 0.18328 0.42111
#
# Static dielectric constant tensor:
#      x y z
#    x 3.491750 0.000000 -0.150520 
#    y 0.000000 3.770350 0.000000 
#    z -0.150520 0.000000 3.728780 
# 
# 
# High freq. dielectric constant tensor:
#      x y z
#    x 1.772020 0.000000 -0.021220 
#    y 0.000000 1.797810 0.000000 
#    z -0.021220 0.000000 1.791950 
# 
# From -- ./inp_files/47623.got.cif
#   From: 2010.06.25/outbox.cif.g09.slc.cpg/sg10_24_cif.got.tgz:47623.got - 2010.06.27 22:07:45.
