data_PCOD8057745
_publ_section_title
;
Structure prediction by ZEFSAII (Michael W. Deem and Ramdas Pophale) SiO2 
 PCOD8057745
Probable space group: P 2/M
;
_chemical_formula_sum "Si O2"
_cell_formula_units_Z 28
_cell_length_a 23.443467
_cell_length_b 11.750667
_cell_length_c 17.576411
_cell_angle_alpha 90.000000
_cell_angle_beta 19.002064
_cell_angle_gamma 90.000000
_cell_volume 1576.528798
_symmetry_space_group_name_H-M "P 2/M"
_symmetry_group_IT_number 10
_symmetry_cell_setting 'monoclinic'
loop_
_space_group_symop_operation_xyz
x,y,z
-x,y,-z
-x,-y,-z
x,-y,z
loop_
_atom_site_type_symbol
_atom_site_label
_atom_site_fract_x
_atom_site_fract_y
_atom_site_fract_z
Si Si1 0.642166 0.634065 0.132749
Si Si2 0.301681 0.729160 0.775446
Si Si3 0.484551 0.635617 0.106108
Si Si4 0.172772 0.367972 0.247839
Si Si5 0.290451 0.295978 0.490947
Si Si6 0.159399 0.500000 0.739926
Si Si7 0.008202 0.134274 0.901854
Si Si8 0.315746 0.500000 0.691130
O O1 0.617108 0.500000 0.182335
O O2 0.692419 0.707539 0.142265
O O3 0.469581 0.688398 0.312148
O O4 0.807363 0.649522 0.867564
O O5 0.500000 0.759993 0.500000
O O6 0.222255 0.616105 0.834908
O O7 0.166445 0.827941 0.923708
O O8 0.464026 0.500000 0.139127
O O9 0.325647 0.691030 0.355572
O O10 0.500000 0.676447 0.000000
O O11 0.660174 0.685007 0.921530
O O12 0.168210 0.500000 0.275649
O O13 0.000000 0.307564 0.500000
O O14 0.155413 0.392175 0.689856
O O15 0.188848 0.178780 0.635637
O O16 0.330941 0.500000 0.579806
O O17 0.000000 0.500000 0.000000
O O18 0.016828 0.000000 0.885569
O O19 0.000000 0.175279 0.000000
O O20 0.500000 0.500000 0.500000
#
# Coordination Sequence:
#
# PCOD8057745 Si02
#       8
#     4   4   4   4   4   2   4   2
#     4  10  18  32  52  79 113 139 169 212 275 336
#     4  11  21  34  54  79 107 139 175 224 275 328
#     4   9  17  30  49  78 114 145 173 208 264 336
#     4   8  15  27  43  67 102 145 171 196 242 313
#     4  11  19  35  55  79 111 146 178 223 274 328
#     4  12  20  28  47  75 105 135 172 210 267 327
#     4  11  25  42  55  73 104 147 197 238 269 311
#     4  10  18  28  46  73 105 129 158 206 265 325
#
# _framework density 17.760538
#
# number of rings (size 3 to 8) (size 9 to 14) (size 15 to 20)
#    0.000    1.857    2.143    5.571    0.000    1.429 
#    0.000    2.143    0.000    0.429    0.000    0.000 
#    0.000    5.143    0.000    0.000    0.000    0.000 
#
# Total GULP energy -346928.673178 kJ/mol
# GULP energy per Si atom -12390.309756 kJ/mol
# Density = 1.772011 g / cm^3
# Si number density = 17.760538 Si / 1000 Ang^3
#
#
#
# Elastic Constant Matrix: (Units=GPa)
#
#
# Indices 1 2 3 4 5 6 
#
# 1 120.4204 31.6791 55.4987 0.0000 21.9790 0.0000
# 2 31.6791 58.7403 36.8132 0.0000 4.0857 0.0000
# 3 55.4987 36.8132 135.5806 0.0000 23.1730 0.0000
# 4 0.0000 0.0000 0.0000 20.6339 0.0000 -3.3159
# 5 21.9790 4.0857 23.1730 0.0000 33.4597 0.0000
# 6 0.0000 0.0000 0.0000 -3.3159 0.0000 15.1776
#
#
#
# Elastic Compliance Matrix: (Units=1/GPa)
#
#
# Indices 1 2 3 4 5 6 
#
# 1 0.011618 -0.004196 -0.002722 0.000000 -0.005234 0.000000
# 2 -0.004196 0.022100 -0.004869 0.000000 0.003430 0.000000
# 3 -0.002722 -0.004869 0.010667 0.000000 -0.005005 0.000000
# 4 0.000000 0.000000 0.000000 0.050227 0.000000 0.010973
# 5 -0.005234 0.003430 -0.005005 0.000000 0.036373 0.000000
# 6 0.000000 0.000000 0.000000 0.010973 0.000000 0.068284
#
#
# Mechanical properties :
#
#
# Convention : Reuss Voigt Hill
#
# Bulk Modulus (GPa) = 48.05047 62.52481 55.28764
# Shear Modulus (GPa) = 21.75992 26.57093 24.16542
#
# Velocity S-wave (km/s) = 3.50406 3.87210 3.69267
# Velocity P-wave (km/s) = 6.59429 7.43449 7.02696
#
# Compressibility (1/GPa) = 0.02081145
#
# Stress axis : x y z
#
# Youngs Moduli (GPa) = 86.07531 45.24891 93.74274
#
# Poissons Ratio (x) = 0.18985 0.25515
# Poissons Ratio (y) = 0.36115 0.45647
# Poissons Ratio (z) = 0.23428 0.22033
#
# Static dielectric constant tensor:
#      x y z
#    x 3.550530 0.000000 0.095920 
#    y 0.000000 2.945950 0.000000 
#    z 0.095920 0.000000 3.538440 
# 
# 
# High freq. dielectric constant tensor:
#      x y z
#    x 1.693990 0.000000 0.006460 
#    y 0.000000 1.625010 0.000000 
#    z 0.006460 0.000000 1.700710 
# 
# From -- ./inp_files/80229.got.cif
#   From: 2010.06.25/outbox.cif.g09.slc.cpg/sg10_41_cif.got.tgz:80229.got - 2010.06.27 22:07:45.
