data_PCOD8057053
_publ_section_title
;
Structure prediction by ZEFSAII (Michael W. Deem and Ramdas Pophale) SiO2 
 PCOD8057053
Probable space group: P 2/M
;
_chemical_formula_sum "Si O2"
_cell_formula_units_Z 32
_cell_length_a 15.897236
_cell_length_b 13.371818
_cell_length_c 14.585482
_cell_angle_alpha 90.000000
_cell_angle_beta 35.901166
_cell_angle_gamma 90.000000
_cell_volume 1818.103327
_symmetry_space_group_name_H-M "P 2/M"
_symmetry_group_IT_number 10
_symmetry_cell_setting 'monoclinic'
loop_
_space_group_symop_operation_xyz
x,y,z
-x,y,-z
-x,-y,-z
x,-y,z
loop_
_atom_site_type_symbol
_atom_site_label
_atom_site_fract_x
_atom_site_fract_y
_atom_site_fract_z
Si Si1 0.749374 0.881484 0.191869
Si Si2 0.492694 0.118046 0.295176
Si Si3 0.114184 0.385075 0.194956
Si Si4 0.665784 0.698532 0.856345
Si Si5 0.093614 0.805000 0.109698
Si Si6 0.790367 0.881254 0.363084
Si Si7 0.872322 0.389446 0.541139
Si Si8 0.328483 0.114462 0.030929
O O1 0.603875 0.840980 0.273089
O O2 0.752693 0.845910 0.293466
O O3 0.765217 0.000000 0.170896
O O4 0.880338 0.832625 0.019459
O O5 0.335157 0.157513 0.458654
O O6 0.538154 0.149082 0.151840
O O7 0.496775 0.000000 0.300003
O O8 0.118772 0.500000 0.158521
O O9 0.245725 0.368310 0.149381
O O10 0.133404 0.311379 0.091617
O O11 0.956077 0.356510 0.375011
O O12 0.744299 0.684635 0.687808
O O13 0.500000 0.662780 0.000000
O O14 0.673474 0.815574 0.877768
O O15 0.929417 0.826308 0.277863
O O16 0.185313 0.875241 0.096791
O O17 0.810906 0.000000 0.348607
O O18 0.803992 0.500000 0.589749
O O19 0.000000 0.394536 0.500000
O O20 0.343614 0.000000 0.050852
#
# Coordination Sequence:
#
# PCOD8057053 Si02
#       8
#     4   4   4   4   4   4   4   4
#     4   9  16  27  43  66  97 126 149 179 220 256
#     4   8  15  27  42  62  91 126 155 178 210 251
#     4   9  19  35  51  65  86 115 142 180 236 281
#     4  10  19  29  49  74  89 108 147 187 220 260
#     4  10  18  28  46  67  89 116 152 187 220 261
#     4  10  17  25  43  70  94 119 155 190 212 242
#     4   8  15  30  49  66  85 107 133 175 230 272
#     4   9  18  32  44  59  94 132 149 168 213 266
#
# _framework density 17.600760999999999
#
# number of rings (size 3 to 8) (size 9 to 14) (size 15 to 20)
#    0.000    2.875    0.000    3.750    0.000    4.750 
#    0.000    0.000    0.000   12.375    0.000    0.000 
#    0.000   10.000    0.000    0.000    0.000    0.000 
#
# Total GULP energy -396560.507614 kJ/mol
# GULP energy per Si atom -12392.515863 kJ/mol
# Density = 1.756070 g / cm^3
# Si number density = 17.600761 Si / 1000 Ang^3
#
#
#
# Elastic Constant Matrix: (Units=GPa)
#
#
# Indices 1 2 3 4 5 6 
#
# 1 29.5401 21.4526 30.2055 0.0000 -1.3315 0.0000
# 2 21.4526 71.2482 40.4995 0.0000 6.0386 0.0000
# 3 30.2055 40.4995 121.9811 0.0000 -13.8577 0.0000
# 4 0.0000 0.0000 0.0000 18.7787 0.0000 1.7171
# 5 -1.3315 6.0386 -13.8577 0.0000 23.7223 0.0000
# 6 0.0000 0.0000 0.0000 1.7171 0.0000 12.0529
#
#
#
# Elastic Compliance Matrix: (Units=1/GPa)
#
#
# Indices 1 2 3 4 5 6 
#
# 1 0.050498 -0.009982 -0.009190 0.000000 0.000007 0.000000
# 2 -0.009982 0.020952 -0.005520 0.000000 -0.009118 0.000000
# 3 -0.009190 -0.005520 0.013289 0.000000 0.008653 0.000000
# 4 0.000000 0.000000 0.000000 0.053955 0.000000 -0.007687
# 5 0.000007 -0.009118 0.008653 0.000000 0.049531 0.000000
# 6 0.000000 0.000000 0.000000 -0.007687 0.000000 0.084063
#
#
# Mechanical properties :
#
#
# Convention : Reuss Voigt Hill
#
# Bulk Modulus (GPa) = 28.28406 45.23162 36.75784
# Shear Modulus (GPa) = 14.99446 19.61823 17.30634
#
# Velocity S-wave (km/s) = 2.92194 3.34222 3.13912
# Velocity P-wave (km/s) = 5.24293 6.37561 5.83681
#
# Compressibility (1/GPa) = 0.03535560
#
# Stress axis : x y z
#
# Youngs Moduli (GPa) = 19.80265 47.72878 75.24753
#
# Poissons Ratio (x) = 0.47642 0.69151
# Poissons Ratio (y) = 0.19766 0.41540
# Poissons Ratio (z) = 0.18198 0.26349
#
# Static dielectric constant tensor:
#      x y z
#    x 3.011440 0.000000 0.014110 
#    y 0.000000 2.989380 0.000000 
#    z 0.014110 0.000000 3.690540 
# 
# 
# High freq. dielectric constant tensor:
#      x y z
#    x 1.654830 0.000000 -0.005880 
#    y 0.000000 1.645920 0.000000 
#    z -0.005880 0.000000 1.690450 
# 
# From -- ./inp_files/78935.got.cif
#   From: 2010.06.25/outbox.cif.g09.slc.cpg/sg10_40_cif.got.tgz:78935.got - 2010.06.27 22:07:45.
