data_PCOD8057057
_publ_section_title
;
Structure prediction by ZEFSAII (Michael W. Deem and Ramdas Pophale) SiO2 
 PCOD8057057
Probable space group: P 2/M
;
_chemical_formula_sum "Si O2"
_cell_formula_units_Z 24
_cell_length_a 6.956434
_cell_length_b 8.997653
_cell_length_c 19.036110
_cell_angle_alpha 90.000000
_cell_angle_beta 114.588333
_cell_angle_gamma 90.000000
_cell_volume 1083.455971
_symmetry_space_group_name_H-M "P 2/M"
_symmetry_group_IT_number 10
_symmetry_cell_setting 'monoclinic'
loop_
_space_group_symop_operation_xyz
x,y,z
-x,y,-z
-x,-y,-z
x,-y,z
loop_
_atom_site_type_symbol
_atom_site_label
_atom_site_fract_x
_atom_site_fract_y
_atom_site_fract_z
Si Si1 0.103021 0.172053 0.361428
Si Si2 0.830682 0.674552 0.917847
Si Si3 0.563670 0.171248 0.177770
Si Si4 0.252438 0.164660 0.526649
Si Si5 0.324859 0.673789 0.670240
Si Si6 0.036974 0.831077 0.199966
O O1 0.289175 0.198578 0.448061
O O2 0.916881 0.286068 0.350377
O O3 0.176714 0.199468 0.292070
O O4 0.019135 0.000000 0.354635
O O5 0.801355 0.500000 0.919557
O O6 0.606148 0.752271 0.900013
O O7 0.903857 0.716197 0.850857
O O8 0.000000 0.733583 0.000000
O O9 0.530857 0.242665 0.250299
O O10 0.794020 0.198971 0.182469
O O11 0.506707 0.000000 0.176269
O O12 0.375886 0.275933 0.597646
O O13 0.000000 0.173809 0.500000
O O14 0.336293 0.000000 0.557222
O O15 0.365474 0.500000 0.683529
O O16 0.068788 0.000000 0.178196
#
# Coordination Sequence:
#
# PCOD8057057 Si02
#       6
#     4   4   4   4   4   4
#     4   8  15  28  46  71 105 146 190 231 272 322
#     4  11  25  42  60  86 118 148 179 223 285 349
#     4  10  21  39  62  85 112 149 193 235 276 330
#     4   8  13  23  40  65 102 145 187 229 270 318
#     4  10  17  25  43  74 110 145 184 229 278 328
#     4   9  19  37  61  87 113 147 192 236 278 327
#
# _framework density 22.151340000000001
#
# number of rings (size 3 to 8) (size 9 to 14) (size 15 to 20)
#    0.000    2.667    0.000    4.500    0.000    8.333 
#    0.000    3.333    0.000    1.000    0.000    7.000 
#    0.000    0.000    0.000    0.000    0.000    0.000 
#
# Total GULP energy -297464.550262 kJ/mol
# GULP energy per Si atom -12394.356261 kJ/mol
# Density = 2.210092 g / cm^3
# Si number density = 22.151340 Si / 1000 Ang^3
#
#
#
# Elastic Constant Matrix: (Units=GPa)
#
#
# Indices 1 2 3 4 5 6 
#
# 1 19.9073 -3.5977 5.7712 0.0000 -6.8022 0.0000
# 2 -3.5977 92.3660 28.9461 0.0000 5.5211 0.0000
# 3 5.7712 28.9461 101.5515 0.0000 7.9721 0.0000
# 4 0.0000 0.0000 0.0000 33.0878 0.0000 -1.3753
# 5 -6.8022 5.5211 7.9721 0.0000 33.0541 0.0000
# 6 0.0000 0.0000 0.0000 -1.3753 0.0000 21.9562
#
#
#
# Elastic Compliance Matrix: (Units=1/GPa)
#
#
# Indices 1 2 3 4 5 6 
#
# 1 0.056457 0.003043 -0.005043 0.000000 0.012326 0.000000
# 2 0.003043 0.012099 -0.003580 0.000000 -0.000531 0.000000
# 3 -0.005043 -0.003580 0.011405 0.000000 -0.003191 0.000000
# 4 0.000000 0.000000 0.000000 0.030302 0.000000 0.001898
# 5 0.012326 -0.000531 -0.003191 0.000000 0.033648 0.000000
# 6 0.000000 0.000000 0.000000 0.001898 0.000000 0.045664
#
#
# Mechanical properties :
#
#
# Convention : Reuss Voigt Hill
#
# Bulk Modulus (GPa) = 14.53505 30.67377 22.60441
# Shear Modulus (GPa) = 22.35454 29.79995 26.07724
#
# Velocity S-wave (km/s) = 3.18020 3.67180 3.43480
# Velocity P-wave (km/s) = 4.47893 5.64389 5.09482
#
# Compressibility (1/GPa) = 0.06879919
#
# Stress axis : x y z
#
# Youngs Moduli (GPa) = 17.71266 82.65409 87.68327
#
# Poissons Ratio (x) = -0.25149 0.44222
# Poissons Ratio (y) = -0.05389 0.31389
# Poissons Ratio (z) = 0.08933 0.29588
#
# Static dielectric constant tensor:
#      x y z
#    x 3.702610 0.000000 0.011810 
#    y 0.000000 3.708320 0.000000 
#    z 0.011810 0.000000 4.553660 
# 
# 
# High freq. dielectric constant tensor:
#      x y z
#    x 1.854560 0.000000 0.003590 
#    y 0.000000 1.850650 0.000000 
#    z 0.003590 0.000000 1.884990 
# 
# From -- ./inp_files/74182.got.cif
#   From: 2010.06.25/outbox.cif.g09.slc.cpg/sg10_38_cif.got.tgz:74182.got - 2010.06.27 22:07:45.
