data_PCOD8057986
_publ_section_title
;
Structure prediction by ZEFSAII (Michael W. Deem and Ramdas Pophale) SiO2 
 PCOD8057986
Probable space group: P 2/M
;
_chemical_formula_sum "Si O2"
_cell_formula_units_Z 20
_cell_length_a 19.442528
_cell_length_b 10.415028
_cell_length_c 5.249330
_cell_angle_alpha 90.000000
_cell_angle_beta 92.945196
_cell_angle_gamma 90.000000
_cell_volume 1061.556291
_symmetry_space_group_name_H-M "P 2/M"
_symmetry_group_IT_number 10
_symmetry_cell_setting 'monoclinic'
loop_
_space_group_symop_operation_xyz
x,y,z
-x,y,-z
-x,-y,-z
x,-y,z
loop_
_atom_site_type_symbol
_atom_site_label
_atom_site_fract_x
_atom_site_fract_y
_atom_site_fract_z
Si Si1 0.858927 0.142740 0.065372
Si Si2 0.421829 0.653256 0.986520
Si Si3 0.653260 0.651173 0.527808
Si Si4 0.931195 0.644479 0.340244
Si Si5 0.195176 0.755149 0.456439
O O1 0.918964 0.251281 0.110764
O O2 0.806433 0.152070 0.295971
O O3 0.891786 0.000000 0.066084
O O4 0.816152 0.163618 0.800708
O O5 0.419815 0.500000 0.986301
O O6 0.383017 0.708671 0.730575
O O7 0.500000 0.703586 0.000000
O O8 0.383743 0.708757 0.229224
O O9 0.643807 0.500000 0.525765
O O10 0.733353 0.682269 0.547047
O O11 0.936751 0.500000 0.228644
O O12 0.866635 0.651116 0.523929
O O13 0.000000 0.684256 0.500000
#
# Coordination Sequence:
#
# PCOD8057986 Si02
#       5
#     4   4   4   4   4
#     4  10  22  39  59  80 111 148 190 238 283 331
#     4   9  17  28  44  70 109 150 181 214 268 338
#     4  10  18  29  48  75 108 145 182 223 276 328
#     4   9  21  39  59  84 115 150 187 232 284 335
#     4  10  21  36  56  80 110 144 193 229 277 329
#
# _framework density 18.840263
#
# number of rings (size 3 to 8) (size 9 to 14) (size 15 to 20)
#    1.200    1.200    0.000    3.000    0.000    5.200 
#    0.000    3.000    0.000    0.000    0.000    0.000 
#    0.000   56.000    0.000    0.000    0.000    0.000 
#
# Total GULP energy -247828.267910 kJ/mol
# GULP energy per Si atom -12391.413396 kJ/mol
# Density = 1.879738 g / cm^3
# Si number density = 18.840263 Si / 1000 Ang^3
#
#
#
# Elastic Constant Matrix: (Units=GPa)
#
#
# Indices 1 2 3 4 5 6 
#
# 1 127.3439 8.7818 47.6255 0.0000 16.8056 0.0000
# 2 8.7818 55.0659 33.1025 0.0000 3.3922 0.0000
# 3 47.6255 33.1025 155.4134 0.0000 0.6233 0.0000
# 4 0.0000 0.0000 0.0000 9.8354 0.0000 0.7750
# 5 16.8056 3.3922 0.6233 0.0000 22.7349 0.0000
# 6 0.0000 0.0000 0.0000 0.7750 0.0000 3.0481
#
#
#
# Elastic Compliance Matrix: (Units=1/GPa)
#
#
# Indices 1 2 3 4 5 6 
#
# 1 0.009969 0.000785 -0.003192 0.000000 -0.007399 0.000000
# 2 0.000785 0.021093 -0.004719 0.000000 -0.003598 0.000000
# 3 -0.003192 -0.004719 0.008407 0.000000 0.002834 0.000000
# 4 0.000000 0.000000 0.000000 0.103752 0.000000 -0.026378
# 5 -0.007399 -0.003598 0.002834 0.000000 0.049914 0.000000
# 6 0.000000 0.000000 0.000000 -0.026378 0.000000 0.334777
#
#
# Mechanical properties :
#
#
# Convention : Reuss Voigt Hill
#
# Bulk Modulus (GPa) = 39.65724 57.42700 48.54212
# Shear Modulus (GPa) = 9.08152 23.67790 16.37971
#
# Velocity S-wave (km/s) = 2.19789 3.54894 2.95176
# Velocity P-wave (km/s) = 5.24746 6.88044 6.11868
#
# Compressibility (1/GPa) = 0.02521607
#
# Stress axis : x y z
#
# Youngs Moduli (GPa) = 100.31116 47.40847 118.95519
#
# Poissons Ratio (x) = -0.03722 0.37976
# Poissons Ratio (y) = -0.07875 0.56134
# Poissons Ratio (z) = 0.32024 0.22372
#
# Static dielectric constant tensor:
#      x y z
#    x 3.344510 0.000000 -0.041800 
#    y 0.000000 2.985040 0.000000 
#    z -0.041800 0.000000 3.657730 
# 
# 
# High freq. dielectric constant tensor:
#      x y z
#    x 1.726840 0.000000 -0.000090 
#    y 0.000000 1.682030 0.000000 
#    z -0.000090 0.000000 1.745740 
# 
# From -- ./inp_files/10840.got.cif
#   From: 2010.06.25/outbox.cif.g09.slc.cpg/sg10_6_cif.got.tgz:10840.got - 2010.06.27 22:07:45.
