data_PCOD8057087
_publ_section_title
;
Structure prediction by ZEFSAII (Michael W. Deem and Ramdas Pophale) SiO2 
 PCOD8057087
Probable space group: P 2/M
;
_chemical_formula_sum "Si O2"
_cell_formula_units_Z 32
_cell_length_a 28.318205
_cell_length_b 9.192333
_cell_length_c 19.243220
_cell_angle_alpha 90.000000
_cell_angle_beta 23.898574
_cell_angle_gamma 90.000000
_cell_volume 2029.325194
_symmetry_space_group_name_H-M "P 2/M"
_symmetry_group_IT_number 10
_symmetry_cell_setting 'monoclinic'
loop_
_space_group_symop_operation_xyz
x,y,z
-x,y,-z
-x,-y,-z
x,-y,z
loop_
_atom_site_type_symbol
_atom_site_label
_atom_site_fract_x
_atom_site_fract_y
_atom_site_fract_z
Si Si1 0.162157 0.162059 0.745501
Si Si2 0.168824 0.167326 0.895302
Si Si3 0.951863 0.669793 0.220899
Si Si4 0.613505 0.660879 0.895078
Si Si5 0.407809 0.332245 0.563578
Si Si6 0.566656 0.164293 0.604110
Si Si7 0.517417 0.830388 0.821817
Si Si8 0.730203 0.329650 0.604231
O O1 0.122722 0.181682 0.878299
O O2 0.102110 0.284312 0.780151
O O3 0.299557 0.183059 0.555113
O O4 0.126887 0.000000 0.766661
O O5 0.292532 0.244181 0.738761
O O6 0.183665 0.000000 0.897337
O O7 0.072018 0.244201 0.074034
O O8 0.980084 0.500000 0.180413
O O9 0.860947 0.709076 0.404475
O O10 0.638136 0.500000 0.892140
O O11 0.718225 0.711168 0.702537
O O12 0.500000 0.659346 0.000000
O O13 0.594052 0.769111 0.985800
O O14 0.500000 0.309706 0.500000
O O15 0.374403 0.500000 0.597990
O O16 0.466149 0.273225 0.413915
O O17 0.493192 0.199280 0.772662
O O18 0.543033 0.000000 0.609879
O O19 0.638105 0.756660 0.681601
O O20 0.529641 0.000000 0.821101
O O21 0.702752 0.500000 0.630300
#
# Coordination Sequence:
#
# PCOD8057087 Si02
#       8
#     4   4   4   4   4   4   4   4
#     4   9  17  30  42  57  85 119 149 180 218 257
#     4  10  21  34  47  63  86 116 146 179 221 266
#     4  11  20  28  42  63  87 117 154 189 217 253
#     4   8  15  27  39  53  80 117 153 185 220 259
#     4  10  21  36  53  71  89 109 140 184 225 263
#     4   9  18  30  45  66  91 119 148 181 222 267
#     4  10  17  26  41  62  86 113 151 190 219 252
#     4   9  18  29  39  56  85 122 155 184 222 259
#
# _framework density 15.768789
#
# number of rings (size 3 to 8) (size 9 to 14) (size 15 to 20)
#    0.000    2.500    1.250    3.375    0.000    8.750 
#    0.000    0.000    0.000    0.000    0.000    0.000 
#    0.000    1.000    0.000   11.250    0.000    5.625 
#
# Total GULP energy -396692.256506 kJ/mol
# GULP energy per Si atom -12396.633016 kJ/mol
# Density = 1.573290 g / cm^3
# Si number density = 15.768789 Si / 1000 Ang^3
#
#
#
# Elastic Constant Matrix: (Units=GPa)
#
#
# Indices 1 2 3 4 5 6 
#
# 1 56.5907 48.1646 43.3129 0.0000 13.1832 0.0000
# 2 48.1646 107.1089 56.1662 0.0000 10.8852 0.0000
# 3 43.3129 56.1662 92.2625 0.0000 24.2228 0.0000
# 4 0.0000 0.0000 0.0000 23.0345 0.0000 5.8974
# 5 13.1832 10.8852 24.2228 0.0000 17.6249 0.0000
# 6 0.0000 0.0000 0.0000 5.8974 0.0000 20.4638
#
#
#
# Elastic Compliance Matrix: (Units=1/GPa)
#
#
# Indices 1 2 3 4 5 6 
#
# 1 0.034547 -0.010818 -0.007201 0.000000 -0.009263 0.000000
# 2 -0.010818 0.017355 -0.007505 0.000000 0.007687 0.000000
# 3 -0.007201 -0.007505 0.025278 0.000000 -0.024719 0.000000
# 4 0.000000 0.000000 0.000000 0.046872 0.000000 -0.013508
# 5 -0.009263 0.007687 -0.024719 0.000000 0.092892 0.000000
# 6 0.000000 0.000000 0.000000 -0.013508 0.000000 0.052759
#
#
# Mechanical properties :
#
#
# Convention : Reuss Voigt Hill
#
# Bulk Modulus (GPa) = 38.26620 61.24994 49.75807
# Shear Modulus (GPa) = 15.17635 19.44587 17.31111
#
# Velocity S-wave (km/s) = 3.10567 3.51549 3.31691
# Velocity P-wave (km/s) = 6.09754 7.44346 6.80386
#
# Compressibility (1/GPa) = 0.02613272
#
# Stress axis : x y z
#
# Youngs Moduli (GPa) = 28.94626 57.62023 39.56062
#
# Poissons Ratio (x) = 0.62331 0.28486
# Poissons Ratio (y) = 0.31313 0.29690
# Poissons Ratio (z) = 0.20843 0.43244
#
# Static dielectric constant tensor:
#      x y z
#    x 2.757630 0.000000 0.447450 
#    y 0.000000 3.118820 0.000000 
#    z 0.447450 0.000000 3.228790 
# 
# 
# High freq. dielectric constant tensor:
#      x y z
#    x 1.557310 0.000000 0.032500 
#    y 0.000000 1.617090 0.000000 
#    z 0.032500 0.000000 1.598200 
# 
# From -- ./inp_files/87186.got.cif
#   From: 2010.06.25/outbox.cif.g09.slc.cpg/sg10_44_cif.got.tgz:87186.got - 2010.06.27 22:07:45.
