data_PCOD8057585
_publ_section_title
;
Structure prediction by ZEFSAII (Michael W. Deem and Ramdas Pophale) SiO2 
 PCOD8057585
Probable space group: P 2/M
;
_chemical_formula_sum "Si O2"
_cell_formula_units_Z 32
_cell_length_a 23.984003
_cell_length_b 9.408736
_cell_length_c 17.609556
_cell_angle_alpha 90.000000
_cell_angle_beta 30.461200
_cell_angle_gamma 90.000000
_cell_volume 2014.515278
_symmetry_space_group_name_H-M "P 2/M"
_symmetry_group_IT_number 10
_symmetry_cell_setting 'monoclinic'
loop_
_space_group_symop_operation_xyz
x,y,z
-x,y,-z
-x,-y,-z
x,-y,z
loop_
_atom_site_type_symbol
_atom_site_label
_atom_site_fract_x
_atom_site_fract_y
_atom_site_fract_z
Si Si1 0.656481 0.164586 0.691088
Si Si2 0.242863 0.665956 0.838965
Si Si3 0.370213 0.657233 0.138573
Si Si4 0.443337 0.333856 0.895899
Si Si5 0.647242 0.334329 0.448245
Si Si6 0.203216 0.160942 0.615558
Si Si7 0.591858 0.666637 0.231109
Si Si8 0.029597 0.835828 0.049763
O O1 0.687584 0.232330 0.736493
O O2 0.553252 0.241690 0.773831
O O3 0.760806 0.186037 0.513720
O O4 0.627128 0.000000 0.737917
O O5 0.215415 0.500000 0.878925
O O6 0.319915 0.696442 0.676516
O O7 0.308872 0.727637 0.834466
O O8 0.128763 0.747258 0.967810
O O9 0.321058 0.500000 0.211103
O O10 0.500000 0.657255 0.000000
O O11 0.356548 0.701299 0.065716
O O12 0.477934 0.500000 0.859266
O O13 0.385351 0.297598 0.884042
O O14 0.649240 0.500000 0.465591
O O15 0.734066 0.263241 0.401568
O O16 0.525954 0.269361 0.605146
O O17 0.073408 0.190080 0.773692
O O18 0.230096 0.000000 0.609306
O O19 0.587133 0.500000 0.252381
O O20 0.065073 0.000000 0.004647
O O21 0.000000 0.781375 0.000000
#
# Coordination Sequence:
#
# PCOD8057585 Si02
#       8
#     4   4   4   4   4   4   4   4
#     4  10  18  27  42  65  92 117 147 189 228 261
#     4  10  20  32  48  71  93 116 155 198 227 262
#     4   8  15  26  41  62  89 120 151 177 211 271
#     4   9  16  28  45  64  90 125 153 173 213 275
#     4  10  18  29  48  69  92 122 153 184 224 272
#     4  10  20  32  46  66  91 121 156 190 227 269
#     4   9  17  30  47  68  96 125 150 182 227 271
#     4  10  20  35  51  63  86 124 157 189 234 276
#
# _framework density 15.884715
#
# number of rings (size 3 to 8) (size 9 to 14) (size 15 to 20)
#    0.000    2.500    2.500    1.500    0.000    5.000 
#    0.000    1.250    0.000    1.500    0.000    0.875 
#    0.000    7.000    0.000    0.000    0.000    0.000 
#
# Total GULP energy -396697.293449 kJ/mol
# GULP energy per Si atom -12396.790420 kJ/mol
# Density = 1.584856 g / cm^3
# Si number density = 15.884715 Si / 1000 Ang^3
#
#
#
# Elastic Constant Matrix: (Units=GPa)
#
#
# Indices 1 2 3 4 5 6 
#
# 1 120.2137 46.2219 67.6809 0.0000 11.9060 0.0000
# 2 46.2219 58.1209 45.5739 0.0000 6.8695 0.0000
# 3 67.6809 45.5739 81.6598 0.0000 12.7455 0.0000
# 4 0.0000 0.0000 0.0000 22.8572 0.0000 3.5350
# 5 11.9060 6.8695 12.7455 0.0000 26.5410 0.0000
# 6 0.0000 0.0000 0.0000 3.5350 0.0000 3.2593
#
#
#
# Elastic Compliance Matrix: (Units=1/GPa)
#
#
# Indices 1 2 3 4 5 6 
#
# 1 0.016167 -0.004186 -0.010919 0.000000 -0.000925 0.000000
# 2 -0.004186 0.031680 -0.014296 0.000000 0.000543 0.000000
# 3 -0.010919 -0.014296 0.030195 0.000000 -0.005902 0.000000
# 4 0.000000 0.000000 0.000000 0.052568 0.000000 -0.057015
# 5 -0.000925 0.000543 -0.005902 0.000000 0.040786 0.000000
# 6 0.000000 0.000000 0.000000 -0.057015 0.000000 0.368653
#
#
# Mechanical properties :
#
#
# Convention : Reuss Voigt Hill
#
# Bulk Modulus (GPa) = 51.97254 64.32754 58.15004
# Shear Modulus (GPa) = 8.26085 17.23268 12.74677
#
# Velocity S-wave (km/s) = 2.28294 3.29729 2.83584
# Velocity P-wave (km/s) = 6.30386 7.42163 6.88547
#
# Compressibility (1/GPa) = 0.01924093
#
# Stress axis : x y z
#
# Youngs Moduli (GPa) = 61.85398 31.56566 33.11786
#
# Poissons Ratio (x) = 0.13214 0.36161
# Poissons Ratio (y) = 0.25893 0.47344
# Poissons Ratio (z) = 0.67537 0.45125
#
# Static dielectric constant tensor:
#      x y z
#    x 3.169600 0.000000 0.328520 
#    y 0.000000 2.958710 0.000000 
#    z 0.328520 0.000000 3.071710 
# 
# 
# High freq. dielectric constant tensor:
#      x y z
#    x 1.596720 0.000000 0.026170 
#    y 0.000000 1.600160 0.000000 
#    z 0.026170 0.000000 1.595770 
# 
# From -- ./inp_files/52740.got.cif
#   From: 2010.06.25/outbox.cif.g09.slc.cpg/sg10_27_cif.got.tgz:52740.got - 2010.06.27 22:07:45.
