data_PCOD8057075
_publ_section_title
;
Structure prediction by ZEFSAII (Michael W. Deem and Ramdas Pophale) SiO2 
 PCOD8057075
Probable space group: P 2/M
;
_chemical_formula_sum "Si O2"
_cell_formula_units_Z 28
_cell_length_a 13.401497
_cell_length_b 9.387020
_cell_length_c 14.554762
_cell_angle_alpha 90.000000
_cell_angle_beta 77.808654
_cell_angle_gamma 90.000000
_cell_volume 1789.697944
_symmetry_space_group_name_H-M "P 2/M"
_symmetry_group_IT_number 10
_symmetry_cell_setting 'monoclinic'
loop_
_space_group_symop_operation_xyz
x,y,z
-x,y,-z
-x,-y,-z
x,-y,z
loop_
_atom_site_type_symbol
_atom_site_label
_atom_site_fract_x
_atom_site_fract_y
_atom_site_fract_z
Si Si1 0.760918 0.662159 0.206857
Si Si2 0.635069 0.330827 0.396417
Si Si3 0.641186 0.334527 0.790378
Si Si4 0.415254 0.659644 0.903709
Si Si5 0.287596 0.167108 0.062332
Si Si6 0.887097 0.166216 0.045932
Si Si7 0.411409 0.669002 0.396851
O O1 0.800491 0.500000 0.203530
O O2 0.729282 0.722073 0.314233
O O3 0.658038 0.674957 0.168637
O O4 0.850619 0.755841 0.145654
O O5 0.629713 0.500000 0.388502
O O6 0.652703 0.285677 0.499577
O O7 0.526345 0.268282 0.382648
O O8 0.671979 0.500000 0.791096
O O9 0.527851 0.305635 0.848569
O O10 0.719627 0.242095 0.836464
O O11 0.645639 0.277259 0.684175
O O12 0.407994 0.500000 0.946580
O O13 0.384598 0.769180 0.989408
O O14 0.303377 0.000000 0.072006
O O15 0.184747 0.203503 0.026496
O O16 0.885618 0.000000 0.068467
O O17 0.000000 0.220496 0.000000
O O18 0.420657 0.500000 0.388513
#
# Coordination Sequence:
#
# PCOD8057075 Si02
#       7
#     4   4   4   4   4   4   4
#     4   9  15  25  44  68  89 108 136 175 211 240
#     4   8  12  21  38  62  88 113 143 174 198 229
#     4  10  17  26  40  60  86 117 145 166 193 234
#     4   9  16  26  39  58  85 115 142 166 194 235
#     4  10  20  30  41  58  79 106 139 174 211 250
#     4   9  19  35  49  60  78 106 139 175 218 265
#     4   8  13  21  37  60  87 118 147 169 192 230
#
# _framework density 15.645098000000001
#
# number of rings (size 3 to 8) (size 9 to 14) (size 15 to 20)
#    0.000    3.000    1.429    1.714    0.000    3.143 
#    0.000    0.000    0.000    0.857    0.000    3.000 
#    0.000    8.000    0.000    0.000    0.000    0.000 
#
# Total GULP energy -347004.950250 kJ/mol
# GULP energy per Si atom -12393.033937 kJ/mol
# Density = 1.560949 g / cm^3
# Si number density = 15.645098 Si / 1000 Ang^3
#
#
#
# Elastic Constant Matrix: (Units=GPa)
#
#
# Indices 1 2 3 4 5 6 
#
# 1 53.7539 26.0529 50.7987 0.0000 -10.8636 0.0000
# 2 26.0529 45.1911 46.2887 0.0000 -1.3323 0.0000
# 3 50.7987 46.2887 151.3966 0.0000 -1.2497 0.0000
# 4 0.0000 0.0000 0.0000 0.5138 0.0000 3.0701
# 5 -10.8636 -1.3323 -1.2497 0.0000 19.4262 0.0000
# 6 0.0000 0.0000 0.0000 3.0701 0.0000 17.0666
#
#
#
# Elastic Compliance Matrix: (Units=1/GPa)
#
#
# Indices 1 2 3 4 5 6 
#
# 1 0.035897 -0.011595 -0.008345 0.000000 0.018742 0.000000
# 2 -0.011595 0.036011 -0.007157 0.000000 -0.004475 0.000000
# 3 -0.008345 -0.007157 0.011557 0.000000 -0.004414 0.000000
# 4 0.000000 0.000000 0.000000-25.982862 0.000000 4.674033
# 5 0.018742 -0.004475 -0.004414 0.000000 0.061367 0.000000
# 6 0.000000 0.000000 0.000000 4.674033 0.000000 -0.782213
#
#
# Mechanical properties :
#
#
# Convention : Reuss Voigt Hill
#
# Bulk Modulus (GPa) = 34.16183 55.18025 44.67104
# Shear Modulus (GPa) = -0.18828 15.88140 7.84656
#
# Velocity S-wave (km/s) = -0.34728 3.18953 2.24193
# Velocity P-wave (km/s) = 4.66070 6.99362 5.94276
#
# Compressibility (1/GPa) = 0.02927244
#
# Stress axis : x y z
#
# Youngs Moduli (GPa) = 27.85764 27.76905 86.52834
#
# Poissons Ratio (x) = 0.32197 0.72207
# Poissons Ratio (y) = 0.32300 0.61927
# Poissons Ratio (z) = 0.23247 0.19874
#
# Static dielectric constant tensor:
#      x y z
#    x 2.735840 0.000000 0.087440 
#    y 0.000000 2.736090 0.000000 
#    z 0.087440 0.000000 3.386970 
# 
# 
# High freq. dielectric constant tensor:
#      x y z
#    x 1.557960 0.000000 0.006980 
#    y 0.000000 1.570090 0.000000 
#    z 0.006980 0.000000 1.609590 
# 
# From -- ./inp_files/65718.got.cif
#   From: 2010.06.25/outbox.cif.g09.slc.cpg/sg10_33_cif.got.tgz:65718.got - 2010.06.27 22:07:45.
