data_PCOD8057196
_publ_section_title
;
Structure prediction by ZEFSAII (Michael W. Deem and Ramdas Pophale) SiO2 
 PCOD8057196
Probable space group: P 2/M
;
_chemical_formula_sum "Si O2"
_cell_formula_units_Z 32
_cell_length_a 17.551983
_cell_length_b 8.850909
_cell_length_c 23.801712
_cell_angle_alpha 90.000000
_cell_angle_beta 31.136364
_cell_angle_gamma 90.000000
_cell_volume 1911.952977
_symmetry_space_group_name_H-M "P 2/M"
_symmetry_group_IT_number 10
_symmetry_cell_setting 'monoclinic'
loop_
_space_group_symop_operation_xyz
x,y,z
-x,y,-z
-x,-y,-z
x,-y,z
loop_
_atom_site_type_symbol
_atom_site_label
_atom_site_fract_x
_atom_site_fract_y
_atom_site_fract_z
Si Si1 0.735003 0.323343 0.588337
Si Si2 0.874798 0.679494 0.814954
Si Si3 0.612848 0.675321 0.548031
Si Si4 0.049851 0.322332 0.355999
Si Si5 0.841854 0.179049 0.320801
Si Si6 0.435046 0.178277 0.981361
Si Si7 0.334892 0.678068 0.245375
Si Si8 0.386226 0.833215 0.622599
O O1 0.760385 0.500000 0.581009
O O2 0.623564 0.288922 0.607565
O O3 0.665248 0.262406 0.690242
O O4 0.895479 0.250179 0.474271
O O5 0.871648 0.500000 0.819349
O O6 0.907240 0.743490 0.732040
O O7 0.000159 0.741114 0.777618
O O8 0.719283 0.742126 0.933584
O O9 0.639081 0.500000 0.518874
O O10 0.741083 0.765779 0.435854
O O11 0.449008 0.722210 0.630938
O O12 0.030412 0.500000 0.361110
O O13 0.175141 0.281493 0.321417
O O14 0.767852 0.223190 0.307267
O O15 0.858384 0.000000 0.315610
O O16 0.543015 0.226905 0.863715
O O17 0.412731 0.000000 0.995032
O O18 0.500000 0.234216 0.000000
O O19 0.369211 0.500000 0.217676
O O20 0.500000 0.840354 0.500000
O O21 0.368188 0.000000 0.660577
#
# Coordination Sequence:
#
# PCOD8057196 Si02
#       8
#     4   4   4   4   4   4   4   4
#     4   9  17  29  47  75 103 128 163 206 246 285
#     4  11  20  32  53  76  96 125 169 208 244 293
#     4  10  17  27  45  71 101 131 165 202 241 287
#     4   9  16  28  48  73  98 124 160 204 241 282
#     4  10  19  31  46  68 100 133 163 198 246 296
#     4  11  23  37  51  69  98 130 164 208 254 292
#     4  10  19  33  54  72  93 130 172 208 243 286
#     4   8  16  29  43  63  95 133 166 194 235 295
#
# _framework density 16.736813000000001
#
# number of rings (size 3 to 8) (size 9 to 14) (size 15 to 20)
#    0.000    2.250    2.500    2.625    0.000    4.750 
#    0.000    1.250    0.000    0.750    0.000    0.875 
#    0.000    7.000    0.000    0.000    0.000    0.000 
#
# Total GULP energy -396728.650837 kJ/mol
# GULP energy per Si atom -12397.770339 kJ/mol
# Density = 1.669872 g / cm^3
# Si number density = 16.736813 Si / 1000 Ang^3
#
#
#
# Elastic Constant Matrix: (Units=GPa)
#
#
# Indices 1 2 3 4 5 6 
#
# 1 120.2573 39.5228 55.2261 0.0000 -10.8640 0.0000
# 2 39.5228 55.7518 29.4155 0.0000 -6.4128 0.0000
# 3 55.2261 29.4155 85.0517 0.0000 0.9709 0.0000
# 4 0.0000 0.0000 0.0000 16.8826 0.0000 -6.2437
# 5 -10.8640 -6.4128 0.9709 0.0000 23.8562 0.0000
# 6 0.0000 0.0000 0.0000 -6.2437 0.0000 19.2446
#
#
#
# Elastic Compliance Matrix: (Units=1/GPa)
#
#
# Indices 1 2 3 4 5 6 
#
# 1 0.013868 -0.005453 -0.007178 0.000000 0.005142 0.000000
# 2 -0.005453 0.025044 -0.005172 0.000000 0.004459 0.000000
# 3 -0.007178 -0.005172 0.018269 0.000000 -0.005403 0.000000
# 4 0.000000 0.000000 0.000000 0.067309 0.000000 0.021837
# 5 0.005142 0.004459 -0.005403 0.000000 0.045678 0.000000
# 6 0.000000 0.000000 0.000000 0.021837 0.000000 0.059047
#
#
# Mechanical properties :
#
#
# Convention : Reuss Voigt Hill
#
# Bulk Modulus (GPa) = 46.34792 56.59884 51.47338
# Shear Modulus (GPa) = 18.38155 21.12313 19.75234
#
# Velocity S-wave (km/s) = 3.31761 3.55642 3.43909
# Velocity P-wave (km/s) = 6.51366 7.12423 6.82577
#
# Compressibility (1/GPa) = 0.02157594
#
# Stress axis : x y z
#
# Youngs Moduli (GPa) = 72.10616 39.93005 54.73841
#
# Poissons Ratio (x) = 0.21773 0.39291
# Poissons Ratio (y) = 0.39318 0.28310
# Poissons Ratio (z) = 0.51757 0.20651
#
# Static dielectric constant tensor:
#      x y z
#    x 3.434740 0.000000 -0.137780 
#    y 0.000000 2.991150 0.000000 
#    z -0.137780 0.000000 2.983420 
# 
# 
# High freq. dielectric constant tensor:
#      x y z
#    x 1.650050 0.000000 -0.014700 
#    y 0.000000 1.630120 0.000000 
#    z -0.014700 0.000000 1.612850 
# 
# From -- ./inp_files/79919.got.cif
#   From: 2010.06.25/outbox.cif.g09.slc.cpg/sg10_40_cif.got.tgz:79919.got - 2010.06.27 22:07:45.
