data_PCOD8057039
_publ_section_title
;
Structure prediction by ZEFSAII (Michael W. Deem and Ramdas Pophale) SiO2 
 PCOD8057039
Probable space group: P 2/M
;
_chemical_formula_sum "Si O2"
_cell_formula_units_Z 24
_cell_length_a 10.367391
_cell_length_b 8.814003
_cell_length_c 15.283292
_cell_angle_alpha 90.000000
_cell_angle_beta 78.244323
_cell_angle_gamma 90.000000
_cell_volume 1367.267509
_symmetry_space_group_name_H-M "P 2/M"
_symmetry_group_IT_number 10
_symmetry_cell_setting 'monoclinic'
loop_
_space_group_symop_operation_xyz
x,y,z
-x,y,-z
-x,-y,-z
x,-y,z
loop_
_atom_site_type_symbol
_atom_site_label
_atom_site_fract_x
_atom_site_fract_y
_atom_site_fract_z
Si Si1 0.864152 0.178984 0.058062
Si Si2 0.647082 0.178056 0.952250
Si Si3 0.830484 0.179352 0.593993
Si Si4 0.215612 0.321051 0.225559
Si Si5 0.080688 0.674406 0.775047
Si Si6 0.114049 0.677059 0.579276
O O1 0.844641 0.233843 0.159982
O O2 0.868893 0.000000 0.058401
O O3 0.743190 0.236653 0.015864
O O4 0.000000 0.246171 0.000000
O O5 0.677746 0.267584 0.859424
O O6 0.666080 0.000000 0.932168
O O7 0.500000 0.219128 0.000000
O O8 0.745989 0.242993 0.687147
O O9 0.784376 0.253991 0.506909
O O10 0.979744 0.229979 0.588574
O O11 0.815823 0.000000 0.590573
O O12 0.220933 0.500000 0.238321
O O13 0.070141 0.268419 0.214541
O O14 0.080331 0.500000 0.802750
O O15 0.161675 0.699566 0.673009
O O16 0.087411 0.500000 0.564585
#
# Coordination Sequence:
#
# PCOD8057039 Si02
#       6
#     4   4   4   4   4   4
#     4  10  19  31  49  72  95 125 164 201 240 287
#     4  10  21  36  51  70  98 129 162 204 247 287
#     4  10  17  25  41  65  93 127 162 196 241 290
#     4  10  19  31  47  68  95 128 164 201 243 288
#     4   9  18  29  45  69  96 128 160 198 241 284
#     4   9  16  27  40  62  96 128 159 196 242 288
#
# _framework density 17.553260000000002
#
# number of rings (size 3 to 8) (size 9 to 14) (size 15 to 20)
#    0.000    2.333    1.667    4.500    0.000    4.667 
#    0.000    0.000    0.000    0.000    0.000    1.167 
#    0.000    9.333    0.000    0.000    0.000    0.000 
#
# Total GULP energy -297483.383544 kJ/mol
# GULP energy per Si atom -12395.140981 kJ/mol
# Density = 1.751331 g / cm^3
# Si number density = 17.553260 Si / 1000 Ang^3
#
#
#
# Elastic Constant Matrix: (Units=GPa)
#
#
# Indices 1 2 3 4 5 6 
#
# 1 63.4089 23.1926 45.6427 0.0000 0.8025 0.0000
# 2 23.1926 63.4892 55.4154 0.0000 -1.5894 0.0000
# 3 45.6427 55.4154 174.1717 0.0000 8.2246 0.0000
# 4 0.0000 0.0000 0.0000 38.3035 0.0000 2.9318
# 5 0.8025 -1.5894 8.2246 0.0000 14.1414 0.0000
# 6 0.0000 0.0000 0.0000 2.9318 0.0000 11.5105
#
#
#
# Elastic Compliance Matrix: (Units=1/GPa)
#
#
# Indices 1 2 3 4 5 6 
#
# 1 0.020086 -0.003721 -0.004119 0.000000 0.000838 0.000000
# 2 -0.003721 0.023125 -0.006699 0.000000 0.006707 0.000000
# 3 -0.004119 -0.006699 0.009230 0.000000 -0.005888 0.000000
# 4 0.000000 0.000000 0.000000 0.026626 0.000000 -0.006782
# 5 0.000838 0.006707 -0.005888 0.000000 0.074845 0.000000
# 6 0.000000 0.000000 0.000000 -0.006782 0.000000 0.088605
#
#
# Mechanical properties :
#
#
# Convention : Reuss Voigt Hill
#
# Bulk Modulus (GPa) = 42.80332 61.06346 51.93339
# Shear Modulus (GPa) = 17.89648 24.57902 21.23775
#
# Velocity S-wave (km/s) = 3.19651 3.74606 3.48214
# Velocity P-wave (km/s) = 6.16939 7.31940 6.76886
#
# Compressibility (1/GPa) = 0.02336267
#
# Stress axis : x y z
#
# Youngs Moduli (GPa) = 49.78528 43.24294 108.33720
#
# Poissons Ratio (x) = 0.16091 0.44628
# Poissons Ratio (y) = 0.18525 0.72577
# Poissons Ratio (z) = 0.20508 0.28969
#
# Static dielectric constant tensor:
#      x y z
#    x 2.772540 0.000000 0.145600 
#    y 0.000000 3.167270 0.000000 
#    z 0.145600 0.000000 3.957560 
# 
# 
# High freq. dielectric constant tensor:
#      x y z
#    x 1.602230 0.000000 0.012140 
#    y 0.000000 1.681740 0.000000 
#    z 0.012140 0.000000 1.706250 
# 
# From -- ./inp_files/48659.got.cif
#   From: 2010.06.25/outbox.cif.g09.slc.cpg/sg10_25_cif.got.tgz:48659.got - 2010.06.27 22:07:45.
