data_PCOD8057334
_publ_section_title
;
Structure prediction by ZEFSAII (Michael W. Deem and Ramdas Pophale) SiO2 
 PCOD8057334
Probable space group: P 2/M
;
_chemical_formula_sum "Si O2"
_cell_formula_units_Z 30
_cell_length_a 20.559729
_cell_length_b 13.156258
_cell_length_c 12.231737
_cell_angle_alpha 90.000000
_cell_angle_beta 150.296243
_cell_angle_gamma 90.000000
_cell_volume 1639.438976
_symmetry_space_group_name_H-M "P 2/M"
_symmetry_group_IT_number 10
_symmetry_cell_setting 'monoclinic'
loop_
_space_group_symop_operation_xyz
x,y,z
-x,y,-z
-x,-y,-z
x,-y,z
loop_
_atom_site_type_symbol
_atom_site_label
_atom_site_fract_x
_atom_site_fract_y
_atom_site_fract_z
Si Si1 0.227592 0.305771 0.096449
Si Si2 0.992428 0.383773 0.365875
Si Si3 0.621856 0.762945 0.399371
Si Si4 0.500000 0.750827 0.000000
Si Si5 0.590826 0.385194 0.815613
Si Si6 0.845204 0.382268 0.778835
Si Si7 0.715132 0.611766 0.217979
Si Si8 0.366467 0.884123 0.372507
O O1 0.099331 0.308523 0.834562
O O2 0.354771 0.350930 0.221803
O O3 0.203783 0.373014 0.168456
O O4 0.252960 0.187436 0.158277
O O5 0.938852 0.500000 0.281982
O O6 0.136625 0.375540 0.524226
O O7 0.000000 0.344762 0.500000
O O8 0.532616 0.679544 0.327964
O O9 0.761052 0.701914 0.585504
O O10 0.623883 0.858802 0.483951
O O11 0.555948 0.807844 0.190278
O O12 0.374304 0.687026 0.847076
O O13 0.540768 0.500000 0.734564
O O14 0.707399 0.372213 0.075319
O O15 0.823467 0.500000 0.707628
O O16 0.000000 0.354491 0.000000
O O17 0.662952 0.500000 0.170687
O O18 0.500000 0.865924 0.500000
O O19 0.320156 0.000000 0.293034
#
# Coordination Sequence:
#
# PCOD8057334 Si02
#       8
#     4   4   4   2   4   4   4   4
#     4  11  20  33  54  78 107 145 187 230 279 326
#     4  10  18  29  48  78 113 150 185 217 258 317
#     4  10  21  37  55  82 111 144 185 229 280 332
#     4  10  21  34  53  78 112 150 182 224 274 326
#     4  10  17  29  50  81 115 145 179 220 266 321
#     4  10  22  35  48  74 114 157 194 222 257 319
#     4   9  18  29  45  74 113 154 189 213 247 308
#     4  10  21  40  63  83 102 129 179 242 302 346
#
# _framework density 18.298943000000001
#
# number of rings (size 3 to 8) (size 9 to 14) (size 15 to 20)
#    0.000    2.000    2.667    1.800    1.867    1.600 
#    0.000    2.333    0.000    6.800    0.000    0.933 
#    0.000    0.000    0.000    0.000    0.000    0.000 
#
# Total GULP energy -371771.844959 kJ/mol
# GULP energy per Si atom -12392.394832 kJ/mol
# Density = 1.825729 g / cm^3
# Si number density = 18.298943 Si / 1000 Ang^3
#
#
#
# Elastic Constant Matrix: (Units=GPa)
#
#
# Indices 1 2 3 4 5 6 
#
# 1 70.0059 17.5876 24.6320 0.0000 -6.3187 0.0000
# 2 17.5876 70.6727 28.9729 0.0000 0.3611 0.0000
# 3 24.6320 28.9729 97.6818 0.0000 -5.5290 0.0000
# 4 0.0000 0.0000 0.0000 18.1613 0.0000 -0.7043
# 5 -6.3187 0.3611 -5.5290 0.0000 28.0754 0.0000
# 6 0.0000 0.0000 0.0000 -0.7043 0.0000 18.2266
#
#
#
# Elastic Compliance Matrix: (Units=1/GPa)
#
#
# Indices 1 2 3 4 5 6 
#
# 1 0.016368 -0.002811 -0.003118 0.000000 0.003106 0.000000
# 2 -0.002811 0.016629 -0.004319 0.000000 -0.001697 0.000000
# 3 -0.003118 -0.004319 0.012406 0.000000 0.001797 0.000000
# 4 0.000000 0.000000 0.000000 0.055145 0.000000 0.002131
# 5 0.003106 -0.001697 0.001797 0.000000 0.036693 0.000000
# 6 0.000000 0.000000 0.000000 0.002131 0.000000 0.054947
#
#
# Mechanical properties :
#
#
# Convention : Reuss Voigt Hill
#
# Bulk Modulus (GPa) = 40.14992 42.30504 41.22748
# Shear Modulus (GPa) = 22.62573 24.03718 23.33146
#
# Velocity S-wave (km/s) = 3.52013 3.62827 3.57461
# Velocity P-wave (km/s) = 6.20569 6.38134 6.29413
#
# Compressibility (1/GPa) = 0.02490665
#
# Stress axis : x y z
#
# Youngs Moduli (GPa) = 61.09434 60.13688 80.60345
#
# Poissons Ratio (x) = 0.16905 0.25132
# Poissons Ratio (y) = 0.17174 0.34816
# Poissons Ratio (z) = 0.19049 0.25975
#
# Static dielectric constant tensor:
#      x y z
#    x 3.572470 0.000000 -0.024520 
#    y 0.000000 2.956930 0.000000 
#    z -0.024520 0.000000 3.679940 
# 
# 
# High freq. dielectric constant tensor:
#      x y z
#    x 1.720680 0.000000 -0.001060 
#    y 0.000000 1.654200 0.000000 
#    z -0.001060 0.000000 1.719150 
# 
# From -- ./inp_files/55936.got.cif
#   From: 2010.06.25/outbox.cif.g09.slc.cpg/sg10_28_cif.got.tgz:55936.got - 2010.06.27 22:07:45.
