data_PCOD8057957
_publ_section_title
;
Structure prediction by ZEFSAII (Michael W. Deem and Ramdas Pophale) SiO2 
 PCOD8057957
Probable space group: P 2/M
;
_chemical_formula_sum "Si O2"
_cell_formula_units_Z 24
_cell_length_a 24.930308
_cell_length_b 8.429570
_cell_length_c 18.489838
_cell_angle_alpha 90.000000
_cell_angle_beta 19.353463
_cell_angle_gamma 90.000000
_cell_volume 1287.692040
_symmetry_space_group_name_H-M "P 2/M"
_symmetry_group_IT_number 10
_symmetry_cell_setting 'monoclinic'
loop_
_space_group_symop_operation_xyz
x,y,z
-x,y,-z
-x,-y,-z
x,-y,z
loop_
_atom_site_type_symbol
_atom_site_label
_atom_site_fract_x
_atom_site_fract_y
_atom_site_fract_z
Si Si1 0.478061 0.811539 0.448221
Si Si2 0.168800 0.811884 0.753001
Si Si3 0.176560 0.315852 0.252958
Si Si4 0.638738 0.315817 0.611065
Si Si5 0.488261 0.814340 0.933262
Si Si6 0.333507 0.817705 0.924275
O O1 0.500000 0.736333 0.500000
O O2 0.310324 0.750645 0.626728
O O3 0.633417 0.762117 0.200808
O O4 0.470015 0.000000 0.463150
O O5 0.193503 0.731707 0.642088
O O6 0.168593 0.000000 0.743922
O O7 0.000000 0.750623 0.000000
O O8 0.197197 0.500000 0.244145
O O9 0.000000 0.253797 0.500000
O O10 0.310105 0.220781 0.128373
O O11 0.199210 0.285430 0.137640
O O12 0.598057 0.500000 0.650766
O O13 0.630800 0.275031 0.706602
O O14 0.504475 0.201866 0.746769
O O15 0.522776 0.000000 0.886327
O O16 0.500000 0.750191 0.000000
O O17 0.279051 0.000000 0.996474
#
# Coordination Sequence:
#
# PCOD8057957 Si02
#       6
#     4   4   4   4   4   4
#     4   8  14  26  45  68  90 114 148 188 229 271
#     4   9  17  30  48  68  92 122 156 195 234 275
#     4  10  20  33  50  72  99 130 161 195 240 293
#     4  10  18  29  48  70  95 126 158 192 234 290
#     4  10  20  34  53  75  97 124 163 207 245 286
#     4   9  16  28  48  69  91 122 160 197 232 277
#
# _framework density 18.637998
#
# number of rings (size 3 to 8) (size 9 to 14) (size 15 to 20)
#    0.000    2.667    0.000    6.000    0.000    3.000 
#    0.000    1.667    0.000   16.500    0.000    0.000 
#    0.000    0.000    0.000    0.000    0.000    0.000 
#
# Total GULP energy -297411.824741 kJ/mol
# GULP energy per Si atom -12392.159364 kJ/mol
# Density = 1.859558 g / cm^3
# Si number density = 18.637998 Si / 1000 Ang^3
#
#
#
# Elastic Constant Matrix: (Units=GPa)
#
#
# Indices 1 2 3 4 5 6 
#
# 1 114.3225 18.2490 63.1676 0.0000 38.6323 0.0000
# 2 18.2490 38.9531 23.0297 0.0000 8.5172 0.0000
# 3 63.1676 23.0297 151.3534 0.0000 38.4430 0.0000
# 4 0.0000 0.0000 0.0000 23.1184 0.0000 3.9638
# 5 38.6323 8.5172 38.4430 0.0000 33.6818 0.0000
# 6 0.0000 0.0000 0.0000 3.9638 0.0000 6.9477
#
#
#
# Elastic Compliance Matrix: (Units=1/GPa)
#
#
# Indices 1 2 3 4 5 6 
#
# 1 0.015253 -0.002655 -0.002378 0.000000 -0.014109 0.000000
# 2 -0.002655 0.028910 -0.003109 0.000000 -0.000718 0.000000
# 3 -0.002378 -0.003109 0.010111 0.000000 -0.008027 0.000000
# 4 0.000000 0.000000 0.000000 0.047946 0.000000 -0.027354
# 5 -0.014109 -0.000718 -0.008027 0.000000 0.055215 0.000000
# 6 0.000000 0.000000 0.000000 -0.027354 0.000000 0.159539
#
#
# Mechanical properties :
#
#
# Convention : Reuss Voigt Hill
#
# Bulk Modulus (GPa) = 26.32186 57.05794 41.68990
# Shear Modulus (GPa) = 14.45413 26.09509 20.27461
#
# Velocity S-wave (km/s) = 2.78784 3.74585 3.30178
# Velocity P-wave (km/s) = 4.95137 7.02771 6.07885
#
# Compressibility (1/GPa) = 0.03799123
#
# Stress axis : x y z
#
# Youngs Moduli (GPa) = 65.56207 34.58954 98.89811
#
# Poissons Ratio (x) = 0.09182 0.23520
# Poissons Ratio (y) = 0.17405 0.30745
# Poissons Ratio (z) = 0.15592 0.10753
#
# Static dielectric constant tensor:
#      x y z
#    x 3.667290 0.000000 0.604280 
#    y 0.000000 3.153160 0.000000 
#    z 0.604280 0.000000 3.715330 
# 
# 
# High freq. dielectric constant tensor:
#      x y z
#    x 1.700670 0.000000 0.043760 
#    y 0.000000 1.710360 0.000000 
#    z 0.043760 0.000000 1.717390 
# 
# From -- ./inp_files/33507.got.cif
#   From: 2010.06.25/outbox.cif.g09.slc.cpg/sg10_17_cif.got.tgz:33507.got - 2010.06.27 22:07:45.
