data_PCOD8057885
_publ_section_title
;
Structure prediction by ZEFSAII (Michael W. Deem and Ramdas Pophale) SiO2 
 PCOD8057885
Probable space group: P 2/M
;
_chemical_formula_sum "Si O2"
_cell_formula_units_Z 28
_cell_length_a 16.486325
_cell_length_b 8.854964
_cell_length_c 21.260464
_cell_angle_alpha 90.000000
_cell_angle_beta 31.638820
_cell_angle_gamma 90.000000
_cell_volume 1628.099473
_symmetry_space_group_name_H-M "P 2/M"
_symmetry_group_IT_number 10
_symmetry_cell_setting 'monoclinic'
loop_
_space_group_symop_operation_xyz
x,y,z
-x,y,-z
-x,-y,-z
x,-y,z
loop_
_atom_site_type_symbol
_atom_site_label
_atom_site_fract_x
_atom_site_fract_y
_atom_site_fract_z
Si Si1 0.171638 0.324737 0.908807
Si Si2 0.288352 0.826682 0.585556
Si Si3 0.632968 0.825662 0.324955
Si Si4 0.261781 0.331694 0.173255
Si Si5 0.980990 0.320559 0.757479
Si Si6 0.514718 0.329485 0.092855
Si Si7 0.235264 0.822692 0.997572
O O1 0.188227 0.500000 0.915850
O O2 0.289555 0.285830 0.775447
O O3 0.212546 0.221971 0.940787
O O4 0.000000 0.284774 0.000000
O O5 0.449261 0.798252 0.443827
O O6 0.302797 0.782320 0.648967
O O7 0.159798 0.724180 0.637133
O O8 0.237894 0.000000 0.612837
O O9 0.671261 0.000000 0.284106
O O10 0.226922 0.500000 0.219734
O O11 0.101831 0.257984 0.252642
O O12 0.352280 0.255776 0.173142
O O13 0.370330 0.335598 0.041161
O O14 0.962402 0.500000 0.773104
O O15 0.900199 0.253063 0.872496
O O16 0.489027 0.500000 0.135557
O O17 0.591500 0.227852 0.096252
O O18 0.220783 0.000000 0.015171
#
# Coordination Sequence:
#
# PCOD8057885 Si02
#       7
#     4   4   4   4   4   4   4
#     4  11  23  36  50  70  94 121 157 197 231 269
#     4   9  18  33  51  71  95 123 154 189 232 277
#     4   9  19  35  52  69  93 125 157 189 229 278
#     4   7  12  23  41  63  89 122 153 185 228 273
#     4  10  18  29  46  70  98 126 158 193 230 273
#     4   8  13  26  44  61  87 122 157 189 224 271
#     4  11  21  31  45  67  96 128 158 190 234 282
#
# _framework density 17.197966000000001
#
# number of rings (size 3 to 8) (size 9 to 14) (size 15 to 20)
#    0.000    2.714    0.000    5.571    0.000    4.571 
#    0.000    7.857    0.000    0.000    0.000    1.000 
#    0.000    8.000    0.000    0.000    0.000    0.000 
#
# Total GULP energy -346934.478324 kJ/mol
# GULP energy per Si atom -12390.517083 kJ/mol
# Density = 1.715882 g / cm^3
# Si number density = 17.197966 Si / 1000 Ang^3
#
#
#
# Elastic Constant Matrix: (Units=GPa)
#
#
# Indices 1 2 3 4 5 6 
#
# 1 131.2894 43.6019 38.3804 0.0000 -25.2989 0.0000
# 2 43.6019 68.7187 23.6550 0.0000 -7.4005 0.0000
# 3 38.3804 23.6550 56.6359 0.0000 -9.5209 0.0000
# 4 0.0000 0.0000 0.0000 22.2778 0.0000 -0.4492
# 5 -25.2989 -7.4005 -9.5209 0.0000 22.3191 0.0000
# 6 0.0000 0.0000 0.0000 -0.4492 0.0000 19.0492
#
#
#
# Elastic Compliance Matrix: (Units=1/GPa)
#
#
# Indices 1 2 3 4 5 6 
#
# 1 0.012842 -0.005390 -0.004637 0.000000 0.010791 0.000000
# 2 -0.005390 0.019423 -0.004744 0.000000 -0.001693 0.000000
# 3 -0.004637 -0.004744 0.023304 0.000000 0.003111 0.000000
# 4 0.000000 0.000000 0.000000 0.044909 0.000000 0.001059
# 5 0.010791 -0.001693 0.003111 0.000000 0.057802 0.000000
# 6 0.000000 0.000000 0.000000 0.001059 0.000000 0.052521
#
#
# Mechanical properties :
#
#
# Convention : Reuss Voigt Hill
#
# Bulk Modulus (GPa) = 38.42394 51.99094 45.20744
# Shear Modulus (GPa) = 20.07889 22.79635 21.43762
#
# Velocity S-wave (km/s) = 3.42060 3.64473 3.53444
# Velocity P-wave (km/s) = 6.16371 6.92882 6.55743
#
# Compressibility (1/GPa) = 0.02602544
#
# Stress axis : x y z
#
# Youngs Moduli (GPa) = 77.87128 51.48630 42.91137
#
# Poissons Ratio (x) = 0.27749 0.19899
# Poissons Ratio (y) = 0.41970 0.20359
# Poissons Ratio (z) = 0.36111 0.24427
#
# Static dielectric constant tensor:
#      x y z
#    x 3.799490 0.000000 -0.316640 
#    y 0.000000 3.072350 0.000000 
#    z -0.316640 0.000000 2.841340 
# 
# 
# High freq. dielectric constant tensor:
#      x y z
#    x 1.682360 0.000000 -0.020670 
#    y 0.000000 1.650150 0.000000 
#    z -0.020670 0.000000 1.615950 
# 
# From -- ./inp_files/77704.got.cif
#   From: 2010.06.25/outbox.cif.g09.slc.cpg/sg10_39_cif.got.tgz:77704.got - 2010.06.27 22:07:45.
