data_PCOD8057878
_publ_section_title
;
Structure prediction by ZEFSAII (Michael W. Deem and Ramdas Pophale) SiO2 
 PCOD8057878
Probable space group: P 2/M
;
_chemical_formula_sum "Si O2"
_cell_formula_units_Z 28
_cell_length_a 25.885476
_cell_length_b 12.260129
_cell_length_c 25.885480
_cell_angle_alpha 90.000000
_cell_angle_beta 11.582458
_cell_angle_gamma 90.000000
_cell_volume 1649.390696
_symmetry_space_group_name_H-M "P 2/M"
_symmetry_group_IT_number 10
_symmetry_cell_setting 'monoclinic'
loop_
_space_group_symop_operation_xyz
x,y,z
-x,y,-z
-x,-y,-z
x,-y,z
loop_
_atom_site_type_symbol
_atom_site_label
_atom_site_fract_x
_atom_site_fract_y
_atom_site_fract_z
Si Si1 0.156477 0.382175 0.156452
Si Si2 0.321378 0.298768 0.321374
Si Si3 0.889397 0.217474 0.889379
Si Si4 0.632745 0.124657 0.632794
Si Si5 0.939460 0.629928 0.939452
Si Si6 0.471284 0.372021 0.471284
Si Si7 0.733344 0.373418 0.733342
O O1 0.143277 0.500000 0.143357
O O2 0.924033 0.370175 0.423540
O O3 0.133686 0.300068 0.133539
O O4 0.423582 0.370208 0.923989
O O5 0.339936 0.191444 0.339860
O O6 0.290274 0.284130 0.290258
O O7 0.142069 0.146256 0.629769
O O8 0.915058 0.290289 0.915053
O O9 0.629831 0.146223 0.142009
O O10 0.641732 0.000000 0.641705
O O11 0.931986 0.500000 0.931956
O O12 0.203791 0.663687 0.707952
O O13 0.707961 0.663680 0.203783
O O14 0.500000 0.317448 0.500000
O O15 0.474730 0.500000 0.474773
O O16 0.723695 0.500000 0.723679
O O17 0.000000 0.348063 0.500000
O O18 0.500000 0.348070 0.000000
#
# Coordination Sequence:
#
# PCOD8057878 Si02
#       7
#     4   4   4   4   4   4   4
#     4  10  18  29  46  69  99 127 154 186 226 288
#     4  10  20  32  49  70  93 128 163 191 231 282
#     4  10  20  32  49  74  97 123 158 195 245 295
#     4  10  21  37  54  70  93 123 160 207 246 286
#     4  10  18  29  46  70 105 136 160 196 236 281
#     4   9  17  28  43  65  98 142 177 195 220 267
#     4  10  19  30  46  69  98 127 154 188 229 275
#
# _framework density 16.975964999999999
#
# number of rings (size 3 to 8) (size 9 to 14) (size 15 to 20)
#    0.000    2.143    0.000    4.286    0.000    2.857 
#    0.000    4.286    0.000    0.857    0.000    0.000 
#    0.000   40.000    0.000    0.000    0.000    0.000 
#
# Total GULP energy -346962.337272 kJ/mol
# GULP energy per Si atom -12391.512045 kJ/mol
# Density = 1.693733 g / cm^3
# Si number density = 16.975965 Si / 1000 Ang^3
#
#
#
# Elastic Constant Matrix: (Units=GPa)
#
#
# Indices 1 2 3 4 5 6 
#
# 1 98.6102 10.2791 48.1281 0.0000 -0.3944 0.0000
# 2 10.2791 53.3541 25.0583 0.0000 -1.2886 0.0000
# 3 48.1281 25.0583 165.4470 0.0000 -5.4760 0.0000
# 4 0.0000 0.0000 0.0000 6.2977 0.0000 1.0275
# 5 -0.3944 -1.2886 -5.4760 0.0000 28.0125 0.0000
# 6 0.0000 0.0000 0.0000 1.0275 0.0000 18.1566
#
#
#
# Elastic Compliance Matrix: (Units=1/GPa)
#
#
# Indices 1 2 3 4 5 6 
#
# 1 0.011852 -0.000720 -0.003356 0.000000 -0.000522 0.000000
# 2 -0.000720 0.020225 -0.002842 0.000000 0.000365 0.000000
# 3 -0.003356 -0.002842 0.007493 0.000000 0.001287 0.000000
# 4 0.000000 0.000000 0.000000 0.160269 0.000000 -0.009070
# 5 -0.000522 0.000365 0.001287 0.000000 0.035959 0.000000
# 6 0.000000 0.000000 0.000000 -0.009070 0.000000 0.055590
#
#
# Mechanical properties :
#
#
# Convention : Reuss Voigt Hill
#
# Bulk Modulus (GPa) = 38.85741 53.81580 46.33661
# Shear Modulus (GPa) = 15.93363 26.08974 21.01169
#
# Velocity S-wave (km/s) = 3.06698 3.92454 3.52196
# Velocity P-wave (km/s) = 5.95661 7.23229 6.62522
#
# Compressibility (1/GPa) = 0.02573512
#
# Stress axis : x y z
#
# Youngs Moduli (GPa) = 84.37547 49.44416 133.44967
#
# Poissons Ratio (x) = 0.03559 0.44785
# Poissons Ratio (y) = 0.06073 0.37923
# Poissons Ratio (z) = 0.28316 0.14051
#
# Static dielectric constant tensor:
#      x y z
#    x 3.392610 0.000000 0.221440 
#    y 0.000000 2.813060 0.000000 
#    z 0.221440 0.000000 0.836770 
# 
# 
# High freq. dielectric constant tensor:
#      x y z
#    x 1.655260 0.000000 -0.002630 
#    y 0.000000 1.610200 0.000000 
#    z -0.002630 0.000000 1.685030 
# 
# From -- ./inp_files/12247.got.cif
#   From: 2010.06.25/outbox.cif.g09.slc.cpg/sg10_7_cif.got.tgz:12247.got - 2010.06.27 22:07:45.
