data_PCOD8057505
_publ_section_title
;
Structure prediction by ZEFSAII (Michael W. Deem and Ramdas Pophale) SiO2 
 PCOD8057505
Probable space group: P 2/M
;
_chemical_formula_sum "Si O2"
_cell_formula_units_Z 32
_cell_length_a 19.044933
_cell_length_b 9.044959
_cell_length_c 20.221965
_cell_angle_alpha 90.000000
_cell_angle_beta 36.245055
_cell_angle_gamma 90.000000
_cell_volume 2059.554303
_symmetry_space_group_name_H-M "P 2/M"
_symmetry_group_IT_number 10
_symmetry_cell_setting 'monoclinic'
loop_
_space_group_symop_operation_xyz
x,y,z
-x,y,-z
-x,-y,-z
x,-y,z
loop_
_atom_site_type_symbol
_atom_site_label
_atom_site_fract_x
_atom_site_fract_y
_atom_site_fract_z
Si Si1 0.630501 0.325361 0.410150
Si Si2 0.933636 0.827669 0.963932
Si Si3 0.790485 0.674618 0.407047
Si Si4 0.902592 0.333913 0.715329
Si Si5 0.179793 0.335681 0.472031
Si Si6 0.138968 0.165724 0.379008
Si Si7 0.165335 0.323687 0.842923
Si Si8 0.961887 0.170536 0.794978
O O1 0.500000 0.253350 0.500000
O O2 0.619097 0.500000 0.421194
O O3 0.686099 0.271430 0.437595
O O4 0.713318 0.278433 0.285950
O O5 0.056935 0.743932 0.883826
O O6 0.897532 0.809969 0.914638
O O7 0.947021 0.000000 0.972551
O O8 0.832381 0.749998 0.085824
O O9 0.817262 0.500000 0.379380
O O10 0.752292 0.711425 0.511995
O O11 0.908405 0.760089 0.297354
O O12 0.854705 0.500000 0.758961
O O13 0.830957 0.257292 0.709900
O O14 0.041192 0.330606 0.594150
O O15 0.881038 0.248908 0.800689
O O16 0.216801 0.500000 0.421932
O O17 0.211137 0.229223 0.387160
O O18 0.000000 0.173312 0.500000
O O19 0.182669 0.000000 0.334050
O O20 0.149894 0.500000 0.859528
O O21 0.975915 0.000000 0.764378
#
# Coordination Sequence:
#
# PCOD8057505 Si02
#       8
#     4   4   4   4   4   4   4   4
#     4   9  17  29  45  64  84 106 136 176 216 250
#     4  10  19  29  42  59  84 109 132 170 213 248
#     4   9  16  27  41  56  76 102 134 170 205 244
#     4   9  16  24  35  50  72 100 130 163 195 234
#     4   8  14  22  33  48  67  95 129 163 197 231
#     4   9  15  22  32  47  69  97 129 162 194 231
#     4  10  18  28  45  63  79 103 138 173 206 250
#     4  10  18  26  38  56  78 105 133 166 204 241
#
# _framework density 15.537342000000001
#
# number of rings (size 3 to 8) (size 9 to 14) (size 15 to 20)
#    0.000    2.750    1.250    3.375    0.000    6.000 
#    0.000    0.000    0.000    3.375    0.000    0.000 
#    0.000    0.000    0.000    1.125    0.000   24.375 
#
# Total GULP energy -396601.738439 kJ/mol
# GULP energy per Si atom -12393.804326 kJ/mol
# Density = 1.550198 g / cm^3
# Si number density = 15.537342 Si / 1000 Ang^3
#
#
#
# Elastic Constant Matrix: (Units=GPa)
#
#
# Indices 1 2 3 4 5 6 
#
# 1 96.7122 48.4283 55.1780 0.0000 34.0508 0.0000
# 2 48.4283 99.6052 38.8769 0.0000 22.0923 0.0000
# 3 55.1780 38.8769 70.9361 0.0000 18.0934 0.0000
# 4 0.0000 0.0000 0.0000 14.5545 0.0000 12.2053
# 5 34.0508 22.0923 18.0934 0.0000 28.6603 0.0000
# 6 0.0000 0.0000 0.0000 12.2053 0.0000 18.7979
#
#
#
# Elastic Compliance Matrix: (Units=1/GPa)
#
#
# Indices 1 2 3 4 5 6 
#
# 1 0.027554 -0.003083 -0.014303 0.000000 -0.021331 0.000000
# 2 -0.003083 0.014208 -0.004207 0.000000 -0.004633 0.000000
# 3 -0.014303 -0.004207 0.026660 0.000000 0.003405 0.000000
# 4 0.000000 0.000000 0.000000 0.150834 0.000000 -0.097934
# 5 -0.021331 -0.004633 0.003405 0.000000 0.061656 0.000000
# 6 0.000000 0.000000 0.000000 -0.097934 0.000000 0.116785
#
#
# Mechanical properties :
#
#
# Convention : Reuss Voigt Hill
#
# Bulk Modulus (GPa) = 39.62488 61.35776 50.49132
# Shear Modulus (GPa) = 11.12856 20.72058 15.92457
#
# Velocity S-wave (km/s) = 2.67918 3.65581 3.20491
# Velocity P-wave (km/s) = 5.92698 7.57603 6.80166
#
# Compressibility (1/GPa) = 0.02523667
#
# Stress axis : x y z
#
# Youngs Moduli (GPa) = 36.29185 70.38105 37.50998
#
# Poissons Ratio (x) = 0.21701 0.53649
# Poissons Ratio (y) = 0.11190 0.15780
# Poissons Ratio (z) = 0.51907 0.29608
#
# Static dielectric constant tensor:
#      x y z
#    x 3.095280 0.000000 0.411480 
#    y 0.000000 3.036490 0.000000 
#    z 0.411480 0.000000 2.770160 
# 
# 
# High freq. dielectric constant tensor:
#      x y z
#    x 1.578790 0.000000 0.052160 
#    y 0.000000 1.601030 0.000000 
#    z 0.052160 0.000000 1.547620 
# 
# From -- ./inp_files/86407.got.cif
#   From: 2010.06.25/outbox.cif.g09.slc.cpg/sg10_44_cif.got.tgz:86407.got - 2010.06.27 22:07:45.
