data_PCOD8057479
_publ_section_title
;
Structure prediction by ZEFSAII (Michael W. Deem and Ramdas Pophale) SiO2 
 PCOD8057479
Probable space group: P 2/M
;
_chemical_formula_sum "Si O2"
_cell_formula_units_Z 30
_cell_length_a 13.402182
_cell_length_b 13.998852
_cell_length_c 8.809923
_cell_angle_alpha 90.000000
_cell_angle_beta 113.912624
_cell_angle_gamma 90.000000
_cell_volume 1511.000048
_symmetry_space_group_name_H-M "P 2/M"
_symmetry_group_IT_number 10
_symmetry_cell_setting 'monoclinic'
loop_
_space_group_symop_operation_xyz
x,y,z
-x,y,-z
-x,-y,-z
x,-y,z
loop_
_atom_site_type_symbol
_atom_site_label
_atom_site_fract_x
_atom_site_fract_y
_atom_site_fract_z
Si Si1 0.143269 0.888241 0.298127
Si Si2 0.994193 0.281599 0.172019
Si Si3 0.313865 0.231402 0.575565
Si Si4 0.500000 0.846396 0.500000
Si Si5 0.373268 0.739666 0.947633
Si Si6 0.786253 0.610249 0.010926
Si Si7 0.318803 0.104003 0.163794
Si Si8 0.199524 0.391046 0.336638
O O1 0.028558 0.828836 0.229286
O O2 0.225040 0.849539 0.477360
O O3 0.203364 0.869287 0.173303
O O4 0.117516 0.000000 0.309025
O O5 0.080115 0.351675 0.306227
O O6 0.873163 0.316207 0.144318
O O7 0.000000 0.304367 0.000000
O O8 0.434597 0.214505 0.584217
O O9 0.315128 0.230701 0.756859
O O10 0.285358 0.334823 0.491516
O O11 0.588344 0.906694 0.649227
O O12 0.327995 0.638695 0.982047
O O13 0.500000 0.726348 0.000000
O O14 0.347462 0.820604 0.054435
O O15 0.816300 0.500000 0.064379
O O16 0.774561 0.626524 0.824144
O O17 0.308424 0.000000 0.080082
O O18 0.207880 0.500000 0.389447
#
# Coordination Sequence:
#
# PCOD8057479 Si02
#       8
#     4   4   4   2   4   4   4   4
#     4   9  19  36  60  89 118 151 191 236 286 341
#     4   9  16  32  60  90 116 143 183 239 287 342
#     4  10  21  35  57  79 117 154 193 240 285 341
#     4  10  17  36  55  80 108 150 193 240 277 328
#     4  12  24  39  55  82 119 158 195 242 290 337
#     4  10  21  38  61  86 115 150 192 239 292 348
#     4  10  20  35  57  85 115 149 192 234 281 338
#     4   9  18  35  59  85 110 144 190 240 290 345
#
# _framework density 19.854399000000001
#
# number of rings (size 3 to 8) (size 9 to 14) (size 15 to 20)
#    0.000    2.133    1.333    3.800    0.000    4.000 
#    0.000    3.667    0.000    4.800    0.000    0.000 
#    0.000    0.000    0.000    0.000    0.000    0.000 
#
# Total GULP energy -371809.192111 kJ/mol
# GULP energy per Si atom -12393.639737 kJ/mol
# Density = 1.980921 g / cm^3
# Si number density = 19.854399 Si / 1000 Ang^3
#
#
#
# Elastic Constant Matrix: (Units=GPa)
#
#
# Indices 1 2 3 4 5 6 
#
# 1 73.9456 62.0205 36.8876 0.0000 3.7559 0.0000
# 2 62.0205 150.9707 43.4042 0.0000 6.7460 0.0000
# 3 36.8876 43.4042 79.6039 0.0000 -2.4831 0.0000
# 4 0.0000 0.0000 0.0000 12.4465 0.0000 0.9447
# 5 3.7559 6.7460 -2.4831 0.0000 21.6737 0.0000
# 6 0.0000 0.0000 0.0000 0.9447 0.0000 19.1668
#
#
#
# Elastic Compliance Matrix: (Units=1/GPa)
#
#
# Indices 1 2 3 4 5 6 
#
# 1 0.023354 -0.007530 -0.006794 0.000000 -0.002482 0.000000
# 2 -0.007530 0.010475 -0.002291 0.000000 -0.002218 0.000000
# 3 -0.006794 -0.002291 0.017080 0.000000 0.003847 0.000000
# 4 0.000000 0.000000 0.000000 0.080645 0.000000 -0.003975
# 5 -0.002482 -0.002218 0.003847 0.000000 0.047700 0.000000
# 6 0.000000 0.000000 0.000000 -0.003975 0.000000 0.052369
#
#
# Mechanical properties :
#
#
# Convention : Reuss Voigt Hill
#
# Bulk Modulus (GPa) = 56.56533 65.46055 61.01294
# Shear Modulus (GPa) = 18.46739 21.47126 19.96932
#
# Velocity S-wave (km/s) = 3.05313 3.29209 3.17486
# Velocity P-wave (km/s) = 6.40162 6.89147 6.65105
#
# Compressibility (1/GPa) = 0.01767867
#
# Stress axis : x y z
#
# Youngs Moduli (GPa) = 42.81863 95.46394 58.54882
#
# Poissons Ratio (x) = 0.71886 0.39777
# Poissons Ratio (y) = 0.32243 0.13416
# Poissons Ratio (z) = 0.29090 0.21875
#
# Static dielectric constant tensor:
#      x y z
#    x 3.722580 0.000000 0.162560 
#    y 0.000000 3.568490 0.000000 
#    z 0.162560 0.000000 3.505070 
# 
# 
# High freq. dielectric constant tensor:
#      x y z
#    x 1.764740 0.000000 0.014430 
#    y 0.000000 1.775050 0.000000 
#    z 0.014430 0.000000 1.761640 
# 
# From -- ./inp_files/25382.got.cif
#   From: 2010.06.25/outbox.cif.g09.slc.cpg/sg10_13_cif.got.tgz:25382.got - 2010.06.27 22:07:45.
