data_PCOD8057365
_publ_section_title
;
Structure prediction by ZEFSAII (Michael W. Deem and Ramdas Pophale) SiO2 
 PCOD8057365
Probable space group: P 2/M
;
_chemical_formula_sum "Si O2"
_cell_formula_units_Z 24
_cell_length_a 6.625029
_cell_length_b 14.524302
_cell_length_c 13.607261
_cell_angle_alpha 90.000000
_cell_angle_beta 100.261367
_cell_angle_gamma 90.000000
_cell_volume 1288.401555
_symmetry_space_group_name_H-M "P 2/M"
_symmetry_group_IT_number 10
_symmetry_cell_setting 'monoclinic'
loop_
_space_group_symop_operation_xyz
x,y,z
-x,y,-z
-x,-y,-z
x,-y,z
loop_
_atom_site_type_symbol
_atom_site_label
_atom_site_fract_x
_atom_site_fract_y
_atom_site_fract_z
Si Si1 0.908939 0.398283 0.830822
Si Si2 0.736276 0.344053 0.019794
Si Si3 0.383230 0.101793 0.772578
Si Si4 0.120344 0.851157 0.923742
Si Si5 0.771662 0.212735 0.749190
Si Si6 0.985696 0.893607 0.611925
O O1 0.879209 0.500000 0.781826
O O2 0.792973 0.324264 0.750686
O O3 0.152879 0.377870 0.869258
O O4 0.818681 0.396042 0.932077
O O5 0.780236 0.235624 0.011164
O O6 0.500000 0.367374 0.000000
O O7 0.299124 0.097880 0.878236
O O8 0.553861 0.180566 0.774357
O O9 0.204946 0.125722 0.680288
O O10 0.474731 0.000000 0.758756
O O11 0.952637 0.825617 0.830042
O O12 0.000000 0.908646 0.000000
O O13 0.807622 0.170381 0.643838
O O14 0.000000 0.865760 0.500000
O O15 0.921085 0.000000 0.620006
#
# Coordination Sequence:
#
# PCOD8057365 Si02
#       6
#     4   4   4   4   4   4
#     4  10  20  32  47  73 102 135 177 218 256 298
#     4  10  17  30  50  70  98 136 178 219 261 296
#     4  10  21  34  53  78 103 137 176 211 255 312
#     4  10  19  32  49  70 105 147 177 211 252 294
#     4  10  19  35  52  74 107 138 169 217 259 306
#     4   9  19  36  58  83 105 125 159 212 270 322
#
# _framework density 18.627735000000001
#
# number of rings (size 3 to 8) (size 9 to 14) (size 15 to 20)
#    0.000    2.167    3.333    2.500    0.000    3.000 
#    0.000    3.333    0.000    0.500    0.000    1.167 
#    0.000    0.000    0.000    0.000    0.000    0.000 
#
# Total GULP energy -297361.317727 kJ/mol
# GULP energy per Si atom -12390.054905 kJ/mol
# Density = 1.858534 g / cm^3
# Si number density = 18.627735 Si / 1000 Ang^3
#
#
#
# Elastic Constant Matrix: (Units=GPa)
#
#
# Indices 1 2 3 4 5 6 
#
# 1 109.8120 46.9246 34.7826 0.0000 -8.5107 0.0000
# 2 46.9246 116.0300 40.0378 0.0000 -5.4019 0.0000
# 3 34.7826 40.0378 72.7754 0.0000 -20.0404 0.0000
# 4 0.0000 0.0000 0.0000 -25.3989 0.0000 52.9215
# 5 -8.5107 -5.4019 -20.0404 0.0000 21.2984 0.0000
# 6 0.0000 0.0000 0.0000 52.9215 0.0000 -46.0865
#
#
#
# Elastic Compliance Matrix: (Units=1/GPa)
#
#
# Indices 1 2 3 4 5 6 
#
# 1 0.011772 -0.003507 -0.003572 0.000000 0.000453 0.000000
# 2 -0.003507 0.011914 -0.005983 0.000000 -0.004009 0.000000
# 3 -0.003572 -0.005983 0.024199 0.000000 0.019825 0.000000
# 4 0.000000 0.000000 0.000000 0.028272 0.000000 0.032464
# 5 0.000453 -0.004009 0.019825 0.000000 0.064770 0.000000
# 6 0.000000 0.000000 0.000000 0.032464 0.000000 0.015581
#
#
# Mechanical properties :
#
#
# Convention : Reuss Voigt Hill
#
# Bulk Modulus (GPa) = 45.95220 60.23416 53.09318
# Shear Modulus (GPa) = 26.33185 1.75410 14.04297
#
# Velocity S-wave (km/s) = 3.76384 0.97144 2.74866
# Velocity P-wave (km/s) = 6.60386 5.80209 6.21591
#
# Compressibility (1/GPa) = 0.02176175
#
# Stress axis : x y z
#
# Youngs Moduli (GPa) = 84.95010 83.93142 41.32464
#
# Poissons Ratio (x) = 0.29435 0.14761
# Poissons Ratio (y) = 0.29792 0.24723
# Poissons Ratio (z) = 0.30344 0.50213
#
# Static dielectric constant tensor:
#      x y z
#    x 3.637690 0.000000 -0.080510 
#    y 0.000000 3.487510 0.000000 
#    z -0.080510 0.000000 3.315480 
# 
# 
# High freq. dielectric constant tensor:
#      x y z
#    x 1.727290 0.000000 -0.002970 
#    y 0.000000 1.707560 0.000000 
#    z -0.002970 0.000000 1.684110 
# 
# From -- ./inp_files/59091.got.cif
#   From: 2010.06.25/outbox.cif.g09.slc.cpg/sg10_30_cif.got.tgz:59091.got - 2010.06.27 22:07:45.
