data_PCOD8057461
_publ_section_title
;
Structure prediction by ZEFSAII (Michael W. Deem and Ramdas Pophale) SiO2 
 PCOD8057461
Probable space group: P 2/M
;
_chemical_formula_sum "Si O2"
_cell_formula_units_Z 24
_cell_length_a 9.152722
_cell_length_b 16.777999
_cell_length_c 16.695368
_cell_angle_alpha 90.000000
_cell_angle_beta 148.972618
_cell_angle_gamma 90.000000
_cell_volume 1321.511679
_symmetry_space_group_name_H-M "P 2/M"
_symmetry_group_IT_number 10
_symmetry_cell_setting 'monoclinic'
loop_
_space_group_symop_operation_xyz
x,y,z
-x,y,-z
-x,-y,-z
x,-y,z
loop_
_atom_site_type_symbol
_atom_site_label
_atom_site_fract_x
_atom_site_fract_y
_atom_site_fract_z
Si Si1 0.931031 0.000000 0.152282
Si Si2 0.321115 0.326483 0.683422
Si Si3 0.136485 0.315330 0.150164
Si Si4 0.167687 0.137131 0.161259
Si Si5 0.621337 0.406211 0.970894
Si Si6 0.297590 0.852867 0.677336
Si Si7 0.304294 0.000000 0.796086
O O1 0.078092 0.078735 0.189038
O O2 0.945399 0.000000 0.255245
O O3 0.608253 0.000000 0.976918
O O4 0.535920 0.344419 0.709020
O O5 0.400928 0.380890 0.797217
O O6 0.386012 0.236400 0.746880
O O7 0.000000 0.341300 0.500000
O O8 0.128900 0.225142 0.179637
O O9 0.000000 0.316811 0.000000
O O10 0.940719 0.370080 0.114644
O O11 0.491890 0.117320 0.292881
O O12 0.000000 0.122425 0.000000
O O13 0.658177 0.500000 0.982532
O O14 0.500000 0.379652 0.000000
O O15 0.274994 0.917896 0.735227
O O16 0.000000 0.840129 0.500000
#
# Coordination Sequence:
#
# PCOD8057461 Si02
#       7
#     2   4   4   4   4   4   2
#     4  11  22  30  48  76 106 130 177 222 253 299
#     4   9  19  36  58  82 105 135 179 222 259 307
#     4   8  17  32  54  78 101 137 179 216 258 309
#     4  10  17  33  52  73  98 134 176 213 256 300
#     4  10  21  36  55  81 111 141 170 207 262 320
#     4  10  20  36  55  74 101 136 174 213 259 308
#     4  11  22  33  46  77 104 137 174 214 261 301
#
# _framework density 18.161021000000002
#
# number of rings (size 3 to 8) (size 9 to 14) (size 15 to 20)
#    0.000    2.333    1.667    2.000    0.000    4.667 
#    0.000    2.500    0.000    8.000    0.000    0.000 
#    0.000    0.000    0.000    0.000    0.000    0.000 
#
# Total GULP energy -297375.311275 kJ/mol
# GULP energy per Si atom -12390.637970 kJ/mol
# Density = 1.811969 g / cm^3
# Si number density = 18.161021 Si / 1000 Ang^3
#
#
#
# Elastic Constant Matrix: (Units=GPa)
#
#
# Indices 1 2 3 4 5 6 
#
# 1 138.4374 72.5052 32.1745 0.0000 18.1767 0.0000
# 2 72.5052 95.8516 16.4252 0.0000 4.2912 0.0000
# 3 32.1745 16.4252 48.9922 0.0000 18.3498 0.0000
# 4 0.0000 0.0000 0.0000 9.7556 0.0000 13.2464
# 5 18.1767 4.2912 18.3498 0.0000 23.5113 0.0000
# 6 0.0000 0.0000 0.0000 13.2464 0.0000 25.1906
#
#
#
# Elastic Compliance Matrix: (Units=1/GPa)
#
#
# Indices 1 2 3 4 5 6 
#
# 1 0.013918 -0.009636 -0.003587 0.000000 -0.006202 0.000000
# 2 -0.009636 0.017765 -0.001701 0.000000 0.005534 0.000000
# 3 -0.003587 -0.001701 0.031345 0.000000 -0.021380 0.000000
# 4 0.000000 0.000000 0.000000 0.358426 0.000000 -0.188478
# 5 -0.006202 0.005534 -0.021380 0.000000 0.063004 0.000000
# 6 0.000000 0.000000 0.000000 -0.188478 0.000000 0.138808
#
#
# Mechanical properties :
#
#
# Convention : Reuss Voigt Hill
#
# Bulk Modulus (GPa) = 30.13735 58.38788 44.26262
# Shear Modulus (GPa) = 7.52814 22.50327 15.01570
#
# Velocity S-wave (km/s) = 2.03819 3.52390 2.87855
# Velocity P-wave (km/s) = 4.70845 6.98406 5.95595
#
# Compressibility (1/GPa) = 0.03318142
#
# Stress axis : x y z
#
# Youngs Moduli (GPa) = 71.84900 56.28956 31.90277
#
# Poissons Ratio (x) = 0.54239 0.11443
# Poissons Ratio (y) = 0.69232 0.05426
# Poissons Ratio (z) = 0.25772 0.09574
#
# Static dielectric constant tensor:
#      x y z
#    x 3.561930 0.000000 0.542530 
#    y 0.000000 3.370860 0.000000 
#    z 0.542530 0.000000 3.495190 
# 
# 
# High freq. dielectric constant tensor:
#      x y z
#    x 1.694980 0.000000 0.032530 
#    y 0.000000 1.709780 0.000000 
#    z 0.032530 0.000000 1.691660 
# 
# From -- ./inp_files/75466.got.cif
#   From: 2010.06.25/outbox.cif.g09.slc.cpg/sg10_38_cif.got.tgz:75466.got - 2010.06.27 22:07:45.
