data_PCOD8057741
_publ_section_title
;
Structure prediction by ZEFSAII (Michael W. Deem and Ramdas Pophale) SiO2 
 PCOD8057741
Probable space group: P 2/M
;
_chemical_formula_sum "Si O2"
_cell_formula_units_Z 28
_cell_length_a 9.343467
_cell_length_b 14.429575
_cell_length_c 19.051813
_cell_angle_alpha 90.000000
_cell_angle_beta 137.236175
_cell_angle_gamma 90.000000
_cell_volume 1744.028398
_symmetry_space_group_name_H-M "P 2/M"
_symmetry_group_IT_number 10
_symmetry_cell_setting 'monoclinic'
loop_
_space_group_symop_operation_xyz
x,y,z
-x,y,-z
-x,-y,-z
x,-y,z
loop_
_atom_site_type_symbol
_atom_site_label
_atom_site_fract_x
_atom_site_fract_y
_atom_site_fract_z
Si Si1 0.657750 0.108542 0.116645
Si Si2 0.865705 0.107270 0.561143
Si Si3 0.127685 0.601178 0.651652
Si Si4 0.508464 0.210644 0.348266
Si Si5 0.687937 0.601327 0.436790
Si Si6 0.705957 0.209885 0.272473
Si Si7 0.861239 0.894463 0.721260
O O1 0.600538 0.158680 0.168800
O O2 0.895205 0.132091 0.178961
O O3 0.630491 0.000000 0.120833
O O4 0.500000 0.144461 0.000000
O O5 0.681854 0.145820 0.446507
O O6 0.798356 0.119585 0.617669
O O7 0.082630 0.160311 0.623387
O O8 0.903155 0.000000 0.556637
O O9 0.186008 0.500000 0.705291
O O10 0.207182 0.606779 0.601124
O O11 0.236731 0.685425 0.732667
O O12 0.874371 0.614026 0.560968
O O13 0.521407 0.315154 0.384367
O O14 0.538516 0.210213 0.275288
O O15 0.276123 0.172951 0.279990
O O16 0.578944 0.500000 0.408401
O O17 0.818642 0.000000 0.729092
#
# Coordination Sequence:
#
# PCOD8057741 Si02
#       7
#     4   4   4   4   4   4   4
#     4   9  19  37  54  64  83 118 154 188 231 282
#     4  10  19  29  40  60  96 134 154 169 211 273
#     4   8  13  24  41  63  92 122 153 184 214 257
#     4  11  18  26  44  70  97 119 148 190 220 252
#     4   8  14  24  39  61  93 129 154 175 212 260
#     4  10  18  28  46  72  89 114 157 193 222 254
#     4   9  19  32  45  63  89 124 155 176 220 281
#
# _framework density 16.054784000000001
#
# number of rings (size 3 to 8) (size 9 to 14) (size 15 to 20)
#    0.000    2.714    1.429    3.429    0.000    4.000 
#    0.000    0.714    0.000    8.143    0.000    0.000 
#    0.000    4.571    0.000    0.000    0.000    0.000 
#
# Total GULP energy -347084.563310 kJ/mol
# GULP energy per Si atom -12395.877261 kJ/mol
# Density = 1.601824 g / cm^3
# Si number density = 16.054784 Si / 1000 Ang^3
#
#
#
# Elastic Constant Matrix: (Units=GPa)
#
#
# Indices 1 2 3 4 5 6 
#
# 1 66.5092 43.3997 24.9714 0.0000 -1.6863 0.0000
# 2 43.3997 113.6651 32.9688 0.0000 -1.2993 0.0000
# 3 24.9714 32.9688 82.3453 0.0000 0.3166 0.0000
# 4 0.0000 0.0000 0.0000 14.5230 0.0000 5.7547
# 5 -1.6863 -1.2993 0.3166 0.0000 9.7875 0.0000
# 6 0.0000 0.0000 0.0000 5.7547 0.0000 6.5688
#
#
#
# Elastic Compliance Matrix: (Units=1/GPa)
#
#
# Indices 1 2 3 4 5 6 
#
# 1 0.020984 -0.006937 -0.003597 0.000000 0.002811 0.000000
# 2 -0.006937 0.012267 -0.002810 0.000000 0.000524 0.000000
# 3 -0.003597 -0.002810 0.014365 0.000000 -0.001457 0.000000
# 4 0.000000 0.000000 0.000000 0.105469 0.000000 -0.092399
# 5 0.002811 0.000524 -0.001457 0.000000 0.102773 0.000000
# 6 0.000000 0.000000 0.000000 -0.092399 0.000000 0.233184
#
#
# Mechanical properties :
#
#
# Convention : Reuss Voigt Hill
#
# Bulk Modulus (GPa) = 47.77967 51.68883 49.73425
# Shear Modulus (GPa) = 9.56561 16.92116 13.24339
#
# Velocity S-wave (km/s) = 2.44357 3.25000 2.87520
# Velocity P-wave (km/s) = 6.14706 6.80798 6.48594
#
# Compressibility (1/GPa) = 0.02092941
#
# Stress axis : x y z
#
# Youngs Moduli (GPa) = 47.65618 81.51728 69.61163
#
# Poissons Ratio (x) = 0.56545 0.25039
# Poissons Ratio (y) = 0.33057 0.19561
# Poissons Ratio (z) = 0.17142 0.22906
#
# Static dielectric constant tensor:
#      x y z
#    x 2.819970 0.000000 0.002580 
#    y 0.000000 3.450600 0.000000 
#    z 0.002580 0.000000 2.746070 
# 
# 
# High freq. dielectric constant tensor:
#      x y z
#    x 1.595320 0.000000 -0.003230 
#    y 0.000000 1.630770 0.000000 
#    z -0.003230 0.000000 1.571340 
# 
# From -- ./inp_files/29222.got.cif
#   From: 2010.06.25/outbox.cif.g09.slc.cpg/sg10_15_cif.got.tgz:29222.got - 2010.06.27 22:07:45.
