data_PCOD8057080
_publ_section_title
;
Structure prediction by ZEFSAII (Michael W. Deem and Ramdas Pophale) SiO2 
 PCOD8057080
Probable space group: P 2/M
;
_chemical_formula_sum "Si O2"
_cell_formula_units_Z 28
_cell_length_a 5.144367
_cell_length_b 25.672597
_cell_length_c 11.962298
_cell_angle_alpha 90.000000
_cell_angle_beta 80.503614
_cell_angle_gamma 90.000000
_cell_volume 1558.201581
_symmetry_space_group_name_H-M "P 2/M"
_symmetry_group_IT_number 10
_symmetry_cell_setting 'monoclinic'
loop_
_space_group_symop_operation_xyz
x,y,z
-x,y,-z
-x,-y,-z
x,-y,z
loop_
_atom_site_type_symbol
_atom_site_label
_atom_site_fract_x
_atom_site_fract_y
_atom_site_fract_z
Si Si1 0.580548 0.773632 0.609210
Si Si2 0.006188 0.176332 0.872411
Si Si3 0.944915 0.621101 0.635241
Si Si4 0.457590 0.134803 0.222381
Si Si5 0.948285 0.268252 0.309444
Si Si6 0.554974 0.442201 0.366209
Si Si7 0.727787 0.060209 0.572813
O O1 0.500000 0.802886 0.500000
O O2 0.536511 0.812862 0.709890
O O3 0.359621 0.727902 0.634400
O O4 0.877398 0.752809 0.597763
O O5 0.240283 0.133137 0.840506
O O6 0.018182 0.229693 0.798957
O O7 0.744575 0.142767 0.865034
O O8 0.000000 0.195630 0.000000
O O9 0.953698 0.672677 0.713420
O O10 0.156807 0.581541 0.671293
O O11 0.000000 0.634045 0.500000
O O12 0.661612 0.595065 0.674625
O O13 0.357826 0.087119 0.305549
O O14 0.500000 0.447240 0.500000
O O15 0.545102 0.500000 0.312711
O O16 0.500000 0.069084 0.500000
O O17 0.000000 0.083114 0.500000
O O18 0.770367 0.000000 0.599614
#
# Coordination Sequence:
#
# PCOD8057080 Si02
#       7
#     4   4   4   4   4   4   4
#     4  10  18  28  43  66  97 124 150 186 231 293
#     4  10  21  37  54  71  96 130 170 216 254 290
#     4  10  17  26  41  60  89 120 148 189 233 279
#     4  10  20  33  53  75  97 132 170 202 243 296
#     4  10  20  30  44  68  92 122 159 194 242 293
#     4   9  17  27  39  57  84 122 159 185 217 269
#     4  10  20  34  54  81 112 139 163 198 245 297
#
# _framework density 17.969436000000002
#
# number of rings (size 3 to 8) (size 9 to 14) (size 15 to 20)
#    0.000    2.143    0.000    4.286    0.000    5.143 
#    0.000    0.000    0.000    2.571    0.000    0.000 
#    0.000    3.429    0.000    0.000    0.000    0.000 
#
# Total GULP energy -346866.090624 kJ/mol
# GULP energy per Si atom -12388.074665 kJ/mol
# Density = 1.792854 g / cm^3
# Si number density = 17.969436 Si / 1000 Ang^3
#
#
#
# Elastic Constant Matrix: (Units=GPa)
#
#
# Indices 1 2 3 4 5 6 
#
# 1 122.4313 38.5066 38.8597 0.0000 13.8424 0.0000
# 2 38.5066 77.9206 22.9987 0.0000 6.0645 0.0000
# 3 38.8597 22.9987 65.5747 0.0000 12.7416 0.0000
# 4 0.0000 0.0000 0.0000 11.1676 0.0000 4.0952
# 5 13.8424 6.0645 12.7416 0.0000 20.7753 0.0000
# 6 0.0000 0.0000 0.0000 4.0952 0.0000 15.3095
#
#
#
# Elastic Compliance Matrix: (Units=1/GPa)
#
#
# Indices 1 2 3 4 5 6 
#
# 1 0.011268 -0.003932 -0.004612 0.000000 -0.003531 0.000000
# 2 -0.003932 0.015716 -0.003178 0.000000 -0.000018 0.000000
# 3 -0.004612 -0.003178 0.020799 0.000000 -0.008755 0.000000
# 4 0.000000 0.000000 0.000000 0.099283 0.000000 -0.026558
# 5 -0.003531 -0.000018 -0.008755 0.000000 0.055862 0.000000
# 6 0.000000 0.000000 0.000000 -0.026558 0.000000 0.072423
#
#
# Mechanical properties :
#
#
# Convention : Reuss Voigt Hill
#
# Bulk Modulus (GPa) = 41.08834 51.85075 46.46954
# Shear Modulus (GPa) = 16.29152 20.48793 18.38973
#
# Velocity S-wave (km/s) = 3.01429 3.38028 3.20252
# Velocity P-wave (km/s) = 5.91860 6.64475 6.29216
#
# Compressibility (1/GPa) = 0.02433781
#
# Stress axis : x y z
#
# Youngs Moduli (GPa) = 88.74952 63.62825 48.07971
#
# Poissons Ratio (x) = 0.25020 0.22174
# Poissons Ratio (y) = 0.34898 0.15281
# Poissons Ratio (z) = 0.40931 0.20223
#
# Static dielectric constant tensor:
#      x y z
#    x 4.391990 0.000000 0.123150 
#    y 0.000000 3.266150 0.000000 
#    z 0.123150 0.000000 2.908080 
# 
# 
# High freq. dielectric constant tensor:
#      x y z
#    x 1.726360 0.000000 0.015310 
#    y 0.000000 1.683880 0.000000 
#    z 0.015310 0.000000 1.639960 
# 
# From -- ./inp_files/39879.got.cif
#   From: 2010.06.25/outbox.cif.g09.slc.cpg/sg10_20_cif.got.tgz:39879.got - 2010.06.27 22:07:45.
