data_PCOD8057668
_publ_section_title
;
Structure prediction by ZEFSAII (Michael W. Deem and Ramdas Pophale) SiO2 
 PCOD8057668
Probable space group: P 2/M
;
_chemical_formula_sum "Si O2"
_cell_formula_units_Z 32
_cell_length_a 11.985156
_cell_length_b 14.361545
_cell_length_c 11.985108
_cell_angle_alpha 90.000000
_cell_angle_beta 80.946553
_cell_angle_gamma 90.000000
_cell_volume 2037.240845
_symmetry_space_group_name_H-M "P 2/M"
_symmetry_group_IT_number 10
_symmetry_cell_setting 'monoclinic'
loop_
_space_group_symop_operation_xyz
x,y,z
-x,y,-z
-x,-y,-z
x,-y,z
loop_
_atom_site_type_symbol
_atom_site_label
_atom_site_fract_x
_atom_site_fract_y
_atom_site_fract_z
Si Si1 0.080231 0.608350 0.249157
Si Si2 0.828712 0.610439 0.328711
Si Si3 0.316332 0.101122 0.009756
Si Si4 0.747246 0.704956 0.926509
Si Si5 0.250838 0.608350 0.419768
Si Si6 0.573495 0.704956 0.752753
Si Si7 0.338084 0.389655 0.838080
Si Si8 0.509760 0.101122 0.816331
O O1 0.080961 0.500000 0.216110
O O2 0.135858 0.664690 0.138580
O O3 0.146634 0.625537 0.353362
O O4 0.954386 0.648277 0.284670
O O5 0.834495 0.500000 0.334493
O O6 0.784678 0.648276 0.454387
O O7 0.745605 0.646020 0.245609
O O8 0.383572 0.117855 0.883568
O O9 0.253265 0.000000 0.015493
O O10 0.230828 0.187008 0.042508
O O11 0.405335 0.099336 0.094664
O O12 0.649222 0.695499 0.850779
O O13 0.707630 0.646193 0.037825
O O14 0.283884 0.500000 0.419038
O O15 0.361414 0.664690 0.364143
O O16 0.462178 0.646194 0.792366
O O17 0.542513 0.812992 0.730827
O O18 0.341742 0.500000 0.841737
O O19 0.515498 0.000000 0.753263
#
# Coordination Sequence:
#
# PCOD8057668 Si02
#       8
#     4   4   4   4   4   4   4   4
#     4   9  17  30  48  66  85 112 147 186 220 250
#     4   9  19  33  45  60  83 116 158 190 210 242
#     4   8  13  23  40  62  88 114 140 174 212 252
#     4  10  18  28  43  67  93 116 143 174 215 265
#     4   9  17  30  48  66  85 112 147 186 220 250
#     4  10  18  28  43  67  93 116 143 174 215 265
#     4  11  21  29  40  61  93 125 145 169 213 264
#     4   8  13  23  40  62  88 114 140 174 212 252
#
# _framework density 15.707519
#
# number of rings (size 3 to 8) (size 9 to 14) (size 15 to 20)
#    0.000    2.750    1.250    2.250    0.000    4.500 
#    0.000    3.750    0.000    0.000    0.000    6.125 
#    0.000    6.000    0.000    0.000    0.000    0.000 
#
# Total GULP energy -396633.080606 kJ/mol
# GULP energy per Si atom -12394.783769 kJ/mol
# Density = 1.567177 g / cm^3
# Si number density = 15.707519 Si / 1000 Ang^3
#
#
#
# Elastic Constant Matrix: (Units=GPa)
#
#
# Indices 1 2 3 4 5 6 
#
# 1 64.5146 38.0987 61.3813 0.0000 -17.9089 0.0000
# 2 38.0987 96.4612 50.3915 0.0000 -16.8917 0.0000
# 3 61.3813 50.3915 97.4649 0.0000 -27.3706 0.0000
# 4 0.0000 0.0000 0.0000 8.1033 0.0000 -0.4692
# 5 -17.9089 -16.8917 -27.3706 0.0000 21.0828 0.0000
# 6 0.0000 0.0000 0.0000 -0.4692 0.0000 7.7614
#
#
#
# Elastic Compliance Matrix: (Units=1/GPa)
#
#
# Indices 1 2 3 4 5 6 
#
# 1 0.039574 -0.003527 -0.022744 0.000000 0.001262 0.000000
# 2 -0.003527 0.014631 -0.004552 0.000000 0.002816 0.000000
# 3 -0.022744 -0.004552 0.032243 0.000000 0.018891 0.000000
# 4 0.000000 0.000000 0.000000 0.123840 0.000000 0.007487
# 5 0.001262 0.002816 0.018891 0.000000 0.075286 0.000000
# 6 0.000000 0.000000 0.000000 0.007487 0.000000 0.129295
#
#
# Mechanical properties :
#
#
# Convention : Reuss Voigt Hill
#
# Bulk Modulus (GPa) = 40.32358 62.02043 51.17200
# Shear Modulus (GPa) = 10.31389 14.62746 12.47068
#
# Velocity S-wave (km/s) = 2.56524 3.05493 2.82073
# Velocity P-wave (km/s) = 5.87377 7.21206 6.57704
#
# Compressibility (1/GPa) = 0.02479939
#
# Stress axis : x y z
#
# Youngs Moduli (GPa) = 25.26936 68.34611 31.01458
#
# Poissons Ratio (x) = 0.24109 0.70541
# Poissons Ratio (y) = 0.08914 0.14119
# Poissons Ratio (z) = 0.57474 0.31114
#
# Static dielectric constant tensor:
#      x y z
#    x 2.884650 0.000000 -0.133770 
#    y 0.000000 3.278200 0.000000 
#    z -0.133770 0.000000 2.982020 
# 
# 
# High freq. dielectric constant tensor:
#      x y z
#    x 1.581430 0.000000 -0.012330 
#    y 0.000000 1.592610 0.000000 
#    z -0.012330 0.000000 1.590410 
# 
# From -- ./inp_files/47391.got.cif
#   From: 2010.06.25/outbox.cif.g09.slc.cpg/sg10_24_cif.got.tgz:47391.got - 2010.06.27 22:07:45.
