data_PCOD8057992
_publ_section_title
;
Structure prediction by ZEFSAII (Michael W. Deem and Ramdas Pophale) SiO2 
 PCOD8057992
Probable space group: P 2/M
;
_chemical_formula_sum "Si O2"
_cell_formula_units_Z 32
_cell_length_a 22.810069
_cell_length_b 9.001564
_cell_length_c 28.385526
_cell_angle_alpha 90.000000
_cell_angle_beta 162.034095
_cell_angle_gamma 90.000000
_cell_volume 1797.743362
_symmetry_space_group_name_H-M "P 2/M"
_symmetry_group_IT_number 10
_symmetry_cell_setting 'monoclinic'
loop_
_space_group_symop_operation_xyz
x,y,z
-x,y,-z
-x,-y,-z
x,-y,z
loop_
_atom_site_type_symbol
_atom_site_label
_atom_site_fract_x
_atom_site_fract_y
_atom_site_fract_z
Si Si1 0.125254 0.174621 0.736284
Si Si2 0.586162 0.324681 0.725807
Si Si3 0.900323 0.823989 0.028929
Si Si4 0.161292 0.336087 0.162569
Si Si5 0.159507 0.822533 0.657529
Si Si6 0.581665 0.177268 0.963911
Si Si7 0.118675 0.824386 0.880031
Si Si8 0.811052 0.173534 0.569815
O O1 0.119586 0.242108 0.679341
O O2 0.304865 0.237660 0.903302
O O3 0.928427 0.210828 0.612242
O O4 0.152994 0.000000 0.753434
O O5 0.607703 0.500000 0.750189
O O6 0.648509 0.282736 0.719642
O O7 0.373421 0.274301 0.571867
O O8 0.718627 0.242622 0.864391
O O9 0.897750 0.759635 0.080039
O O10 0.099163 0.775327 0.156547
O O11 0.887501 0.000000 0.017530
O O12 0.190532 0.500000 0.207009
O O13 0.000000 0.342518 0.000000
O O14 0.000000 0.759417 0.500000
O O15 0.154512 0.000000 0.653691
O O16 0.366036 0.763598 0.798766
O O17 0.690502 0.235051 0.000165
O O18 0.585393 0.000000 0.967894
O O19 0.933626 0.778496 0.708841
O O20 0.130722 0.000000 0.891534
O O21 0.755879 0.000000 0.529508
#
# Coordination Sequence:
#
# PCOD8057992 Si02
#       8
#     4   4   4   4   4   4   4   4
#     4   8  14  24  38  56  80 115 153 183 218 266
#     4  10  20  33  48  68  94 122 154 191 230 275
#     4  10  18  29  49  73  94 119 153 191 231 276
#     4   8  16  31  47  64  91 123 153 188 227 270
#     4   9  15  20  30  54  87 118 147 181 220 263
#     4   8  13  23  37  52  81 122 151 175 217 272
#     4   8  16  29  44  66  94 122 153 191 233 273
#     4   9  17  31  49  67  91 122 156 194 232 272
#
# _framework density 17.800094999999999
#
# number of rings (size 3 to 8) (size 9 to 14) (size 15 to 20)
#    0.000    3.250    0.000    3.375    0.000    5.250 
#    0.000    5.625    0.000    3.750    0.000    0.000 
#    0.000   13.500    0.000    0.000    0.000    0.000 
#
# Total GULP energy -396561.248112 kJ/mol
# GULP energy per Si atom -12392.539004 kJ/mol
# Density = 1.775958 g / cm^3
# Si number density = 17.800095 Si / 1000 Ang^3
#
#
#
# Elastic Constant Matrix: (Units=GPa)
#
#
# Indices 1 2 3 4 5 6 
#
# 1 143.3834 28.2564 50.1372 0.0000 -7.1370 0.0000
# 2 28.2564 33.8336 17.8582 0.0000 0.3885 0.0000
# 3 50.1372 17.8582 78.4697 0.0000 2.7138 0.0000
# 4 0.0000 0.0000 0.0000 6.8550 0.0000 4.6315
# 5 -7.1370 0.3885 2.7138 0.0000 22.5318 0.0000
# 6 0.0000 0.0000 0.0000 4.6315 0.0000 2.0858
#
#
#
# Elastic Compliance Matrix: (Units=1/GPa)
#
#
# Indices 1 2 3 4 5 6 
#
# 1 0.010162 -0.005720 -0.005328 0.000000 0.003959 0.000000
# 2 -0.005720 0.036814 -0.004658 0.000000 -0.001885 0.000000
# 3 -0.005328 -0.004658 0.017336 0.000000 -0.003695 0.000000
# 4 0.000000 0.000000 0.000000 -0.291614 0.000000 0.647527
# 5 0.003959 -0.001885 -0.003695 0.000000 0.046113 0.000000
# 6 0.000000 0.000000 0.000000 0.647527 0.000000 -0.958394
#
#
# Mechanical properties :
#
#
# Convention : Reuss Voigt Hill
#
# Bulk Modulus (GPa) = 30.39575 49.79892 40.09734
# Shear Modulus (GPa) = -4.55703 16.92352 6.18325
#
# Velocity S-wave (km/s) = -1.60177 3.08678 1.86581
# Velocity P-wave (km/s) = 3.70032 6.38293 5.21700
#
# Compressibility (1/GPa) = 0.03289933
#
# Stress axis : x y z
#
# Youngs Moduli (GPa) = 98.41030 27.16375 57.68402
#
# Poissons Ratio (x) = 0.15537 0.30733
# Poissons Ratio (y) = 0.56289 0.26871
# Poissons Ratio (z) = 0.52431 0.12654
#
# Static dielectric constant tensor:
#      x y z
#    x 3.909810 0.000000 0.092000 
#    y 0.000000 2.773450 0.000000 
#    z 0.092000 0.000000 3.332710 
# 
# 
# High freq. dielectric constant tensor:
#      x y z
#    x 1.700520 0.000000 0.012950 
#    y 0.000000 1.633700 0.000000 
#    z 0.012950 0.000000 1.679680 
# 
# From -- ./inp_files/93729.got.cif
#   From: 2010.06.25/outbox.cif.g09.slc.cpg/sg10_47_cif.got.tgz:93729.got - 2010.06.27 22:07:45.
