data_PCOD8057006
_publ_section_title
;
Structure prediction by ZEFSAII (Michael W. Deem and Ramdas Pophale) SiO2 
 PCOD8057006
Probable space group: P 2/M
;
_chemical_formula_sum "Si O2"
_cell_formula_units_Z 32
_cell_length_a 20.350545
_cell_length_b 9.145299
_cell_length_c 18.779459
_cell_angle_alpha 90.000000
_cell_angle_beta 143.947333
_cell_angle_gamma 90.000000
_cell_volume 2056.954329
_symmetry_space_group_name_H-M "P 2/M"
_symmetry_group_IT_number 10
_symmetry_cell_setting 'monoclinic'
loop_
_space_group_symop_operation_xyz
x,y,z
-x,y,-z
-x,-y,-z
x,-y,z
loop_
_atom_site_type_symbol
_atom_site_label
_atom_site_fract_x
_atom_site_fract_y
_atom_site_fract_z
Si Si1 0.603585 0.830702 0.797126
Si Si2 0.500253 0.169899 0.154124
Si Si3 0.399473 0.825989 0.363280
Si Si4 0.824464 0.669333 0.818880
Si Si5 0.040856 0.669445 0.923567
Si Si6 0.716432 0.327779 0.093282
Si Si7 0.174370 0.826592 0.929488
Si Si8 0.385893 0.663480 0.855954
O O1 0.497942 0.805860 0.758264
O O2 0.580676 0.761818 0.699405
O O3 0.624856 0.000000 0.803311
O O4 0.717296 0.769470 0.931831
O O5 0.611038 0.228680 0.210279
O O6 0.482416 0.000000 0.120300
O O7 0.397148 0.262331 0.036229
O O8 0.500000 0.766782 0.500000
O O9 0.283699 0.765462 0.292737
O O10 0.394727 0.000000 0.361183
O O11 0.790888 0.500000 0.791610
O O12 0.913273 0.698967 0.834020
O O13 0.877772 0.716746 0.940821
O O14 0.059030 0.500000 0.920816
O O15 0.066171 0.767598 0.876417
O O16 0.720629 0.500000 0.081001
O O17 0.819342 0.246200 0.144042
O O18 0.715981 0.298875 0.178762
O O19 0.168424 0.000000 0.915570
O O20 0.371583 0.500000 0.813599
O O21 0.500000 0.678017 0.000000
#
# Coordination Sequence:
#
# PCOD8057006 Si02
#       8
#     4   4   4   4   4   4   4   4
#     4   8  15  26  36  53  77  99 130 168 205 241
#     4   9  15  22  34  49  68  94 128 169 202 233
#     4  10  19  31  46  61  81 110 141 174 212 250
#     4   9  18  31  45  62  82 104 135 171 208 251
#     4   9  17  29  44  61  82 107 133 167 210 251
#     4   9  16  24  33  47  72 102 130 160 194 237
#     4  10  17  25  39  58  79 103 133 170 202 237
#     4   8  14  23  32  45  67  96 129 160 193 234
#
# _framework density 15.556981
#
# number of rings (size 3 to 8) (size 9 to 14) (size 15 to 20)
#    0.000    3.000    1.250    3.375    0.000    3.500 
#    0.000    1.875    0.000    0.000    0.000    0.000 
#    0.000    0.000    0.000    1.125    0.000   22.875 
#
# Total GULP energy -396449.055497 kJ/mol
# GULP energy per Si atom -12389.032984 kJ/mol
# Density = 1.552157 g / cm^3
# Si number density = 15.556981 Si / 1000 Ang^3
#
#
#
# Elastic Constant Matrix: (Units=GPa)
#
#
# Indices 1 2 3 4 5 6 
#
# 1 140.5812 55.0336 23.2428 0.0000 8.8030 0.0000
# 2 55.0336 65.8518 15.7582 0.0000 6.2203 0.0000
# 3 23.2428 15.7582 41.5982 0.0000 6.0330 0.0000
# 4 0.0000 0.0000 0.0000 9.9243 0.0000 4.4924
# 5 8.8030 6.2203 6.0330 0.0000 10.3732 0.0000
# 6 0.0000 0.0000 0.0000 4.4924 0.0000 31.1172
#
#
#
# Elastic Compliance Matrix: (Units=1/GPa)
#
#
# Indices 1 2 3 4 5 6 
#
# 1 0.010955 -0.008270 -0.002576 0.000000 -0.002839 0.000000
# 2 -0.008270 0.023411 -0.003527 0.000000 -0.004968 0.000000
# 3 -0.002576 -0.003527 0.028604 0.000000 -0.012335 0.000000
# 4 0.000000 0.000000 0.000000 0.107808 0.000000 -0.015564
# 5 -0.002839 -0.004968 -0.012335 0.000000 0.108965 0.000000
# 6 0.000000 0.000000 0.000000 -0.015564 0.000000 0.034384
#
#
# Mechanical properties :
#
#
# Convention : Reuss Voigt Hill
#
# Bulk Modulus (GPa) = 29.22052 48.45558 38.83805
# Shear Modulus (GPa) = 14.11314 20.54937 17.33126
#
# Velocity S-wave (km/s) = 3.01523 3.63838 3.34136
# Velocity P-wave (km/s) = 5.56290 6.99036 6.31708
#
# Compressibility (1/GPa) = 0.03422252
#
# Stress axis : x y z
#
# Youngs Moduli (GPa) = 91.28550 42.71570 34.96028
#
# Poissons Ratio (x) = 0.35328 0.09006
# Poissons Ratio (y) = 0.75497 0.12330
# Poissons Ratio (z) = 0.23517 0.15065
#
# Static dielectric constant tensor:
#      x y z
#    x 3.729720 0.000000 -0.058940 
#    y 0.000000 2.923330 0.000000 
#    z -0.058940 0.000000 2.399430 
# 
# 
# High freq. dielectric constant tensor:
#      x y z
#    x 1.623000 0.000000 0.004740 
#    y 0.000000 1.596080 0.000000 
#    z 0.004740 0.000000 1.506530 
# 
# From -- ./inp_files/57191.got.cif
#   From: 2010.06.25/outbox.cif.g09.slc.cpg/sg10_29_cif.got.tgz:57191.got - 2010.06.27 22:07:45.
