data_PCOD8057253
_publ_section_title
;
Structure prediction by ZEFSAII (Michael W. Deem and Ramdas Pophale) SiO2 
 PCOD8057253
Probable space group: P 2/M
;
_chemical_formula_sum "Si O2"
_cell_formula_units_Z 24
_cell_length_a 12.078200
_cell_length_b 13.190411
_cell_length_c 12.719531
_cell_angle_alpha 90.000000
_cell_angle_beta 132.883354
_cell_angle_gamma 90.000000
_cell_volume 1484.847732
_symmetry_space_group_name_H-M "P 2/M"
_symmetry_group_IT_number 10
_symmetry_cell_setting 'monoclinic'
loop_
_space_group_symop_operation_xyz
x,y,z
-x,y,-z
-x,-y,-z
x,-y,z
loop_
_atom_site_type_symbol
_atom_site_label
_atom_site_fract_x
_atom_site_fract_y
_atom_site_fract_z
Si Si1 0.170131 0.115188 0.774651
Si Si2 0.906764 0.735582 0.850170
Si Si3 0.162912 0.883217 0.373417
Si Si4 0.403556 0.250024 0.039556
Si Si5 0.642703 0.883488 0.304358
Si Si6 0.192574 0.380371 0.029434
O O1 0.220489 0.137307 0.688075
O O2 0.993803 0.140024 0.669329
O O3 0.204416 0.000000 0.827591
O O4 0.263001 0.180593 0.917390
O O5 0.818865 0.809150 0.714431
O O6 0.788846 0.664221 0.839087
O O7 0.000000 0.800787 0.000000
O O8 0.034032 0.662682 0.877433
O O9 0.298215 0.858531 0.540836
O O10 0.170885 0.000000 0.340978
O O11 0.503048 0.188494 0.187763
O O12 0.336882 0.349342 0.052308
O O13 0.500000 0.282590 0.000000
O O14 0.589242 0.000000 0.261641
O O15 0.185400 0.500000 0.029020
#
# Coordination Sequence:
#
# PCOD8057253 Si02
#       6
#     4   4   4   4   4   4
#     4   9  15  27  46  70 100 133 166 189 218 276
#     4   8  17  32  51  72  91 120 162 203 235 274
#     4  10  17  28  47  73 102 129 160 192 228 275
#     4  10  18  30  49  75  99 127 155 196 239 281
#     4   9  18  28  43  71 107 138 155 180 229 286
#     4   9  18  34  53  71  88 116 165 210 245 281
#
# _framework density 16.163274000000001
#
# number of rings (size 3 to 8) (size 9 to 14) (size 15 to 20)
#    1.000    1.667    1.667    2.000    0.000    4.667 
#    0.000    2.500    0.000    5.000    0.000    2.333 
#    0.000    0.000    0.000    0.000    0.000    0.000 
#
# Total GULP energy -297322.991313 kJ/mol
# GULP energy per Si atom -12388.457971 kJ/mol
# Density = 1.612649 g / cm^3
# Si number density = 16.163274 Si / 1000 Ang^3
#
#
#
# Elastic Constant Matrix: (Units=GPa)
#
#
# Indices 1 2 3 4 5 6 
#
# 1 69.1025 42.5906 28.5881 0.0000 -3.8874 0.0000
# 2 42.5906 89.3605 55.3121 0.0000 -10.8855 0.0000
# 3 28.5881 55.3121 96.8626 0.0000 -7.1353 0.0000
# 4 0.0000 0.0000 0.0000 6.9947 0.0000 -5.2614
# 5 -3.8874 -10.8855 -7.1353 0.0000 16.1652 0.0000
# 6 0.0000 0.0000 0.0000 -5.2614 0.0000 25.2103
#
#
#
# Elastic Compliance Matrix: (Units=1/GPa)
#
#
# Indices 1 2 3 4 5 6 
#
# 1 0.020573 -0.009568 -0.000743 0.000000 -0.001823 0.000000
# 2 -0.009568 0.022695 -0.009488 0.000000 0.008794 0.000000
# 3 -0.000743 -0.009488 0.015997 0.000000 0.000494 0.000000
# 4 0.000000 0.000000 0.000000 0.169588 0.000000 0.035393
# 5 -0.001823 0.008794 0.000494 0.000000 0.067562 0.000000
# 6 0.000000 0.000000 0.000000 0.035393 0.000000 0.047053
#
#
# Mechanical properties :
#
#
# Convention : Reuss Voigt Hill
#
# Bulk Modulus (GPa) = 50.84312 56.47860 53.66086
# Shear Modulus (GPa) = 12.83299 18.26302 15.54800
#
# Velocity S-wave (km/s) = 2.82079 3.36506 3.10487
# Velocity P-wave (km/s) = 6.49102 7.07930 6.79154
#
# Compressibility (1/GPa) = 0.01966835
#
# Stress axis : x y z
#
# Youngs Moduli (GPa) = 48.60746 44.06289 62.51006
#
# Poissons Ratio (x) = 0.42159 0.04642
# Poissons Ratio (y) = 0.46507 0.59309
# Poissons Ratio (z) = 0.03610 0.41807
#
# Static dielectric constant tensor:
#      x y z
#    x 3.013350 0.000000 -0.015650 
#    y 0.000000 2.765830 0.000000 
#    z -0.015650 0.000000 2.922760 
# 
# 
# High freq. dielectric constant tensor:
#      x y z
#    x 1.618250 0.000000 -0.003620 
#    y 0.000000 1.595520 0.000000 
#    z -0.003620 0.000000 1.603720 
# 
# From -- ./inp_files/46219.got.cif
#   From: 2010.06.25/outbox.cif.g09.slc.cpg/sg10_24_cif.got.tgz:46219.got - 2010.06.27 22:07:45.
