data_PCOD8057092
_publ_section_title
;
Structure prediction by ZEFSAII (Michael W. Deem and Ramdas Pophale) SiO2 
 PCOD8057092
Probable space group: P 2/M
;
_chemical_formula_sum "Si O2"
_cell_formula_units_Z 32
_cell_length_a 30.466947
_cell_length_b 8.886341
_cell_length_c 16.137666
_cell_angle_alpha 90.000000
_cell_angle_beta 29.585213
_cell_angle_gamma 90.000000
_cell_volume 2157.104133
_symmetry_space_group_name_H-M "P 2/M"
_symmetry_group_IT_number 10
_symmetry_cell_setting 'monoclinic'
loop_
_space_group_symop_operation_xyz
x,y,z
-x,y,-z
-x,-y,-z
x,-y,z
loop_
_atom_site_type_symbol
_atom_site_label
_atom_site_fract_x
_atom_site_fract_y
_atom_site_fract_z
Si Si1 0.813224 0.822963 0.379462
Si Si2 0.511110 0.322101 0.285673
Si Si3 0.181215 0.321625 0.807709
Si Si4 0.634241 0.822638 0.755027
Si Si5 0.661686 0.822773 0.354301
Si Si6 0.470730 0.821612 0.916336
Si Si7 0.598677 0.334683 0.303985
Si Si8 0.986004 0.665785 0.120510
O O1 0.800010 0.739284 0.314727
O O2 0.733509 0.768943 0.570375
O O3 0.905773 0.779682 0.272971
O O4 0.810934 0.000000 0.366757
O O5 0.494358 0.500000 0.312805
O O6 0.417928 0.243809 0.460337
O O7 0.547276 0.265191 0.138927
O O8 0.588155 0.279303 0.226114
O O9 0.195811 0.500000 0.782541
O O10 0.245692 0.243653 0.766838
O O11 0.080583 0.280764 0.002873
O O12 0.565053 0.765917 0.798820
O O13 0.626649 0.000000 0.766892
O O14 0.606180 0.769025 0.893040
O O15 0.653694 0.781722 0.269888
O O16 0.661442 0.000000 0.365675
O O17 0.469156 0.000000 0.902605
O O18 0.500000 0.348617 0.500000
O O19 0.644329 0.500000 0.233461
O O20 0.960439 0.500000 0.196171
O O21 0.000000 0.657383 0.000000
#
# Coordination Sequence:
#
# PCOD8057092 Si02
#       8
#     4   4   4   4   4   4   4   4
#     4  10  17  26  42  62  83 108 141 175 206 240
#     4  10  19  30  43  60  83 110 139 168 203 242
#     4  10  19  30  42  57  82 112 139 168 205 246
#     4   8  16  28  41  59  82 109 138 172 211 240
#     4  11  20  28  42  63  83 105 138 172 201 239
#     4   9  16  29  45  58  79 110 143 174 202 236
#     4   8  16  30  43  56  80 110 134 162 201 241
#     4   8  16  29  41  55  78 109 139 166 202 245
#
# _framework density 14.834704
#
# number of rings (size 3 to 8) (size 9 to 14) (size 15 to 20)
#    0.000    2.750    0.000    5.250    0.000    6.500 
#    0.000    3.125    0.000    0.000    0.000    0.000 
#    0.000    1.000    0.000   11.250    0.000    5.000 
#
# Total GULP energy -396597.443498 kJ/mol
# GULP energy per Si atom -12393.670109 kJ/mol
# Density = 1.480094 g / cm^3
# Si number density = 14.834704 Si / 1000 Ang^3
#
#
#
# Elastic Constant Matrix: (Units=GPa)
#
#
# Indices 1 2 3 4 5 6 
#
# 1 106.5355 47.5324 54.6556 0.0000 1.1789 0.0000
# 2 47.5324 77.8562 39.2432 0.0000 -4.8291 0.0000
# 3 54.6556 39.2432 88.8482 0.0000 -4.3648 0.0000
# 4 0.0000 0.0000 0.0000 10.3783 0.0000 -5.5237
# 5 1.1789 -4.8291 -4.3648 0.0000 23.3773 0.0000
# 6 0.0000 0.0000 0.0000 -5.5237 0.0000 20.7374
#
#
#
# Elastic Compliance Matrix: (Units=1/GPa)
#
#
# Indices 1 2 3 4 5 6 
#
# 1 0.015925 -0.006320 -0.007174 0.000000 -0.003448 0.000000
# 2 -0.006320 0.019131 -0.004392 0.000000 0.003450 0.000000
# 3 -0.007174 -0.004392 0.017744 0.000000 0.002768 0.000000
# 4 0.000000 0.000000 0.000000 0.112272 0.000000 0.029906
# 5 -0.003448 0.003450 0.002768 0.000000 0.044180 0.000000
# 6 0.000000 0.000000 0.000000 0.029906 0.000000 0.056188
#
#
# Mechanical properties :
#
#
# Convention : Reuss Voigt Hill
#
# Bulk Modulus (GPa) = 58.73167 61.78912 60.26040
# Shear Modulus (GPa) = 16.29249 19.68584 17.98916
#
# Velocity S-wave (km/s) = 3.31761 3.64677 3.48608
# Velocity P-wave (km/s) = 7.37238 7.71194 7.54407
#
# Compressibility (1/GPa) = 0.01702659
#
# Stress axis : x y z
#
# Youngs Moduli (GPa) = 62.79361 52.27178 56.35554
#
# Poissons Ratio (x) = 0.33037 0.40431
# Poissons Ratio (y) = 0.39687 0.24753
# Poissons Ratio (z) = 0.45050 0.22960
#
# Static dielectric constant tensor:
#      x y z
#    x 3.091160 0.000000 -0.084640 
#    y 0.000000 2.842080 0.000000 
#    z -0.084640 0.000000 2.932270 
# 
# 
# High freq. dielectric constant tensor:
#      x y z
#    x 1.555730 0.000000 -0.007620 
#    y 0.000000 1.568730 0.000000 
#    z -0.007620 0.000000 1.537750 
# 
# From -- ./inp_files/72526.got.cif
#   From: 2010.06.25/outbox.cif.g09.slc.cpg/sg10_37_cif.got.tgz:72526.got - 2010.06.27 22:07:45.
