data_PCOD8057544
_publ_section_title
;
Structure prediction by ZEFSAII (Michael W. Deem and Ramdas Pophale) SiO2 
 PCOD8057544
Probable space group: P 2/M
;
_chemical_formula_sum "Si O2"
_cell_formula_units_Z 30
_cell_length_a 27.798595
_cell_length_b 9.803062
_cell_length_c 11.436508
_cell_angle_alpha 90.000000
_cell_angle_beta 37.016917
_cell_angle_gamma 90.000000
_cell_volume 1876.338421
_symmetry_space_group_name_H-M "P 2/M"
_symmetry_group_IT_number 10
_symmetry_cell_setting 'monoclinic'
loop_
_space_group_symop_operation_xyz
x,y,z
-x,y,-z
-x,-y,-z
x,-y,z
loop_
_atom_site_type_symbol
_atom_site_label
_atom_site_fract_x
_atom_site_fract_y
_atom_site_fract_z
Si Si1 0.732167 0.654898 0.670133
Si Si2 0.989061 0.844049 0.653391
Si Si3 0.416054 0.152191 0.308262
Si Si4 0.893250 0.345242 0.003454
Si Si5 0.878864 0.150987 0.417915
Si Si6 0.280087 0.347745 0.582695
Si Si7 0.406388 0.846539 0.049217
Si Si8 0.000000 0.749544 0.000000
O O1 0.734353 0.500000 0.715394
O O2 0.814184 0.730053 0.541461
O O3 0.721046 0.652363 0.554108
O O4 0.658850 0.738391 0.871381
O O5 0.000000 0.793382 0.500000
O O6 0.073511 0.828698 0.554243
O O7 0.958657 0.000000 0.716940
O O8 0.922629 0.751088 0.842901
O O9 0.351335 0.252461 0.492704
O O10 0.406933 0.154224 0.187405
O O11 0.399554 0.000000 0.387484
O O12 0.506090 0.197698 0.167892
O O13 0.891401 0.500000 0.961380
O O14 0.804799 0.292870 0.207420
O O15 0.949799 0.342966 0.007832
O O16 0.939103 0.156991 0.191207
O O17 0.838913 0.000000 0.491494
O O18 0.296429 0.500000 0.597566
O O19 0.385501 0.000000 0.046258
#
# Coordination Sequence:
#
# PCOD8057544 Si02
#       8
#     4   4   4   4   4   4   4   2
#     4  10  18  27  39  60  89 118 146 177 217 259
#     4   9  20  37  51  64  84 112 149 191 229 264
#     4   8  14  24  38  55  77 112 151 182 210 245
#     4  10  19  30  46  66  90 118 147 181 220 264
#     4  10  19  30  46  65  86 114 147 183 222 265
#     4   9  17  27  37  58  89 117 144 176 215 257
#     4   8  14  25  38  54  79 112 150 183 210 246
#     4  10  18  30  44  64  90 116 146 178 220 262
#
# _framework density 15.988586
#
# number of rings (size 3 to 8) (size 9 to 14) (size 15 to 20)
#    0.000    2.800    1.333    1.600    0.000    4.533 
#    0.000    2.667    0.000    0.000    0.000    0.000 
#    0.000    1.067    0.000   12.000    0.000    6.533 
#
# Total GULP energy -371854.641862 kJ/mol
# GULP energy per Si atom -12395.154729 kJ/mol
# Density = 1.595220 g / cm^3
# Si number density = 15.988586 Si / 1000 Ang^3
#
#
#
# Elastic Constant Matrix: (Units=GPa)
#
#
# Indices 1 2 3 4 5 6 
#
# 1 44.5374 35.1708 42.7752 0.0000 -6.0693 0.0000
# 2 35.1708 113.0813 65.7658 0.0000 -23.2755 0.0000
# 3 42.7752 65.7658 101.4844 0.0000 -25.4930 0.0000
# 4 0.0000 0.0000 0.0000 28.8466 0.0000 -7.7979
# 5 -6.0693 -23.2755 -25.4930 0.0000 28.0539 0.0000
# 6 0.0000 0.0000 0.0000 -7.7979 0.0000 16.1682
#
#
#
# Elastic Compliance Matrix: (Units=1/GPa)
#
#
# Indices 1 2 3 4 5 6 
#
# 1 0.041090 -0.005356 -0.016498 0.000000 -0.010546 0.000000
# 2 -0.005356 0.015328 -0.006183 0.000000 0.005939 0.000000
# 3 -0.016498 -0.006183 0.024140 0.000000 0.013237 0.000000
# 4 0.000000 0.000000 0.000000 0.039863 0.000000 0.019226
# 5 -0.010546 0.005939 0.013237 0.000000 0.050320 0.000000
# 6 0.000000 0.000000 0.000000 0.019226 0.000000 0.071122
#
#
# Mechanical properties :
#
#
# Convention : Reuss Voigt Hill
#
# Bulk Modulus (GPa) = 40.84382 60.72519 50.78450
# Shear Modulus (GPa) = 16.33459 22.30650 19.32054
#
# Velocity S-wave (km/s) = 3.19978 3.73922 3.47997
# Velocity P-wave (km/s) = 6.26518 7.53029 6.92668
#
# Compressibility (1/GPa) = 0.02448351
#
# Stress axis : x y z
#
# Youngs Moduli (GPa) = 24.33659 65.24154 41.42571
#
# Poissons Ratio (x) = 0.34943 0.68343
# Poissons Ratio (y) = 0.13035 0.25615
# Poissons Ratio (z) = 0.40150 0.40342
#
# Static dielectric constant tensor:
#      x y z
#    x 2.725790 0.000000 -0.305390 
#    y 0.000000 3.244700 0.000000 
#    z -0.305390 0.000000 3.021480 
# 
# 
# High freq. dielectric constant tensor:
#      x y z
#    x 1.567360 0.000000 -0.033700 
#    y 0.000000 1.624070 0.000000 
#    z -0.033700 0.000000 1.600310 
# 
# From -- ./inp_files/57279.got.cif
#   From: 2010.06.25/outbox.cif.g09.slc.cpg/sg10_29_cif.got.tgz:57279.got - 2010.06.27 22:07:45.
