data_PCOD8057782
_publ_section_title
;
Structure prediction by ZEFSAII (Michael W. Deem and Ramdas Pophale) SiO2 
 PCOD8057782
Probable space group: P 2/M
;
_chemical_formula_sum "Si O2"
_cell_formula_units_Z 30
_cell_length_a 20.887521
_cell_length_b 13.222648
_cell_length_c 9.385138
_cell_angle_alpha 90.000000
_cell_angle_beta 145.716889
_cell_angle_gamma 90.000000
_cell_volume 1460.065270
_symmetry_space_group_name_H-M "P 2/M"
_symmetry_group_IT_number 10
_symmetry_cell_setting 'monoclinic'
loop_
_space_group_symop_operation_xyz
x,y,z
-x,y,-z
-x,-y,-z
x,-y,z
loop_
_atom_site_type_symbol
_atom_site_label
_atom_site_fract_x
_atom_site_fract_y
_atom_site_fract_z
Si Si1 0.424286 0.113752 0.033031
Si Si2 0.262337 0.207291 0.929915
Si Si3 0.500000 0.723986 0.000000
Si Si4 0.952175 0.812606 0.643574
Si Si5 0.302190 0.385574 0.792873
Si Si6 0.804794 0.884479 0.915777
Si Si7 0.215312 0.116947 0.440416
Si Si8 0.950576 0.388918 0.754136
O O1 0.364117 0.130501 0.073619
O O2 0.521094 0.197280 0.173948
O O3 0.328141 0.139555 0.737578
O O4 0.473981 0.000000 0.112709
O O5 0.140028 0.167642 0.649432
O O6 0.292522 0.317971 0.920434
O O7 0.255295 0.196019 0.087583
O O8 0.605014 0.653198 0.150340
O O9 0.892450 0.827843 0.687202
O O10 0.996226 0.695528 0.727100
O O11 0.058631 0.884933 0.815141
O O12 0.331898 0.500000 0.895743
O O13 0.186163 0.380957 0.491163
O O14 0.763625 0.000000 0.868499
O O15 0.770134 0.846262 0.695172
O O16 0.184695 0.000000 0.386829
O O17 0.987388 0.500000 0.765520
O O18 0.000000 0.369251 0.000000
#
# Coordination Sequence:
#
# PCOD8057782 Si02
#       8
#     4   4   2   4   4   4   4   4
#     4   9  17  31  48  69  99 127 157 199 245 294
#     4   9  19  31  45  68  96 132 167 198 245 296
#     4  10  18  28  52  82  98 124 166 206 250 290
#     4  10  18  29  45  67  98 131 166 206 243 285
#     4   9  18  33  51  73 101 128 162 208 250 292
#     4  11  20  29  45  69  97 131 170 205 241 291
#     4   9  18  30  45  67  96 130 164 201 244 288
#     4   9  17  30  49  72  99 130 160 195 242 291
#
# _framework density 20.547025999999999
#
# number of rings (size 3 to 8) (size 9 to 14) (size 15 to 20)
#    0.000    2.533    0.000    3.600    0.000    3.200 
#    0.000    0.667    0.000    7.200    0.000   13.067 
#    0.000    0.000    0.000    0.000    0.000    0.000 
#
# Total GULP energy -371663.275891 kJ/mol
# GULP energy per Si atom -12388.775863 kJ/mol
# Density = 2.050026 g / cm^3
# Si number density = 20.547026 Si / 1000 Ang^3
#
#
#
# Elastic Constant Matrix: (Units=GPa)
#
#
# Indices 1 2 3 4 5 6 
#
# 1 112.0553 43.7329 26.7037 0.0000 -22.3171 0.0000
# 2 43.7329 100.3077 14.3435 0.0000 -2.9058 0.0000
# 3 26.7037 14.3435 24.1511 0.0000 -8.8534 0.0000
# 4 0.0000 0.0000 0.0000 15.7755 0.0000 2.3470
# 5 -22.3171 -2.9058 -8.8534 0.0000 23.7016 0.0000
# 6 0.0000 0.0000 0.0000 2.3470 0.0000 28.5674
#
#
#
# Elastic Compliance Matrix: (Units=1/GPa)
#
#
# Indices 1 2 3 4 5 6 
#
# 1 0.015275 -0.004893 -0.010348 0.000000 0.009917 0.000000
# 2 -0.004893 0.012494 -0.003636 0.000000 -0.004433 0.000000
# 3 -0.010348 -0.003636 0.059406 0.000000 0.012001 0.000000
# 4 0.000000 0.000000 0.000000 0.064174 0.000000 -0.005272
# 5 0.009917 -0.004433 0.012001 0.000000 0.055469 0.000000
# 6 0.000000 0.000000 0.000000 -0.005272 0.000000 0.035438
#
#
# Mechanical properties :
#
#
# Convention : Reuss Voigt Hill
#
# Bulk Modulus (GPa) = 20.23362 45.11936 32.67649
# Shear Modulus (GPa) = 16.86442 23.72450 20.29446
#
# Velocity S-wave (km/s) = 2.86802 3.40169 3.14619
# Velocity P-wave (km/s) = 4.56467 6.11845 5.39776
#
# Compressibility (1/GPa) = 0.04942270
#
# Stress axis : x y z
#
# Youngs Moduli (GPa) = 65.46719 80.03910 16.83326
#
# Poissons Ratio (x) = 0.39160 0.17419
# Poissons Ratio (y) = 0.32031 0.06120
# Poissons Ratio (z) = 0.67745 0.29099
#
# Static dielectric constant tensor:
#      x y z
#    x 3.684520 0.000000 0.095770 
#    y 0.000000 4.081280 0.000000 
#    z 0.095770 0.000000 3.476040 
# 
# 
# High freq. dielectric constant tensor:
#      x y z
#    x 1.796190 0.000000 0.010740 
#    y 0.000000 1.809010 0.000000 
#    z 0.010740 0.000000 1.766470 
# 
# From -- ./inp_files/32682.got.cif
#   From: 2010.06.25/outbox.cif.g09.slc.cpg/sg10_17_cif.got.tgz:32682.got - 2010.06.27 22:07:45.
