data_PCOD8057751
_publ_section_title
;
Structure prediction by ZEFSAII (Michael W. Deem and Ramdas Pophale) SiO2 
 PCOD8057751
Probable space group: P 2/M
;
_chemical_formula_sum "Si O2"
_cell_formula_units_Z 32
_cell_length_a 23.504566
_cell_length_b 9.147333
_cell_length_c 17.563784
_cell_angle_alpha 90.000000
_cell_angle_beta 148.343742
_cell_angle_gamma 90.000000
_cell_volume 1981.877498
_symmetry_space_group_name_H-M "P 2/M"
_symmetry_group_IT_number 10
_symmetry_cell_setting 'monoclinic'
loop_
_space_group_symop_operation_xyz
x,y,z
-x,y,-z
-x,-y,-z
x,-y,z
loop_
_atom_site_type_symbol
_atom_site_label
_atom_site_fract_x
_atom_site_fract_y
_atom_site_fract_z
Si Si1 0.512847 0.826912 0.430156
Si Si2 0.865580 0.169342 0.958503
Si Si3 0.920147 0.673927 0.758425
Si Si4 0.246249 0.830481 0.328469
Si Si5 0.952467 0.673020 0.626796
Si Si6 0.191655 0.672429 0.848476
Si Si7 0.115896 0.673370 0.606676
Si Si8 0.303508 0.172341 0.105148
O O1 0.500000 0.758822 0.500000
O O2 0.628170 0.783361 0.525939
O O3 0.417359 0.766976 0.267226
O O4 0.501622 0.000000 0.424503
O O5 0.798267 0.201481 0.806091
O O6 0.792120 0.217228 0.945994
O O7 0.898871 0.000000 0.001713
O O8 0.973835 0.265002 0.078676
O O9 0.923361 0.500000 0.765764
O O10 0.813180 0.731508 0.677459
O O11 0.916607 0.735434 0.667669
O O12 0.230684 0.000000 0.332027
O O13 0.949932 0.500000 0.627799
O O14 0.868633 0.727128 0.463791
O O15 0.074622 0.723104 0.746864
O O16 0.207809 0.500000 0.876353
O O17 0.202251 0.720906 0.770536
O O18 0.284440 0.753559 0.001680
O O19 0.111423 0.500000 0.602073
O O20 0.000000 0.735449 0.500000
O O21 0.307585 0.000000 0.098352
#
# Coordination Sequence:
#
# PCOD8057751 Si02
#       8
#     4   4   4   4   4   4   4   4
#     4   9  16  31  52  68  82 111 157 197 225 258
#     4  10  19  31  47  66  89 119 154 187 218 260
#     4  11  21  31  45  67  96 123 148 181 224 271
#     4  10  20  34  50  65  85 117 159 196 220 255
#     4   8  14  25  41  63  89 119 150 178 212 259
#     4   9  15  26  44  66  91 118 147 178 219 270
#     4   7  11  21  40  62  84 114 151 180 204 255
#     4  10  18  28  47  71  91 114 147 189 230 263
#
# _framework density 16.146305999999999
#
# number of rings (size 3 to 8) (size 9 to 14) (size 15 to 20)
#    0.000    2.750    2.500    2.250    0.000    2.000 
#    0.000    0.625    0.000    5.625    0.000    0.875 
#    0.000    7.000    0.000    0.000    0.000    0.000 
#
# Total GULP energy -396503.560796 kJ/mol
# GULP energy per Si atom -12390.736275 kJ/mol
# Density = 1.610956 g / cm^3
# Si number density = 16.146306 Si / 1000 Ang^3
#
#
#
# Elastic Constant Matrix: (Units=GPa)
#
#
# Indices 1 2 3 4 5 6 
#
# 1 52.5064 25.4248 53.7872 0.0000 -9.0912 0.0000
# 2 25.4248 30.1528 30.6211 0.0000 -1.9404 0.0000
# 3 53.7872 30.6211 124.1957 0.0000 -13.6326 0.0000
# 4 0.0000 0.0000 0.0000 17.2693 0.0000 -6.6382
# 5 -9.0912 -1.9404 -13.6326 0.0000 27.6376 0.0000
# 6 0.0000 0.0000 0.0000 -6.6382 0.0000 5.4553
#
#
#
# Elastic Compliance Matrix: (Units=1/GPa)
#
#
# Indices 1 2 3 4 5 6 
#
# 1 0.045316 -0.024818 -0.012752 0.000000 0.006874 0.000000
# 2 -0.024818 0.057985 -0.004226 0.000000 -0.006177 0.000000
# 3 -0.012752 -0.004226 0.014932 0.000000 0.002874 0.000000
# 4 0.000000 0.000000 0.000000 0.108793 0.000000 0.132382
# 5 0.006874 -0.006177 0.002874 0.000000 0.039428 0.000000
# 6 0.000000 0.000000 0.000000 0.132382 0.000000 0.344395
#
#
# Mechanical properties :
#
#
# Convention : Reuss Voigt Hill
#
# Bulk Modulus (GPa) = 28.86789 47.39121 38.12955
# Shear Modulus (GPa) = 7.08226 16.54054 11.81140
#
# Velocity S-wave (km/s) = 2.09662 3.20412 2.70760
# Velocity P-wave (km/s) = 4.87636 6.56532 5.78283
#
# Compressibility (1/GPa) = 0.03464056
#
# Stress axis : x y z
#
# Youngs Moduli (GPa) = 22.06720 17.24571 66.96985
#
# Poissons Ratio (x) = 0.42800 0.85401
# Poissons Ratio (y) = 0.54766 0.28304
# Poissons Ratio (z) = 0.28140 0.07289
#
# Static dielectric constant tensor:
#      x y z
#    x 3.203320 0.000000 -0.346610 
#    y 0.000000 2.690150 0.000000 
#    z -0.346610 0.000000 3.232920 
# 
# 
# High freq. dielectric constant tensor:
#      x y z
#    x 1.605500 0.000000 -0.026350 
#    y 0.000000 1.585220 0.000000 
#    z -0.026350 0.000000 1.616030 
# 
# From -- ./inp_files/54867.got.cif
#   From: 2010.06.25/outbox.cif.g09.slc.cpg/sg10_28_cif.got.tgz:54867.got - 2010.06.27 22:07:45.
