data_PCOD8057803
_publ_section_title
;
Structure prediction by ZEFSAII (Michael W. Deem and Ramdas Pophale) SiO2 
 PCOD8057803
Probable space group: P 2/M
;
_chemical_formula_sum "Si O2"
_cell_formula_units_Z 28
_cell_length_a 14.130695
_cell_length_b 8.930428
_cell_length_c 14.278342
_cell_angle_alpha 90.000000
_cell_angle_beta 76.739049
_cell_angle_gamma 90.000000
_cell_volume 1753.784025
_symmetry_space_group_name_H-M "P 2/M"
_symmetry_group_IT_number 10
_symmetry_cell_setting 'monoclinic'
loop_
_space_group_symop_operation_xyz
x,y,z
-x,y,-z
-x,-y,-z
x,-y,z
loop_
_atom_site_type_symbol
_atom_site_label
_atom_site_fract_x
_atom_site_fract_y
_atom_site_fract_z
Si Si1 0.098271 0.165557 0.536883
Si Si2 0.353017 0.822729 0.204854
Si Si3 0.204390 0.675728 0.359509
Si Si4 0.277350 0.675867 0.034323
Si Si5 0.447732 0.165380 0.912646
Si Si6 0.039176 0.825896 0.278494
Si Si7 0.921831 0.826166 0.941038
O O1 0.175544 0.277637 0.472156
O O2 0.000000 0.165316 0.500000
O O3 0.065120 0.214807 0.649376
O O4 0.145242 0.000000 0.527309
O O5 0.306495 0.753015 0.309008
O O6 0.468195 0.781326 0.178941
O O7 0.337715 0.000000 0.205919
O O8 0.297610 0.757511 0.127383
O O9 0.217424 0.500000 0.352465
O O10 0.124139 0.725742 0.302627
O O11 0.280369 0.500000 0.050184
O O12 0.357758 0.720121 0.937525
O O13 0.172987 0.726309 0.020077
O O14 0.408554 0.000000 0.894309
O O15 0.500000 0.156487 0.000000
O O16 0.030664 0.792758 0.170764
O O17 0.064375 0.000000 0.293376
O O18 0.893125 0.000000 0.957606
O O19 0.000000 0.776994 0.000000
#
# Coordination Sequence:
#
# PCOD8057803 Si02
#       7
#     4   4   4   4   4   4   4
#     4   8  15  27  41  57  79 112 146 174 210 257
#     4  10  18  29  44  61  85 117 149 177 209 257
#     4  11  19  25  39  64  89 114 142 176 217 257
#     4  11  20  29  43  63  87 114 142 181 226 259
#     4   8  16  29  44  60  80 112 147 176 209 255
#     4   9  17  30  45  58  80 114 148 182 218 256
#     4  10  20  33  49  65  83 115 156 190 218 254
#
# _framework density 15.965477999999999
#
# number of rings (size 3 to 8) (size 9 to 14) (size 15 to 20)
#    0.000    2.429    1.429    4.714    0.000    6.000 
#    0.000    0.000    0.000    0.000    0.000    0.000 
#    0.000    1.143    0.000   13.143    0.000    3.714 
#
# Total GULP energy -347065.339115 kJ/mol
# GULP energy per Si atom -12395.190683 kJ/mol
# Density = 1.592914 g / cm^3
# Si number density = 15.965478 Si / 1000 Ang^3
#
#
#
# Elastic Constant Matrix: (Units=GPa)
#
#
# Indices 1 2 3 4 5 6 
#
# 1 71.7456 45.1708 52.5850 0.0000 -25.2899 0.0000
# 2 45.1708 101.3342 42.2269 0.0000 -21.6566 0.0000
# 3 52.5850 42.2269 91.9676 0.0000 -30.2508 0.0000
# 4 0.0000 0.0000 0.0000 11.9215 0.0000 -4.0668
# 5 -25.2899 -21.6566 -30.2508 0.0000 30.1102 0.0000
# 6 0.0000 0.0000 0.0000 -4.0668 0.0000 10.1932
#
#
#
# Elastic Compliance Matrix: (Units=1/GPa)
#
#
# Indices 1 2 3 4 5 6 
#
# 1 0.029045 -0.006602 -0.010624 0.000000 0.008972 0.000000
# 2 -0.006602 0.014166 -0.001795 0.000000 0.002840 0.000000
# 3 -0.010624 -0.001795 0.021526 0.000000 0.011412 0.000000
# 4 0.000000 0.000000 0.000000 0.097097 0.000000 0.038739
# 5 0.008972 0.002840 0.011412 0.000000 0.054255 0.000000
# 6 0.000000 0.000000 0.000000 0.038739 0.000000 0.113560
#
#
# Mechanical properties :
#
#
# Convention : Reuss Voigt Hill
#
# Bulk Modulus (GPa) = 37.46236 60.55698 49.00967
# Shear Modulus (GPa) = 13.27700 18.78263 16.02982
#
# Velocity S-wave (km/s) = 2.88689 3.43367 3.17208
# Velocity P-wave (km/s) = 5.88453 7.33024 6.64681
#
# Compressibility (1/GPa) = 0.02669346
#
# Stress axis : x y z
#
# Youngs Moduli (GPa) = 34.42991 70.58946 46.45489
#
# Poissons Ratio (x) = 0.46604 0.49356
# Poissons Ratio (y) = 0.22731 0.08340
# Poissons Ratio (z) = 0.36580 0.12673
#
# Static dielectric constant tensor:
#      x y z
#    x 2.920200 0.000000 -0.573310 
#    y 0.000000 2.981900 0.000000 
#    z -0.573310 0.000000 3.285780 
# 
# 
# High freq. dielectric constant tensor:
#      x y z
#    x 1.572900 0.000000 -0.049970 
#    y 0.000000 1.613830 0.000000 
#    z -0.049970 0.000000 1.596620 
# 
# From -- ./inp_files/65738.got.cif
#   From: 2010.06.25/outbox.cif.g09.slc.cpg/sg10_33_cif.got.tgz:65738.got - 2010.06.27 22:07:45.
