data_PCOD8057994
_publ_section_title
;
Structure prediction by ZEFSAII (Michael W. Deem and Ramdas Pophale) SiO2 
 PCOD8057994
Probable space group: P 2/M
;
_chemical_formula_sum "Si O2"
_cell_formula_units_Z 32
_cell_length_a 15.106536
_cell_length_b 8.833401
_cell_length_c 30.945915
_cell_angle_alpha 90.000000
_cell_angle_beta 28.451819
_cell_angle_gamma 90.000000
_cell_volume 1967.368736
_symmetry_space_group_name_H-M "P 2/M"
_symmetry_group_IT_number 10
_symmetry_cell_setting 'monoclinic'
loop_
_space_group_symop_operation_xyz
x,y,z
-x,y,-z
-x,-y,-z
x,-y,z
loop_
_atom_site_type_symbol
_atom_site_label
_atom_site_fract_x
_atom_site_fract_y
_atom_site_fract_z
Si Si1 0.722963 0.179781 0.108226
Si Si2 0.358427 0.320053 0.380926
Si Si3 0.654054 0.679382 0.711904
Si Si4 0.968653 0.678417 0.075845
Si Si5 0.743145 0.821399 0.435481
Si Si6 0.672777 0.178199 0.370485
Si Si7 0.048133 0.678664 0.579242
Si Si8 0.742559 0.676678 0.254554
O O1 0.511767 0.232945 0.192920
O O2 0.805564 0.259342 0.115253
O O3 0.737911 0.000000 0.106102
O O4 0.839099 0.235653 0.016604
O O5 0.358545 0.500000 0.381091
O O6 0.330977 0.263245 0.343837
O O7 0.190346 0.256130 0.482270
O O8 0.552258 0.255722 0.316266
O O9 0.619078 0.500000 0.729326
O O10 0.840970 0.728772 0.656035
O O11 0.989987 0.500000 0.058151
O O12 0.912835 0.712324 0.149256
O O13 0.541063 0.765535 0.538609
O O14 0.768389 0.772815 0.374563
O O15 0.903719 0.743302 0.394350
O O16 0.759866 0.000000 0.433240
O O17 0.786069 0.249803 0.282196
O O18 0.678169 0.000000 0.363618
O O19 0.065249 0.500000 0.573508
O O20 0.718114 0.500000 0.272154
#
# Coordination Sequence:
#
# PCOD8057994 Si02
#       8
#     4   4   4   4   4   4   4   4
#     4  11  21  32  47  70  95 123 161 202 235 273
#     4   9  16  29  45  67  96 126 162 196 228 271
#     4  10  19  33  49  66  94 132 165 196 236 282
#     4  10  19  33  51  69  94 126 156 192 243 291
#     4   9  18  32  46  64  94 129 161 194 237 282
#     4   9  18  31  47  66  93 129 160 191 237 287
#     4  10  19  30  49  71  92 125 168 204 233 268
#     4  10  18  29  49  73  95 123 158 195 236 279
#
# _framework density 16.265378999999999
#
# number of rings (size 3 to 8) (size 9 to 14) (size 15 to 20)
#    0.000    2.250    2.500    3.375    0.000    3.500 
#    0.000    1.875    0.000    1.500    0.000    0.875 
#    0.000    7.000    0.000    0.000    0.000    0.000 
#
# Total GULP energy -396779.319717 kJ/mol
# GULP energy per Si atom -12399.353741 kJ/mol
# Density = 1.622836 g / cm^3
# Si number density = 16.265379 Si / 1000 Ang^3
#
#
#
# Elastic Constant Matrix: (Units=GPa)
#
#
# Indices 1 2 3 4 5 6 
#
# 1 112.8083 25.9903 62.4895 0.0000 10.0827 0.0000
# 2 25.9903 37.7281 32.3872 0.0000 3.8017 0.0000
# 3 62.4895 32.3872 111.8416 0.0000 7.3625 0.0000
# 4 0.0000 0.0000 0.0000 17.5925 0.0000 -0.4026
# 5 10.0827 3.8017 7.3625 0.0000 26.4588 0.0000
# 6 0.0000 0.0000 0.0000 -0.4026 0.0000 19.6260
#
#
#
# Elastic Compliance Matrix: (Units=1/GPa)
#
#
# Indices 1 2 3 4 5 6 
#
# 1 0.013418 -0.003569 -0.006276 0.000000 -0.002854 0.000000
# 2 -0.003569 0.036357 -0.008435 0.000000 -0.001517 0.000000
# 3 -0.006276 -0.008435 0.014927 0.000000 -0.000550 0.000000
# 4 0.000000 0.000000 0.000000 0.056869 0.000000 0.001167
# 5 -0.002854 -0.001517 -0.000550 0.000000 0.039253 0.000000
# 6 0.000000 0.000000 0.000000 0.001167 0.000000 0.050977
#
#
# Mechanical properties :
#
#
# Convention : Reuss Voigt Hill
#
# Bulk Modulus (GPa) = 35.53181 56.01246 45.77214
# Shear Modulus (GPa) = 19.39929 22.16951 20.78440
#
# Velocity S-wave (km/s) = 3.45726 3.69587 3.57855
# Velocity P-wave (km/s) = 6.15055 7.26113 6.72879
#
# Compressibility (1/GPa) = 0.02814379
#
# Stress axis : x y z
#
# Youngs Moduli (GPa) = 74.52422 27.50479 66.99468
#
# Poissons Ratio (x) = 0.09815 0.42046
# Poissons Ratio (y) = 0.26595 0.56508
# Poissons Ratio (z) = 0.46772 0.23199
#
# Static dielectric constant tensor:
#      x y z
#    x 3.030750 0.000000 0.105240 
#    y 0.000000 2.867660 0.000000 
#    z 0.105240 0.000000 3.130660 
# 
# 
# High freq. dielectric constant tensor:
#      x y z
#    x 1.606710 0.000000 0.012060 
#    y 0.000000 1.613890 0.000000 
#    z 0.012060 0.000000 1.616650 
# 
# From -- ./inp_files/95252.got.cif
#   From: 2010.06.25/outbox.cif.g09.slc.cpg/sg10_48_cif.got.tgz:95252.got - 2010.06.27 22:07:45.
