data_PCOD8057389
_publ_section_title
;
Structure prediction by ZEFSAII (Michael W. Deem and Ramdas Pophale) SiO2 
 PCOD8057389
Probable space group: P 2/M
;
_chemical_formula_sum "Si O2"
_cell_formula_units_Z 32
_cell_length_a 11.959756
_cell_length_b 8.689737
_cell_length_c 28.540014
_cell_angle_alpha 90.000000
_cell_angle_beta 33.047547
_cell_angle_gamma 90.000000
_cell_volume 1617.507719
_symmetry_space_group_name_H-M "P 2/M"
_symmetry_group_IT_number 10
_symmetry_cell_setting 'monoclinic'
loop_
_space_group_symop_operation_xyz
x,y,z
-x,y,-z
-x,-y,-z
x,-y,z
loop_
_atom_site_type_symbol
_atom_site_label
_atom_site_fract_x
_atom_site_fract_y
_atom_site_fract_z
Si Si1 0.045195 0.320267 0.593080
Si Si2 0.113539 0.683213 0.751817
Si Si3 0.856955 0.317266 0.754306
Si Si4 0.055979 0.319338 0.089384
Si Si5 0.412522 0.177523 0.911351
Si Si6 0.654720 0.679310 0.671279
Si Si7 0.571772 0.683117 0.595606
Si Si8 0.715204 0.177022 0.147197
O O1 0.072682 0.500000 0.592036
O O2 0.264152 0.249945 0.499649
O O3 0.967281 0.246419 0.669307
O O4 0.884346 0.289802 0.608016
O O5 0.117260 0.500000 0.750758
O O6 0.345070 0.746471 0.663665
O O7 0.974648 0.747936 0.758471
O O8 0.023730 0.742961 0.832592
O O9 0.866912 0.500000 0.749615
O O10 0.621609 0.271186 0.838430
O O11 0.096826 0.500000 0.076287
O O12 0.887754 0.283709 0.109122
O O13 0.269866 0.235311 0.003711
O O14 0.287909 0.206236 0.907244
O O15 0.466742 0.000000 0.899354
O O16 0.593219 0.500000 0.697892
O O17 0.637648 0.737038 0.624145
O O18 0.506356 0.780329 0.755233
O O19 0.575936 0.500000 0.592341
O O20 0.766797 0.000000 0.140391
#
# Coordination Sequence:
#
# PCOD8057389 Si02
#       8
#     4   4   4   4   4   4   4   4
#     4   9  17  28  51  85 114 143 181 226 275 324
#     4   9  19  34  54  82 114 144 181 232 280 315
#     4  10  20  36  57  82 110 145 191 232 267 321
#     4  11  22  38  60  85 111 144 181 224 276 331
#     4  11  24  40  57  81 112 146 180 226 281 329
#     4  10  17  30  54  82 111 145 185 225 273 330
#     4   9  16  29  51  83 118 143 174 229 282 322
#     4  11  22  36  56  82 113 145 178 223 278 331
#
# _framework density 19.783521
#
# number of rings (size 3 to 8) (size 9 to 14) (size 15 to 20)
#    0.000    2.000    2.500    1.875    0.000    5.500 
#    0.000    6.250    0.000    2.250    0.000    0.875 
#    0.000    0.000    0.000    0.000    0.000    0.000 
#
# Total GULP energy -396813.466763 kJ/mol
# GULP energy per Si atom -12400.420836 kJ/mol
# Density = 1.973849 g / cm^3
# Si number density = 19.783521 Si / 1000 Ang^3
#
#
#
# Elastic Constant Matrix: (Units=GPa)
#
#
# Indices 1 2 3 4 5 6 
#
# 1 107.2941 20.2327 39.4257 0.0000 2.9068 0.0000
# 2 20.2327 15.0212 10.6136 0.0000 2.2760 0.0000
# 3 39.4257 10.6136 141.3220 0.0000 11.7981 0.0000
# 4 0.0000 0.0000 0.0000 5.3100 0.0000 1.6088
# 5 2.9068 2.2760 11.7981 0.0000 14.4221 0.0000
# 6 0.0000 0.0000 0.0000 1.6088 0.0000 11.6246
#
#
#
# Elastic Compliance Matrix: (Units=1/GPa)
#
#
# Indices 1 2 3 4 5 6 
#
# 1 0.013333 -0.016393 -0.002662 0.000000 0.002077 0.000000
# 2 -0.016393 0.091176 -0.001448 0.000000 -0.009900 0.000000
# 3 -0.002662 -0.001448 0.008440 0.000000 -0.006139 0.000000
# 4 0.000000 0.000000 0.000000 0.196567 0.000000 -0.027204
# 5 0.002077 -0.009900 -0.006139 0.000000 0.075504 0.000000
# 6 0.000000 0.000000 0.000000 -0.027204 0.000000 0.089789
#
#
# Mechanical properties :
#
#
# Convention : Reuss Voigt Hill
#
# Bulk Modulus (GPa) = 13.89975 44.90903 29.40439
# Shear Modulus (GPa) = 9.26276 19.16236 14.21256
#
# Velocity S-wave (km/s) = 2.16615 3.11561 2.68321
# Velocity P-wave (km/s) = 3.64657 5.97430 4.94923
#
# Compressibility (1/GPa) = 0.07194374
#
# Stress axis : x y z
#
# Youngs Moduli (GPa) = 75.00007 10.96781 118.48439
#
# Poissons Ratio (x) = 0.17980 0.31540
# Poissons Ratio (y) = 1.22948 0.17153
# Poissons Ratio (z) = 0.19965 0.01588
#
# Static dielectric constant tensor:
#      x y z
#    x 3.730510 0.000000 0.129980 
#    y 0.000000 3.153200 0.000000 
#    z 0.129980 0.000000 3.890980 
# 
# 
# High freq. dielectric constant tensor:
#      x y z
#    x 1.770390 0.000000 0.001800 
#    y 0.000000 1.723940 0.000000 
#    z 0.001800 0.000000 1.789490 
# 
# From -- ./inp_files/58087.got.cif
#   From: 2010.06.25/outbox.cif.g09.slc.cpg/sg10_30_cif.got.tgz:58087.got - 2010.06.27 22:07:45.
