data_PCOD8057694
_publ_section_title
;
Structure prediction by ZEFSAII (Michael W. Deem and Ramdas Pophale) SiO2 
 PCOD8057694
Probable space group: P 2/M
;
_chemical_formula_sum "Si O2"
_cell_formula_units_Z 32
_cell_length_a 15.934118
_cell_length_b 17.761860
_cell_length_c 22.321407
_cell_angle_alpha 90.000000
_cell_angle_beta 17.620221
_cell_angle_gamma 90.000000
_cell_volume 1912.315132
_symmetry_space_group_name_H-M "P 2/M"
_symmetry_group_IT_number 10
_symmetry_cell_setting 'monoclinic'
loop_
_space_group_symop_operation_xyz
x,y,z
-x,y,-z
-x,-y,-z
x,-y,z
loop_
_atom_site_type_symbol
_atom_site_label
_atom_site_fract_x
_atom_site_fract_y
_atom_site_fract_z
Si Si1 0.383453 0.087201 0.144335
Si Si2 0.431089 0.818154 0.684398
Si Si3 0.218945 0.087474 0.727136
Si Si4 0.599591 0.318072 0.367095
Si Si5 0.354550 0.149682 0.920024
Si Si6 0.755288 0.085917 0.551434
Si Si7 0.325895 0.583378 0.789762
Si Si8 0.235923 0.280232 0.923306
O O1 0.539539 0.141596 0.084504
O O2 0.059196 0.106485 0.368457
O O3 0.440807 0.000000 0.121730
O O4 0.500000 0.106577 0.000000
O O5 0.239320 0.877722 0.779700
O O6 0.554714 0.756495 0.553442
O O7 0.686051 0.861460 0.541915
O O8 0.243245 0.775502 0.861259
O O9 0.500000 0.104219 0.500000
O O10 0.159120 0.000000 0.774728
O O11 0.965363 0.125243 0.864557
O O12 0.500000 0.342087 0.500000
O O13 0.535357 0.387624 0.366296
O O14 0.921338 0.297502 0.152854
O O15 0.537663 0.096293 0.752953
O O16 0.381207 0.237333 0.880376
O O17 0.747186 0.000000 0.534386
O O18 0.439399 0.500000 0.728391
O O19 0.391652 0.641358 0.799775
O O20 0.000000 0.581630 0.000000
#
# Coordination Sequence:
#
# PCOD8057694 Si02
#       8
#     4   4   4   4   4   4   4   4
#     4  10  22  37  52  68  91 126 169 217 265 299
#     4  10  19  32  47  67  96 129 165 199 247 293
#     4  11  23  32  46  72 100 131 167 210 254 304
#     4  10  18  28  44  68  99 132 161 194 239 287
#     4  11  21  35  52  69  95 128 165 210 255 298
#     4  10  21  34  51  69  89 123 169 218 257 296
#     4   8  15  29  47  67  96 130 160 191 228 285
#     4   9  19  31  48  70  97 127 163 195 241 300
#
# _framework density 16.733644000000002
#
# number of rings (size 3 to 8) (size 9 to 14) (size 15 to 20)
#    0.000    2.125    1.250    3.375    3.500    1.250 
#    0.000    1.875    0.000    0.000    0.000    0.000 
#    0.000   18.500    0.000    0.000    0.000   13.625 
#
# Total GULP energy -396696.250500 kJ/mol
# GULP energy per Si atom -12396.757828 kJ/mol
# Density = 1.669556 g / cm^3
# Si number density = 16.733644 Si / 1000 Ang^3
#
#
#
# Elastic Constant Matrix: (Units=GPa)
#
#
# Indices 1 2 3 4 5 6 
#
# 1 110.6830 65.3096 35.3074 0.0000 0.1512 0.0000
# 2 65.3096 121.6843 32.1145 0.0000 4.7905 0.0000
# 3 35.3074 32.1145 71.2683 0.0000 2.8752 0.0000
# 4 0.0000 0.0000 0.0000 9.8181 0.0000 2.2851
# 5 0.1512 4.7905 2.8752 0.0000 24.8747 0.0000
# 6 0.0000 0.0000 0.0000 2.2851 0.0000 22.5994
#
#
#
# Elastic Compliance Matrix: (Units=1/GPa)
#
#
# Indices 1 2 3 4 5 6 
#
# 1 0.014267 -0.006628 -0.004149 0.000000 0.001669 0.000000
# 2 -0.006628 0.012450 -0.002242 0.000000 -0.002098 0.000000
# 3 -0.004149 -0.002242 0.017159 0.000000 -0.001526 0.000000
# 4 0.000000 0.000000 0.000000 0.104307 0.000000 -0.010547
# 5 0.001669 -0.002098 -0.001526 0.000000 0.040772 0.000000
# 6 0.000000 0.000000 0.000000 -0.010547 0.000000 0.045315
#
#
# Mechanical properties :
#
#
# Convention : Reuss Voigt Hill
#
# Bulk Modulus (GPa) = 56.05957 63.23319 59.64638
# Shear Modulus (GPa) = 18.77919 22.85206 20.81563
#
# Velocity S-wave (km/s) = 3.35362 3.69946 3.53078
# Velocity P-wave (km/s) = 6.96919 7.49120 7.23490
#
# Compressibility (1/GPa) = 0.01783817
#
# Stress axis : x y z
#
# Youngs Moduli (GPa) = 70.09246 80.32413 58.28010
#
# Poissons Ratio (x) = 0.53239 0.24179
# Poissons Ratio (y) = 0.46458 0.13065
# Poissons Ratio (z) = 0.29079 0.18006
#
# Static dielectric constant tensor:
#      x y z
#    x 3.118980 0.000000 0.134630 
#    y 0.000000 3.376410 0.000000 
#    z 0.134630 0.000000 3.011450 
# 
# 
# High freq. dielectric constant tensor:
#      x y z
#    x 1.630310 0.000000 0.020210 
#    y 0.000000 1.631350 0.000000 
#    z 0.020210 0.000000 1.630660 
# 
# From -- ./inp_files/36462.got.cif
#   From: 2010.06.25/outbox.cif.g09.slc.cpg/sg10_19_cif.got.tgz:36462.got - 2010.06.27 22:07:45.
