data_PCOD8057372
_publ_section_title
;
Structure prediction by ZEFSAII (Michael W. Deem and Ramdas Pophale) SiO2 
 PCOD8057372
Probable space group: P 2/M
;
_chemical_formula_sum "Si O2"
_cell_formula_units_Z 28
_cell_length_a 19.212647
_cell_length_b 8.612275
_cell_length_c 24.322273
_cell_angle_alpha 90.000000
_cell_angle_beta 157.988851
_cell_angle_gamma 90.000000
_cell_volume 1508.320988
_symmetry_space_group_name_H-M "P 2/M"
_symmetry_group_IT_number 10
_symmetry_cell_setting 'monoclinic'
loop_
_space_group_symop_operation_xyz
x,y,z
-x,y,-z
-x,-y,-z
x,-y,z
loop_
_atom_site_type_symbol
_atom_site_label
_atom_site_fract_x
_atom_site_fract_y
_atom_site_fract_z
Si Si1 0.122216 0.817758 0.038181
Si Si2 0.897823 0.681375 0.653591
Si Si3 0.884316 0.682540 0.080681
Si Si4 0.520224 0.318680 0.326971
Si Si5 0.585959 0.183756 0.143465
Si Si6 0.486414 0.818060 0.791426
Si Si7 0.784573 0.183461 0.183773
O O1 0.336707 0.777613 0.207404
O O2 0.103002 0.000000 0.013589
O O3 0.043798 0.727131 0.927447
O O4 0.000000 0.762385 0.000000
O O5 0.915470 0.500000 0.658423
O O6 0.683850 0.732463 0.488406
O O7 0.961449 0.730989 0.761312
O O8 0.021926 0.753558 0.696470
O O9 0.838329 0.500000 0.049438
O O10 0.702544 0.782753 0.960379
O O11 0.473664 0.500000 0.297219
O O12 0.588021 0.279769 0.314664
O O13 0.625472 0.234480 0.235458
O O14 0.749950 0.237391 0.222089
O O15 0.567357 0.000000 0.127244
O O16 0.386618 0.250746 0.977597
O O17 0.461735 0.000000 0.761045
O O18 0.792870 0.000000 0.186444
#
# Coordination Sequence:
#
# PCOD8057372 Si02
#       7
#     4   4   4   4   4   4   4
#     4  10  21  38  59  83 106 127 160 205 247 295
#     4  10  21  35  49  74 108 137 171 211 250 296
#     4  10  19  32  53  78 103 134 170 205 245 298
#     4  10  21  36  53  74 105 140 169 203 248 302
#     4   8  15  27  46  73 100 128 171 221 262 299
#     4  10  17  30  51  75 100 130 173 221 258 297
#     4   9  16  29  49  71  98 135 173 215 262 302
#
# _framework density 18.563687999999999
#
# number of rings (size 3 to 8) (size 9 to 14) (size 15 to 20)
#    0.000    2.429    1.429    4.286    0.000    2.857 
#    0.000    4.286    0.000    8.571    0.000    0.000 
#    0.000    0.000    0.000    0.000    0.000    0.000 
#
# Total GULP energy -347046.671403 kJ/mol
# GULP energy per Si atom -12394.523979 kJ/mol
# Density = 1.852144 g / cm^3
# Si number density = 18.563688 Si / 1000 Ang^3
#
#
#
# Elastic Constant Matrix: (Units=GPa)
#
#
# Indices 1 2 3 4 5 6 
#
# 1 128.9303 13.2861 45.2098 0.0000 1.2285 0.0000
# 2 13.2861 23.7299 15.2099 0.0000 -0.1620 0.0000
# 3 45.2098 15.2099 87.3869 0.0000 -13.9945 0.0000
# 4 0.0000 0.0000 0.0000 17.9003 0.0000 -5.2108
# 5 1.2285 -0.1620 -13.9945 0.0000 23.3254 0.0000
# 6 0.0000 0.0000 0.0000 -5.2108 0.0000 -0.2255
#
#
#
# Elastic Compliance Matrix: (Units=1/GPa)
#
#
# Indices 1 2 3 4 5 6 
#
# 1 0.009885 -0.002137 -0.005341 0.000000 -0.003740 0.000000
# 2 -0.002137 0.048453 -0.008027 0.000000 -0.004367 0.000000
# 3 -0.005341 -0.008027 0.017302 0.000000 0.010606 0.000000
# 4 0.000000 0.000000 0.000000 0.007231 0.000000 -0.167070
# 5 -0.003740 -0.004367 0.010606 0.000000 0.049402 0.000000
# 6 0.000000 0.000000 0.000000 -0.167070 0.000000 -0.573925
#
#
# Mechanical properties :
#
#
# Convention : Reuss Voigt Hill
#
# Bulk Modulus (GPa) = 22.40649 43.05095 32.72872
# Shear Modulus (GPa) = -12.63370 19.28946 3.32788
#
# Velocity S-wave (km/s) = -2.61158 3.22700 1.34036
# Velocity P-wave (km/s) = 1.73275 6.09311 4.47931
#
# Compressibility (1/GPa) = 0.04462992
#
# Stress axis : x y z
#
# Youngs Moduli (GPa) = 101.16598 20.63877 57.79602
#
# Poissons Ratio (x) = 0.04410 0.30868
# Poissons Ratio (y) = 0.21615 0.46395
# Poissons Ratio (z) = 0.54032 0.16567
#
# Static dielectric constant tensor:
#      x y z
#    x 3.749910 0.000000 -0.196960 
#    y 0.000000 3.243340 0.000000 
#    z -0.196960 0.000000 3.372140 
# 
# 
# High freq. dielectric constant tensor:
#      x y z
#    x 1.725230 0.000000 -0.010650 
#    y 0.000000 1.709910 0.000000 
#    z -0.010650 0.000000 1.693950 
# 
# From -- ./inp_files/93552.got.cif
#   From: 2010.06.25/outbox.cif.g09.slc.cpg/sg10_47_cif.got.tgz:93552.got - 2010.06.27 22:07:45.
