data_PCOD8057109
_publ_section_title
;
Structure prediction by ZEFSAII (Michael W. Deem and Ramdas Pophale) SiO2 
 PCOD8057109
Probable space group: P 2/M
;
_chemical_formula_sum "Si O2"
_cell_formula_units_Z 32
_cell_length_a 20.968153
_cell_length_b 8.729303
_cell_length_c 11.654064
_cell_angle_alpha 90.000000
_cell_angle_beta 59.018281
_cell_angle_gamma 90.000000
_cell_volume 1828.798972
_symmetry_space_group_name_H-M "P 2/M"
_symmetry_group_IT_number 10
_symmetry_cell_setting 'monoclinic'
loop_
_space_group_symop_operation_xyz
x,y,z
-x,y,-z
-x,-y,-z
x,-y,z
loop_
_atom_site_type_symbol
_atom_site_label
_atom_site_fract_x
_atom_site_fract_y
_atom_site_fract_z
Si Si1 0.845255 0.177230 0.380340
Si Si2 0.084432 0.181040 0.924185
Si Si3 0.422470 0.678782 0.957688
Si Si4 0.124461 0.319603 0.119372
Si Si5 0.992803 0.177177 0.376022
Si Si6 0.433645 0.820053 0.196145
Si Si7 0.287416 0.319652 0.371398
Si Si8 0.739156 0.319461 0.860489
O O1 0.874374 0.231675 0.229810
O O2 0.908724 0.207117 0.415694
O O3 0.774355 0.278691 0.477767
O O4 0.821990 0.000000 0.399852
O O5 0.082697 0.000000 0.939799
O O6 0.129958 0.251514 0.987231
O O7 0.000000 0.244622 0.000000
O O8 0.438041 0.500000 0.926493
O O9 0.484851 0.773849 0.827204
O O10 0.427567 0.722155 0.086203
O O11 0.337615 0.721139 0.000378
O O12 0.132320 0.500000 0.103162
O O13 0.191719 0.248466 0.133335
O O14 0.046324 0.277781 0.248410
O O15 0.000000 0.231145 0.500000
O O16 0.015127 0.000000 0.339059
O O17 0.364215 0.765539 0.338331
O O18 0.430373 0.000000 0.175675
O O19 0.301607 0.500000 0.357138
O O20 0.261995 0.256408 0.269377
O O21 0.748896 0.500000 0.842853
#
# Coordination Sequence:
#
# PCOD8057109 Si02
#       8
#     4   4   4   4   4   4   4   4
#     4  10  20  34  51  70  94 125 162 206 249 287
#     4  10  20  38  56  68  92 128 165 207 253 297
#     4   9  15  27  45  65  95 134 169 195 236 288
#     4  11  21  33  51  74  99 125 164 209 249 287
#     4  10  20  34  51  71  97 131 165 195 241 302
#     4  10  17  26  42  68 100 130 164 200 237 280
#     4  10  19  32  49  70 100 133 164 196 243 298
#     4   8  17  31  46  69 102 134 158 196 245 290
#
# _framework density 17.497823
#
# number of rings (size 3 to 8) (size 9 to 14) (size 15 to 20)
#    0.000    2.250    1.250    4.500    0.000    1.500 
#    0.000    6.875    0.000    0.000    0.000    0.875 
#    0.000    7.000    0.000    0.000    0.000    0.000 
#
# Total GULP energy -396686.820359 kJ/mol
# GULP energy per Si atom -12396.463136 kJ/mol
# Density = 1.745800 g / cm^3
# Si number density = 17.497823 Si / 1000 Ang^3
#
#
#
# Elastic Constant Matrix: (Units=GPa)
#
#
# Indices 1 2 3 4 5 6 
#
# 1 47.3104 19.5644 46.9694 0.0000 -17.8586 0.0000
# 2 19.5644 41.6877 32.1455 0.0000 -7.4332 0.0000
# 3 46.9694 32.1455 106.8335 0.0000 -12.9954 0.0000
# 4 0.0000 0.0000 0.0000 28.4438 0.0000 -5.7676
# 5 -17.8586 -7.4332 -12.9954 0.0000 32.4757 0.0000
# 6 0.0000 0.0000 0.0000 -5.7676 0.0000 21.5439
#
#
#
# Elastic Compliance Matrix: (Units=1/GPa)
#
#
# Indices 1 2 3 4 5 6 
#
# 1 0.046799 -0.005990 -0.016618 0.000000 0.017714 0.000000
# 2 -0.005990 0.032399 -0.006952 0.000000 0.001340 0.000000
# 3 -0.016618 -0.006952 0.018346 0.000000 -0.003388 0.000000
# 4 0.000000 0.000000 0.000000 0.037175 0.000000 0.009952
# 5 0.017714 0.001340 -0.003388 0.000000 0.039484 0.000000
# 6 0.000000 0.000000 0.000000 0.009952 0.000000 0.049081
#
#
# Mechanical properties :
#
#
# Convention : Reuss Voigt Hill
#
# Bulk Modulus (GPa) = 26.02592 43.68780 34.85686
# Shear Modulus (GPa) = 16.93692 22.96949 19.95321
#
# Velocity S-wave (km/s) = 3.11456 3.62706 3.38053
# Velocity P-wave (km/s) = 5.27637 6.52399 5.93307
#
# Compressibility (1/GPa) = 0.03842324
#
# Stress axis : x y z
#
# Youngs Moduli (GPa) = 21.36792 30.86541 54.50754
#
# Poissons Ratio (x) = 0.18490 0.90580
# Poissons Ratio (y) = 0.12800 0.37893
# Poissons Ratio (z) = 0.35509 0.21457
#
# Static dielectric constant tensor:
#      x y z
#    x 3.678540 0.000000 -0.373360 
#    y 0.000000 3.078190 0.000000 
#    z -0.373360 0.000000 3.272800 
# 
# 
# High freq. dielectric constant tensor:
#      x y z
#    x 1.664350 0.000000 -0.031310 
#    y 0.000000 1.669420 0.000000 
#    z -0.031310 0.000000 1.657650 
# 
# From -- ./inp_files/56422.got.cif
#   From: 2010.06.25/outbox.cif.g09.slc.cpg/sg10_29_cif.got.tgz:56422.got - 2010.06.27 22:07:45.
