data_PCOD8057418
_publ_section_title
;
Structure prediction by ZEFSAII (Michael W. Deem and Ramdas Pophale) SiO2 
 PCOD8057418
Probable space group: P 2/M
;
_chemical_formula_sum "Si O2"
_cell_formula_units_Z 28
_cell_length_a 31.823565
_cell_length_b 8.507216
_cell_length_c 9.680654
_cell_angle_alpha 90.000000
_cell_angle_beta 34.577452
_cell_angle_gamma 90.000000
_cell_volume 1487.380145
_symmetry_space_group_name_H-M "P 2/M"
_symmetry_group_IT_number 10
_symmetry_cell_setting 'monoclinic'
loop_
_space_group_symop_operation_xyz
x,y,z
-x,y,-z
-x,-y,-z
x,-y,z
loop_
_atom_site_type_symbol
_atom_site_label
_atom_site_fract_x
_atom_site_fract_y
_atom_site_fract_z
Si Si1 0.553324 0.185405 0.541480
Si Si2 0.085032 0.184756 0.281350
Si Si3 0.601849 0.813259 0.112822
Si Si4 0.764347 0.186531 0.618634
Si Si5 0.813280 0.314710 0.772375
Si Si6 0.202793 0.315633 0.758013
Si Si7 0.695824 0.814906 0.297551
O O1 0.468251 0.245055 0.792239
O O2 0.587607 0.251079 0.305914
O O3 0.608712 0.231864 0.516818
O O4 0.549076 0.000000 0.537858
O O5 0.114817 0.239249 0.349649
O O6 0.000000 0.234211 0.500000
O O7 0.096936 0.000000 0.231134
O O8 0.129186 0.271484 0.040370
O O9 0.607809 0.000000 0.096661
O O10 0.679913 0.746099 0.846990
O O11 0.808268 0.245155 0.633190
O O12 0.806145 0.254613 0.372863
O O13 0.766260 0.000000 0.609346
O O14 0.823171 0.500000 0.738514
O O15 0.740624 0.272702 0.056454
O O16 0.214266 0.500000 0.729955
O O17 0.275566 0.236353 0.629836
O O18 0.707707 0.000000 0.244947
#
# Coordination Sequence:
#
# PCOD8057418 Si02
#       7
#     4   4   4   4   4   4   4
#     4   8  13  24  46  77 104 130 178 235 278 311
#     4  10  21  40  65  89 110 136 175 218 257 309
#     4   8  14  25  46  76 105 134 175 233 280 310
#     4  11  20  35  56  79 108 145 187 229 269 316
#     4  11  21  33  54  83 114 145 177 216 264 321
#     4  11  23  37  54  79 113 147 176 217 271 326
#     4  10  17  31  54  78 103 140 188 232 267 316
#
# _framework density 18.825047999999999
#
# number of rings (size 3 to 8) (size 9 to 14) (size 15 to 20)
#    0.000    2.143    1.429    6.429    0.000    1.143 
#    0.000    1.429    0.000   12.857    0.000    0.000 
#    0.000    0.000    0.000    0.000    0.000    0.000 
#
# Total GULP energy -347065.970744 kJ/mol
# GULP energy per Si atom -12395.213241 kJ/mol
# Density = 1.878220 g / cm^3
# Si number density = 18.825048 Si / 1000 Ang^3
#
#
#
# Elastic Constant Matrix: (Units=GPa)
#
#
# Indices 1 2 3 4 5 6 
#
# 1 142.1891 15.7540 61.6690 0.0000 -10.3706 0.0000
# 2 15.7540 39.6980 12.4251 0.0000 -9.3264 0.0000
# 3 61.6690 12.4251 78.0211 0.0000 -8.2537 0.0000
# 4 0.0000 0.0000 0.0000 8.8100 0.0000 11.6879
# 5 -10.3706 -9.3264 -8.2537 0.0000 38.4284 0.0000
# 6 0.0000 0.0000 0.0000 11.6879 0.0000 13.3928
#
#
#
# Elastic Compliance Matrix: (Units=1/GPa)
#
#
# Indices 1 2 3 4 5 6 
#
# 1 0.010831 -0.001538 -0.008234 0.000000 0.000781 0.000000
# 2 -0.001538 0.027988 -0.002627 0.000000 0.005813 0.000000
# 3 -0.008234 -0.002627 0.019893 0.000000 0.001413 0.000000
# 4 0.000000 0.000000 0.000000 -0.719398 0.000000 0.627820
# 5 0.000781 0.005813 0.001413 0.000000 0.027948 0.000000
# 6 0.000000 0.000000 0.000000 0.627820 0.000000 -0.473233
#
#
# Mechanical properties :
#
#
# Convention : Reuss Voigt Hill
#
# Bulk Modulus (GPa) = 29.48444 48.84492 39.16468
# Shear Modulus (GPa) = -4.67347 23.46359 9.39506
#
# Velocity S-wave (km/s) = -1.57733 3.53427 2.23642
# Velocity P-wave (km/s) = 3.51839 6.53130 5.24580
#
# Compressibility (1/GPa) = 0.03391619
#
# Stress axis : x y z
#
# Youngs Moduli (GPa) = 92.32525 35.72910 50.26934
#
# Poissons Ratio (x) = 0.05494 0.41390
# Poissons Ratio (y) = 0.14197 0.13205
# Poissons Ratio (z) = 0.76017 0.09385
#
# Static dielectric constant tensor:
#      x y z
#    x 3.740050 0.000000 -0.211210 
#    y 0.000000 3.256230 0.000000 
#    z -0.211210 0.000000 3.292600 
# 
# 
# High freq. dielectric constant tensor:
#      x y z
#    x 1.739790 0.000000 -0.011680 
#    y 0.000000 1.715880 0.000000 
#    z -0.011680 0.000000 1.704000 
# 
# From -- ./inp_files/37963.got.cif
#   From: 2010.06.25/outbox.cif.g09.slc.cpg/sg10_19_cif.got.tgz:37963.got - 2010.06.27 22:07:45.
