data_PCOD8057050
_publ_section_title
;
Structure prediction by ZEFSAII (Michael W. Deem and Ramdas Pophale) SiO2 
 PCOD8057050
Probable space group: P 2/M
;
_chemical_formula_sum "Si O2"
_cell_formula_units_Z 32
_cell_length_a 18.961630
_cell_length_b 9.082024
_cell_length_c 11.389317
_cell_angle_alpha 90.000000
_cell_angle_beta 113.429857
_cell_angle_gamma 90.000000
_cell_volume 1799.635585
_symmetry_space_group_name_H-M "P 2/M"
_symmetry_group_IT_number 10
_symmetry_cell_setting 'monoclinic'
loop_
_space_group_symop_operation_xyz
x,y,z
-x,y,-z
-x,-y,-z
x,-y,z
loop_
_atom_site_type_symbol
_atom_site_label
_atom_site_fract_x
_atom_site_fract_y
_atom_site_fract_z
Si Si1 0.426557 0.827115 0.883670
Si Si2 0.768610 0.665968 0.910537
Si Si3 0.736415 0.173214 0.123229
Si Si4 0.713505 0.330746 0.631800
Si Si5 0.143140 0.826219 0.372915
Si Si6 0.629502 0.662578 0.361556
Si Si7 0.073702 0.670822 0.120111
Si Si8 0.199022 0.667092 0.623943
O O1 0.350009 0.776475 0.900946
O O2 0.424830 0.771570 0.747506
O O3 0.434047 0.000000 0.882184
O O4 0.500000 0.759392 0.000000
O O5 0.765251 0.500000 0.959452
O O6 0.703313 0.686225 0.765511
O O7 0.851521 0.698713 0.909803
O O8 0.751868 0.782628 0.000113
O O9 0.798146 0.252840 0.247972
O O10 0.746383 0.000000 0.145199
O O11 0.742208 0.500000 0.624276
O O12 0.775798 0.212411 0.632384
O O13 0.634316 0.301670 0.505550
O O14 0.076938 0.762178 0.243847
O O15 0.138979 0.751532 0.499253
O O16 0.133562 0.000000 0.380453
O O17 0.596181 0.500000 0.318037
O O18 0.717129 0.674564 0.377489
O O19 0.065773 0.500000 0.148342
O O20 0.000000 0.727546 0.000000
O O21 0.170997 0.500000 0.623552
#
# Coordination Sequence:
#
# PCOD8057050 Si02
#       8
#     4   4   4   4   4   4   4   4
#     4   9  18  31  45  63  90 122 152 184 225 274
#     4   9  17  30  48  69  93 121 151 184 225 272
#     4  10  19  30  46  69  94 119 151 191 232 272
#     4   8  15  28  44  63  89 120 153 187 223 268
#     4  10  17  25  42  69  96 118 147 190 234 268
#     4   8  14  25  43  66  87 109 145 192 229 258
#     4   9  18  33  51  69  92 125 160 188 219 267
#     4   9  16  28  45  64  89 120 153 188 227 271
#
# _framework density 17.781376999999999
#
# number of rings (size 3 to 8) (size 9 to 14) (size 15 to 20)
#    0.000    3.000    0.000    3.375    0.000    6.000 
#    0.000    0.000    0.000    1.500    0.000   10.500 
#    0.000    0.000    0.000    0.000    0.000    0.000 
#
# Total GULP energy -396565.289584 kJ/mol
# GULP energy per Si atom -12392.665299 kJ/mol
# Density = 1.774091 g / cm^3
# Si number density = 17.781377 Si / 1000 Ang^3
#
#
#
# Elastic Constant Matrix: (Units=GPa)
#
#
# Indices 1 2 3 4 5 6 
#
# 1 23.6985 19.7727 36.6825 0.0000 0.9273 0.0000
# 2 19.7727 80.3498 63.3857 0.0000 0.9224 0.0000
# 3 36.6825 63.3857 186.7366 0.0000 6.2069 0.0000
# 4 0.0000 0.0000 0.0000 33.4389 0.0000 -1.8115
# 5 0.9273 0.9224 6.2069 0.0000 23.5916 0.0000
# 6 0.0000 0.0000 0.0000 -1.8115 0.0000 14.6454
#
#
#
# Elastic Compliance Matrix: (Units=1/GPa)
#
#
# Indices 1 2 3 4 5 6 
#
# 1 0.064182 -0.007979 -0.009913 0.000000 0.000397 0.000000
# 2 -0.007979 0.018006 -0.004572 0.000000 0.000812 0.000000
# 3 -0.009913 -0.004572 0.008913 0.000000 -0.001777 0.000000
# 4 0.000000 0.000000 0.000000 0.030107 0.000000 0.003724
# 5 0.000397 0.000812 -0.001777 0.000000 0.042808 0.000000
# 6 0.000000 0.000000 0.000000 0.003724 0.000000 0.068741
#
#
# Mechanical properties :
#
#
# Convention : Reuss Voigt Hill
#
# Bulk Modulus (GPa) = 21.65670 58.94073 40.29872
# Shear Modulus (GPa) = 17.06043 25.73146 21.39595
#
# Velocity S-wave (km/s) = 3.10087 3.80821 3.47259
# Velocity P-wave (km/s) = 5.00264 7.24955 6.22826
#
# Compressibility (1/GPa) = 0.04617509
#
# Stress axis : x y z
#
# Youngs Moduli (GPa) = 15.58068 55.53663 112.19232
#
# Poissons Ratio (x) = 0.44311 1.11214
# Poissons Ratio (y) = 0.12431 0.51290
# Poissons Ratio (z) = 0.15445 0.25389
#
# Static dielectric constant tensor:
#      x y z
#    x 2.720690 0.000000 0.068110 
#    y 0.000000 3.211980 0.000000 
#    z 0.068110 0.000000 3.867940 
# 
# 
# High freq. dielectric constant tensor:
#      x y z
#    x 1.611310 0.000000 -0.000200 
#    y 0.000000 1.685700 0.000000 
#    z -0.000200 0.000000 1.716320 
# 
# From -- ./inp_files/54876.got.cif
#   From: 2010.06.25/outbox.cif.g09.slc.cpg/sg10_28_cif.got.tgz:54876.got - 2010.06.27 22:07:45.
