data_PCOD8057415
_publ_section_title
;
Structure prediction by ZEFSAII (Michael W. Deem and Ramdas Pophale) SiO2 
 PCOD8057415
Probable space group: P 2/M
;
_chemical_formula_sum "Si O2"
_cell_formula_units_Z 32
_cell_length_a 12.043893
_cell_length_b 8.943824
_cell_length_c 19.720880
_cell_angle_alpha 90.000000
_cell_angle_beta 51.964834
_cell_angle_gamma 90.000000
_cell_volume 1673.170432
_symmetry_space_group_name_H-M "P 2/M"
_symmetry_group_IT_number 10
_symmetry_cell_setting 'monoclinic'
loop_
_space_group_symop_operation_xyz
x,y,z
-x,y,-z
-x,-y,-z
x,-y,z
loop_
_atom_site_type_symbol
_atom_site_label
_atom_site_fract_x
_atom_site_fract_y
_atom_site_fract_z
Si Si1 0.349875 0.323577 0.651431
Si Si2 0.373424 0.827863 0.398466
Si Si3 0.892930 0.821313 0.748044
Si Si4 0.662940 0.821762 0.100001
Si Si5 0.828530 0.825843 0.169222
Si Si6 0.644481 0.822468 0.747556
Si Si7 0.861036 0.174313 0.910893
Si Si8 0.800055 0.172350 0.409055
O O1 0.350887 0.500000 0.649395
O O2 0.500311 0.268183 0.619618
O O3 0.226811 0.265800 0.746258
O O4 0.316848 0.263311 0.588799
O O5 0.334821 0.769907 0.337825
O O6 0.236140 0.809404 0.497671
O O7 0.423635 0.000000 0.376377
O O8 0.771198 0.756257 0.744971
O O9 0.866475 0.754900 0.833501
O O10 0.043310 0.764165 0.663417
O O11 0.891352 0.000000 0.748852
O O12 0.754582 0.765135 0.129244
O O13 0.503825 0.761028 0.167081
O O14 0.666649 0.000000 0.097606
O O15 0.733112 0.758176 0.004260
O O16 0.995319 0.797365 0.101659
O O17 0.794580 0.000000 0.194184
O O18 0.645630 0.000000 0.751366
O O19 0.834558 0.000000 0.911064
O O20 0.790548 0.000000 0.389871
#
# Coordination Sequence:
#
# PCOD8057415 Si02
#       8
#     4   4   4   4   4   4   4   4
#     4  12  23  34  53  79 106 134 168 212 262 310
#     4  10  20  35  55  77 103 137 172 207 254 308
#     4   9  17  29  47  75 108 137 169 211 253 296
#     4   9  16  26  46  76 106 135 167 208 257 305
#     4  10  17  31  53  75 104 137 172 211 255 309
#     4   9  17  29  47  75 108 137 169 211 253 296
#     4   9  16  26  46  76 106 135 167 208 257 305
#     4  10  20  35  55  77 103 137 172 207 254 308
#
# _framework density 19.125368000000002
#
# number of rings (size 3 to 8) (size 9 to 14) (size 15 to 20)
#    0.000    2.250    2.500    1.875    0.000    4.500 
#    0.000    5.000    0.000    2.250    0.000    1.750 
#    0.000    2.000    0.000    0.000    0.000    0.000 
#
# Total GULP energy -396745.581905 kJ/mol
# GULP energy per Si atom -12398.299435 kJ/mol
# Density = 1.908184 g / cm^3
# Si number density = 19.125368 Si / 1000 Ang^3
#
#
#
# Elastic Constant Matrix: (Units=GPa)
#
#
# Indices 1 2 3 4 5 6 
#
# 1 143.5079 20.1995 56.8689 0.0000 3.3499 0.0000
# 2 20.1995 38.9673 19.6207 0.0000 -0.7072 0.0000
# 3 56.8689 19.6207 136.5635 0.0000 8.8143 0.0000
# 4 0.0000 0.0000 0.0000 4.5960 0.0000 -0.5165
# 5 3.3499 -0.7072 8.8143 0.0000 19.7719 0.0000
# 6 0.0000 0.0000 0.0000 -0.5165 0.0000 1.8149
#
#
#
# Elastic Compliance Matrix: (Units=1/GPa)
#
#
# Indices 1 2 3 4 5 6 
#
# 1 0.008634 -0.002882 -0.003172 0.000000 -0.000152 0.000000
# 2 -0.002882 0.028782 -0.003123 0.000000 0.002910 0.000000
# 3 -0.003172 -0.003123 0.009333 0.000000 -0.003735 0.000000
# 4 0.000000 0.000000 0.000000 0.224769 0.000000 0.063963
# 5 -0.000152 0.002910 -0.003735 0.000000 0.052372 0.000000
# 6 0.000000 0.000000 0.000000 0.063963 0.000000 0.569194
#
#
# Mechanical properties :
#
#
# Convention : Reuss Voigt Hill
#
# Bulk Modulus (GPa) = 35.21569 56.93521 46.07545
# Shear Modulus (GPa) = 5.42946 20.05986 12.74466
#
# Velocity S-wave (km/s) = 1.68673 3.24213 2.58422
# Velocity P-wave (km/s) = 4.71661 6.62188 5.74873
#
# Compressibility (1/GPa) = 0.02839643
#
# Stress axis : x y z
#
# Youngs Moduli (GPa) = 115.81734 34.74445 107.14455
#
# Poissons Ratio (x) = 0.10012 0.33984
# Poissons Ratio (y) = 0.33373 0.33462
# Poissons Ratio (z) = 0.36734 0.10851
#
# Static dielectric constant tensor:
#      x y z
#    x 3.639960 0.000000 0.068880 
#    y 0.000000 2.842120 0.000000 
#    z 0.068880 0.000000 3.848530 
# 
# 
# High freq. dielectric constant tensor:
#      x y z
#    x 1.743350 0.000000 0.002320 
#    y 0.000000 1.669230 0.000000 
#    z 0.002320 0.000000 1.762950 
# 
# From -- ./inp_files/49981.got.cif
#   From: 2010.06.25/outbox.cif.g09.slc.cpg/sg10_25_cif.got.tgz:49981.got - 2010.06.27 22:07:45.
