data_PCOD8057779
_publ_section_title
;
Structure prediction by ZEFSAII (Michael W. Deem and Ramdas Pophale) SiO2 
 PCOD8057779
Probable space group: P 2/M
;
_chemical_formula_sum "Si O2"
_cell_formula_units_Z 28
_cell_length_a 8.571851
_cell_length_b 17.848630
_cell_length_c 15.239816
_cell_angle_alpha 90.000000
_cell_angle_beta 139.618445
_cell_angle_gamma 90.000000
_cell_volume 1510.602677
_symmetry_space_group_name_H-M "P 2/M"
_symmetry_group_IT_number 10
_symmetry_cell_setting 'monoclinic'
loop_
_space_group_symop_operation_xyz
x,y,z
-x,y,-z
-x,-y,-z
x,-y,z
loop_
_atom_site_type_symbol
_atom_site_label
_atom_site_fract_x
_atom_site_fract_y
_atom_site_fract_z
Si Si1 0.393073 0.586198 0.362938
Si Si2 0.622584 0.781345 0.799155
Si Si3 0.540688 0.411929 0.914231
Si Si4 0.723499 0.821388 0.038291
Si Si5 0.984871 0.317106 0.118895
Si Si6 0.279755 0.652168 0.642447
Si Si7 0.878205 0.083056 0.852912
O O1 0.500000 0.614397 0.500000
O O2 0.319798 0.500000 0.335370
O O3 0.580690 0.598240 0.364777
O O4 0.147519 0.631643 0.249554
O O5 0.619512 0.804956 0.897982
O O6 0.376600 0.737545 0.670875
O O7 0.655524 0.857617 0.755584
O O8 0.851569 0.726675 0.882232
O O9 0.564594 0.500000 0.907029
O O10 0.326655 0.378173 0.761731
O O11 0.500000 0.394913 0.000000
O O12 0.785003 0.370414 0.986969
O O13 0.500000 0.845940 0.000000
O O14 0.852252 0.744322 0.124464
O O15 0.914138 0.889523 0.124757
O O16 0.000000 0.650383 0.500000
O O17 0.787087 0.000000 0.787397
O O18 0.000000 0.082869 0.000000
#
# Coordination Sequence:
#
# PCOD8057779 Si02
#       7
#     4   4   4   4   4   4   4
#     4  10  23  38  54  76 104 143 188 239 288 332
#     4   9  19  34  53  77 106 141 183 222 267 331
#     4  11  24  37  56  84 110 146 188 238 295 338
#     4  10  18  28  50  79 110 141 175 224 273 320
#     4  10  19  35  55  74 102 141 187 228 273 325
#     4  11  24  39  57  78 110 148 186 234 287 340
#     4   8  15  29  50  77 110 144 175 216 266 321
#
# _framework density 18.535647999999998
#
# number of rings (size 3 to 8) (size 9 to 14) (size 15 to 20)
#    0.000    2.143    1.429    2.571    4.000    1.429 
#    0.000    2.143    0.000    0.429    0.000    0.000 
#    0.000   47.429    0.000    0.000    0.000    0.000 
#
# Total GULP energy -347020.878521 kJ/mol
# GULP energy per Si atom -12393.602804 kJ/mol
# Density = 1.849346 g / cm^3
# Si number density = 18.535648 Si / 1000 Ang^3
#
#
#
# Elastic Constant Matrix: (Units=GPa)
#
#
# Indices 1 2 3 4 5 6 
#
# 1 90.5390 43.5073 35.9333 0.0000 1.7813 0.0000
# 2 43.5073 135.7393 47.3131 0.0000 13.6269 0.0000
# 3 35.9333 47.3131 104.5924 0.0000 9.1091 0.0000
# 4 0.0000 0.0000 0.0000 16.7344 0.0000 3.5552
# 5 1.7813 13.6269 9.1091 0.0000 27.3002 0.0000
# 6 0.0000 0.0000 0.0000 3.5552 0.0000 16.7525
#
#
#
# Elastic Compliance Matrix: (Units=1/GPa)
#
#
# Indices 1 2 3 4 5 6 
#
# 1 0.014047 -0.003512 -0.003409 0.000000 0.001974 0.000000
# 2 -0.003512 0.009893 -0.002944 0.000000 -0.003727 0.000000
# 3 -0.003409 -0.002944 0.012273 0.000000 -0.002403 0.000000
# 4 0.000000 0.000000 0.000000 0.062579 0.000000 -0.013280
# 5 0.001974 -0.003727 -0.002403 0.000000 0.039163 0.000000
# 6 0.000000 0.000000 0.000000 -0.013280 0.000000 0.062511
#
#
# Mechanical properties :
#
#
# Convention : Reuss Voigt Hill
#
# Bulk Modulus (GPa) = 60.67014 64.93091 62.80052
# Shear Modulus (GPa) = 22.15424 25.76521 23.95973
#
# Velocity S-wave (km/s) = 3.46095 3.73236 3.59922
# Velocity P-wave (km/s) = 6.98381 7.32669 7.15730
#
# Compressibility (1/GPa) = 0.01648257
#
# Stress axis : x y z
#
# Youngs Moduli (GPa) = 71.19021 101.08063 81.47872
#
# Poissons Ratio (x) = 0.35502 0.27776
# Poissons Ratio (y) = 0.25004 0.23987
# Poissons Ratio (z) = 0.24269 0.29758
#
# Static dielectric constant tensor:
#      x y z
#    x 3.379090 0.000000 0.071020 
#    y 0.000000 3.745290 0.000000 
#    z 0.071020 0.000000 3.158570 
# 
# 
# High freq. dielectric constant tensor:
#      x y z
#    x 1.717850 0.000000 0.005060 
#    y 0.000000 1.722480 0.000000 
#    z 0.005060 0.000000 1.683530 
# 
# From -- ./inp_files/62360.got.cif
#   From: 2010.06.25/outbox.cif.g09.slc.cpg/sg10_32_cif.got.tgz:62360.got - 2010.06.27 22:07:45.
