data_PCOD8057054
_publ_section_title
;
Structure prediction by ZEFSAII (Michael W. Deem and Ramdas Pophale) SiO2 
 PCOD8057054
Probable space group: P 2/M
;
_chemical_formula_sum "Si O2"
_cell_formula_units_Z 24
_cell_length_a 9.708925
_cell_length_b 8.656771
_cell_length_c 15.486960
_cell_angle_alpha 90.000000
_cell_angle_beta 92.546794
_cell_angle_gamma 90.000000
_cell_volume 1300.361407
_symmetry_space_group_name_H-M "P 2/M"
_symmetry_group_IT_number 10
_symmetry_cell_setting 'monoclinic'
loop_
_space_group_symop_operation_xyz
x,y,z
-x,y,-z
-x,-y,-z
x,-y,z
loop_
_atom_site_type_symbol
_atom_site_label
_atom_site_fract_x
_atom_site_fract_y
_atom_site_fract_z
Si Si1 0.819900 0.181061 0.751031
Si Si2 0.868624 0.821803 0.409313
Si Si3 0.165627 0.679594 0.424351
Si Si4 0.655549 0.320122 0.086378
Si Si5 0.862625 0.823037 0.219185
Si Si6 0.365263 0.182229 0.095396
O O1 0.763826 0.260754 0.661822
O O2 0.725156 0.239279 0.826580
O O3 0.977401 0.226419 0.776102
O O4 0.806798 0.000000 0.735875
O O5 0.773897 0.764630 0.487248
O O6 0.797311 0.800850 0.313647
O O7 0.004330 0.716912 0.413726
O O8 0.911802 0.000000 0.422649
O O9 0.193824 0.500000 0.435102
O O10 0.619955 0.500000 0.085630
O O11 0.784738 0.287871 0.151259
O O12 0.523698 0.226109 0.117183
O O13 0.693057 0.267367 0.990765
O O14 0.846380 0.000000 0.188165
O O15 0.352333 0.000000 0.080893
#
# Coordination Sequence:
#
# PCOD8057054 Si02
#       6
#     4   4   4   4   4   4
#     4   9  19  34  53  76 100 130 169 210 248 289
#     4   9  16  28  46  67  97 134 171 206 238 284
#     4  10  17  25  43  71 103 133 161 199 249 299
#     4  11  22  35  52  75 103 132 163 203 252 303
#     4   9  18  33  52  75 101 131 168 207 246 289
#     4  10  20  37  58  74  94 130 173 209 243 294
#
# _framework density 18.456409000000001
#
# number of rings (size 3 to 8) (size 9 to 14) (size 15 to 20)
#    0.000    2.333    0.000    7.000    0.000    5.333 
#    0.000    3.333    0.000    1.000    0.000    7.000 
#    0.000    0.000    0.000    0.000    0.000    0.000 
#
# Total GULP energy -297502.690676 kJ/mol
# GULP energy per Si atom -12395.945445 kJ/mol
# Density = 1.841440 g / cm^3
# Si number density = 18.456409 Si / 1000 Ang^3
#
#
#
# Elastic Constant Matrix: (Units=GPa)
#
#
# Indices 1 2 3 4 5 6 
#
# 1 41.8617 13.3123 49.8123 0.0000 -15.7276 0.0000
# 2 13.3123 64.2089 38.7255 0.0000 -7.8008 0.0000
# 3 49.8123 38.7255 141.9033 0.0000 -35.0634 0.0000
# 4 0.0000 0.0000 0.0000 14.4724 0.0000 -3.7867
# 5 -15.7276 -7.8008 -35.0634 0.0000 13.2089 0.0000
# 6 0.0000 0.0000 0.0000 -3.7867 0.0000 13.2068
#
#
#
# Elastic Compliance Matrix: (Units=1/GPa)
#
#
# Indices 1 2 3 4 5 6 
#
# 1 0.045907 -0.000909 -0.007246 0.000000 0.034891 0.000000
# 2 -0.000909 0.018903 -0.006825 0.000000 -0.008037 0.000000
# 3 -0.007246 -0.006825 0.024196 0.000000 0.051571 0.000000
# 4 0.000000 0.000000 0.000000 0.074701 0.000000 0.021419
# 5 0.034891 -0.008037 0.051571 0.000000 0.249399 0.000000
# 6 0.000000 0.000000 0.000000 0.021419 0.000000 0.081860
#
#
# Mechanical properties :
#
#
# Convention : Reuss Voigt Hill
#
# Bulk Modulus (GPa) = 16.93597 50.18602 33.56100
# Shear Modulus (GPa) = 9.18091 17.91920 13.55005
#
# Velocity S-wave (km/s) = 2.23275 3.11930 2.71249
# Velocity P-wave (km/s) = 3.98033 6.34224 5.29467
#
# Compressibility (1/GPa) = 0.05904591
#
# Stress axis : x y z
#
# Youngs Moduli (GPa) = 21.78296 52.90246 41.32926
#
# Poissons Ratio (x) = 0.04810 0.29945
# Poissons Ratio (y) = 0.01980 0.28209
# Poissons Ratio (z) = 0.15783 0.36108
#
# Static dielectric constant tensor:
#      x y z
#    x 2.965580 0.000000 -0.185990 
#    y 0.000000 3.315900 0.000000 
#    z -0.185990 0.000000 3.978930 
# 
# 
# High freq. dielectric constant tensor:
#      x y z
#    x 1.658730 0.000000 -0.007310 
#    y 0.000000 1.719420 0.000000 
#    z -0.007310 0.000000 1.739610 
# 
# From -- ./inp_files/57227.got.cif
#   From: 2010.06.25/outbox.cif.g09.slc.cpg/sg10_29_cif.got.tgz:57227.got - 2010.06.27 22:07:45.
