data_PCOD8057981
_publ_section_title
;
Structure prediction by ZEFSAII (Michael W. Deem and Ramdas Pophale) SiO2 
 PCOD8057981
Probable space group: P 2/M
;
_chemical_formula_sum "Si O2"
_cell_formula_units_Z 26
_cell_length_a 22.253296
_cell_length_b 12.095209
_cell_length_c 8.852848
_cell_angle_alpha 90.000000
_cell_angle_beta 38.800448
_cell_angle_gamma 90.000000
_cell_volume 1493.096870
_symmetry_space_group_name_H-M "P 2/M"
_symmetry_group_IT_number 10
_symmetry_cell_setting 'monoclinic'
loop_
_space_group_symop_operation_xyz
x,y,z
-x,y,-z
-x,-y,-z
x,-y,z
loop_
_atom_site_type_symbol
_atom_site_label
_atom_site_fract_x
_atom_site_fract_y
_atom_site_fract_z
Si Si1 0.396915 0.623624 0.530783
Si Si2 0.400795 0.819336 0.750068
Si Si3 0.267298 0.627436 0.506940
Si Si4 0.878220 0.000000 0.457136
Si Si5 0.437914 0.720163 0.982227
Si Si6 0.750448 0.000000 0.984464
Si Si7 0.095262 0.000000 0.065169
Si Si8 0.891674 0.811628 0.196934
O O1 0.393076 0.500000 0.601854
O O2 0.391324 0.700327 0.688576
O O3 0.307852 0.647636 0.595032
O O4 0.494119 0.636981 0.243587
O O5 0.500000 0.875165 0.500000
O O6 0.402153 0.811629 0.930811
O O7 0.313148 0.892030 0.863966
O O8 0.236439 0.500000 0.544830
O O9 0.175181 0.704810 0.671710
O O10 0.346320 0.655863 0.225669
O O11 0.789261 0.000000 0.741054
O O12 0.865528 0.888576 0.388135
O O13 0.983115 0.000000 0.328901
O O14 0.500000 0.773294 0.000000
O O15 0.842280 0.000000 0.909017
O O16 0.120774 0.888156 0.925671
O O17 0.000000 0.767678 0.000000
#
# Coordination Sequence:
#
# PCOD8057981 Si02
#       8
#     4   4   4   2   4   2   2   4
#     4   9  18  32  49  69  95 128 163 195 226 266
#     4  10  21  33  47  69  98 129 158 189 232 283
#     4  10  18  29  48  74  99 123 155 193 235 279
#     4   9  19  34  52  72  91 119 160 201 235 273
#     4   9  18  32  48  68  95 126 161 196 226 265
#     4  12  20  32  51  73  98 120 153 198 242 279
#     4   9  19  34  54  71  89 121 160 199 233 276
#     4   9  18  34  51  70  96 124 155 191 236 284
#
# _framework density 17.413471000000001
#
# number of rings (size 3 to 8) (size 9 to 14) (size 15 to 20)
#    0.000    2.462    0.000    3.692    0.000    5.538 
#    0.000    0.385    0.000    0.000    0.000    0.000 
#    0.000   17.231    0.000    0.000    0.000    0.000 
#
# Total GULP energy -322269.897548 kJ/mol
# GULP energy per Si atom -12394.996060 kJ/mol
# Density = 1.737384 g / cm^3
# Si number density = 17.413471 Si / 1000 Ang^3
#
#
#
# Elastic Constant Matrix: (Units=GPa)
#
#
# Indices 1 2 3 4 5 6 
#
# 1 80.6377 37.3917 26.9648 0.0000 0.0250 0.0000
# 2 37.3917 90.9621 45.1011 0.0000 -11.6474 0.0000
# 3 26.9648 45.1011 81.8441 0.0000 -5.6285 0.0000
# 4 0.0000 0.0000 0.0000 18.3986 0.0000 -11.0556
# 5 0.0250 -11.6474 -5.6285 0.0000 28.8885 0.0000
# 6 0.0000 0.0000 0.0000 -11.0556 0.0000 12.6082
#
#
#
# Elastic Compliance Matrix: (Units=1/GPa)
#
#
# Indices 1 2 3 4 5 6 
#
# 1 0.015814 -0.005748 -0.002233 0.000000 -0.002766 0.000000
# 2 -0.005748 0.017826 -0.007536 0.000000 0.005724 0.000000
# 3 -0.002233 -0.007536 0.017127 0.000000 0.000301 0.000000
# 4 0.000000 0.000000 0.000000 0.114884 0.000000 0.100737
# 5 -0.002766 0.005724 0.000301 0.000000 0.036985 0.000000
# 6 0.000000 0.000000 0.000000 0.100737 0.000000 0.167646
#
#
# Mechanical properties :
#
#
# Convention : Reuss Voigt Hill
#
# Bulk Modulus (GPa) = 50.67378 52.48434 51.57906
# Shear Modulus (GPa) = 12.25815 21.57814 16.91815
#
# Velocity S-wave (km/s) = 2.65608 3.52399 3.12036
# Velocity P-wave (km/s) = 6.21046 6.83839 6.53198
#
# Compressibility (1/GPa) = 0.01973407
#
# Stress axis : x y z
#
# Youngs Moduli (GPa) = 63.23560 56.09937 58.38600
#
# Poissons Ratio (x) = 0.32243 0.13038
# Poissons Ratio (y) = 0.36345 0.43998
# Poissons Ratio (z) = 0.14121 0.42275
#
# Static dielectric constant tensor:
#      x y z
#    x 3.341450 0.000000 0.008290 
#    y 0.000000 3.022930 0.000000 
#    z 0.008290 0.000000 3.182240 
# 
# 
# High freq. dielectric constant tensor:
#      x y z
#    x 1.681060 0.000000 -0.000080 
#    y 0.000000 1.657820 0.000000 
#    z -0.000080 0.000000 1.668530 
# 
# From -- ./inp_files/27975.got.cif
#   From: 2010.06.25/outbox.cif.g09.slc.cpg/sg10_14_cif.got.tgz:27975.got - 2010.06.27 22:07:45.
