data_PCOD8057331
_publ_section_title
;
Structure prediction by ZEFSAII (Michael W. Deem and Ramdas Pophale) SiO2 
 PCOD8057331
Probable space group: P 2/M
;
_chemical_formula_sum "Si O2"
_cell_formula_units_Z 32
_cell_length_a 12.294847
_cell_length_b 8.720735
_cell_length_c 20.151679
_cell_angle_alpha 90.000000
_cell_angle_beta 55.400333
_cell_angle_gamma 90.000000
_cell_volume 1778.529146
_symmetry_space_group_name_H-M "P 2/M"
_symmetry_group_IT_number 10
_symmetry_cell_setting 'monoclinic'
loop_
_space_group_symop_operation_xyz
x,y,z
-x,y,-z
-x,-y,-z
x,-y,z
loop_
_atom_site_type_symbol
_atom_site_label
_atom_site_fract_x
_atom_site_fract_y
_atom_site_fract_z
Si Si1 0.841836 0.680873 0.450318
Si Si2 0.939577 0.180591 0.794404
Si Si3 0.121497 0.180604 0.328064
Si Si4 0.898649 0.180547 0.951586
Si Si5 0.226714 0.818737 0.660089
Si Si6 0.309975 0.319646 0.365074
Si Si7 0.392538 0.320957 0.714845
Si Si8 0.172112 0.320897 0.895932
O O1 0.844951 0.500000 0.441309
O O2 0.757733 0.750920 0.418994
O O3 0.769258 0.731955 0.542493
O O4 0.990901 0.741721 0.402925
O O5 0.859546 0.228715 0.756046
O O6 0.867725 0.237559 0.886767
O O7 0.089068 0.246106 0.738058
O O8 0.953103 0.000000 0.794677
O O9 0.250408 0.235540 0.321836
O O10 0.102483 0.000000 0.341251
O O11 0.052130 0.217851 0.911446
O O12 0.874541 0.000000 0.969095
O O13 0.804564 0.273776 0.034952
O O14 0.346300 0.765634 0.664864
O O15 0.226876 0.000000 0.653908
O O16 0.299847 0.500000 0.356724
O O17 0.460709 0.264891 0.319147
O O18 0.389143 0.500000 0.699916
O O19 0.301923 0.279596 0.809317
O O20 0.135994 0.500000 0.903318
#
# Coordination Sequence:
#
# PCOD8057331 Si02
#       8
#     4   4   4   4   4   4   4   4
#     4  10  20  35  55  76 101 132 170 213 259 308
#     4   8  16  30  49  74 102 129 159 203 251 300
#     4  10  20  35  55  79 103 128 167 219 263 297
#     4  10  17  29  50  74 102 134 164 197 250 308
#     4  10  19  33  52  76 105 133 169 211 256 304
#     4  10  22  38  53  72  99 138 179 211 251 308
#     4  10  21  36  52  70 103 143 174 207 251 307
#     4  10  19  30  46  74 105 131 165 208 247 293
#
# _framework density 17.992394999999998
#
# number of rings (size 3 to 8) (size 9 to 14) (size 15 to 20)
#    0.000    2.250    1.250    3.750    0.000    4.000 
#    0.000    4.375    0.000    0.750    0.000    5.250 
#    0.000    0.000    0.000    0.000    0.000    0.000 
#
# Total GULP energy -396746.030446 kJ/mol
# GULP energy per Si atom -12398.313451 kJ/mol
# Density = 1.795144 g / cm^3
# Si number density = 17.992395 Si / 1000 Ang^3
#
#
#
# Elastic Constant Matrix: (Units=GPa)
#
#
# Indices 1 2 3 4 5 6 
#
# 1 122.8724 29.8680 58.1811 0.0000 17.9350 0.0000
# 2 29.8680 47.4701 21.7564 0.0000 7.4167 0.0000
# 3 58.1811 21.7564 79.1971 0.0000 25.2819 0.0000
# 4 0.0000 0.0000 0.0000 20.8691 0.0000 7.6783
# 5 17.9350 7.4167 25.2819 0.0000 25.5218 0.0000
# 6 0.0000 0.0000 0.0000 7.6783 0.0000 26.2702
#
#
#
# Elastic Compliance Matrix: (Units=1/GPa)
#
#
# Indices 1 2 3 4 5 6 
#
# 1 0.013254 -0.004442 -0.008710 0.000000 0.000605 0.000000
# 2 -0.004442 0.025596 -0.003496 0.000000 -0.000854 0.000000
# 3 -0.008710 -0.003496 0.025896 0.000000 -0.018517 0.000000
# 4 0.000000 0.000000 0.000000 0.053692 0.000000 -0.015693
# 5 0.000605 -0.000854 -0.018517 0.000000 0.057348 0.000000
# 6 0.000000 0.000000 0.000000 -0.015693 0.000000 0.042653
#
#
# Mechanical properties :
#
#
# Convention : Reuss Voigt Hill
#
# Bulk Modulus (GPa) = 31.79444 52.12784 41.96114
# Shear Modulus (GPa) = 19.06807 23.84784 21.45796
#
# Velocity S-wave (km/s) = 3.25897 3.64461 3.45717
# Velocity P-wave (km/s) = 5.64540 6.83710 6.26963
#
# Compressibility (1/GPa) = 0.03145204
#
# Stress axis : x y z
#
# Youngs Moduli (GPa) = 75.44782 39.06801 38.61527
#
# Poissons Ratio (x) = 0.17354 0.33633
# Poissons Ratio (y) = 0.33515 0.13499
# Poissons Ratio (z) = 0.65713 0.13657
#
# Static dielectric constant tensor:
#      x y z
#    x 3.229580 0.000000 0.267190 
#    y 0.000000 3.230540 0.000000 
#    z 0.267190 0.000000 3.682780 
# 
# 
# High freq. dielectric constant tensor:
#      x y z
#    x 1.674240 0.000000 0.024180 
#    y 0.000000 1.694720 0.000000 
#    z 0.024180 0.000000 1.699460 
# 
# From -- ./inp_files/83340.got.cif
#   From: 2010.06.25/outbox.cif.g09.slc.cpg/sg10_42_cif.got.tgz:83340.got - 2010.06.27 22:07:45.
