data_PCOD8057136
_publ_section_title
;
Structure prediction by ZEFSAII (Michael W. Deem and Ramdas Pophale) SiO2 
 PCOD8057136
Probable space group: P 2/M
;
_chemical_formula_sum "Si O2"
_cell_formula_units_Z 32
_cell_length_a 29.898155
_cell_length_b 8.554704
_cell_length_c 21.801109
_cell_angle_alpha 90.000000
_cell_angle_beta 18.867901
_cell_angle_gamma 90.000000
_cell_volume 1803.229382
_symmetry_space_group_name_H-M "P 2/M"
_symmetry_group_IT_number 10
_symmetry_cell_setting 'monoclinic'
loop_
_space_group_symop_operation_xyz
x,y,z
-x,y,-z
-x,-y,-z
x,-y,z
loop_
_atom_site_type_symbol
_atom_site_label
_atom_site_fract_x
_atom_site_fract_y
_atom_site_fract_z
Si Si1 0.918892 0.817156 0.166451
Si Si2 0.800795 0.179333 0.771621
Si Si3 0.950668 0.319260 0.477684
Si Si4 0.363928 0.316722 0.503190
Si Si5 0.357577 0.817162 0.906238
Si Si6 0.084638 0.683684 0.061237
Si Si7 0.368460 0.685691 0.635700
Si Si8 0.076362 0.182856 0.204364
O O1 0.756969 0.779064 0.372822
O O2 0.972309 0.722348 0.155614
O O3 0.942365 0.000000 0.146775
O O4 0.000000 0.760379 0.000000
O O5 0.805965 0.280244 0.701310
O O6 0.936075 0.211766 0.636533
O O7 0.795632 0.000000 0.758966
O O8 0.672332 0.220004 0.983005
O O9 0.986586 0.500000 0.438944
O O10 0.955184 0.270823 0.400386
O O11 0.329689 0.500000 0.544947
O O12 0.510026 0.285169 0.281897
O O13 0.370772 0.252729 0.563518
O O14 0.388144 0.000000 0.856615
O O15 0.228759 0.764471 0.030236
O O16 0.086822 0.500000 0.071295
O O17 0.050670 0.772796 0.167681
O O18 0.232030 0.746869 0.846483
O O19 0.500000 0.757748 0.500000
O O20 0.373921 0.500000 0.629226
O O21 0.056845 0.000000 0.239091
#
# Coordination Sequence:
#
# PCOD8057136 Si02
#       8
#     4   4   4   4   4   4   4   4
#     4  11  23  39  57  74  98 131 172 218 264 312
#     4   9  16  28  45  67 101 141 174 207 253 306
#     4  10  17  26  44  71 101 135 176 214 251 298
#     4  11  21  34  54  76 101 133 172 217 262 304
#     4   9  19  33  49  73 107 142 173 209 254 310
#     4  11  21  35  55  76 102 131 172 219 260 305
#     4   9  18  31  48  73 103 132 161 200 254 308
#     4  10  20  34  50  73 108 143 174 208 258 314
#
# _framework density 17.745940999999998
#
# number of rings (size 3 to 8) (size 9 to 14) (size 15 to 20)
#    0.000    2.000    1.250    5.250    0.000    4.500 
#    0.000    0.000    0.000    3.000    0.000    0.875 
#    0.000    7.000    0.000    0.000    0.000    0.000 
#
# Total GULP energy -396734.874946 kJ/mol
# GULP energy per Si atom -12397.964842 kJ/mol
# Density = 1.770555 g / cm^3
# Si number density = 17.745941 Si / 1000 Ang^3
#
#
#
# Elastic Constant Matrix: (Units=GPa)
#
#
# Indices 1 2 3 4 5 6 
#
# 1 94.4058 17.8024 62.2005 0.0000 11.1588 0.0000
# 2 17.8024 47.2061 23.5702 0.0000 8.3585 0.0000
# 3 62.2005 23.5702 64.9406 0.0000 25.5896 0.0000
# 4 0.0000 0.0000 0.0000 27.0463 0.0000 4.0037
# 5 11.1588 8.3585 25.5896 0.0000 33.8105 0.0000
# 6 0.0000 0.0000 0.0000 4.0037 0.0000 20.9728
#
#
#
# Elastic Compliance Matrix: (Units=1/GPa)
#
#
# Indices 1 2 3 4 5 6 
#
# 1 0.037607 0.005158 -0.046310 0.000000 0.021363 0.000000
# 2 0.005158 0.026604 -0.016150 0.000000 0.003944 0.000000
# 3 -0.046310 -0.016150 0.082678 0.000000 -0.043299 0.000000
# 4 0.000000 0.000000 0.000000 0.038049 0.000000 -0.007264
# 5 0.021363 0.003944 -0.043299 0.000000 0.054321 0.000000
# 6 0.000000 0.000000 0.000000 -0.007264 0.000000 0.049068
#
#
# Mechanical properties :
#
#
# Convention : Reuss Voigt Hill
#
# Bulk Modulus (GPa) = 30.97531 45.96653 38.47092
# Shear Modulus (GPa) = 12.08621 23.23121 17.65871
#
# Velocity S-wave (km/s) = 2.61256 3.62207 3.15792
# Velocity P-wave (km/s) = 5.15688 6.59176 5.91797
#
# Compressibility (1/GPa) = 0.03228377
#
# Stress axis : x y z
#
# Youngs Moduli (GPa) = 26.59082 37.58809 12.09505
#
# Poissons Ratio (x) = -0.19388 0.56013
# Poissons Ratio (y) = -0.13715 0.19534
# Poissons Ratio (z) = 1.23143 0.60706
#
# Static dielectric constant tensor:
#      x y z
#    x 3.289320 0.000000 0.417470 
#    y 0.000000 3.145100 0.000000 
#    z 0.417470 0.000000 3.514820 
# 
# 
# High freq. dielectric constant tensor:
#      x y z
#    x 1.664350 0.000000 0.031980 
#    y 0.000000 1.687200 0.000000 
#    z 0.031980 0.000000 1.677860 
# 
# From -- ./inp_files/87193.got.cif
#   From: 2010.06.25/outbox.cif.g09.slc.cpg/sg10_44_cif.got.tgz:87193.got - 2010.06.27 22:07:45.
