data_PCOD8057450
_publ_section_title
;
Structure prediction by ZEFSAII (Michael W. Deem and Ramdas Pophale) SiO2 
 PCOD8057450
Probable space group: P 2/M
;
_chemical_formula_sum "Si O2"
_cell_formula_units_Z 26
_cell_length_a 13.372766
_cell_length_b 10.838658
_cell_length_c 25.366938
_cell_angle_alpha 90.000000
_cell_angle_beta 158.821335
_cell_angle_gamma 90.000000
_cell_volume 1328.328759
_symmetry_space_group_name_H-M "P 2/M"
_symmetry_group_IT_number 10
_symmetry_cell_setting 'monoclinic'
loop_
_space_group_symop_operation_xyz
x,y,z
-x,y,-z
-x,-y,-z
x,-y,z
loop_
_atom_site_type_symbol
_atom_site_label
_atom_site_fract_x
_atom_site_fract_y
_atom_site_fract_z
Si Si1 0.823861 0.500000 0.598822
Si Si2 0.100465 0.858904 0.766782
Si Si3 0.643367 0.761428 0.473752
Si Si4 0.027821 0.766214 0.181262
Si Si5 0.992238 0.142478 0.436153
Si Si6 0.571850 0.500000 0.143178
Si Si7 0.950845 0.500000 0.172567
Si Si8 0.481212 0.767784 0.863998
O O1 0.645899 0.620746 0.496419
O O2 0.103016 0.500000 0.704119
O O3 0.909758 0.500000 0.701906
O O4 0.319845 0.779851 0.840755
O O5 0.800278 0.848928 0.592270
O O6 0.082626 0.805049 0.815984
O O7 0.198767 0.000000 0.816406
O O8 0.332346 0.816141 0.316891
O O9 0.792426 0.772821 0.490271
O O10 0.053499 0.618907 0.191224
O O11 0.797652 0.816247 0.026418
O O12 0.679215 0.157180 0.260045
O O13 0.000000 0.187600 0.500000
O O14 0.080328 0.000000 0.474385
O O15 0.505150 0.622854 0.144062
O O16 0.388189 0.500000 0.998487
#
# Coordination Sequence:
#
# PCOD8057450 Si02
#       8
#     2   4   4   4   4   2   2   4
#     4  12  18  32  57  82 116 154 193 220 262 328
#     4  11  22  34  50  75 112 155 192 222 262 321
#     4  11  22  35  55  84 114 143 187 231 276 325
#     4  11  22  34  53  82 119 153 178 223 271 330
#     4  10  22  43  65  80 101 140 190 241 287 332
#     4  10  17  32  56  83 112 145 189 227 263 316
#     4  10  20  32  51  83 119 158 188 217 257 322
#     4  10  20  37  57  82 112 143 186 227 275 328
#
# _framework density 19.573467999999998
#
# number of rings (size 3 to 8) (size 9 to 14) (size 15 to 20)
#    0.000    1.385    4.615    3.462    0.000    6.769 
#    0.000    2.308    0.000    1.846    0.000    4.308 
#    0.000    0.000    0.000    0.000    0.000    0.000 
#
# Total GULP energy -322259.247048 kJ/mol
# GULP energy per Si atom -12394.586425 kJ/mol
# Density = 1.952892 g / cm^3
# Si number density = 19.573468 Si / 1000 Ang^3
#
#
#
# Elastic Constant Matrix: (Units=GPa)
#
#
# Indices 1 2 3 4 5 6 
#
# 1 68.4186 7.0096 53.1117 0.0000 -9.0088 0.0000
# 2 7.0096 74.2535 -3.0501 0.0000 -4.2347 0.0000
# 3 53.1117 -3.0501 162.1257 0.0000 20.6416 0.0000
# 4 0.0000 0.0000 0.0000 -38.1810 0.0000 -8.6847
# 5 -9.0088 -4.2347 20.6416 0.0000 35.3463 0.0000
# 6 0.0000 0.0000 0.0000 -8.6847 0.0000 11.9485
#
#
#
# Elastic Compliance Matrix: (Units=1/GPa)
#
#
# Indices 1 2 3 4 5 6 
#
# 1 0.023308 -0.001945 -0.009073 0.000000 0.011006 0.000000
# 2 -0.001945 0.013723 0.000809 0.000000 0.000676 0.000000
# 3 -0.009073 0.000809 0.010196 0.000000 -0.008170 0.000000
# 4 0.000000 0.000000 0.000000 -0.022475 0.000000 -0.016336
# 5 0.011006 0.000676 -0.008170 0.000000 0.035949 0.000000
# 6 0.000000 0.000000 0.000000 -0.016336 0.000000 0.071819
#
#
# Mechanical properties :
#
#
# Convention : Reuss Voigt Hill
#
# Bulk Modulus (GPa) = 37.30240 46.54889 41.92564
# Shear Modulus (GPa) = 30.88829 18.33788 24.61308
#
# Velocity S-wave (km/s) = 3.97680 3.06416 3.54993
# Velocity P-wave (km/s) = 6.33921 6.02926 6.18618
#
# Compressibility (1/GPa) = 0.02680793
#
# Stress axis : x y z
#
# Youngs Moduli (GPa) = 42.90378 72.87147 98.07878
#
# Poissons Ratio (x) = 0.14176 0.88992
# Poissons Ratio (y) = 0.08346 -0.07939
# Poissons Ratio (z) = 0.38929 -0.05898
#
# Static dielectric constant tensor:
#      x y z
#    x 3.093980 0.000000 0.042840 
#    y 0.000000 3.721050 0.000000 
#    z 0.042840 0.000000 3.881220 
# 
# 
# High freq. dielectric constant tensor:
#      x y z
#    x 1.700920 0.000000 0.009880 
#    y 0.000000 1.768860 0.000000 
#    z 0.009880 0.000000 1.779060 
# 
# From -- ./inp_files/93232.got.cif
#   From: 2010.06.25/outbox.cif.g09.slc.cpg/sg10_47_cif.got.tgz:93232.got - 2010.06.27 22:07:45.
