data_PCOD8057181
_publ_section_title
;
Structure prediction by ZEFSAII (Michael W. Deem and Ramdas Pophale) SiO2 
 PCOD8057181
Probable space group: P 2/M
;
_chemical_formula_sum "Si O2"
_cell_formula_units_Z 28
_cell_length_a 13.918279
_cell_length_b 8.933481
_cell_length_c 14.410258
_cell_angle_alpha 90.000000
_cell_angle_beta 103.851099
_cell_angle_gamma 90.000000
_cell_volume 1739.650387
_symmetry_space_group_name_H-M "P 2/M"
_symmetry_group_IT_number 10
_symmetry_cell_setting 'monoclinic'
loop_
_space_group_symop_operation_xyz
x,y,z
-x,y,-z
-x,-y,-z
x,-y,z
loop_
_atom_site_type_symbol
_atom_site_label
_atom_site_fract_x
_atom_site_fract_y
_atom_site_fract_z
Si Si1 0.733364 0.830368 0.080347
Si Si2 0.426738 0.677334 0.602219
Si Si3 0.426652 0.829162 0.110302
Si Si4 0.110226 0.178802 0.031522
Si Si5 0.263641 0.176168 0.209888
Si Si6 0.370596 0.822678 0.411646
Si Si7 0.622252 0.325357 0.202596
O O1 0.718842 0.742216 0.173631
O O2 0.758094 0.000000 0.112267
O O3 0.631273 0.819558 0.999824
O O4 0.824387 0.763775 0.040652
O O5 0.444245 0.500000 0.596511
O O6 0.352731 0.736361 0.504372
O O7 0.529810 0.764020 0.614183
O O8 0.378330 0.720933 0.689224
O O9 0.357385 0.759891 0.175100
O O10 0.524247 0.730375 0.128240
O O11 0.457919 0.000000 0.138650
O O12 0.161204 0.235539 0.140178
O O13 0.106660 0.000000 0.028689
O O14 0.000000 0.247228 0.000000
O O15 0.277499 0.215233 0.321973
O O16 0.266247 0.000000 0.193370
O O17 0.379953 0.000000 0.430519
O O18 0.628397 0.500000 0.192515
#
# Coordination Sequence:
#
# PCOD8057181 Si02
#       7
#     4   4   4   4   4   4   4
#     4   9  18  29  44  64  85 113 145 176 212 256
#     4  10  20  30  39  56  86 119 151 183 214 248
#     4   9  16  28  42  58  85 117 146 176 207 248
#     4   8  14  27  47  70  92 111 135 173 221 267
#     4   8  14  24  41  65  89 112 141 175 213 258
#     4  10  17  27  44  63  83 113 149 182 215 249
#     4  11  21  29  39  58  86 120 150 178 212 247
#
# _framework density 16.095186999999999
#
# number of rings (size 3 to 8) (size 9 to 14) (size 15 to 20)
#    0.000    2.714    1.429    4.286    0.000    4.000 
#    0.000    0.000    0.000    0.429    0.000    1.000 
#    0.000    8.000    0.000    0.000    0.000    0.000 
#
# Total GULP energy -346955.786672 kJ/mol
# GULP energy per Si atom -12391.278095 kJ/mol
# Density = 1.605855 g / cm^3
# Si number density = 16.095187 Si / 1000 Ang^3
#
#
#
# Elastic Constant Matrix: (Units=GPa)
#
#
# Indices 1 2 3 4 5 6 
#
# 1 84.8695 19.7454 59.2347 0.0000 -0.4578 0.0000
# 2 19.7454 46.2078 35.5607 0.0000 -7.4757 0.0000
# 3 59.2347 35.5607 110.1313 0.0000 -7.3584 0.0000
# 4 0.0000 0.0000 0.0000 18.9405 0.0000 -9.7535
# 5 -0.4578 -7.4757 -7.3584 0.0000 19.5053 0.0000
# 6 0.0000 0.0000 0.0000 -9.7535 0.0000 3.3793
#
#
#
# Elastic Compliance Matrix: (Units=1/GPa)
#
#
# Indices 1 2 3 4 5 6 
#
# 1 0.019123 -0.000893 -0.010248 0.000000 -0.003760 0.000000
# 2 -0.000893 0.030020 -0.008664 0.000000 0.008216 0.000000
# 3 -0.010248 -0.008664 0.017595 0.000000 0.003077 0.000000
# 4 0.000000 0.000000 0.000000 -0.108576 0.000000 -0.313373
# 5 -0.003760 0.008216 0.003077 0.000000 0.055489 0.000000
# 6 0.000000 0.000000 0.000000 -0.313373 0.000000 -0.608545
#
#
# Mechanical properties :
#
#
# Convention : Reuss Voigt Hill
#
# Bulk Modulus (GPa) = 36.86268 52.25448 44.55858
# Shear Modulus (GPa) = -9.15348 16.80954 3.82803
#
# Velocity S-wave (km/s) = -2.38735 3.23520 1.54387
# Velocity P-wave (km/s) = 3.91834 6.81848 5.56081
#
# Compressibility (1/GPa) = 0.02712771
#
# Stress axis : x y z
#
# Youngs Moduli (GPa) = 52.29278 33.31132 56.83330
#
# Poissons Ratio (x) = 0.02975 0.58245
# Poissons Ratio (y) = 0.04669 0.49240
# Poissons Ratio (z) = 0.53591 0.28861
#
# Static dielectric constant tensor:
#      x y z
#    x 2.925540 0.000000 0.004300 
#    y 0.000000 2.843010 0.000000 
#    z 0.004300 0.000000 3.368880 
# 
# 
# High freq. dielectric constant tensor:
#      x y z
#    x 1.574350 0.000000 -0.008200 
#    y 0.000000 1.597660 0.000000 
#    z -0.008200 0.000000 1.623950 
# 
# From -- ./inp_files/65781.got.cif
#   From: 2010.06.25/outbox.cif.g09.slc.cpg/sg10_33_cif.got.tgz:65781.got - 2010.06.27 22:07:45.
