data_PCOD8057739
_publ_section_title
;
Structure prediction by ZEFSAII (Michael W. Deem and Ramdas Pophale) SiO2 
 PCOD8057739
Probable space group: P 2/M
;
_chemical_formula_sum "Si O2"
_cell_formula_units_Z 32
_cell_length_a 21.073216
_cell_length_b 9.901688
_cell_length_c 11.520745
_cell_angle_alpha 90.000000
_cell_angle_beta 52.244838
_cell_angle_gamma 90.000000
_cell_volume 1900.624548
_symmetry_space_group_name_H-M "P 2/M"
_symmetry_group_IT_number 10
_symmetry_cell_setting 'monoclinic'
loop_
_space_group_symop_operation_xyz
x,y,z
-x,y,-z
-x,-y,-z
x,-y,z
loop_
_atom_site_type_symbol
_atom_site_label
_atom_site_fract_x
_atom_site_fract_y
_atom_site_fract_z
Si Si1 0.228918 0.340212 0.099902
Si Si2 0.572895 0.659450 0.492765
Si Si3 0.003791 0.152176 0.807178
Si Si4 0.545558 0.660644 0.779020
Si Si5 0.379651 0.660663 0.070906
Si Si6 0.951525 0.345653 0.671707
Si Si7 0.130649 0.152540 0.853560
Si Si8 0.258760 0.658719 0.804265
O O1 0.235611 0.500000 0.096128
O O2 0.296752 0.278896 0.110590
O O3 0.140242 0.292537 0.239469
O O4 0.245983 0.290145 0.950013
O O5 0.500000 0.721784 0.500000
O O6 0.562148 0.500000 0.514889
O O7 0.572666 0.720245 0.623941
O O8 0.652577 0.697760 0.334755
O O9 0.000726 0.257548 0.707143
O O10 0.088584 0.170972 0.776365
O O11 0.996368 0.000000 0.766757
O O12 0.932286 0.183480 0.975020
O O13 0.547640 0.500000 0.775421
O O14 0.606435 0.712031 0.812143
O O15 0.454776 0.709006 0.908161
O O16 0.375701 0.500000 0.073834
O O17 0.949930 0.500000 0.717777
O O18 0.000000 0.331699 0.500000
O O19 0.200908 0.261128 0.782566
O O20 0.164095 0.000000 0.828315
O O21 0.241067 0.500000 0.811193
#
# Coordination Sequence:
#
# PCOD8057739 Si02
#       8
#     4   4   4   4   4   4   4   4
#     4   9  16  27  41  59  87 120 154 186 226 281
#     4   9  16  25  38  62  96 125 152 190 232 276
#     4   9  18  34  54  71  90 122 162 200 241 287
#     4   8  13  22  35  55  83 116 156 189 219 267
#     4   8  13  22  38  55  78 119 157 186 222 266
#     4  10  20  33  47  69 100 129 155 193 245 287
#     4   9  18  33  52  72  93 121 158 201 244 284
#     4  10  18  28  46  71  95 125 158 191 239 286
#
# _framework density 16.836572
#
# number of rings (size 3 to 8) (size 9 to 14) (size 15 to 20)
#    0.000    3.000    1.250    2.250    0.000    3.750 
#    2.250    1.250    0.000    0.375    0.000    0.000 
#    0.000    0.000    0.000    5.875    0.000    6.000 
#
# Total GULP energy -396627.861344 kJ/mol
# GULP energy per Si atom -12394.620667 kJ/mol
# Density = 1.679825 g / cm^3
# Si number density = 16.836572 Si / 1000 Ang^3
#
#
#
# Elastic Constant Matrix: (Units=GPa)
#
#
# Indices 1 2 3 4 5 6 
#
# 1 131.2938 41.2562 62.2436 0.0000 -3.7493 0.0000
# 2 41.2562 40.5628 24.7088 0.0000 -0.6241 0.0000
# 3 62.2436 24.7088 108.8296 0.0000 -0.7958 0.0000
# 4 0.0000 0.0000 0.0000 7.3677 0.0000 4.2374
# 5 -3.7493 -0.6241 -0.7958 0.0000 25.8672 0.0000
# 6 0.0000 0.0000 0.0000 4.2374 0.0000 12.9119
#
#
#
# Elastic Compliance Matrix: (Units=1/GPa)
#
#
# Indices 1 2 3 4 5 6 
#
# 1 0.013457 -0.010424 -0.005319 0.000000 0.001535 0.000000
# 2 -0.010424 0.036690 -0.002374 0.000000 -0.000699 0.000000
# 3 -0.005319 -0.002374 0.012766 0.000000 -0.000435 0.000000
# 4 0.000000 0.000000 0.000000 0.167305 0.000000 -0.054906
# 5 0.001535 -0.000699 -0.000435 0.000000 0.038851 0.000000
# 6 0.000000 0.000000 0.000000 -0.054906 0.000000 0.095467
#
#
# Mechanical properties :
#
#
# Convention : Reuss Voigt Hill
#
# Bulk Modulus (GPa) = 37.47907 59.67814 48.57861
# Shear Modulus (GPa) = 12.20514 19.39453 15.79984
#
# Velocity S-wave (km/s) = 2.69535 3.39769 3.06669
# Velocity P-wave (km/s) = 5.65645 7.13547 6.43857
#
# Compressibility (1/GPa) = 0.02668156
#
# Stress axis : x y z
#
# Youngs Moduli (GPa) = 74.30866 27.25520 78.33025
#
# Poissons Ratio (x) = 0.28410 0.41663
# Poissons Ratio (y) = 0.77458 0.18592
# Poissons Ratio (z) = 0.39524 0.06469
#
# Static dielectric constant tensor:
#      x y z
#    x 3.496640 0.000000 0.038720 
#    y 0.000000 2.655380 0.000000 
#    z 0.038720 0.000000 3.195630 
# 
# 
# High freq. dielectric constant tensor:
#      x y z
#    x 1.660610 0.000000 0.001240 
#    y 0.000000 1.588180 0.000000 
#    z 0.001240 0.000000 1.644180 
# 
# From -- ./inp_files/55246.got.cif
#   From: 2010.06.25/outbox.cif.g09.slc.cpg/sg10_28_cif.got.tgz:55246.got - 2010.06.27 22:07:45.
