data_PCOD8057889
_publ_section_title
;
Structure prediction by ZEFSAII (Michael W. Deem and Ramdas Pophale) SiO2 
 PCOD8057889
Probable space group: P 2/M
;
_chemical_formula_sum "Si O2"
_cell_formula_units_Z 24
_cell_length_a 11.871561
_cell_length_b 24.548047
_cell_length_c 5.238919
_cell_angle_alpha 90.000000
_cell_angle_beta 57.532884
_cell_angle_gamma 90.000000
_cell_volume 1288.114128
_symmetry_space_group_name_H-M "P 2/M"
_symmetry_group_IT_number 10
_symmetry_cell_setting 'monoclinic'
loop_
_space_group_symop_operation_xyz
x,y,z
-x,y,-z
-x,-y,-z
x,-y,z
loop_
_atom_site_type_symbol
_atom_site_label
_atom_site_fract_x
_atom_site_fract_y
_atom_site_fract_z
Si Si1 0.256536 0.245980 0.275114
Si Si2 0.088821 0.500000 0.142782
Si Si3 0.341839 0.939149 0.691498
Si Si4 0.658592 0.124979 0.808648
Si Si5 0.000000 0.300995 0.500000
Si Si6 0.135935 0.615599 0.986832
Si Si7 0.350258 0.696472 0.643066
O O1 0.263838 0.181331 0.257273
O O2 0.349836 0.266213 0.391967
O O3 0.102137 0.262519 0.533397
O O4 0.302311 0.269091 0.945575
O O5 0.177873 0.555469 0.039674
O O6 0.000000 0.500000 0.500000
O O7 0.000000 0.500000 0.000000
O O8 0.500000 0.942815 0.500000
O O9 0.292974 0.904194 0.509035
O O10 0.281100 0.000000 0.747524
O O11 0.294256 0.911778 0.011766
O O12 0.500000 0.135382 0.000000
O O13 0.895663 0.340226 0.762939
O O14 0.261011 0.642441 0.688127
O O15 0.000000 0.607980 0.000000
O O16 0.500000 0.675421 0.500000
#
# Coordination Sequence:
#
# PCOD8057889 Si02
#       7
#     4   2   4   4   2   4   4
#     4  11  22  35  54  77 110 141 183 217 270 318
#     4  10  20  32  57  82 105 134 183 228 269 308
#     4   9  17  29  46  69  98 131 168 209 257 311
#     4  10  18  29  46  71 101 131 165 210 262 314
#     4  10  20  35  56  78 105 140 180 228 264 314
#     4  10  19  36  55  80 108 140 182 226 268 317
#     4  11  22  35  54  78 111 146 179 217 274 331
#
# _framework density 18.631889999999999
#
# number of rings (size 3 to 8) (size 9 to 14) (size 15 to 20)
#    0.000    1.833    2.500    3.000    0.000    3.333 
#    0.000    0.417    0.000    0.000    0.000    9.333 
#    0.000    0.000    0.000    0.000    0.000    0.000 
#
# Total GULP energy -297392.253110 kJ/mol
# GULP energy per Si atom -12391.343880 kJ/mol
# Density = 1.858948 g / cm^3
# Si number density = 18.631890 Si / 1000 Ang^3
#
#
#
# Elastic Constant Matrix: (Units=GPa)
#
#
# Indices 1 2 3 4 5 6 
#
# 1 73.5915 44.8315 28.0651 0.0000 4.9526 0.0000
# 2 44.8315 173.4620 45.6339 0.0000 1.9507 0.0000
# 3 28.0651 45.6339 64.6582 0.0000 27.2039 0.0000
# 4 0.0000 0.0000 0.0000 24.8834 0.0000 0.4222
# 5 4.9526 1.9507 27.2039 0.0000 35.1345 0.0000
# 6 0.0000 0.0000 0.0000 0.4222 0.0000 21.9459
#
#
#
# Elastic Compliance Matrix: (Units=1/GPa)
#
#
# Indices 1 2 3 4 5 6 
#
# 1 0.017760 -0.002764 -0.007073 0.000000 0.003127 0.000000
# 2 -0.002764 0.008201 -0.006764 0.000000 0.005171 0.000000
# 3 -0.007073 -0.006764 0.033715 0.000000 -0.024732 0.000000
# 4 0.000000 0.000000 0.000000 0.040201 0.000000 -0.000773
# 5 0.003127 0.005171 -0.024732 0.000000 0.046884 0.000000
# 6 0.000000 0.000000 0.000000 -0.000773 0.000000 0.045581
#
#
# Mechanical properties :
#
#
# Convention : Reuss Voigt Hill
#
# Bulk Modulus (GPa) = 37.77359 60.97473 49.37416
# Shear Modulus (GPa) = 21.33400 29.27152 25.30276
#
# Velocity S-wave (km/s) = 3.38749 3.96794 3.68915
# Velocity P-wave (km/s) = 5.96806 7.33415 6.68609
#
# Compressibility (1/GPa) = 0.02647352
#
# Stress axis : x y z
#
# Youngs Moduli (GPa) = 56.30780 121.94237 29.66016
#
# Poissons Ratio (x) = 0.33710 0.20979
# Poissons Ratio (y) = 0.15566 0.20061
# Poissons Ratio (z) = 0.39826 0.82476
#
# Static dielectric constant tensor:
#      x y z
#    x 3.453310 0.000000 0.025210 
#    y 0.000000 3.924950 0.000000 
#    z 0.025210 0.000000 3.387320 
# 
# 
# High freq. dielectric constant tensor:
#      x y z
#    x 1.696440 0.000000 0.024900 
#    y 0.000000 1.737150 0.000000 
#    z 0.024900 0.000000 1.711800 
# 
# From -- ./inp_files/7495.got.cif
#   From: 2010.06.25/outbox.cif.g09.slc.cpg/sg10_4_cif.got.tgz:7495.got - 2010.06.27 22:07:45.
