data_PCOD8057467
_publ_section_title
;
Structure prediction by ZEFSAII (Michael W. Deem and Ramdas Pophale) SiO2 
 PCOD8057467
Probable space group: P 2/M
;
_chemical_formula_sum "Si O2"
_cell_formula_units_Z 30
_cell_length_a 5.323114
_cell_length_b 12.594802
_cell_length_c 25.668249
_cell_angle_alpha 90.000000
_cell_angle_beta 81.583086
_cell_angle_gamma 90.000000
_cell_volume 1702.355536
_symmetry_space_group_name_H-M "P 2/M"
_symmetry_group_IT_number 10
_symmetry_cell_setting 'monoclinic'
loop_
_space_group_symop_operation_xyz
x,y,z
-x,y,-z
-x,-y,-z
x,-y,z
loop_
_atom_site_type_symbol
_atom_site_label
_atom_site_fract_x
_atom_site_fract_y
_atom_site_fract_z
Si Si1 0.105111 0.873625 0.207770
Si Si2 0.581085 0.298649 0.556417
Si Si3 0.477754 0.380728 0.663668
Si Si4 0.000000 0.180257 0.500000
Si Si5 0.647247 0.125766 0.147611
Si Si6 0.220814 0.882085 0.593335
Si Si7 0.729548 0.873368 0.028990
Si Si8 0.963354 0.749346 0.684223
O O1 0.375889 0.834389 0.177208
O O2 0.060776 0.818717 0.263790
O O3 0.879831 0.835030 0.176405
O O4 0.100193 0.000000 0.215458
O O5 0.500000 0.329333 0.500000
O O6 0.534338 0.391712 0.599330
O O7 0.869319 0.262753 0.543791
O O8 0.458301 0.195412 0.587642
O O9 0.472736 0.500000 0.686269
O O10 0.705081 0.316412 0.683992
O O11 0.204616 0.328490 0.682639
O O12 0.840424 0.106146 0.466612
O O13 0.687542 0.171503 0.088392
O O14 0.647178 0.000000 0.145331
O O15 0.998725 0.832322 0.635695
O O16 0.290030 0.000000 0.611750
O O17 0.729836 0.000000 0.028739
O O18 0.500000 0.830454 0.000000
O O19 0.000000 0.830427 0.000000
#
# Coordination Sequence:
#
# PCOD8057467 Si02
#       8
#     4   4   4   2   4   4   4   4
#     4  10  19  32  50  72 102 136 171 213 253 294
#     4   9  20  35  52  74 103 123 159 195 238 303
#     4  11  23  41  59  76  96 124 159 206 257 305
#     4  10  17  34  49  72 100 126 157 194 241 296
#     4   9  17  28  43  67  98 137 181 216 249 287
#     4  10  20  32  50  73 102 133 159 194 242 298
#     4   9  15  23  37  59  91 133 181 225 248 267
#     4  11  22  39  55  78 100 126 168 209 249 305
#
# _framework density 17.622641000000002
#
# number of rings (size 3 to 8) (size 9 to 14) (size 15 to 20)
#    0.000    2.133    1.333    2.600    0.000    6.400 
#    0.000    1.667    0.000    0.000    0.000    0.000 
#    0.000    0.000    0.000    0.000    0.000  168.000 
#
# Total GULP energy -371688.768152 kJ/mol
# GULP energy per Si atom -12389.625605 kJ/mol
# Density = 1.758253 g / cm^3
# Si number density = 17.622641 Si / 1000 Ang^3
#
#
#
# Elastic Constant Matrix: (Units=GPa)
#
#
# Indices 1 2 3 4 5 6 
#
# 1 128.8497 20.2598 50.1386 0.0000 -0.7367 0.0000
# 2 20.2598 52.7064 20.8486 0.0000 0.7341 0.0000
# 3 50.1386 20.8486 123.5922 0.0000 -0.2863 0.0000
# 4 0.0000 0.0000 0.0000 7.0217 0.0000 -0.6980
# 5 -0.7367 0.7341 -0.2863 0.0000 29.7145 0.0000
# 6 0.0000 0.0000 0.0000 -0.6980 0.0000 13.4054
#
#
#
# Elastic Compliance Matrix: (Units=1/GPa)
#
#
# Indices 1 2 3 4 5 6 
#
# 1 0.009465 -0.002275 -0.003455 0.000000 0.000258 0.000000
# 2 -0.002275 0.020885 -0.002602 0.000000 -0.000597 0.000000
# 3 -0.003455 -0.002602 0.009932 0.000000 0.000074 0.000000
# 4 0.000000 0.000000 0.000000 0.143156 0.000000 0.007454
# 5 0.000258 -0.000597 0.000074 0.000000 0.033675 0.000000
# 6 0.000000 0.000000 0.000000 0.007454 0.000000 0.074985
#
#
# Mechanical properties :
#
#
# Convention : Reuss Voigt Hill
#
# Bulk Modulus (GPa) = 42.34070 54.18250 48.26160
# Shear Modulus (GPa) = 15.79108 24.28841 20.03974
#
# Velocity S-wave (km/s) = 2.99669 3.71651 3.37584
# Velocity P-wave (km/s) = 6.00433 7.01636 6.52998
#
# Compressibility (1/GPa) = 0.02361794
#
# Stress axis : x y z
#
# Youngs Moduli (GPa) = 105.65601 47.88157 100.68607
#
# Poissons Ratio (x) = 0.10893 0.34790
# Poissons Ratio (y) = 0.24036 0.26194
# Poissons Ratio (z) = 0.36507 0.12457
#
# Static dielectric constant tensor:
#      x y z
#    x 3.506400 0.000000 -0.020570 
#    y 0.000000 2.818280 0.000000 
#    z -0.020570 0.000000 3.461000 
# 
# 
# High freq. dielectric constant tensor:
#      x y z
#    x 1.696740 0.000000 -0.005510 
#    y 0.000000 1.623790 0.000000 
#    z -0.005510 0.000000 1.681590 
# 
# From -- ./inp_files/13202.got.cif
#   From: 2010.06.25/outbox.cif.g09.slc.cpg/sg10_7_cif.got.tgz:13202.got - 2010.06.27 22:07:45.
