data_PCOD8057840
_publ_section_title
;
Structure prediction by ZEFSAII (Michael W. Deem and Ramdas Pophale) SiO2 
 PCOD8057840
Probable space group: P 2/M
;
_chemical_formula_sum "Si O2"
_cell_formula_units_Z 32
_cell_length_a 12.427224
_cell_length_b 9.110262
_cell_length_c 17.536670
_cell_angle_alpha 90.000000
_cell_angle_beta 77.511963
_cell_angle_gamma 90.000000
_cell_volume 1938.446098
_symmetry_space_group_name_H-M "P 2/M"
_symmetry_group_IT_number 10
_symmetry_cell_setting 'monoclinic'
loop_
_space_group_symop_operation_xyz
x,y,z
-x,y,-z
-x,-y,-z
x,-y,z
loop_
_atom_site_type_symbol
_atom_site_label
_atom_site_fract_x
_atom_site_fract_y
_atom_site_fract_z
Si Si1 0.467514 0.827920 0.923107
Si Si2 0.125766 0.837164 0.507553
Si Si3 0.940711 0.668700 0.343844
Si Si4 0.164340 0.171563 0.339391
Si Si5 0.693529 0.829498 0.822566
Si Si6 0.904962 0.332257 0.178206
Si Si7 0.147777 0.672561 0.085883
Si Si8 0.775032 0.174489 0.073545
O O1 0.563727 0.791282 0.847537
O O2 0.350642 0.765641 0.912391
O O3 0.452662 0.000000 0.936159
O O4 0.500000 0.758123 0.000000
O O5 0.140453 0.732764 0.578406
O O6 0.194051 0.781627 0.422312
O O7 0.000000 0.836936 0.500000
O O8 0.163782 0.000000 0.526060
O O9 0.962182 0.500000 0.359233
O O10 0.882492 0.690487 0.271391
O O11 0.058758 0.745639 0.323129
O O12 0.267902 0.207374 0.269251
O O13 0.133963 0.000000 0.343658
O O14 0.757518 0.733023 0.873957
O O15 0.714793 0.000000 0.839695
O O16 0.882014 0.500000 0.157325
O O17 0.822252 0.224851 0.147388
O O18 0.030594 0.289908 0.140760
O O19 0.165045 0.500000 0.072037
O O20 0.152533 0.751867 0.003708
O O21 0.783299 0.000000 0.065266
#
# Coordination Sequence:
#
# PCOD8057840 Si02
#       8
#     4   4   4   4   4   4   4   4
#     4   9  17  32  51  71  95 118 152 204 246 272
#     4   8  15  27  41  64  96 124 152 189 229 272
#     4  10  18  29  45  66  94 129 158 184 230 282
#     4   9  17  28  45  69  96 124 155 191 231 276
#     4  10  18  31  52  72  94 127 161 193 235 284
#     4  10  22  36  47  66  99 130 156 196 240 276
#     4  11  21  34  49  68  98 129 156 194 240 278
#     4  11  22  35  52  71  90 123 166 201 234 282
#
# _framework density 16.508067
#
# number of rings (size 3 to 8) (size 9 to 14) (size 15 to 20)
#    0.000    2.250    2.500    2.250    0.000    5.750 
#    0.000    1.875    0.000    0.000    0.000    0.875 
#    0.000    7.000    0.000    0.000    0.000    0.000 
#
# Total GULP energy -396718.425070 kJ/mol
# GULP energy per Si atom -12397.450783 kJ/mol
# Density = 1.647049 g / cm^3
# Si number density = 16.508067 Si / 1000 Ang^3
#
#
#
# Elastic Constant Matrix: (Units=GPa)
#
#
# Indices 1 2 3 4 5 6 
#
# 1 57.3065 27.8776 35.1856 0.0000 2.3579 0.0000
# 2 27.8776 62.8059 43.9755 0.0000 2.2311 0.0000
# 3 35.1856 43.9755 125.0411 0.0000 -10.0685 0.0000
# 4 0.0000 0.0000 0.0000 27.5614 0.0000 3.5846
# 5 2.3579 2.2311 -10.0685 0.0000 19.6944 0.0000
# 6 0.0000 0.0000 0.0000 3.5846 0.0000 11.1476
#
#
#
# Elastic Compliance Matrix: (Units=1/GPa)
#
#
# Indices 1 2 3 4 5 6 
#
# 1 0.023964 -0.007317 -0.004520 0.000000 -0.004351 0.000000
# 2 -0.007317 0.024176 -0.006876 0.000000 -0.005378 0.000000
# 3 -0.004520 -0.006876 0.012300 0.000000 0.007608 0.000000
# 4 0.000000 0.000000 0.000000 0.037866 0.000000 -0.012176
# 5 -0.004351 -0.005378 0.007608 0.000000 0.055796 0.000000
# 6 0.000000 0.000000 0.000000 -0.012176 0.000000 0.093621
#
#
# Mechanical properties :
#
#
# Convention : Reuss Voigt Hill
#
# Bulk Modulus (GPa) = 43.45506 51.02564 47.24035
# Shear Modulus (GPa) = 17.07527 20.88835 18.98181
#
# Velocity S-wave (km/s) = 3.21963 3.56102 3.39462
# Velocity P-wave (km/s) = 6.34051 6.91986 6.63651
#
# Compressibility (1/GPa) = 0.02301228
#
# Stress axis : x y z
#
# Youngs Moduli (GPa) = 41.72921 41.36379 81.29887
#
# Poissons Ratio (x) = 0.30267 0.36749
# Poissons Ratio (y) = 0.30535 0.55904
# Poissons Ratio (z) = 0.18862 0.28443
#
# Static dielectric constant tensor:
#      x y z
#    x 2.929000 0.000000 -0.196450 
#    y 0.000000 3.057420 0.000000 
#    z -0.196450 0.000000 3.492280 
# 
# 
# High freq. dielectric constant tensor:
#      x y z
#    x 1.596070 0.000000 -0.011530 
#    y 0.000000 1.630030 0.000000 
#    z -0.011530 0.000000 1.645080 
# 
# From -- ./inp_files/52766.got.cif
#   From: 2010.06.25/outbox.cif.g09.slc.cpg/sg10_27_cif.got.tgz:52766.got - 2010.06.27 22:07:45.
