data_PCOD8057247
_publ_section_title
;
Structure prediction by ZEFSAII (Michael W. Deem and Ramdas Pophale) SiO2 
 PCOD8057247
Probable space group: P 2/M
;
_chemical_formula_sum "Si O2"
_cell_formula_units_Z 32
_cell_length_a 30.308803
_cell_length_b 8.883956
_cell_length_c 24.089247
_cell_angle_alpha 90.000000
_cell_angle_beta 16.057470
_cell_angle_gamma 90.000000
_cell_volume 1794.125360
_symmetry_space_group_name_H-M "P 2/M"
_symmetry_group_IT_number 10
_symmetry_cell_setting 'monoclinic'
loop_
_space_group_symop_operation_xyz
x,y,z
-x,y,-z
-x,-y,-z
x,-y,z
loop_
_atom_site_type_symbol
_atom_site_label
_atom_site_fract_x
_atom_site_fract_y
_atom_site_fract_z
Si Si1 0.785165 0.177803 0.999904
Si Si2 0.360813 0.824993 0.030180
Si Si3 0.090439 0.175446 0.267252
Si Si4 0.903342 0.823381 0.167949
Si Si5 0.040103 0.820745 0.777716
Si Si6 0.136882 0.669730 0.380226
Si Si7 0.442630 0.823256 0.383823
Si Si8 0.634138 0.321801 0.637978
O O1 0.599234 0.226509 0.229190
O O2 0.795052 0.000000 0.984647
O O3 0.865135 0.241309 0.847004
O O4 0.880861 0.234673 0.938352
O O5 0.239850 0.792448 0.126250
O O6 0.287571 0.765380 0.176541
O O7 0.399435 0.000000 0.989626
O O8 0.523762 0.735594 0.821586
O O9 0.931969 0.260116 0.479821
O O10 0.049531 0.000000 0.315224
O O11 0.969055 0.762324 0.147536
O O12 0.715114 0.785664 0.389402
O O13 0.932977 0.000000 0.130458
O O14 0.000000 0.746948 0.000000
O O15 0.190892 0.747594 0.564883
O O16 0.061500 0.000000 0.750071
O O17 0.192788 0.500000 0.324171
O O18 0.000000 0.676462 0.500000
O O19 0.441772 0.732587 0.327919
O O20 0.447484 0.000000 0.362450
O O21 0.644750 0.500000 0.625963
#
# Coordination Sequence:
#
# PCOD8057247 Si02
#       8
#     4   4   4   4   4   4   4   4
#     4   9  16  29  49  72  94 125 166 205 240 287
#     4  10  17  28  47  68  92 124 163 203 245 287
#     4   9  16  27  44  65  91 122 160 198 241 292
#     4   8  14  26  47  74 102 131 162 196 235 281
#     4   9  18  32  50  69  96 130 164 199 242 290
#     4   9  17  27  39  63  97 126 157 197 244 290
#     4   9  16  30  50  71  96 127 163 201 240 286
#     4  11  20  30  46  70  98 125 161 205 249 291
#
# _framework density 17.835988
#
# number of rings (size 3 to 8) (size 9 to 14) (size 15 to 20)
#    0.000    2.750    1.250    2.625    0.000    2.000 
#    0.000    1.875    0.000   10.500    0.000    5.250 
#    0.000    8.000    0.000    0.000    0.000    0.000 
#
# Total GULP energy -396676.128613 kJ/mol
# GULP energy per Si atom -12396.129019 kJ/mol
# Density = 1.779539 g / cm^3
# Si number density = 17.835988 Si / 1000 Ang^3
#
#
#
# Elastic Constant Matrix: (Units=GPa)
#
#
# Indices 1 2 3 4 5 6 
#
# 1 88.4734 18.4415 70.3131 0.0000 -4.5951 0.0000
# 2 18.4415 56.3486 31.8575 0.0000 -0.4697 0.0000
# 3 70.3131 31.8575 140.5519 0.0000 7.8620 0.0000
# 4 0.0000 0.0000 0.0000 10.6562 0.0000 -1.1303
# 5 -4.5951 -0.4697 7.8620 0.0000 31.3974 0.0000
# 6 0.0000 0.0000 0.0000 -1.1303 0.0000 7.7580
#
#
#
# Elastic Compliance Matrix: (Units=1/GPa)
#
#
# Indices 1 2 3 4 5 6 
#
# 1 0.019655 -0.000756 -0.009961 0.000000 0.005360 0.000000
# 2 -0.000756 0.020452 -0.004329 0.000000 0.001279 0.000000
# 3 -0.009961 -0.004329 0.013351 0.000000 -0.004866 0.000000
# 4 0.000000 0.000000 0.000000 0.095315 0.000000 0.013887
# 5 0.005360 0.001279 -0.004866 0.000000 0.033872 0.000000
# 6 0.000000 0.000000 0.000000 0.013887 0.000000 0.130923
#
#
# Mechanical properties :
#
#
# Convention : Reuss Voigt Hill
#
# Bulk Modulus (GPa) = 42.79693 58.51089 50.65391
# Shear Modulus (GPa) = 14.22673 20.94644 17.58658
#
# Velocity S-wave (km/s) = 2.82732 3.43066 3.14350
# Velocity P-wave (km/s) = 5.89110 6.96913 6.45267
#
# Compressibility (1/GPa) = 0.02336616
#
# Stress axis : x y z
#
# Youngs Moduli (GPa) = 50.87647 48.89434 74.89814
#
# Poissons Ratio (x) = 0.03698 0.74608
# Poissons Ratio (y) = 0.03848 0.32423
# Poissons Ratio (z) = 0.50680 0.21166
#
# Static dielectric constant tensor:
#      x y z
#    x 3.276500 0.000000 0.079160 
#    y 0.000000 3.037030 0.000000 
#    z 0.079160 0.000000 3.546120 
# 
# 
# High freq. dielectric constant tensor:
#      x y z
#    x 1.655900 0.000000 0.007410 
#    y 0.000000 1.662680 0.000000 
#    z 0.007410 0.000000 1.696050 
# 
# From -- ./inp_files/86094.got.cif
#   From: 2010.06.25/outbox.cif.g09.slc.cpg/sg10_44_cif.got.tgz:86094.got - 2010.06.27 22:07:45.
