data_PCOD8057800
_publ_section_title
;
Structure prediction by ZEFSAII (Michael W. Deem and Ramdas Pophale) SiO2 
 PCOD8057800
Probable space group: P 2/M
;
_chemical_formula_sum "Si O2"
_cell_formula_units_Z 26
_cell_length_a 13.265714
_cell_length_b 12.624483
_cell_length_c 26.952007
_cell_angle_alpha 90.000000
_cell_angle_beta 159.185329
_cell_angle_gamma 90.000000
_cell_volume 1603.936477
_symmetry_space_group_name_H-M "P 2/M"
_symmetry_group_IT_number 10
_symmetry_cell_setting 'monoclinic'
loop_
_space_group_symop_operation_xyz
x,y,z
-x,y,-z
-x,-y,-z
x,-y,z
loop_
_atom_site_type_symbol
_atom_site_label
_atom_site_fract_x
_atom_site_fract_y
_atom_site_fract_z
Si Si1 0.267445 0.204370 0.744913
Si Si2 0.195889 0.221546 0.542540
Si Si3 0.087487 0.000000 0.918692
Si Si4 0.467060 0.883245 0.931526
Si Si5 0.489875 0.000000 0.684930
Si Si6 0.333249 0.620039 0.212168
Si Si7 0.469705 0.000000 0.182612
Si Si8 0.689611 0.619957 0.914452
O O1 0.241262 0.172379 0.790886
O O2 0.492652 0.298533 0.851976
O O3 0.974052 0.246177 0.586559
O O4 0.355937 0.105444 0.751039
O O5 0.464469 0.299332 0.665954
O O6 0.000000 0.244771 0.500000
O O7 0.294661 0.100858 0.586341
O O8 0.225436 0.103798 0.955012
O O9 0.747054 0.000000 0.763077
O O10 0.177836 0.000000 0.017945
O O11 0.337779 0.000000 0.883008
O O12 0.500000 0.823502 0.000000
O O13 0.606027 0.000000 0.794438
O O14 0.428551 0.500000 0.268009
O O15 0.347288 0.642239 0.160468
O O16 0.010429 0.639355 0.080567
O O17 0.598149 0.500000 0.884903
#
# Coordination Sequence:
#
# PCOD8057800 Si02
#       8
#     4   4   2   4   2   4   2   4
#     4  11  19  32  50  72  99 133 165 194 250 293
#     4  12  22  30  43  69 107 147 158 190 238 292
#     4   8  18  29  47  72  86 132 168 199 235 280
#     4   8  17  34  55  72  91 119 166 216 253 282
#     4  12  21  29  41  68 116 135 159 186 231 308
#     4   9  19  33  47  66  98 137 175 206 229 268
#     4  10  18  29  43  69 103 133 162 195 226 281
#     4   9  18  32  49  70  96 130 172 211 237 274
#
# _framework density 16.210118999999999
#
# number of rings (size 3 to 8) (size 9 to 14) (size 15 to 20)
#    0.462    1.692    3.846    1.846    4.308    0.923 
#    0.000    0.000    0.000    2.308    0.000    0.000 
#    0.000    2.462    0.000    0.000    0.000    0.000 
#
# Total GULP energy -322198.800637 kJ/mol
# GULP energy per Si atom -12392.261563 kJ/mol
# Density = 1.617322 g / cm^3
# Si number density = 16.210119 Si / 1000 Ang^3
#
#
#
# Elastic Constant Matrix: (Units=GPa)
#
#
# Indices 1 2 3 4 5 6 
#
# 1 68.1897 13.6706 40.6462 0.0000 -21.6833 0.0000
# 2 13.6706 85.1583 44.8617 0.0000 -4.7634 0.0000
# 3 40.6462 44.8617 100.0161 0.0000 -15.6672 0.0000
# 4 0.0000 0.0000 0.0000 9.2983 0.0000 3.8609
# 5 -21.6833 -4.7634 -15.6672 0.0000 22.4263 0.0000
# 6 0.0000 0.0000 0.0000 3.8609 0.0000 11.4477
#
#
#
# Elastic Compliance Matrix: (Units=1/GPa)
#
#
# Indices 1 2 3 4 5 6 
#
# 1 0.025124 0.001096 -0.007703 0.000000 0.019143 0.000000
# 2 0.001096 0.015485 -0.007534 0.000000 -0.000915 0.000000
# 3 -0.007703 -0.007534 0.016945 0.000000 0.002790 0.000000
# 4 0.000000 0.000000 0.000000 0.125060 0.000000 -0.042178
# 5 0.019143 -0.000915 0.002790 0.000000 0.064854 0.000000
# 6 0.000000 0.000000 0.000000 -0.042178 0.000000 0.101579
#
#
# Mechanical properties :
#
#
# Convention : Reuss Voigt Hill
#
# Bulk Modulus (GPa) = 34.16369 50.19124 42.17747
# Shear Modulus (GPa) = 12.91699 18.91352 15.91525
#
# Velocity S-wave (km/s) = 2.82591 3.41951 3.13678
# Velocity P-wave (km/s) = 5.63640 6.82795 6.26058
#
# Compressibility (1/GPa) = 0.02927084
#
# Stress axis : x y z
#
# Youngs Moduli (GPa) = 39.80235 64.57932 59.01308
#
# Poissons Ratio (x) = -0.07075 0.45458
# Poissons Ratio (y) = -0.04361 0.44462
# Poissons Ratio (z) = 0.30660 0.48656
#
# Static dielectric constant tensor:
#      x y z
#    x 2.748560 0.000000 -0.093230 
#    y 0.000000 3.044980 0.000000 
#    z -0.093230 0.000000 3.096830 
# 
# 
# High freq. dielectric constant tensor:
#      x y z
#    x 1.575260 0.000000 -0.008020 
#    y 0.000000 1.617540 0.000000 
#    z -0.008020 0.000000 1.621450 
# 
# From -- ./inp_files/95325.got.cif
#   From: 2010.06.25/outbox.cif.g09.slc.cpg/sg10_48_cif.got.tgz:95325.got - 2010.06.27 22:07:45.
