data_PCOD8057933
_publ_section_title
;
Structure prediction by ZEFSAII (Michael W. Deem and Ramdas Pophale) SiO2 
 PCOD8057933
Probable space group: P 2/M
;
_chemical_formula_sum "Si O2"
_cell_formula_units_Z 28
_cell_length_a 25.613288
_cell_length_b 8.815480
_cell_length_c 9.188894
_cell_angle_alpha 90.000000
_cell_angle_beta 134.025104
_cell_angle_gamma 90.000000
_cell_volume 1491.848742
_symmetry_space_group_name_H-M "P 2/M"
_symmetry_group_IT_number 10
_symmetry_cell_setting 'monoclinic'
loop_
_space_group_symop_operation_xyz
x,y,z
-x,y,-z
-x,-y,-z
x,-y,z
loop_
_atom_site_type_symbol
_atom_site_label
_atom_site_fract_x
_atom_site_fract_y
_atom_site_fract_z
Si Si1 0.352554 0.319913 0.547404
Si Si2 0.913271 0.171247 0.493659
Si Si3 0.768821 0.678840 0.173361
Si Si4 0.494582 0.680605 0.653253
Si Si5 0.776220 0.818567 0.874068
Si Si6 0.068154 0.830914 0.813985
Si Si7 0.632222 0.320152 0.094427
O O1 0.342455 0.500000 0.519985
O O2 0.419297 0.264139 0.577533
O O3 0.279608 0.240751 0.352460
O O4 0.367166 0.262204 0.738950
O O5 0.844028 0.274131 0.398982
O O6 0.920628 0.165029 0.335952
O O7 0.989757 0.245271 0.702840
O O8 0.901338 0.000000 0.530227
O O9 0.767695 0.500000 0.147425
O O10 0.704294 0.735652 0.152165
O O11 0.755931 0.756176 0.993254
O O12 0.500000 0.744636 0.500000
O O13 0.497841 0.500000 0.658974
O O14 0.561449 0.747052 0.876443
O O15 0.776281 0.000000 0.882032
O O16 0.856968 0.757507 0.979666
O O17 0.061241 0.000000 0.862154
O O18 0.628055 0.500000 0.084558
#
# Coordination Sequence:
#
# PCOD8057933 Si02
#       7
#     4   4   4   4   4   4   4
#     4  10  19  32  51  73  97 126 161 198 237 281
#     4   8  13  25  44  66  92 122 157 197 242 283
#     4  10  18  29  47  72  99 126 160 199 239 283
#     4   9  16  28  50  77  99 121 155 197 237 280
#     4  10  19  32  49  70  97 128 162 199 242 286
#     4   7  12  24  43  64  89 123 158 194 236 284
#     4   9  18  31  48  72 101 130 158 192 235 285
#
# _framework density 18.768660000000001
#
# number of rings (size 3 to 8) (size 9 to 14) (size 15 to 20)
#    0.000    3.000    0.000    3.857    0.000    4.000 
#    0.000    7.857    0.000    7.286    0.000    6.000 
#    0.000    0.000    0.000    0.000    0.000    0.000 
#
# Total GULP energy -346889.440401 kJ/mol
# GULP energy per Si atom -12388.908586 kJ/mol
# Density = 1.872594 g / cm^3
# Si number density = 18.768660 Si / 1000 Ang^3
#
#
#
# Elastic Constant Matrix: (Units=GPa)
#
#
# Indices 1 2 3 4 5 6 
#
# 1 74.8747 17.2154 88.6903 0.0000 20.5275 0.0000
# 2 17.2154 36.0451 26.0038 0.0000 5.6776 0.0000
# 3 88.6903 26.0038 160.5428 0.0000 26.4190 0.0000
# 4 0.0000 0.0000 0.0000 20.5552 0.0000 9.2791
# 5 20.5275 5.6776 26.4190 0.0000 38.8239 0.0000
# 6 0.0000 0.0000 0.0000 9.2791 0.0000 2.1295
#
#
#
# Elastic Compliance Matrix: (Units=1/GPa)
#
#
# Indices 1 2 3 4 5 6 
#
# 1 0.040579 -0.003332 -0.020751 0.000000 -0.006847 0.000000
# 2 -0.003332 0.031743 -0.003183 0.000000 -0.000714 0.000000
# 3 -0.020751 -0.003183 0.018385 0.000000 -0.001073 0.000000
# 4 0.000000 0.000000 0.000000 -0.050310 0.000000 0.219217
# 5 -0.006847 -0.000714 -0.001073 0.000000 0.030213 0.000000
# 6 0.000000 0.000000 0.000000 0.219217 0.000000 -0.485614
#
#
# Mechanical properties :
#
#
# Convention : Reuss Voigt Hill
#
# Bulk Modulus (GPa) = 27.64375 59.47573 43.55974
# Shear Modulus (GPa) = -14.35073 21.60528 3.62727
#
# Velocity S-wave (km/s) = -2.76816 3.39652 1.39170
# Velocity P-wave (km/s) = 2.13159 6.86582 5.08346
#
# Compressibility (1/GPa) = 0.03617455
#
# Stress axis : x y z
#
# Youngs Moduli (GPa) = 24.64347 31.50255 54.39304
#
# Poissons Ratio (x) = 0.10497 1.12870
# Poissons Ratio (y) = 0.08211 0.17315
# Poissons Ratio (z) = 0.51137 0.10028
#
# Static dielectric constant tensor:
#      x y z
#    x 3.643510 0.000000 0.488420 
#    y 0.000000 3.017850 0.000000 
#    z 0.488420 0.000000 3.759330 
# 
# 
# High freq. dielectric constant tensor:
#      x y z
#    x 1.725320 0.000000 0.032990 
#    y 0.000000 1.678510 0.000000 
#    z 0.032990 0.000000 1.730450 
# 
# From -- ./inp_files/38041.got.cif
#   From: 2010.06.25/outbox.cif.g09.slc.cpg/sg10_20_cif.got.tgz:38041.got - 2010.06.27 22:07:45.
