data_PCOD8057528
_publ_section_title
;
Structure prediction by ZEFSAII (Michael W. Deem and Ramdas Pophale) SiO2 
 PCOD8057528
Probable space group: P 2/M
;
_chemical_formula_sum "Si O2"
_cell_formula_units_Z 32
_cell_length_a 12.478169
_cell_length_b 9.075064
_cell_length_c 19.083109
_cell_angle_alpha 90.000000
_cell_angle_beta 78.396721
_cell_angle_gamma 90.000000
_cell_volume 2116.812501
_symmetry_space_group_name_H-M "P 2/M"
_symmetry_group_IT_number 10
_symmetry_cell_setting 'monoclinic'
loop_
_space_group_symop_operation_xyz
x,y,z
-x,y,-z
-x,-y,-z
x,-y,z
loop_
_atom_site_type_symbol
_atom_site_label
_atom_site_fract_x
_atom_site_fract_y
_atom_site_fract_z
Si Si1 0.262023 0.673961 0.565113
Si Si2 0.183034 0.170196 0.322063
Si Si3 0.350560 0.829673 0.419726
Si Si4 0.599269 0.832094 0.342888
Si Si5 0.687468 0.327302 0.801605
Si Si6 0.490470 0.166191 0.784598
Si Si7 0.037866 0.170605 0.571661
Si Si8 0.449854 0.832315 0.077103
O O1 0.260291 0.500000 0.560304
O O2 0.332365 0.737400 0.492240
O O3 0.319549 0.721419 0.629845
O O4 0.139080 0.732390 0.582569
O O5 0.263486 0.224219 0.373407
O O6 0.202443 0.262296 0.247733
O O7 0.058730 0.198903 0.360678
O O8 0.204673 0.000000 0.302492
O O9 0.473782 0.801593 0.379290
O O10 0.329296 0.000000 0.440755
O O11 0.607182 0.799811 0.257330
O O12 0.632998 0.000000 0.356340
O O13 0.697870 0.500000 0.809390
O O14 0.590822 0.280194 0.759919
O O15 0.658245 0.256051 0.881873
O O16 0.458296 0.174044 0.871930
O O17 0.534262 0.000000 0.761610
O O18 0.000000 0.222223 0.500000
O O19 0.073355 0.000000 0.564712
O O20 0.414359 0.000000 0.065737
O O21 0.500000 0.760030 0.000000
#
# Coordination Sequence:
#
# PCOD8057528 Si02
#       8
#     4   4   4   4   4   4   4   4
#     4  12  25  34  43  65  95 117 147 196 246 291
#     4  10  18  32  53  69  86 115 160 202 232 279
#     4  10  18  33  52  67  83 114 157 195 234 278
#     4  10  19  33  51  64  86 122 160 194 221 273
#     4  10  18  26  41  68 100 126 148 180 228 282
#     4   8  15  29  45  64  88 121 159 184 215 257
#     4  10  20  37  56  67  80 113 161 204 241 286
#     4   8  14  27  46  67  95 128 161 189 215 260
#
# _framework density 15.117069000000001
#
# number of rings (size 3 to 8) (size 9 to 14) (size 15 to 20)
#    0.750    1.500    2.500    2.250    0.000    4.000 
#    0.000    0.000    0.000    0.000    0.000    0.000 
#    0.000    1.000    0.000   11.500    0.000    3.250 
#
# Total GULP energy -396486.339466 kJ/mol
# GULP energy per Si atom -12390.198108 kJ/mol
# Density = 1.508266 g / cm^3
# Si number density = 15.117069 Si / 1000 Ang^3
#
#
#
# Elastic Constant Matrix: (Units=GPa)
#
#
# Indices 1 2 3 4 5 6 
#
# 1 61.0070 28.1177 31.1671 0.0000 3.7018 0.0000
# 2 28.1177 73.9739 40.6925 0.0000 -3.3112 0.0000
# 3 31.1671 40.6925 106.7912 0.0000 -4.9413 0.0000
# 4 0.0000 0.0000 0.0000 11.2306 0.0000 -0.5783
# 5 3.7018 -3.3112 -4.9413 0.0000 13.6663 0.0000
# 6 0.0000 0.0000 0.0000 -0.5783 0.0000 12.5313
#
#
#
# Elastic Compliance Matrix: (Units=1/GPa)
#
#
# Indices 1 2 3 4 5 6 
#
# 1 0.022169 -0.006382 -0.004462 0.000000 -0.009165 0.000000
# 2 -0.006382 0.018985 -0.005165 0.000000 0.004461 0.000000
# 3 -0.004462 -0.005165 0.012848 0.000000 0.004602 0.000000
# 4 0.000000 0.000000 0.000000 0.089255 0.000000 0.004119
# 5 -0.009165 0.004461 0.004602 0.000000 0.078400 0.000000
# 6 0.000000 0.000000 0.000000 0.004119 0.000000 0.079990
#
#
# Mechanical properties :
#
#
# Convention : Reuss Voigt Hill
#
# Bulk Modulus (GPa) = 45.49061 49.08073 47.28567
# Shear Modulus (GPa) = 14.66309 16.93864 15.80086
#
# Velocity S-wave (km/s) = 3.11781 3.35101 3.23651
# Velocity P-wave (km/s) = 6.56647 6.89275 6.73159
#
# Compressibility (1/GPa) = 0.02198256
#
# Stress axis : x y z
#
# Youngs Moduli (GPa) = 45.10871 52.67276 77.83611
#
# Poissons Ratio (x) = 0.33616 0.34732
# Poissons Ratio (y) = 0.28788 0.40204
# Poissons Ratio (z) = 0.20128 0.27207
#
# Static dielectric constant tensor:
#      x y z
#    x 2.683720 0.000000 0.016850 
#    y 0.000000 2.788820 0.000000 
#    z 0.016850 0.000000 2.984390 
# 
# 
# High freq. dielectric constant tensor:
#      x y z
#    x 1.542680 0.000000 -0.002980 
#    y 0.000000 1.572570 0.000000 
#    z -0.002980 0.000000 1.570430 
# 
# From -- ./inp_files/83211.got.cif
#   From: 2010.06.25/outbox.cif.g09.slc.cpg/sg10_42_cif.got.tgz:83211.got - 2010.06.27 22:07:45.
