data_PCOD8057449
_publ_section_title
;
Structure prediction by ZEFSAII (Michael W. Deem and Ramdas Pophale) SiO2 
 PCOD8057449
Probable space group: P 2/M
;
_chemical_formula_sum "Si O2"
_cell_formula_units_Z 32
_cell_length_a 20.468088
_cell_length_b 8.837504
_cell_length_c 25.530953
_cell_angle_alpha 90.000000
_cell_angle_beta 22.590126
_cell_angle_gamma 90.000000
_cell_volume 1774.022729
_symmetry_space_group_name_H-M "P 2/M"
_symmetry_group_IT_number 10
_symmetry_cell_setting 'monoclinic'
loop_
_space_group_symop_operation_xyz
x,y,z
-x,y,-z
-x,-y,-z
x,-y,z
loop_
_atom_site_type_symbol
_atom_site_label
_atom_site_fract_x
_atom_site_fract_y
_atom_site_fract_z
Si Si1 0.948248 0.319479 0.913052
Si Si2 0.518819 0.678519 0.845019
Si Si3 0.166106 0.666592 0.841273
Si Si4 0.636277 0.680388 0.211219
Si Si5 0.024437 0.822339 0.326145
Si Si6 0.136403 0.679707 0.137975
Si Si7 0.317925 0.679662 0.383360
Si Si8 0.329489 0.325920 0.158644
O O1 0.951648 0.500000 0.915182
O O2 0.960992 0.270135 0.843121
O O3 0.107598 0.252609 0.829836
O O4 0.769111 0.260063 0.069112
O O5 0.498742 0.500000 0.855609
O O6 0.605058 0.740085 0.728418
O O7 0.637357 0.723852 0.806126
O O8 0.328978 0.744307 0.993534
O O9 0.233849 0.500000 0.776553
O O10 0.312882 0.747457 0.768381
O O11 0.000000 0.653789 0.000000
O O12 0.650490 0.500000 0.203299
O O13 0.446932 0.728522 0.334483
O O14 0.858910 0.761459 0.477615
O O15 0.035069 0.751117 0.260819
O O16 0.185471 0.780555 0.242181
O O17 0.012826 0.000000 0.328911
O O18 0.136517 0.500000 0.145122
O O19 0.290060 0.500000 0.402780
O O20 0.269203 0.500000 0.199531
O O21 0.500000 0.301903 0.000000
#
# Coordination Sequence:
#
# PCOD8057449 Si02
#       8
#     4   4   4   4   4   4   4   4
#     4   8  12  20  42  75 107 131 159 205 256 303
#     4   9  17  31  57  85 102 123 166 216 253 293
#     4   7  10  16  31  67 111 137 151 188 255 310
#     4   8  12  21  42  72 106 136 162 198 250 305
#     4  12  26  39  50  72 106 140 172 210 257 308
#     4  10  17  32  56  80 102 131 173 215 254 301
#     4  10  19  34  55  78 104 137 175 211 248 298
#     4  10  19  36  61  82 101 128 165 211 256 304
#
# _framework density 18.038101000000001
#
# number of rings (size 3 to 8) (size 9 to 14) (size 15 to 20)
#    0.000    2.750    2.500    2.625    0.000    0.750 
#    0.000    3.750    0.000    0.750    0.000    6.125 
#    0.000    3.000    0.000    0.000    0.000    0.000 
#
# Total GULP energy -396474.737067 kJ/mol
# GULP energy per Si atom -12389.835533 kJ/mol
# Density = 1.799705 g / cm^3
# Si number density = 18.038101 Si / 1000 Ang^3
#
#
#
# Elastic Constant Matrix: (Units=GPa)
#
#
# Indices 1 2 3 4 5 6 
#
# 1 144.5151 25.0119 44.7133 0.0000 -4.9379 0.0000
# 2 25.0119 33.2136 17.4376 0.0000 0.8233 0.0000
# 3 44.7133 17.4376 49.4039 0.0000 7.7543 0.0000
# 4 0.0000 0.0000 0.0000 -4.4348 0.0000 -1.7852
# 5 -4.9379 0.8233 7.7543 0.0000 22.8833 0.0000
# 6 0.0000 0.0000 0.0000 -1.7852 0.0000 1.5575
#
#
#
# Elastic Compliance Matrix: (Units=1/GPa)
#
#
# Indices 1 2 3 4 5 6 
#
# 1 0.010530 -0.003201 -0.009268 0.000000 0.005528 0.000000
# 2 -0.003201 0.038162 -0.010824 0.000000 0.001604 0.000000
# 3 -0.009268 -0.010824 0.034540 0.000000 -0.013315 0.000000
# 4 0.000000 0.000000 0.000000 -0.154299 0.000000 -0.176851
# 5 0.005528 0.001604 -0.013315 0.000000 0.049347 0.000000
# 6 0.000000 0.000000 0.000000 -0.176851 0.000000 0.439348
#
#
# Mechanical properties :
#
#
# Convention : Reuss Voigt Hill
#
# Bulk Modulus (GPa) = 27.28892 44.60646 35.94769
# Shear Modulus (GPa) = 10.49471 13.33251 11.91361
#
# Velocity S-wave (km/s) = 2.41469 2.72165 2.57275
# Velocity P-wave (km/s) = 4.78911 5.88720 5.36632
#
# Compressibility (1/GPa) = 0.03664491
#
# Stress axis : x y z
#
# Youngs Moduli (GPa) = 94.96475 26.20423 28.95191
#
# Poissons Ratio (x) = 0.08388 0.26834
# Poissons Ratio (y) = 0.30398 0.31338
# Poissons Ratio (z) = 0.88016 0.28364
#
# Static dielectric constant tensor:
#      x y z
#    x 3.960270 0.000000 -0.149930 
#    y 0.000000 2.729820 0.000000 
#    z -0.149930 0.000000 3.145850 
# 
# 
# High freq. dielectric constant tensor:
#      x y z
#    x 1.726810 0.000000 -0.011440 
#    y 0.000000 1.631040 0.000000 
#    z -0.011440 0.000000 1.669670 
# 
# From -- ./inp_files/93673.got.cif
#   From: 2010.06.25/outbox.cif.g09.slc.cpg/sg10_47_cif.got.tgz:93673.got - 2010.06.27 22:07:45.
