data_PCOD8057356
_publ_section_title
;
Structure prediction by ZEFSAII (Michael W. Deem and Ramdas Pophale) SiO2 
 PCOD8057356
Probable space group: P 2/M
;
_chemical_formula_sum "Si O2"
_cell_formula_units_Z 26
_cell_length_a 11.785962
_cell_length_b 20.237872
_cell_length_c 8.620505
_cell_angle_alpha 90.000000
_cell_angle_beta 38.499589
_cell_angle_gamma 90.000000
_cell_volume 1279.994902
_symmetry_space_group_name_H-M "P 2/M"
_symmetry_group_IT_number 10
_symmetry_cell_setting 'monoclinic'
loop_
_space_group_symop_operation_xyz
x,y,z
-x,y,-z
-x,-y,-z
x,-y,z
loop_
_atom_site_type_symbol
_atom_site_label
_atom_site_fract_x
_atom_site_fract_y
_atom_site_fract_z
Si Si1 0.250078 0.160282 0.120298
Si Si2 0.000000 0.384837 0.000000
Si Si3 0.365712 0.288615 0.856299
Si Si4 0.342807 0.572345 0.793556
Si Si5 0.457532 0.075696 0.368672
Si Si6 0.762334 0.274326 0.356746
Si Si7 0.135129 0.854113 0.587473
O O1 0.242626 0.154235 0.311838
O O2 0.074063 0.127445 0.224945
O O3 0.259498 0.239554 0.084242
O O4 0.426204 0.123379 0.865787
O O5 0.853592 0.432454 0.077371
O O6 0.896139 0.337193 0.235833
O O7 0.332183 0.367044 0.927404
O O8 0.580417 0.278448 0.653071
O O9 0.295339 0.270327 0.760795
O O10 0.500000 0.590260 0.500000
O O11 0.382562 0.500000 0.826831
O O12 0.500000 0.094335 0.500000
O O13 0.242735 0.088524 0.565762
O O14 0.506090 0.000000 0.280440
O O15 0.870228 0.210308 0.298319
#
# Coordination Sequence:
#
# PCOD8057356 Si02
#       7
#     4   2   4   4   4   4   4
#     4  11  24  39  61  87 120 151 195 237 287 339
#     4  10  17  30  48  78 109 150 188 240 289 338
#     4  10  18  34  54  83 111 151 188 243 288 339
#     4  10  18  29  46  75 112 149 189 238 292 340
#     4  11  25  43  63  88 120 154 190 232 283 340
#     4  10  18  31  55  81 112 145 192 236 290 331
#     4  11  23  39  60  90 115 152 193 238 289 340
#
# _framework density 20.312581999999999
#
# number of rings (size 3 to 8) (size 9 to 14) (size 15 to 20)
#    0.000    1.538    4.615    3.462    0.000    3.692 
#    0.000    3.077    0.000    0.000    0.000   15.077 
#    0.000    0.000    0.000    0.000    0.000    0.000 
#
# Total GULP energy -322217.328476 kJ/mol
# GULP energy per Si atom -12392.974172 kJ/mol
# Density = 2.026635 g / cm^3
# Si number density = 20.312582 Si / 1000 Ang^3
#
#
#
# Elastic Constant Matrix: (Units=GPa)
#
#
# Indices 1 2 3 4 5 6 
#
# 1 79.0643 21.5827 20.8374 0.0000 -15.9992 0.0000
# 2 21.5827 108.1480 16.1015 0.0000 3.9396 0.0000
# 3 20.8374 16.1015 58.2072 0.0000 -15.4059 0.0000
# 4 0.0000 0.0000 0.0000 7.8656 0.0000 2.2343
# 5 -15.9992 3.9396 -15.4059 0.0000 28.8595 0.0000
# 6 0.0000 0.0000 0.0000 2.2343 0.0000 0.7986
#
#
#
# Elastic Compliance Matrix: (Units=1/GPa)
#
#
# Indices 1 2 3 4 5 6 
#
# 1 0.015752 -0.003009 -0.002779 0.000000 0.007660 0.000000
# 2 -0.003009 0.010478 -0.003076 0.000000 -0.004740 0.000000
# 3 -0.002779 -0.003076 0.021811 0.000000 0.010522 0.000000
# 4 0.000000 0.000000 0.000000 0.619329 0.000000 -1.732724
# 5 0.007660 -0.004740 0.010522 0.000000 0.045161 0.000000
# 6 0.000000 0.000000 0.000000 -1.732724 0.000000 6.099919
#
#
# Mechanical properties :
#
#
# Convention : Reuss Voigt Hill
#
# Bulk Modulus (GPa) = 32.99003 40.27365 36.63184
# Shear Modulus (GPa) = 0.73096 19.96460 10.34778
#
# Velocity S-wave (km/s) = 0.60053 3.13847 2.25950
# Velocity P-wave (km/s) = 4.09357 5.74485 4.98802
#
# Compressibility (1/GPa) = 0.03031219
#
# Stress axis : x y z
#
# Youngs Moduli (GPa) = 63.48519 95.44114 45.84884
#
# Poissons Ratio (x) = 0.28716 0.12743
# Poissons Ratio (y) = 0.19101 0.14103
# Poissons Ratio (z) = 0.17645 0.29357
#
# Static dielectric constant tensor:
#      x y z
#    x 3.682850 0.000000 -0.386110 
#    y 0.000000 3.675070 0.000000 
#    z -0.386110 0.000000 3.645970 
# 
# 
# High freq. dielectric constant tensor:
#      x y z
#    x 1.784320 0.000000 -0.038660 
#    y 0.000000 1.791480 0.000000 
#    z -0.038660 0.000000 1.778230 
# 
# From -- ./inp_files/26014.got.cif
#   From: 2010.06.25/outbox.cif.g09.slc.cpg/sg10_14_cif.got.tgz:26014.got - 2010.06.27 22:07:45.
