data_PCOD8057323
_publ_section_title
;
Structure prediction by ZEFSAII (Michael W. Deem and Ramdas Pophale) SiO2 
 PCOD8057323
Probable space group: P 2/M
;
_chemical_formula_sum "Si O2"
_cell_formula_units_Z 32
_cell_length_a 25.469245
_cell_length_b 8.919823
_cell_length_c 20.748351
_cell_angle_alpha 90.000000
_cell_angle_beta 22.309377
_cell_angle_gamma 90.000000
_cell_volume 1789.331316
_symmetry_space_group_name_H-M "P 2/M"
_symmetry_group_IT_number 10
_symmetry_cell_setting 'monoclinic'
loop_
_space_group_symop_operation_xyz
x,y,z
-x,y,-z
-x,-y,-z
x,-y,z
loop_
_atom_site_type_symbol
_atom_site_label
_atom_site_fract_x
_atom_site_fract_y
_atom_site_fract_z
Si Si1 0.169853 0.823944 0.004251
Si Si2 0.132624 0.175875 0.660833
Si Si3 0.861523 0.177686 0.491787
Si Si4 0.435295 0.327378 0.881957
Si Si5 0.549441 0.822483 0.376079
Si Si6 0.139973 0.327164 0.173167
Si Si7 0.404967 0.821735 0.413238
Si Si8 0.586451 0.676627 0.840157
O O1 0.188035 0.735159 0.049576
O O2 0.021919 0.783174 0.139249
O O3 0.176105 0.000000 0.014334
O O4 0.290690 0.777801 0.817647
O O5 0.153949 0.236755 0.564154
O O6 0.250311 0.242507 0.574464
O O7 0.154010 0.000000 0.634296
O O8 0.734684 0.243033 0.676404
O O9 0.008029 0.239246 0.352040
O O10 0.862706 0.000000 0.495736
O O11 0.473289 0.500000 0.825229
O O12 0.492060 0.228256 0.759485
O O13 0.502411 0.271574 0.872366
O O14 0.269271 0.306641 0.074879
O O15 0.500000 0.750984 0.500000
O O16 0.454980 0.757523 0.425373
O O17 0.533237 0.000000 0.397366
O O18 0.098952 0.500000 0.211838
O O19 0.408461 0.000000 0.411283
O O20 0.611426 0.500000 0.812415
O O21 0.500000 0.729577 0.000000
#
# Coordination Sequence:
#
# PCOD8057323 Si02
#       8
#     4   4   4   4   4   4   4   4
#     4   9  16  29  47  68  98 130 166 208 251 297
#     4   8  15  26  44  71  95 119 157 206 250 289
#     4  10  19  33  53  77 105 133 169 211 254 302
#     4  10  20  33  51  77 104 129 169 214 252 300
#     4   9  17  28  45  70 100 135 171 208 253 301
#     4  10  19  31  50  76 104 130 166 211 256 302
#     4  10  17  29  49  71  97 129 168 210 253 296
#     4  10  21  37  55  76 105 139 171 207 256 308
#
# _framework density 17.883776999999998
#
# number of rings (size 3 to 8) (size 9 to 14) (size 15 to 20)
#    0.000    2.500    2.500    1.500    0.000    0.750 
#    0.000    1.250    0.000    9.000    0.000    0.000 
#    0.000    3.250    0.000    0.000    0.000    0.000 
#
# Total GULP energy -396674.705626 kJ/mol
# GULP energy per Si atom -12396.084551 kJ/mol
# Density = 1.784307 g / cm^3
# Si number density = 17.883777 Si / 1000 Ang^3
#
#
#
# Elastic Constant Matrix: (Units=GPa)
#
#
# Indices 1 2 3 4 5 6 
#
# 1 76.9201 15.2736 46.6343 0.0000 -6.5187 0.0000
# 2 15.2736 36.5970 29.0031 0.0000 -0.9533 0.0000
# 3 46.6343 29.0031 136.4450 0.0000 -10.2077 0.0000
# 4 0.0000 0.0000 0.0000 18.9292 0.0000 -1.6147
# 5 -6.5187 -0.9533 -10.2077 0.0000 32.3029 0.0000
# 6 0.0000 0.0000 0.0000 -1.6147 0.0000 15.1304
#
#
#
# Elastic Compliance Matrix: (Units=1/GPa)
#
#
# Indices 1 2 3 4 5 6 
#
# 1 0.016750 -0.003020 -0.004954 0.000000 0.001726 0.000000
# 2 -0.003020 0.033455 -0.006198 0.000000 -0.001580 0.000000
# 3 -0.004954 -0.006198 0.010499 0.000000 0.002135 0.000000
# 4 0.000000 0.000000 0.000000 0.053314 0.000000 0.005690
# 5 0.001726 -0.001580 0.002135 0.000000 0.031933 0.000000
# 6 0.000000 0.000000 0.000000 0.005690 0.000000 0.066699
#
#
# Mechanical properties :
#
#
# Convention : Reuss Voigt Hill
#
# Bulk Modulus (GPa) = 30.90019 47.97601 39.43810
# Shear Modulus (GPa) = 19.85862 23.87589 21.86725
#
# Velocity S-wave (km/s) = 3.33592 3.65781 3.50057
# Velocity P-wave (km/s) = 5.67042 6.68762 6.19991
#
# Compressibility (1/GPa) = 0.03236226
#
# Stress axis : x y z
#
# Youngs Moduli (GPa) = 59.70278 29.89069 95.24572
#
# Poissons Ratio (x) = 0.09026 0.47182
# Poissons Ratio (y) = 0.18028 0.59029
# Poissons Ratio (z) = 0.29575 0.18525
#
# Static dielectric constant tensor:
#      x y z
#    x 3.506370 0.000000 -0.284740 
#    y 0.000000 3.044380 0.000000 
#    z -0.284740 0.000000 3.493070 
# 
# 
# High freq. dielectric constant tensor:
#      x y z
#    x 1.675210 0.000000 -0.025600 
#    y 0.000000 1.666130 0.000000 
#    z -0.025600 0.000000 1.697660 
# 
# From -- ./inp_files/86802.got.cif
#   From: 2010.06.25/outbox.cif.g09.slc.cpg/sg10_44_cif.got.tgz:86802.got - 2010.06.27 22:07:45.
