data_PCOD8057275
_publ_section_title
;
Structure prediction by ZEFSAII (Michael W. Deem and Ramdas Pophale) SiO2 
 PCOD8057275
Probable space group: P 2/M
;
_chemical_formula_sum "Si O2"
_cell_formula_units_Z 32
_cell_length_a 12.457609
_cell_length_b 9.336595
_cell_length_c 28.944749
_cell_angle_alpha 90.000000
_cell_angle_beta 149.306579
_cell_angle_gamma 90.000000
_cell_volume 1718.467259
_symmetry_space_group_name_H-M "P 2/M"
_symmetry_group_IT_number 10
_symmetry_cell_setting 'monoclinic'
loop_
_space_group_symop_operation_xyz
x,y,z
-x,y,-z
-x,-y,-z
x,-y,z
loop_
_atom_site_type_symbol
_atom_site_label
_atom_site_fract_x
_atom_site_fract_y
_atom_site_fract_z
Si Si1 0.684061 0.334712 0.009290
Si Si2 0.994877 0.662400 0.947259
Si Si3 0.916923 0.828217 0.518910
Si Si4 0.746784 0.170462 0.283558
Si Si5 0.003583 0.834144 0.192352
Si Si6 0.712947 0.164402 0.166672
Si Si7 0.536912 0.159180 0.655565
Si Si8 0.619277 0.841480 0.788953
O O1 0.654241 0.500000 0.013543
O O2 0.460051 0.256783 0.924922
O O3 0.842029 0.257705 0.102542
O O4 0.778911 0.325005 0.992860
O O5 0.916259 0.500000 0.921025
O O6 0.824231 0.747863 0.854793
O O7 0.000000 0.731555 0.000000
O O8 0.679887 0.768349 0.442672
O O9 0.000000 0.770433 0.500000
O O10 0.060617 0.770162 0.614249
O O11 0.910903 0.000000 0.515181
O O12 0.757332 0.225498 0.234580
O O13 0.530018 0.225397 0.226627
O O14 0.753049 0.000000 0.287754
O O15 0.929752 0.825273 0.218308
O O16 0.240226 0.766662 0.275975
O O17 0.001568 0.000000 0.173992
O O18 0.633205 0.000000 0.139627
O O19 0.495930 0.153683 0.695298
O O20 0.553851 0.000000 0.641012
O O21 0.691383 0.000000 0.830564
#
# Coordination Sequence:
#
# PCOD8057275 Si02
#       8
#     4   4   4   4   4   4   4   4
#     4  11  22  35  53  75  97 128 173 214 244 289
#     4  10  21  34  46  67 101 133 158 194 251 304
#     4   9  14  24  45  74 105 130 156 200 251 292
#     4   9  17  29  47  75 105 131 165 204 245 294
#     4  10  20  35  52  71 101 136 167 204 250 294
#     4  10  21  35  50  71 102 136 166 204 252 295
#     4   9  16  27  46  73  99 125 160 199 242 289
#     4  10  17  28  49  73  97 126 162 202 238 284
#
# _framework density 18.621244999999998
#
# number of rings (size 3 to 8) (size 9 to 14) (size 15 to 20)
#    0.000    2.250    2.500    1.500    0.000    2.750 
#    0.000    0.625    0.000    3.750    0.000    4.375 
#    0.000    2.000    0.000    0.000    0.000    0.000 
#
# Total GULP energy -396579.287426 kJ/mol
# GULP energy per Si atom -12393.102732 kJ/mol
# Density = 1.857886 g / cm^3
# Si number density = 18.621245 Si / 1000 Ang^3
#
#
#
# Elastic Constant Matrix: (Units=GPa)
#
#
# Indices 1 2 3 4 5 6 
#
# 1 101.3237 14.8633 39.2390 0.0000 15.9630 0.0000
# 2 14.8633 42.5833 26.3154 0.0000 4.5243 0.0000
# 3 39.2390 26.3154 113.2959 0.0000 17.9149 0.0000
# 4 0.0000 0.0000 0.0000 -9.9563 0.0000 -2.0365
# 5 15.9630 4.5243 17.9149 0.0000 24.8858 0.0000
# 6 0.0000 0.0000 0.0000 -2.0365 0.0000 14.2339
#
#
#
# Elastic Compliance Matrix: (Units=1/GPa)
#
#
# Indices 1 2 3 4 5 6 
#
# 1 0.012113 -0.001856 -0.002921 0.000000 -0.005329 0.000000
# 2 -0.001856 0.027708 -0.005851 0.000000 0.000365 0.000000
# 3 -0.002921 -0.005851 0.012111 0.000000 -0.005781 0.000000
# 4 0.000000 0.000000 0.000000 -0.097583 0.000000 -0.013961
# 5 -0.005329 0.000365 -0.005781 0.000000 0.047697 0.000000
# 6 0.000000 0.000000 0.000000 -0.013961 0.000000 0.068257
#
#
# Mechanical properties :
#
#
# Convention : Reuss Voigt Hill
#
# Bulk Modulus (GPa) = 32.59923 46.44868 39.52396
# Shear Modulus (GPa) = 49.12310 17.61836 33.37073
#
# Velocity S-wave (km/s) = 5.14173 3.07928 4.23789
# Velocity P-wave (km/s) = 7.26597 6.13520 6.72440
#
# Compressibility (1/GPa) = 0.03067557
#
# Stress axis : x y z
#
# Youngs Moduli (GPa) = 82.55917 36.09061 82.56780
#
# Poissons Ratio (x) = 0.06700 0.24120
# Poissons Ratio (y) = 0.15326 0.48307
# Poissons Ratio (z) = 0.24117 0.21115
#
# Static dielectric constant tensor:
#      x y z
#    x 3.604000 0.000000 0.075300 
#    y 0.000000 2.995360 0.000000 
#    z 0.075300 0.000000 3.495080 
# 
# 
# High freq. dielectric constant tensor:
#      x y z
#    x 1.730160 0.000000 0.011020 
#    y 0.000000 1.669110 0.000000 
#    z 0.011020 0.000000 1.718190 
# 
# From -- ./inp_files/69967.got.cif
#   From: 2010.06.25/outbox.cif.g09.slc.cpg/sg10_35_cif.got.tgz:69967.got - 2010.06.27 22:07:45.
