data_PCOD8057949
_publ_section_title
;
Structure prediction by ZEFSAII (Michael W. Deem and Ramdas Pophale) SiO2 
 PCOD8057949
Probable space group: P 2/M
;
_chemical_formula_sum "Si O2"
_cell_formula_units_Z 32
_cell_length_a 20.387382
_cell_length_b 9.096090
_cell_length_c 26.302060
_cell_angle_alpha 90.000000
_cell_angle_beta 21.300794
_cell_angle_gamma 90.000000
_cell_volume 1771.856326
_symmetry_space_group_name_H-M "P 2/M"
_symmetry_group_IT_number 10
_symmetry_cell_setting 'monoclinic'
loop_
_space_group_symop_operation_xyz
x,y,z
-x,y,-z
-x,-y,-z
x,-y,z
loop_
_atom_site_type_symbol
_atom_site_label
_atom_site_fract_x
_atom_site_fract_y
_atom_site_fract_z
Si Si1 0.291825 0.829455 0.156682
Si Si2 0.198230 0.828733 0.339143
Si Si3 0.639726 0.675112 0.591727
Si Si4 0.532187 0.674583 0.780759
Si Si5 0.977726 0.674813 0.095441
Si Si6 0.716380 0.674821 0.201532
Si Si7 0.126761 0.674872 0.091234
Si Si8 0.022399 0.675005 0.276966
O O1 0.221680 0.789406 0.263256
O O2 0.182660 0.733474 0.195689
O O3 0.260704 0.000000 0.166768
O O4 0.500000 0.786009 0.000000
O O5 0.344136 0.737864 0.264555
O O6 0.000000 0.779418 0.500000
O O7 0.231334 0.000000 0.325665
O O8 0.640853 0.500000 0.590335
O O9 0.601445 0.732552 0.676208
O O10 0.484131 0.735219 0.665722
O O11 0.831404 0.737698 0.434736
O O12 0.540612 0.500000 0.777250
O O13 0.329583 0.732843 0.935996
O O14 0.982113 0.500000 0.092665
O O15 0.791163 0.728285 0.202902
O O16 0.997569 0.734066 0.138825
O O17 0.148157 0.732445 0.939878
O O18 0.712929 0.500000 0.202481
O O19 0.128320 0.500000 0.090149
O O20 0.049768 0.734701 0.199972
O O21 0.026928 0.500000 0.275545
#
# Coordination Sequence:
#
# PCOD8057949 Si02
#       8
#     4   4   4   4   4   4   4   4
#     4  10  21  37  53  67  87 119 155 188 222 269
#     4  10  21  35  49  67  91 115 143 186 232 268
#     4   9  16  27  41  64  95 123 151 184 224 267
#     4  10  18  29  48  68  88 116 150 186 221 266
#     4   8  12  20  37  60  88 123 157 183 213 259
#     4   8  12  20  37  60  88 124 157 181 212 262
#     4   9  16  27  41  64  93 119 149 187 225 259
#     4  10  20  31  46  68  96 122 144 184 236 273
#
# _framework density 18.060155999999999
#
# number of rings (size 3 to 8) (size 9 to 14) (size 15 to 20)
#    0.000    2.750    1.250    2.250    0.000    1.000 
#    0.000    0.625    0.000    3.750    0.000    0.000 
#    0.000    6.000    0.000    0.000    0.000    0.000 
#
# Total GULP energy -396646.525357 kJ/mol
# GULP energy per Si atom -12395.203917 kJ/mol
# Density = 1.801905 g / cm^3
# Si number density = 18.060156 Si / 1000 Ang^3
#
#
#
# Elastic Constant Matrix: (Units=GPa)
#
#
# Indices 1 2 3 4 5 6 
#
# 1 158.4530 20.7186 66.8872 0.0000 -0.5907 0.0000
# 2 20.7186 11.0366 13.7606 0.0000 -0.9089 0.0000
# 3 66.8872 13.7606 109.6390 0.0000 11.0557 0.0000
# 4 0.0000 0.0000 0.0000 2.7553 0.0000 3.7455
# 5 -0.5907 -0.9089 11.0557 0.0000 33.3836 0.0000
# 6 0.0000 0.0000 0.0000 3.7455 0.0000 -2.4934
#
#
#
# Elastic Compliance Matrix: (Units=1/GPa)
#
#
# Indices 1 2 3 4 5 6 
#
# 1 0.009925 -0.012807 -0.004583 0.000000 0.001345 0.000000
# 2 -0.012807 0.125862 -0.008593 0.000000 0.006046 0.000000
# 3 -0.004583 -0.008593 0.013477 0.000000 -0.004778 0.000000
# 4 0.000000 0.000000 0.000000 0.119309 0.000000 0.179221
# 5 0.001345 0.006046 -0.004778 0.000000 0.031726 0.000000
# 6 0.000000 0.000000 0.000000 0.179221 0.000000 -0.131842
#
#
# Mechanical properties :
#
#
# Convention : Reuss Voigt Hill
#
# Bulk Modulus (GPa) = 10.27776 53.54015 31.90896
# Shear Modulus (GPa) = 19.77395 18.57992 19.17693
#
# Velocity S-wave (km/s) = 3.31251 3.21094 3.26212
# Velocity P-wave (km/s) = 4.50927 6.59217 5.64757
#
# Compressibility (1/GPa) = 0.09729747
#
# Stress axis : x y z
#
# Youngs Moduli (GPa) = 100.75163 7.94520 74.19857
#
# Poissons Ratio (x) = 0.10176 0.34008
# Poissons Ratio (y) = 1.29035 0.63760
# Poissons Ratio (z) = 0.46178 0.06827
#
# Static dielectric constant tensor:
#      x y z
#    x 3.682550 0.000000 0.004870 
#    y 0.000000 2.731040 0.000000 
#    z 0.004870 0.000000 3.604620 
# 
# 
# High freq. dielectric constant tensor:
#      x y z
#    x 1.718370 0.000000 -0.005950 
#    y 0.000000 1.634200 0.000000 
#    z -0.005950 0.000000 1.699820 
# 
# From -- ./inp_files/34654.got.cif
#   From: 2010.06.25/outbox.cif.g09.slc.cpg/sg10_18_cif.got.tgz:34654.got - 2010.06.27 22:07:45.
