data_PCOD8057806
_publ_section_title
;
Structure prediction by ZEFSAII (Michael W. Deem and Ramdas Pophale) SiO2 
 PCOD8057806
Probable space group: P 2/M
;
_chemical_formula_sum "Si O2"
_cell_formula_units_Z 24
_cell_length_a 19.516407
_cell_length_b 8.986800
_cell_length_c 30.187530
_cell_angle_alpha 90.000000
_cell_angle_beta 163.021754
_cell_angle_gamma 90.000000
_cell_volume 1546.066455
_symmetry_space_group_name_H-M "P 2/M"
_symmetry_group_IT_number 10
_symmetry_cell_setting 'monoclinic'
loop_
_space_group_symop_operation_xyz
x,y,z
-x,y,-z
-x,-y,-z
x,-y,z
loop_
_atom_site_type_symbol
_atom_site_label
_atom_site_fract_x
_atom_site_fract_y
_atom_site_fract_z
Si Si1 0.360190 0.675706 0.106615
Si Si2 0.327525 0.832103 0.637545
Si Si3 0.834856 0.168427 0.936041
Si Si4 0.236096 0.332346 0.853785
Si Si5 0.901712 0.174291 0.315675
Si Si6 0.385815 0.174359 0.030236
O O1 0.361242 0.500000 0.103965
O O2 0.613059 0.733782 0.281944
O O3 0.152034 0.732039 0.011014
O O4 0.310134 0.744311 0.028018
O O5 0.561485 0.832083 0.751041
O O6 0.108764 0.765064 0.475400
O O7 0.268970 0.000000 0.617299
O O8 0.918400 0.000000 0.998524
O O9 0.000000 0.238236 0.000000
O O10 0.149097 0.500000 0.808989
O O11 0.073484 0.257910 0.715808
O O12 0.500000 0.330554 0.000000
O O13 0.220027 0.237250 0.888813
O O14 0.656904 0.210869 0.187946
O O15 0.930078 0.000000 0.323790
O O16 0.341203 0.000000 0.007358
#
# Coordination Sequence:
#
# PCOD8057806 Si02
#       6
#     4   4   4   4   4   4
#     4  10  19  29  42  64  91 115 143 178 219 260
#     4   8  16  30  44  63  88 113 146 179 212 257
#     4   8  15  30  49  65  84 111 142 177 214 257
#     4   9  17  28  42  61  85 113 147 184 218 251
#     4   9  17  29  45  62  85 118 152 183 211 247
#     4  10  18  29  44  61  85 119 154 182 210 250
#
# _framework density 15.523265
#
# number of rings (size 3 to 8) (size 9 to 14) (size 15 to 20)
#    1.000    2.000    0.000    2.000    0.000    4.333 
#    0.000    3.333    0.000    0.000    0.000    1.167 
#    0.000    9.333    0.000    0.000    0.000    0.000 
#
# Total GULP energy -297385.958380 kJ/mol
# GULP energy per Si atom -12391.081599 kJ/mol
# Density = 1.548793 g / cm^3
# Si number density = 15.523265 Si / 1000 Ang^3
#
#
#
# Elastic Constant Matrix: (Units=GPa)
#
#
# Indices 1 2 3 4 5 6 
#
# 1 101.3794 53.5819 25.5000 0.0000 -22.7356 0.0000
# 2 53.5819 95.8776 16.9735 0.0000 -16.4496 0.0000
# 3 25.5000 16.9735 16.0678 0.0000 -14.0332 0.0000
# 4 0.0000 0.0000 0.0000 14.8254 0.0000 -4.8962
# 5 -22.7356 -16.4496 -14.0332 0.0000 22.9939 0.0000
# 6 0.0000 0.0000 0.0000 -4.8962 0.0000 20.6427
#
#
#
# Elastic Compliance Matrix: (Units=1/GPa)
#
#
# Indices 1 2 3 4 5 6 
#
# 1 0.019304 -0.006602 -0.023806 0.000000 -0.000164 0.000000
# 2 -0.006602 0.015128 -0.003752 0.000000 0.002004 0.000000
# 3 -0.023806 -0.003752 0.173621 0.000000 0.079739 0.000000
# 4 0.000000 0.000000 0.000000 0.073185 0.000000 0.017359
# 5 -0.000164 0.002004 0.079739 0.000000 0.093426 0.000000
# 6 0.000000 0.000000 0.000000 0.017359 0.000000 0.052561
#
#
# Mechanical properties :
#
#
# Convention : Reuss Voigt Hill
#
# Bulk Modulus (GPa) = 7.15647 45.04839 26.10243
# Shear Modulus (GPa) = 9.22302 19.51037 14.36670
#
# Velocity S-wave (km/s) = 2.44015 3.54905 3.04549
# Velocity P-wave (km/s) = 3.54390 6.77328 5.40539
#
# Compressibility (1/GPa) = 0.13973371
#
# Stress axis : x y z
#
# Youngs Moduli (GPa) = 51.80171 66.10364 5.75967
#
# Poissons Ratio (x) = 0.43643 0.13711
# Poissons Ratio (y) = 0.34201 0.02161
# Poissons Ratio (z) = 1.23317 0.24802
#
# Static dielectric constant tensor:
#      x y z
#    x 2.837580 0.000000 -0.171920 
#    y 0.000000 2.956310 0.000000 
#    z -0.171920 0.000000 2.790500 
# 
# 
# High freq. dielectric constant tensor:
#      x y z
#    x 1.577150 0.000000 -0.023000 
#    y 0.000000 1.599640 0.000000 
#    z -0.023000 0.000000 1.561020 
# 
# From -- ./inp_files/48655.got.cif
#   From: 2010.06.25/outbox.cif.g09.slc.cpg/sg10_25_cif.got.tgz:48655.got - 2010.06.27 22:07:45.
