data_PCOD8057333
_publ_section_title
;
Structure prediction by ZEFSAII (Michael W. Deem and Ramdas Pophale) SiO2 
 PCOD8057333
Probable space group: P 2/M
;
_chemical_formula_sum "Si O2"
_cell_formula_units_Z 24
_cell_length_a 17.227372
_cell_length_b 9.081861
_cell_length_c 7.892792
_cell_angle_alpha 90.000000
_cell_angle_beta 88.789666
_cell_angle_gamma 90.000000
_cell_volume 1234.603870
_symmetry_space_group_name_H-M "P 2/M"
_symmetry_group_IT_number 10
_symmetry_cell_setting 'monoclinic'
loop_
_space_group_symop_operation_xyz
x,y,z
-x,y,-z
-x,-y,-z
x,-y,z
loop_
_atom_site_type_symbol
_atom_site_label
_atom_site_fract_x
_atom_site_fract_y
_atom_site_fract_z
Si Si1 0.161611 0.674309 0.686110
Si Si2 0.692053 0.826038 0.190393
Si Si3 0.155879 0.827464 0.328172
Si Si4 0.587127 0.175638 0.506875
Si Si5 0.681453 0.171768 0.817891
Si Si6 0.008130 0.662735 0.298336
O O1 0.172341 0.500000 0.666498
O O2 0.226164 0.742393 0.804868
O O3 0.170998 0.746451 0.502860
O O4 0.076333 0.711058 0.769647
O O5 0.634340 0.770258 0.339529
O O6 0.708023 0.000000 0.203354
O O7 0.654575 0.784841 0.009062
O O8 0.228236 0.785344 0.205982
O O9 0.076562 0.773619 0.240407
O O10 0.149628 0.000000 0.364093
O O11 0.500000 0.238802 0.500000
O O12 0.627316 0.243777 0.674322
O O13 0.585721 0.000000 0.509840
O O14 0.672040 0.000000 0.790008
O O15 0.030240 0.500000 0.230642
O O16 0.000000 0.660478 0.500000
#
# Coordination Sequence:
#
# PCOD8057333 Si02
#       6
#     4   4   4   4   4   4
#     4  10  19  32  50  73 104 139 178 219 257 305
#     4  10  19  33  54  77 106 139 170 213 259 303
#     4  10  17  29  50  75 105 138 175 217 259 306
#     4   9  17  31  53  81 109 134 164 208 262 313
#     4   9  18  31  49  79 110 134 170 213 254 308
#     4   8  16  29  45  70 102 136 177 220 257 300
#
# _framework density 19.439433000000001
#
# number of rings (size 3 to 8) (size 9 to 14) (size 15 to 20)
#    0.000    2.667    1.667    2.000    0.000    4.333 
#    0.000    5.833    0.000    5.500    0.000    1.167 
#    0.000    0.000    0.000    0.000    0.000    0.000 
#
# Total GULP energy -297442.332568 kJ/mol
# GULP energy per Si atom -12393.430524 kJ/mol
# Density = 1.939519 g / cm^3
# Si number density = 19.439433 Si / 1000 Ang^3
#
#
#
# Elastic Constant Matrix: (Units=GPa)
#
#
# Indices 1 2 3 4 5 6 
#
# 1 157.2869 35.3847 79.6566 0.0000 13.0390 0.0000
# 2 35.3847 50.7844 27.1316 0.0000 3.5272 0.0000
# 3 79.6566 27.1316 109.1215 0.0000 6.2589 0.0000
# 4 0.0000 0.0000 0.0000 2.3416 0.0000 6.6904
# 5 13.0390 3.5272 6.2589 0.0000 12.7449 0.0000
# 6 0.0000 0.0000 0.0000 6.6904 0.0000 10.5626
#
#
#
# Elastic Compliance Matrix: (Units=1/GPa)
#
#
# Indices 1 2 3 4 5 6 
#
# 1 0.011272 -0.003669 -0.006908 0.000000 -0.007125 0.000000
# 2 -0.003669 0.024064 -0.003229 0.000000 -0.001321 0.000000
# 3 -0.006908 -0.003229 0.014975 0.000000 0.000607 0.000000
# 4 0.000000 0.000000 0.000000 -0.527386 0.000000 0.334050
# 5 -0.007125 -0.001321 0.000607 0.000000 0.085819 0.000000
# 6 0.000000 0.000000 0.000000 0.334050 0.000000 -0.116915
#
#
# Mechanical properties :
#
#
# Convention : Reuss Voigt Hill
#
# Bulk Modulus (GPa) = 44.05362 66.83763 55.44562
# Shear Modulus (GPa) = -10.57098 16.79781 3.11341
#
# Velocity S-wave (km/s) = -2.33446 2.94276 1.26692
# Velocity P-wave (km/s) = 3.93000 6.78260 5.54295
#
# Compressibility (1/GPa) = 0.02269961
#
# Stress axis : x y z
#
# Youngs Moduli (GPa) = 88.71490 41.55517 66.77967
#
# Poissons Ratio (x) = 0.15246 0.46128
# Poissons Ratio (y) = 0.32547 0.21566
# Poissons Ratio (z) = 0.61280 0.13420
#
# Static dielectric constant tensor:
#      x y z
#    x 3.967440 0.000000 0.127630 
#    y 0.000000 3.234950 0.000000 
#    z 0.127630 0.000000 3.475430 
# 
# 
# High freq. dielectric constant tensor:
#      x y z
#    x 1.762940 0.000000 0.004530 
#    y 0.000000 1.715600 0.000000 
#    z 0.004530 0.000000 1.743480 
# 
# From -- ./inp_files/31225.got.cif
#   From: 2010.06.25/outbox.cif.g09.slc.cpg/sg10_16_cif.got.tgz:31225.got - 2010.06.27 22:07:45.
