data_PCOD8057150
_publ_section_title
;
Structure prediction by ZEFSAII (Michael W. Deem and Ramdas Pophale) SiO2 
 PCOD8057150
Probable space group: P 2/M
;
_chemical_formula_sum "Si O2"
_cell_formula_units_Z 32
_cell_length_a 15.622809
_cell_length_b 9.172805
_cell_length_c 14.663769
_cell_angle_alpha 90.000000
_cell_angle_beta 62.239569
_cell_angle_gamma 90.000000
_cell_volume 1859.527011
_symmetry_space_group_name_H-M "P 2/M"
_symmetry_group_IT_number 10
_symmetry_cell_setting 'monoclinic'
loop_
_space_group_symop_operation_xyz
x,y,z
-x,y,-z
-x,-y,-z
x,-y,z
loop_
_atom_site_type_symbol
_atom_site_label
_atom_site_fract_x
_atom_site_fract_y
_atom_site_fract_z
Si Si1 0.784299 0.672849 0.081643
Si Si2 0.238579 0.172903 0.349248
Si Si3 0.399017 0.672514 0.162176
Si Si4 0.932302 0.828882 0.691309
Si Si5 0.383920 0.327542 0.965521
Si Si6 0.938593 0.834098 0.894843
Si Si7 0.145727 0.827230 0.580496
Si Si8 0.165405 0.167499 0.771500
O O1 0.783127 0.500000 0.087366
O O2 0.697101 0.735340 0.062388
O O3 0.772009 0.736537 0.189464
O O4 0.885565 0.725753 0.989797
O O5 0.337773 0.247138 0.269956
O O6 0.150538 0.237645 0.332264
O O7 0.218704 0.217951 0.464039
O O8 0.248334 0.000000 0.333384
O O9 0.386515 0.500000 0.179417
O O10 0.510206 0.721280 0.121248
O O11 0.364797 0.725965 0.078651
O O12 0.906255 0.793183 0.808593
O O13 0.038093 0.762672 0.614352
O O14 0.935750 0.000000 0.672075
O O15 0.379959 0.500000 0.968622
O O16 0.052566 0.814413 0.850315
O O17 0.908796 0.000000 0.933096
O O18 0.185712 0.772993 0.658734
O O19 0.133454 0.000000 0.593891
O O20 0.197520 0.000000 0.765445
#
# Coordination Sequence:
#
# PCOD8057150 Si02
#       8
#     4   4   4   4   4   4   4   4
#     4  11  20  29  45  68  89 111 147 191 227 255
#     4  10  17  26  46  74  95 111 143 189 225 252
#     4   9  17  33  52  66  87 119 147 171 215 277
#     4   8  14  25  43  67  93 121 150 177 209 256
#     4   8  17  33  50  66  87 118 149 175 212 272
#     4   9  17  29  44  64  92 123 151 176 209 262
#     4   8  15  28  45  64  90 124 154 178 210 257
#     4   9  18  32  46  61  87 125 159 179 206 257
#
# _framework density 17.208677000000002
#
# number of rings (size 3 to 8) (size 9 to 14) (size 15 to 20)
#    0.000    3.000    0.000    4.125    0.000    3.500 
#    0.000    3.750    0.000    3.750    0.000    5.250 
#    0.000    0.000    0.000    0.000    0.000    0.000 
#
# Total GULP energy -396658.483045 kJ/mol
# GULP energy per Si atom -12395.577595 kJ/mol
# Density = 1.716951 g / cm^3
# Si number density = 17.208677 Si / 1000 Ang^3
#
#
#
# Elastic Constant Matrix: (Units=GPa)
#
#
# Indices 1 2 3 4 5 6 
#
# 1 78.1142 24.9558 52.9519 0.0000 15.6694 0.0000
# 2 24.9558 36.9846 33.2292 0.0000 3.5360 0.0000
# 3 52.9519 33.2292 120.1463 0.0000 3.4356 0.0000
# 4 0.0000 0.0000 0.0000 2.8935 0.0000 -4.7957
# 5 15.6694 3.5360 3.4356 0.0000 23.4396 0.0000
# 6 0.0000 0.0000 0.0000 -4.7957 0.0000 20.4213
#
#
#
# Elastic Compliance Matrix: (Units=1/GPa)
#
#
# Indices 1 2 3 4 5 6 
#
# 1 0.023034 -0.007321 -0.007751 0.000000 -0.013158 0.000000
# 2 -0.007321 0.038680 -0.007476 0.000000 0.000155 0.000000
# 3 -0.007751 -0.007476 0.013684 0.000000 0.004304 0.000000
# 4 0.000000 0.000000 0.000000 0.565822 0.000000 0.132876
# 5 -0.013158 0.000155 0.004304 0.000000 0.050805 0.000000
# 6 0.000000 0.000000 0.000000 0.132876 0.000000 0.080173
#
#
# Mechanical properties :
#
#
# Convention : Reuss Voigt Hill
#
# Bulk Modulus (GPa) = 32.99989 50.83544 41.91767
# Shear Modulus (GPa) = 6.04308 17.62476 11.83392
#
# Velocity S-wave (km/s) = 1.87597 3.20375 2.62519
# Velocity P-wave (km/s) = 4.88982 6.57952 5.79657
#
# Compressibility (1/GPa) = 0.03030313
#
# Stress axis : x y z
#
# Youngs Moduli (GPa) = 43.41377 25.85312 73.07947
#
# Poissons Ratio (x) = 0.18927 0.56643
# Poissons Ratio (y) = 0.31782 0.54633
# Poissons Ratio (z) = 0.33649 0.19327
#
# Static dielectric constant tensor:
#      x y z
#    x 3.426650 0.000000 0.202560 
#    y 0.000000 2.787780 0.000000 
#    z 0.202560 0.000000 3.269640 
# 
# 
# High freq. dielectric constant tensor:
#      x y z
#    x 1.654390 0.000000 0.013570 
#    y 0.000000 1.622950 0.000000 
#    z 0.013570 0.000000 1.662540 
# 
# From -- ./inp_files/66544.got.cif
#   From: 2010.06.25/outbox.cif.g09.slc.cpg/sg10_34_cif.got.tgz:66544.got - 2010.06.27 22:07:45.
