data_PCOD8057997
_publ_section_title
;
Structure prediction by ZEFSAII (Michael W. Deem and Ramdas Pophale) SiO2 
 PCOD8057997
Probable space group: P 2/M
;
_chemical_formula_sum "Si O2"
_cell_formula_units_Z 32
_cell_length_a 19.612174
_cell_length_b 9.164440
_cell_length_c 23.668701
_cell_angle_alpha 90.000000
_cell_angle_beta 23.905097
_cell_angle_gamma 90.000000
_cell_volume 1723.852454
_symmetry_space_group_name_H-M "P 2/M"
_symmetry_group_IT_number 10
_symmetry_cell_setting 'monoclinic'
loop_
_space_group_symop_operation_xyz
x,y,z
-x,y,-z
-x,-y,-z
x,-y,z
loop_
_atom_site_type_symbol
_atom_site_label
_atom_site_fract_x
_atom_site_fract_y
_atom_site_fract_z
Si Si1 0.329686 0.167399 0.957046
Si Si2 0.756069 0.331906 0.405214
Si Si3 0.536788 0.336430 0.881928
Si Si4 0.406574 0.169937 0.666141
Si Si5 0.772417 0.665277 0.798608
Si Si6 0.793582 0.169140 0.069403
Si Si7 0.978889 0.830935 0.725764
Si Si8 0.130276 0.332225 0.805268
O O1 0.495280 0.243425 0.857678
O O2 0.293678 0.228096 0.921663
O O3 0.378089 0.000000 0.917406
O O4 0.165641 0.195654 0.118837
O O5 0.719162 0.500000 0.448364
O O6 0.584330 0.246928 0.526333
O O7 0.866015 0.319649 0.265164
O O8 0.857119 0.257813 0.379759
O O9 0.571097 0.500000 0.835437
O O10 0.701899 0.279305 0.791073
O O11 0.379495 0.330903 0.042566
O O12 0.337845 0.192149 0.781146
O O13 0.286069 0.244067 0.712062
O O14 0.424519 0.000000 0.637348
O O15 0.841383 0.500000 0.741402
O O16 0.919706 0.771045 0.709385
O O17 0.847575 0.000000 0.021813
O O18 0.958858 0.262087 0.958253
O O19 0.026094 0.000000 0.684023
O O20 0.140124 0.500000 0.817642
#
# Coordination Sequence:
#
# PCOD8057997 Si02
#       8
#     4   4   4   4   4   4   4   4
#     4   9  17  29  47  71 101 133 168 212 253 298
#     4  11  23  38  55  77 106 138 173 216 263 311
#     4   8  14  24  40  64  97 135 170 204 249 302
#     4  11  24  39  57  78 104 138 174 215 262 313
#     4   8  14  25  40  63  99 136 167 206 253 299
#     4  10  21  38  56  78 107 139 174 213 261 311
#     4  10  18  29  49  74 100 134 174 213 254 305
#     4  11  23  38  58  81 104 134 172 216 264 313
#
# _framework density 18.563072999999999
#
# number of rings (size 3 to 8) (size 9 to 14) (size 15 to 20)
#    0.000    2.250    1.250    3.000    0.000    7.000 
#    0.000    2.500    0.000    0.000    0.000    0.875 
#    0.000    7.000    0.000    0.000    0.000    0.000 
#
# Total GULP energy -396777.223276 kJ/mol
# GULP energy per Si atom -12399.288227 kJ/mol
# Density = 1.852082 g / cm^3
# Si number density = 18.563073 Si / 1000 Ang^3
#
#
#
# Elastic Constant Matrix: (Units=GPa)
#
#
# Indices 1 2 3 4 5 6 
#
# 1 96.9813 50.7442 23.2821 0.0000 -36.6970 0.0000
# 2 50.7442 105.5711 20.4674 0.0000 -11.7784 0.0000
# 3 23.2821 20.4674 11.3493 0.0000 6.3820 0.0000
# 4 0.0000 0.0000 0.0000 25.4609 0.0000 -10.3134
# 5 -36.6970 -11.7784 6.3820 0.0000 17.7308 0.0000
# 6 0.0000 0.0000 0.0000 -10.3134 0.0000 35.3641
#
#
#
# Elastic Compliance Matrix: (Units=1/GPa)
#
#
# Indices 1 2 3 4 5 6 
#
# 1 -0.003301 -0.007974 0.035068 0.000000 -0.024750 0.000000
# 2 -0.007974 0.013727 -0.005323 0.000000 -0.005468 0.000000
# 3 0.035068 -0.005323 -0.016364 0.000000 0.074933 0.000000
# 4 0.000000 0.000000 0.000000 0.044537 0.000000 0.012989
# 5 -0.024750 -0.005468 0.074933 0.000000 -0.025429 0.000000
# 6 0.000000 0.000000 0.000000 0.012989 0.000000 0.032065
#
#
# Mechanical properties :
#
#
# Convention : Reuss Voigt Hill
#
# Bulk Modulus (GPa) = 26.59261 44.76548 35.67904
# Shear Modulus (GPa) = 351.40602 23.67170 187.53886
#
# Velocity S-wave (km/s) = 13.77370 3.57487 10.06217
# Velocity P-wave (km/s) = 16.34961 6.41929 12.42008
#
# Compressibility (1/GPa) = 0.03760444
#
# Stress axis : x y z
#
# Youngs Moduli (GPa) = -302.98242 72.84993 -61.11011
#
# Poissons Ratio (x) = 0.58087 2.14299
# Poissons Ratio (y) = -2.41585 -0.32530
# Poissons Ratio (z) = 10.62490 0.38779
#
# Static dielectric constant tensor:
#      x y z
#    x 3.730240 0.000000 -0.272770 
#    y 0.000000 3.524270 0.000000 
#    z -0.272770 0.000000 3.073590 
# 
# 
# High freq. dielectric constant tensor:
#      x y z
#    x 1.729100 0.000000 -0.024550 
#    y 0.000000 1.724790 0.000000 
#    z -0.024550 0.000000 1.678620 
# 
# From -- ./inp_files/93623.got.cif
#   From: 2010.06.25/outbox.cif.g09.slc.cpg/sg10_47_cif.got.tgz:93623.got - 2010.06.27 22:07:45.
