data_PCOD8057358
_publ_section_title
;
Structure prediction by ZEFSAII (Michael W. Deem and Ramdas Pophale) SiO2 
 PCOD8057358
Probable space group: P 2/M
;
_chemical_formula_sum "Si O2"
_cell_formula_units_Z 20
_cell_length_a 19.111239
_cell_length_b 9.126772
_cell_length_c 14.068379
_cell_angle_alpha 90.000000
_cell_angle_beta 148.326061
_cell_angle_gamma 90.000000
_cell_volume 1288.485068
_symmetry_space_group_name_H-M "P 2/M"
_symmetry_group_IT_number 10
_symmetry_cell_setting 'monoclinic'
loop_
_space_group_symop_operation_xyz
x,y,z
-x,y,-z
-x,-y,-z
x,-y,z
loop_
_atom_site_type_symbol
_atom_site_label
_atom_site_fract_x
_atom_site_fract_y
_atom_site_fract_z
Si Si1 0.577175 0.838059 0.323584
Si Si2 0.151837 0.669556 0.702690
Si Si3 0.646350 0.827949 0.199347
Si Si4 0.465359 0.327905 0.353604
Si Si5 0.713770 0.163486 0.982463
O O1 0.663504 0.791689 0.332021
O O2 0.586233 0.725028 0.423057
O O3 0.620586 0.000000 0.409363
O O4 0.421055 0.845047 0.109209
O O5 0.188481 0.500000 0.756923
O O6 0.241196 0.736679 0.723166
O O7 0.175042 0.749183 0.830381
O O8 0.000000 0.694350 0.500000
O O9 0.666929 0.000000 0.203142
O O10 0.500000 0.775161 0.000000
O O11 0.500000 0.279655 0.500000
O O12 0.446429 0.500000 0.322191
O O13 0.326892 0.248393 0.162284
O O14 0.766557 0.000000 0.019387
#
# Coordination Sequence:
#
# PCOD8057358 Si02
#       5
#     4   4   4   4   4
#     4   8  16  27  43  67  92 117 151 190 228 271
#     4  11  23  34  45  67  98 130 162 194 232 281
#     4  10  17  30  49  68  91 121 158 197 234 275
#     4   9  16  26  43  69  98 123 149 188 237 282
#     4   9  17  30  46  65  91 122 156 192 229 271
#
# _framework density 15.522104000000001
#
# number of rings (size 3 to 8) (size 9 to 14) (size 15 to 20)
#    1.200    1.400    2.000    1.200    0.000    4.400 
#    0.000    0.000    0.000    0.000    0.000    1.400 
#    0.000   11.200    0.000    0.000    0.000    0.000 
#
# Total GULP energy -247769.646205 kJ/mol
# GULP energy per Si atom -12388.482310 kJ/mol
# Density = 1.548678 g / cm^3
# Si number density = 15.522104 Si / 1000 Ang^3
#
#
#
# Elastic Constant Matrix: (Units=GPa)
#
#
# Indices 1 2 3 4 5 6 
#
# 1 80.7282 57.0782 47.5368 0.0000 -18.4016 0.0000
# 2 57.0782 108.8544 51.9272 0.0000 -17.1609 0.0000
# 3 47.5368 51.9272 62.9916 0.0000 -15.9931 0.0000
# 4 0.0000 0.0000 0.0000 19.2223 0.0000 -4.9445
# 5 -18.4016 -17.1609 -15.9931 0.0000 27.0277 0.0000
# 6 0.0000 0.0000 0.0000 -4.9445 0.0000 26.1431
#
#
#
# Elastic Compliance Matrix: (Units=1/GPa)
#
#
# Indices 1 2 3 4 5 6 
#
# 1 0.025778 -0.006624 -0.012480 0.000000 0.005960 0.000000
# 2 -0.006624 0.017002 -0.008733 0.000000 0.001118 0.000000
# 3 -0.012480 -0.008733 0.034041 0.000000 0.006101 0.000000
# 4 0.000000 0.000000 0.000000 0.054683 0.000000 0.010342
# 5 0.005960 0.001118 0.006101 0.000000 0.045377 0.000000
# 6 0.000000 0.000000 0.000000 0.010342 0.000000 0.040207
#
#
# Mechanical properties :
#
#
# Convention : Reuss Voigt Hill
#
# Bulk Modulus (GPa) = 47.28616 62.85097 55.06857
# Shear Modulus (GPa) = 17.86915 20.88073 19.37494
#
# Velocity S-wave (km/s) = 3.39662 3.67171 3.53684
# Velocity P-wave (km/s) = 6.77589 7.65209 7.22728
#
# Compressibility (1/GPa) = 0.02114784
#
# Stress axis : x y z
#
# Youngs Moduli (GPa) = 38.79293 58.81639 29.37602
#
# Poissons Ratio (x) = 0.38959 0.36660
# Poissons Ratio (y) = 0.25696 0.25655
# Poissons Ratio (z) = 0.48413 0.51366
#
# Static dielectric constant tensor:
#      x y z
#    x 2.809170 0.000000 -0.142330 
#    y 0.000000 2.994090 0.000000 
#    z -0.142330 0.000000 2.629070 
# 
# 
# High freq. dielectric constant tensor:
#      x y z
#    x 1.578460 0.000000 -0.020760 
#    y 0.000000 1.606570 0.000000 
#    z -0.020760 0.000000 1.554580 
# 
# From -- ./inp_files/68433.got.cif
#   From: 2010.06.25/outbox.cif.g09.slc.cpg/sg10_35_cif.got.tgz:68433.got - 2010.06.27 22:07:45.
