data_PCOD8057760
_publ_section_title
;
Structure prediction by ZEFSAII (Michael W. Deem and Ramdas Pophale) SiO2 
 PCOD8057760
Probable space group: P 2/M
;
_chemical_formula_sum "Si O2"
_cell_formula_units_Z 32
_cell_length_a 14.969553
_cell_length_b 13.792743
_cell_length_c 18.312271
_cell_angle_alpha 90.000000
_cell_angle_beta 150.999150
_cell_angle_gamma 90.000000
_cell_volume 1833.093153
_symmetry_space_group_name_H-M "P 2/M"
_symmetry_group_IT_number 10
_symmetry_cell_setting 'monoclinic'
loop_
_space_group_symop_operation_xyz
x,y,z
-x,y,-z
-x,-y,-z
x,-y,z
loop_
_atom_site_type_symbol
_atom_site_label
_atom_site_fract_x
_atom_site_fract_y
_atom_site_fract_z
Si Si1 0.117787 0.283330 0.260067
Si Si2 0.553381 0.884762 0.155733
Si Si3 0.554552 0.791304 0.311284
Si Si4 0.296989 0.608868 0.508423
Si Si5 0.156122 0.266926 0.058295
Si Si6 0.677670 0.393942 0.709812
Si Si7 0.222171 0.886166 0.820199
Si Si8 0.159133 0.887820 0.386677
O O1 0.122465 0.349134 0.337549
O O2 0.278796 0.314590 0.320076
O O3 0.155543 0.171794 0.308673
O O4 0.923350 0.291762 0.078867
O O5 0.587672 0.823592 0.252669
O O6 0.713305 0.850837 0.213667
O O7 0.559641 0.000000 0.177114
O O8 0.358223 0.850964 0.981977
O O9 0.642444 0.683127 0.384015
O O10 0.338516 0.798522 0.178387
O O11 0.655101 0.866845 0.436456
O O12 0.255506 0.500000 0.509492
O O13 0.459850 0.604537 0.565636
O O14 0.217370 0.367446 0.139918
O O15 0.000000 0.217003 0.000000
O O16 0.746931 0.500000 0.734316
O O17 0.014419 0.853185 0.687897
O O18 0.242062 0.000000 0.832759
O O19 0.145517 0.000000 0.355981
#
# Coordination Sequence:
#
# PCOD8057760 Si02
#       8
#     4   4   4   4   4   4   4   4
#     4  10  18  28  48  70  90 122 157 194 235 282
#     4   9  16  29  51  77 102 126 154 192 236 283
#     4  10  19  31  49  71  96 128 160 196 240 284
#     4   9  18  31  47  69  96 123 155 196 242 287
#     4   9  19  32  47  67  95 124 159 202 244 284
#     4   9  17  30  49  72  96 120 152 201 252 288
#     4   8  16  30  49  75 102 125 154 194 239 282
#     4  10  20  33  48  69  98 129 161 196 233 281
#
# _framework density 17.456833
#
# number of rings (size 3 to 8) (size 9 to 14) (size 15 to 20)
#    0.000    2.750    0.000    2.625    0.000    5.250 
#    0.000    2.500    0.000   35.625    0.000    9.625 
#    0.000    0.000    0.000    0.250    0.000    0.000 
#
# Total GULP energy -396511.152808 kJ/mol
# GULP energy per Si atom -12390.973525 kJ/mol
# Density = 1.741710 g / cm^3
# Si number density = 17.456833 Si / 1000 Ang^3
#
#
#
# Elastic Constant Matrix: (Units=GPa)
#
#
# Indices 1 2 3 4 5 6 
#
# 1 80.7849 51.6688 47.7205 0.0000 -9.5684 0.0000
# 2 51.6688 102.5088 40.8078 0.0000 -9.3559 0.0000
# 3 47.7205 40.8078 118.9316 0.0000 -10.6486 0.0000
# 4 0.0000 0.0000 0.0000 18.4845 0.0000 -5.8145
# 5 -9.5684 -9.3559 -10.6486 0.0000 27.3597 0.0000
# 6 0.0000 0.0000 0.0000 -5.8145 0.0000 19.5407
#
#
#
# Elastic Compliance Matrix: (Units=1/GPa)
#
#
# Indices 1 2 3 4 5 6 
#
# 1 0.021181 -0.008288 -0.005435 0.000000 0.002458 0.000000
# 2 -0.008288 0.014701 -0.001583 0.000000 0.001512 0.000000
# 3 -0.005435 -0.001583 0.011308 0.000000 0.001959 0.000000
# 4 0.000000 0.000000 0.000000 0.059686 0.000000 0.017760
# 5 0.002458 0.001512 0.001959 0.000000 0.038689 0.000000
# 6 0.000000 0.000000 0.000000 0.017760 0.000000 0.056460
#
#
# Mechanical properties :
#
#
# Convention : Reuss Voigt Hill
#
# Bulk Modulus (GPa) = 60.32405 64.73549 62.52977
# Shear Modulus (GPa) = 20.99396 23.87886 22.43641
#
# Velocity S-wave (km/s) = 3.47165 3.70250 3.58893
# Velocity P-wave (km/s) = 7.12046 7.44592 7.28501
#
# Compressibility (1/GPa) = 0.01657714
#
# Stress axis : x y z
#
# Youngs Moduli (GPa) = 47.21181 68.02156 88.43676
#
# Poissons Ratio (x) = 0.56378 0.48064
# Poissons Ratio (y) = 0.39131 0.14002
# Poissons Ratio (z) = 0.25659 0.10770
#
# Static dielectric constant tensor:
#      x y z
#    x 3.265640 0.000000 0.107930 
#    y 0.000000 3.158710 0.000000 
#    z 0.107930 0.000000 3.534730 
# 
# 
# High freq. dielectric constant tensor:
#      x y z
#    x 1.648800 0.000000 -0.007450 
#    y 0.000000 1.647970 0.000000 
#    z -0.007450 0.000000 1.691280 
# 
# From -- ./inp_files/78296.got.cif
#   From: 2010.06.25/outbox.cif.g09.slc.cpg/sg10_40_cif.got.tgz:78296.got - 2010.06.27 22:07:45.
