data_PCOD8057384
_publ_section_title
;
Structure prediction by ZEFSAII (Michael W. Deem and Ramdas Pophale) SiO2 
 PCOD8057384
Probable space group: P 2/M
;
_chemical_formula_sum "Si O2"
_cell_formula_units_Z 32
_cell_length_a 20.740243
_cell_length_b 9.083377
_cell_length_c 25.541365
_cell_angle_alpha 90.000000
_cell_angle_beta 22.111973
_cell_angle_gamma 90.000000
_cell_volume 1811.237980
_symmetry_space_group_name_H-M "P 2/M"
_symmetry_group_IT_number 10
_symmetry_cell_setting 'monoclinic'
loop_
_space_group_symop_operation_xyz
x,y,z
-x,y,-z
-x,-y,-z
x,-y,z
loop_
_atom_site_type_symbol
_atom_site_label
_atom_site_fract_x
_atom_site_fract_y
_atom_site_fract_z
Si Si1 0.017812 0.831049 0.142094
Si Si2 0.327712 0.327144 0.864263
Si Si3 0.906804 0.825446 0.413485
Si Si4 0.634678 0.175054 0.440617
Si Si5 0.501136 0.672729 0.155233
Si Si6 0.850070 0.826735 0.573322
Si Si7 0.809119 0.831137 0.877481
Si Si8 0.573486 0.824719 0.603762
O O1 0.824371 0.771299 0.282157
O O2 0.070150 0.815119 0.163023
O O3 0.034591 0.000000 0.111121
O O4 0.135222 0.731271 0.016609
O O5 0.322230 0.500000 0.858853
O O6 0.440475 0.284659 0.830163
O O7 0.405983 0.247493 0.755064
O O8 0.904770 0.769827 0.474714
O O9 0.740144 0.764181 0.508947
O O10 0.080845 0.770402 0.254497
O O11 0.903279 0.000000 0.412512
O O12 0.500000 0.239273 0.500000
O O13 0.583598 0.231537 0.536577
O O14 0.633089 0.000000 0.442231
O O15 0.485473 0.500000 0.159159
O O16 0.320151 0.746463 0.279233
O O17 0.638846 0.733722 0.010180
O O18 0.000000 0.783283 0.500000
O O19 0.813598 0.000000 0.600269
O O20 0.752539 0.000000 0.912058
O O21 0.558042 0.000000 0.619393
#
# Coordination Sequence:
#
# PCOD8057384 Si02
#       8
#     4   4   4   4   4   4   4   4
#     4   9  16  29  50  74  98 129 164 200 251 301
#     4  10  20  32  48  74 103 130 166 211 249 289
#     4   9  16  29  51  77  99 123 165 210 245 288
#     4   9  17  30  51  80 107 128 161 210 257 300
#     4  10  20  33  49  73 103 133 164 203 253 299
#     4  10  20  34  53  76 102 133 167 204 247 297
#     4   9  16  29  51  75  97 125 164 208 248 292
#     4  10  17  30  53  77 100 130 166 207 252 295
#
# _framework density 17.667475
#
# number of rings (size 3 to 8) (size 9 to 14) (size 15 to 20)
#    0.000    2.500    2.500    0.750    0.000    1.250 
#    0.000    3.125    0.000    9.000    0.000    0.000 
#    0.000    0.000    0.000    0.000    0.000    0.000 
#
# Total GULP energy -396827.851941 kJ/mol
# GULP energy per Si atom -12400.870373 kJ/mol
# Density = 1.762726 g / cm^3
# Si number density = 17.667475 Si / 1000 Ang^3
#
#
#
# Elastic Constant Matrix: (Units=GPa)
#
#
# Indices 1 2 3 4 5 6 
#
# 1 109.2999 28.5270 74.8088 0.0000 2.6548 0.0000
# 2 28.5270 42.0910 45.0377 0.0000 -2.5125 0.0000
# 3 74.8088 45.0377 169.5298 0.0000 3.6647 0.0000
# 4 0.0000 0.0000 0.0000 3.6553 0.0000 -1.8716
# 5 2.6548 -2.5125 3.6647 0.0000 27.3760 0.0000
# 6 0.0000 0.0000 0.0000 -1.8716 0.0000 10.6104
#
#
#
# Elastic Compliance Matrix: (Units=1/GPa)
#
#
# Indices 1 2 3 4 5 6 
#
# 1 0.013578 -0.004019 -0.004902 0.000000 -0.001029 0.000000
# 2 -0.004019 0.034881 -0.007593 0.000000 0.004607 0.000000
# 3 -0.004902 -0.007593 0.010113 0.000000 -0.001575 0.000000
# 4 0.000000 0.000000 0.000000 0.300736 0.000000 0.053048
# 5 -0.001029 0.004607 -0.001575 0.000000 0.037262 0.000000
# 6 0.000000 0.000000 0.000000 0.053048 0.000000 0.103604
#
#
# Mechanical properties :
#
#
# Convention : Reuss Voigt Hill
#
# Bulk Modulus (GPa) = 39.14640 68.62974 53.88807
# Shear Modulus (GPa) = 9.22993 19.83149 14.53071
#
# Velocity S-wave (km/s) = 2.28814 3.35399 2.87096
# Velocity P-wave (km/s) = 5.40243 7.34361 6.44650
#
# Compressibility (1/GPa) = 0.02554513
#
# Stress axis : x y z
#
# Youngs Moduli (GPa) = 73.64884 28.66868 98.88504
#
# Poissons Ratio (x) = 0.11522 0.48469
# Poissons Ratio (y) = 0.29600 0.75081
# Poissons Ratio (z) = 0.36100 0.21767
#
# Static dielectric constant tensor:
#      x y z
#    x 3.214200 0.000000 0.082900 
#    y 0.000000 2.937690 0.000000 
#    z 0.082900 0.000000 3.400280 
# 
# 
# High freq. dielectric constant tensor:
#      x y z
#    x 1.659610 0.000000 0.009680 
#    y 0.000000 1.651810 0.000000 
#    z 0.009680 0.000000 1.697870 
# 
# From -- ./inp_files/86884.got.cif
#   From: 2010.06.25/outbox.cif.g09.slc.cpg/sg10_44_cif.got.tgz:86884.got - 2010.06.27 22:07:45.
