data_PCOD8057298
_publ_section_title
;
Structure prediction by ZEFSAII (Michael W. Deem and Ramdas Pophale) SiO2 
 PCOD8057298
Probable space group: P 2/M
;
_chemical_formula_sum "Si O2"
_cell_formula_units_Z 28
_cell_length_a 12.048501
_cell_length_b 17.319808
_cell_length_c 20.285324
_cell_angle_alpha 90.000000
_cell_angle_beta 20.166845
_cell_angle_gamma 90.000000
_cell_volume 1459.381043
_symmetry_space_group_name_H-M "P 2/M"
_symmetry_group_IT_number 10
_symmetry_cell_setting 'monoclinic'
loop_
_space_group_symop_operation_xyz
x,y,z
-x,y,-z
-x,-y,-z
x,-y,z
loop_
_atom_site_type_symbol
_atom_site_label
_atom_site_fract_x
_atom_site_fract_y
_atom_site_fract_z
Si Si1 0.410521 0.090897 0.201937
Si Si2 0.162607 0.085263 0.150087
Si Si3 0.373084 0.500000 0.275692
Si Si4 0.113206 0.180866 0.590081
Si Si5 0.747216 0.500000 0.803790
Si Si6 0.622310 0.667148 0.725244
Si Si7 0.628920 0.817171 0.200243
Si Si8 0.754470 0.666800 0.799547
O O1 0.457458 0.119044 0.250049
O O2 0.127123 0.140331 0.327325
O O3 0.320889 0.000000 0.249903
O O4 0.748375 0.106910 0.974840
O O5 0.901167 0.140844 0.329934
O O6 0.014415 0.000000 0.237120
O O7 0.500000 0.090233 0.000000
O O8 0.441788 0.500000 0.159594
O O9 0.504168 0.582332 0.230407
O O10 0.000000 0.500000 0.500000
O O11 0.470113 0.176398 0.361126
O O12 0.032137 0.270115 0.647435
O O13 0.934763 0.582286 0.704162
O O14 0.500000 0.500000 0.000000
O O15 0.413753 0.731493 0.805141
O O16 0.565613 0.673767 0.835402
O O17 0.000000 0.680021 0.500000
O O18 0.000000 0.837500 0.000000
O O19 0.500000 0.680543 0.000000
#
# Coordination Sequence:
#
# PCOD8057298 Si02
#       8
#     4   4   2   4   2   4   4   4
#     4  10  20  37  60  81 100 128 168 215 263 311
#     4   8  16  31  55  84 103 118 158 217 265 307
#     4   8  16  26  53  78  99 129 167 215 257 294
#     4  11  19  33  56  80 102 132 173 212 258 304
#     4   8  16  26  40  80 118 128 146 202 270 312
#     4  10  17  35  54  78 104 134 174 214 256 299
#     4  12  25  37  48  71 110 146 176 211 249 300
#     4  10  17  28  54  83 107 130 164 212 261 307
#
# _framework density 19.186216999999999
#
# number of rings (size 3 to 8) (size 9 to 14) (size 15 to 20)
#    0.000    2.143    2.857    3.000    0.000    2.000 
#    0.000    1.071    0.000    1.714    0.000    0.000 
#    0.000    6.857    0.000    0.000    0.000    0.000 
#
# Total GULP energy -346870.150075 kJ/mol
# GULP energy per Si atom -12388.219646 kJ/mol
# Density = 1.914255 g / cm^3
# Si number density = 19.186217 Si / 1000 Ang^3
#
#
#
# Elastic Constant Matrix: (Units=GPa)
#
#
# Indices 1 2 3 4 5 6 
#
# 1 29.4508 9.7953 20.0594 0.0000 22.6882 0.0000
# 2 9.7953 129.2028 32.1739 0.0000 11.0681 0.0000
# 3 20.0594 32.1739 84.4980 0.0000 25.6028 0.0000
# 4 0.0000 0.0000 0.0000 14.5437 0.0000 10.5642
# 5 22.6882 11.0681 25.6028 0.0000 32.6330 0.0000
# 6 0.0000 0.0000 0.0000 10.5642 0.0000 20.8738
#
#
#
# Elastic Compliance Matrix: (Units=1/GPa)
#
#
# Indices 1 2 3 4 5 6 
#
# 1 0.073618 -0.000804 -0.002289 0.000000 -0.049115 0.000000
# 2 -0.000804 0.008564 -0.003095 0.000000 0.000083 0.000000
# 3 -0.002289 -0.003095 0.016734 0.000000 -0.010488 0.000000
# 4 0.000000 0.000000 0.000000 0.108728 0.000000 -0.055027
# 5 -0.049115 0.000083 -0.010488 0.000000 0.072992 0.000000
# 6 0.000000 0.000000 0.000000 -0.055027 0.000000 0.075756
#
#
# Mechanical properties :
#
#
# Convention : Reuss Voigt Hill
#
# Bulk Modulus (GPa) = 11.55513 40.80095 26.17804
# Shear Modulus (GPa) = 12.57494 25.68500 19.12997
#
# Velocity S-wave (km/s) = 2.56288 3.66282 3.16106
# Velocity P-wave (km/s) = 3.84624 6.26101 5.19586
#
# Compressibility (1/GPa) = 0.08654163
#
# Stress axis : x y z
#
# Youngs Moduli (GPa) = 13.58357 116.76236 59.75722
#
# Poissons Ratio (x) = 0.09386 0.13676
# Poissons Ratio (y) = 0.01092 0.18496
# Poissons Ratio (z) = 0.03109 0.36140
#
# Static dielectric constant tensor:
#      x y z
#    x 3.437820 0.000000 0.688560 
#    y 0.000000 4.117310 0.000000 
#    z 0.688560 0.000000 3.286920 
# 
# 
# High freq. dielectric constant tensor:
#      x y z
#    x 1.713510 0.000000 0.064960 
#    y 0.000000 1.775610 0.000000 
#    z 0.064960 0.000000 1.707770 
# 
# From -- ./inp_files/30220.got.cif
#   From: 2010.06.25/outbox.cif.g09.slc.cpg/sg10_16_cif.got.tgz:30220.got - 2010.06.27 22:07:45.
