data_PCOD8057114
_publ_section_title
;
Structure prediction by ZEFSAII (Michael W. Deem and Ramdas Pophale) SiO2 
 PCOD8057114
Probable space group: P 2/M
;
_chemical_formula_sum "Si O2"
_cell_formula_units_Z 30
_cell_length_a 25.988507
_cell_length_b 12.985342
_cell_length_c 26.922771
_cell_angle_alpha 90.000000
_cell_angle_beta 169.017310
_cell_angle_gamma 90.000000
_cell_volume 1730.923108
_symmetry_space_group_name_H-M "P 2/M"
_symmetry_group_IT_number 10
_symmetry_cell_setting 'monoclinic'
loop_
_space_group_symop_operation_xyz
x,y,z
-x,y,-z
-x,-y,-z
x,-y,z
loop_
_atom_site_type_symbol
_atom_site_label
_atom_site_fract_x
_atom_site_fract_y
_atom_site_fract_z
Si Si1 0.490086 0.192342 0.346353
Si Si2 0.692605 0.621862 0.072280
Si Si3 0.095985 0.621284 0.538602
Si Si4 0.559744 0.615950 0.347400
Si Si5 0.699232 0.276197 0.734861
Si Si6 0.063943 0.116074 0.865465
Si Si7 0.299082 0.500000 0.264681
Si Si8 0.866761 0.309251 0.133378
O O1 0.525714 0.309404 0.361739
O O2 0.368984 0.193541 0.287134
O O3 0.778714 0.137353 0.621512
O O4 0.293867 0.129842 0.124498
O O5 0.716958 0.500000 0.084129
O O6 0.731091 0.686306 0.058547
O O7 0.912679 0.662645 0.319968
O O8 0.403777 0.651622 0.820877
O O9 0.055454 0.500000 0.502840
O O10 0.000000 0.670394 0.500000
O O11 0.560715 0.500000 0.369169
O O12 0.839045 0.639286 0.583732
O O13 0.313326 0.626826 0.075819
O O14 0.500000 0.260236 0.500000
O O15 0.660950 0.389868 0.724806
O O16 0.000000 0.257610 0.000000
O O17 0.111162 0.190761 0.863195
O O18 0.074660 0.000000 0.855168
O O19 0.500000 0.500000 0.500000
O O20 0.000000 0.500000 0.000000
#
# Coordination Sequence:
#
# PCOD8057114 Si02
#       8
#     4   4   4   4   4   4   2   4
#     4  10  21  34  55  78  94 130 164 190 244 296
#     4  10  17  26  43  64  95 130 158 198 236 276
#     4   9  17  27  39  60  92 134 173 196 222 264
#     4  10  19  31  47  70 104 130 154 194 233 295
#     4  10  19  33  51  73 103 129 158 195 230 278
#     4  10  21  39  57  73  96 124 161 210 252 295
#     4   8  16  28  44  68  96 132 156 178 220 266
#     4  10  20  32  48  74  96 126 168 197 249 296
#
# _framework density 17.331792
#
# number of rings (size 3 to 8) (size 9 to 14) (size 15 to 20)
#    0.000    2.267    0.000    3.600    0.933    2.667 
#    0.000    0.000    0.000    8.000    0.000    0.000 
#    0.000    3.200    0.000    0.000    0.000    0.000 
#
# Total GULP energy -371929.121181 kJ/mol
# GULP energy per Si atom -12397.637373 kJ/mol
# Density = 1.729234 g / cm^3
# Si number density = 17.331792 Si / 1000 Ang^3
#
#
#
# Elastic Constant Matrix: (Units=GPa)
#
#
# Indices 1 2 3 4 5 6 
#
# 1 90.5546 30.5830 15.2875 0.0000 7.3917 0.0000
# 2 30.5830 87.7630 19.5124 0.0000 1.7632 0.0000
# 3 15.2875 19.5124 86.2300 0.0000 4.4612 0.0000
# 4 0.0000 0.0000 0.0000 8.0942 0.0000 -2.8108
# 5 7.3917 1.7632 4.4612 0.0000 19.3940 0.0000
# 6 0.0000 0.0000 0.0000 -2.8108 0.0000 20.4538
#
#
#
# Elastic Compliance Matrix: (Units=1/GPa)
#
#
# Indices 1 2 3 4 5 6 
#
# 1 0.013002 -0.004192 -0.001133 0.000000 -0.004314 0.000000
# 2 -0.004192 0.013354 -0.002326 0.000000 0.000919 0.000000
# 3 -0.001133 -0.002326 0.012439 0.000000 -0.002218 0.000000
# 4 0.000000 0.000000 0.000000 0.129736 0.000000 0.017828
# 5 -0.004314 0.000919 -0.002218 0.000000 0.053633 0.000000
# 6 0.000000 0.000000 0.000000 0.017828 0.000000 0.051341
#
#
# Mechanical properties :
#
#
# Convention : Reuss Voigt Hill
#
# Bulk Modulus (GPa) = 42.56808 43.92373 43.24590
# Shear Modulus (GPa) = 16.85551 22.86605 19.86078
#
# Velocity S-wave (km/s) = 3.12191 3.63617 3.38881
# Velocity P-wave (km/s) = 6.13263 6.55949 6.34965
#
# Compressibility (1/GPa) = 0.02349178
#
# Stress axis : x y z
#
# Youngs Moduli (GPa) = 76.90895 74.88425 80.39286
#
# Poissons Ratio (x) = 0.31394 0.09111
# Poissons Ratio (y) = 0.32243 0.18700
# Poissons Ratio (z) = 0.08716 0.17419
#
# Static dielectric constant tensor:
#      x y z
#    x 3.088250 0.000000 0.017700 
#    y 0.000000 3.082650 0.000000 
#    z 0.017700 0.000000 3.847890 
# 
# 
# High freq. dielectric constant tensor:
#      x y z
#    x 1.657510 0.000000 0.002590 
#    y 0.000000 1.628780 0.000000 
#    z 0.002590 0.000000 1.695850 
# 
# From -- ./inp_files/13156.got.cif
#   From: 2010.06.25/outbox.cif.g09.slc.cpg/sg10_7_cif.got.tgz:13156.got - 2010.06.27 22:07:45.
