data_PCOD8057088
_publ_section_title
;
Structure prediction by ZEFSAII (Michael W. Deem and Ramdas Pophale) SiO2 
 PCOD8057088
Probable space group: P 2/M
;
_chemical_formula_sum "Si O2"
_cell_formula_units_Z 28
_cell_length_a 19.144190
_cell_length_b 8.724424
_cell_length_c 28.482997
_cell_angle_alpha 90.000000
_cell_angle_beta 159.301628
_cell_angle_gamma 90.000000
_cell_volume 1681.455185
_symmetry_space_group_name_H-M "P 2/M"
_symmetry_group_IT_number 10
_symmetry_cell_setting 'monoclinic'
loop_
_space_group_symop_operation_xyz
x,y,z
-x,y,-z
-x,-y,-z
x,-y,z
loop_
_atom_site_type_symbol
_atom_site_label
_atom_site_fract_x
_atom_site_fract_y
_atom_site_fract_z
Si Si1 0.551987 0.181318 0.328357
Si Si2 0.087779 0.318782 0.486724
Si Si3 0.349448 0.820511 0.106277
Si Si4 0.573335 0.678970 0.655470
Si Si5 0.322312 0.831237 0.424629
Si Si6 0.918570 0.817413 0.811870
Si Si7 0.256490 0.819864 0.688041
O O1 0.772730 0.255043 0.467176
O O2 0.427179 0.243801 0.205105
O O3 0.436541 0.231957 0.301879
O O4 0.575278 0.000000 0.341127
O O5 0.084511 0.500000 0.482998
O O6 0.175283 0.255815 0.589874
O O7 0.860165 0.255234 0.340936
O O8 0.507634 0.785387 0.163860
O O9 0.320546 0.000000 0.093758
O O10 0.137155 0.750496 0.959199
O O11 0.581542 0.500000 0.670474
O O12 0.378155 0.715499 0.501519
O O13 0.771997 0.733140 0.755167
O O14 0.500000 0.842005 0.500000
O O15 0.133429 0.775808 0.275225
O O16 0.284328 0.000000 0.422768
O O17 0.898600 0.000000 0.806889
O O18 0.214889 0.000000 0.660589
#
# Coordination Sequence:
#
# PCOD8057088 Si02
#       7
#     4   4   4   4   4   4   4
#     4  10  19  32  47  64  89 121 154 183 218 267
#     4  10  17  26  41  63  89 116 147 185 225 258
#     4   8  16  29  47  68  89 117 152 186 215 256
#     4  11  21  31  44  65  92 119 149 186 225 263
#     4   8  15  29  49  67  83 109 147 188 224 260
#     4   9  17  32  50  67  88 116 151 186 221 260
#     4   9  15  26  43  63  87 118 152 181 215 259
#
# _framework density 16.652242999999999
#
# number of rings (size 3 to 8) (size 9 to 14) (size 15 to 20)
#    0.000    2.714    0.000    6.000    0.000    3.143 
#    0.000    7.143    0.000    0.000    0.000    1.000 
#    0.000    8.000    0.000    0.000    0.000    0.000 
#
# Total GULP energy -346926.315042 kJ/mol
# GULP energy per Si atom -12390.225537 kJ/mol
# Density = 1.661434 g / cm^3
# Si number density = 16.652243 Si / 1000 Ang^3
#
#
#
# Elastic Constant Matrix: (Units=GPa)
#
#
# Indices 1 2 3 4 5 6 
#
# 1 42.6135 22.1631 57.9318 0.0000 14.6034 0.0000
# 2 22.1631 86.7739 30.8871 0.0000 7.9617 0.0000
# 3 57.9318 30.8871 110.7311 0.0000 10.8921 0.0000
# 4 0.0000 0.0000 0.0000 5.3506 0.0000 2.2286
# 5 14.6034 7.9617 10.8921 0.0000 18.9572 0.0000
# 6 0.0000 0.0000 0.0000 2.2286 0.0000 19.0996
#
#
#
# Elastic Compliance Matrix: (Units=1/GPa)
#
#
# Indices 1 2 3 4 5 6 
#
# 1 0.129751 -0.006002 -0.060016 0.000000 -0.062948 0.000000
# 2 -0.006002 0.013298 -0.000503 0.000000 -0.000673 0.000000
# 3 -0.060016 -0.000503 0.038159 0.000000 0.024520 0.000000
# 4 0.000000 0.000000 0.000000 0.196441 0.000000 -0.022922
# 5 -0.062948 -0.000673 0.024520 0.000000 0.087436 0.000000
# 6 0.000000 0.000000 0.000000 -0.022922 0.000000 0.055032
#
#
# Mechanical properties :
#
#
# Convention : Reuss Voigt Hill
#
# Bulk Modulus (GPa) = 20.76213 51.34252 36.05233
# Shear Modulus (GPa) = 7.47146 17.29058 12.38102
#
# Velocity S-wave (km/s) = 2.12049 3.22581 2.72969
# Velocity P-wave (km/s) = 4.30005 6.69131 5.62424
#
# Compressibility (1/GPa) = 0.04816462
#
# Stress axis : x y z
#
# Youngs Moduli (GPa) = 7.70709 75.19977 26.20648
#
# Poissons Ratio (x) = 0.45131 1.57282
# Poissons Ratio (y) = 0.04625 0.01319
# Poissons Ratio (z) = 0.46255 0.03785
#
# Static dielectric constant tensor:
#      x y z
#    x 3.279430 0.000000 0.335040 
#    y 0.000000 3.017930 0.000000 
#    z 0.335040 0.000000 3.649720 
# 
# 
# High freq. dielectric constant tensor:
#      x y z
#    x 1.618330 0.000000 0.021820 
#    y 0.000000 1.635890 0.000000 
#    z 0.021820 0.000000 1.622930 
# 
# From -- ./inp_files/95628.got.cif
#   From: 2010.06.25/outbox.cif.g09.slc.cpg/sg10_48_cif.got.tgz:95628.got - 2010.06.27 22:07:45.
