data_PCOD8057903
_publ_section_title
;
Structure prediction by ZEFSAII (Michael W. Deem and Ramdas Pophale) SiO2 
 PCOD8057903
Probable space group: P 2/M
;
_chemical_formula_sum "Si O2"
_cell_formula_units_Z 32
_cell_length_a 23.778849
_cell_length_b 9.466350
_cell_length_c 17.760851
_cell_angle_alpha 90.000000
_cell_angle_beta 30.559298
_cell_angle_gamma 90.000000
_cell_volume 2032.676099
_symmetry_space_group_name_H-M "P 2/M"
_symmetry_group_IT_number 10
_symmetry_cell_setting 'monoclinic'
loop_
_space_group_symop_operation_xyz
x,y,z
-x,y,-z
-x,-y,-z
x,-y,z
loop_
_atom_site_type_symbol
_atom_site_label
_atom_site_fract_x
_atom_site_fract_y
_atom_site_fract_z
Si Si1 0.589222 0.834023 0.723354
Si Si2 0.961620 0.663412 0.462597
Si Si3 0.673038 0.332594 0.165605
Si Si4 0.430929 0.668905 0.399324
Si Si5 0.190460 0.663502 0.129701
Si Si6 0.652772 0.162927 0.945526
Si Si7 0.253165 0.837560 0.322891
Si Si8 0.372565 0.345067 0.624977
O O1 0.621473 0.747437 0.611534
O O2 0.678972 0.791746 0.682029
O O3 0.591435 0.000000 0.703297
O O4 0.469228 0.785968 0.891416
O O5 0.928238 0.500000 0.507809
O O6 0.857343 0.747060 0.552709
O O7 0.000000 0.720216 0.500000
O O8 0.059963 0.687775 0.289305
O O9 0.668018 0.500000 0.182716
O O10 0.559202 0.283780 0.257428
O O11 0.686724 0.266288 0.235004
O O12 0.773770 0.285588 0.995403
O O13 0.419736 0.500000 0.403613
O O14 0.365914 0.725823 0.549585
O O15 0.222236 0.500000 0.104357
O O16 0.254691 0.748358 0.118954
O O17 0.667731 0.188921 0.839582
O O18 0.670461 0.000000 0.946481
O O19 0.216919 0.000000 0.368940
O O20 0.500000 0.359962 0.500000
O O21 0.319572 0.500000 0.677029
#
# Coordination Sequence:
#
# PCOD8057903 Si02
#       8
#     4   4   4   4   4   4   4   4
#     4  10  20  32  45  65  93 120 149 187 225 260
#     4  10  20  33  48  67  92 116 144 190 236 264
#     4   8  13  23  41  65  92 118 146 177 213 263
#     4   9  15  25  44  67  90 118 149 177 214 268
#     4  10  18  29  47  69  92 119 148 180 224 268
#     4  10  19  31  47  65  88 118 152 186 220 260
#     4  10  21  35  49  63  84 121 161 188 217 264
#     4   7  11  20  37  63  90 115 144 177 209 254
#
# _framework density 15.742793000000001
#
# number of rings (size 3 to 8) (size 9 to 14) (size 15 to 20)
#    0.000    2.750    2.500    1.875    0.000    2.750 
#    0.000    0.000    0.000    6.375    0.000    0.875 
#    0.000    7.000    0.000    0.000    0.000    0.000 
#
# Total GULP energy -396537.445671 kJ/mol
# GULP energy per Si atom -12391.795177 kJ/mol
# Density = 1.570696 g / cm^3
# Si number density = 15.742793 Si / 1000 Ang^3
#
#
#
# Elastic Constant Matrix: (Units=GPa)
#
#
# Indices 1 2 3 4 5 6 
#
# 1 111.0295 39.8365 57.1511 0.0000 19.2806 0.0000
# 2 39.8365 34.3297 24.7475 0.0000 2.1967 0.0000
# 3 57.1511 24.7475 77.5156 0.0000 19.7390 0.0000
# 4 0.0000 0.0000 0.0000 12.0769 0.0000 -4.3522
# 5 19.2806 2.1967 19.7390 0.0000 31.4749 0.0000
# 6 0.0000 0.0000 0.0000 -4.3522 0.0000 20.4572
#
#
#
# Elastic Compliance Matrix: (Units=1/GPa)
#
#
# Indices 1 2 3 4 5 6 
#
# 1 0.020523 -0.017764 -0.007824 0.000000 -0.006426 0.000000
# 2 -0.017764 0.054148 -0.007139 0.000000 0.011580 0.000000
# 3 -0.007824 -0.007139 0.023326 0.000000 -0.009338 0.000000
# 4 0.000000 0.000000 0.000000 0.089678 0.000000 0.019079
# 5 -0.006426 0.011580 -0.009338 0.000000 0.040755 0.000000
# 6 0.000000 0.000000 0.000000 0.019079 0.000000 0.052942
#
#
# Mechanical properties :
#
#
# Convention : Reuss Voigt Hill
#
# Bulk Modulus (GPa) = 30.72778 51.81614 41.27196
# Shear Modulus (GPa) = 13.97919 19.54444 16.76181
#
# Velocity S-wave (km/s) = 2.98312 3.52729 3.26656
# Velocity P-wave (km/s) = 5.60592 7.04093 6.36400
#
# Compressibility (1/GPa) = 0.03254384
#
# Stress axis : x y z
#
# Youngs Moduli (GPa) = 48.72475 18.46778 42.87065
#
# Poissons Ratio (x) = 0.32807 0.33542
# Poissons Ratio (y) = 0.86556 0.30604
# Poissons Ratio (z) = 0.38122 0.13184
#
# Static dielectric constant tensor:
#      x y z
#    x 3.005620 0.000000 0.374100 
#    y 0.000000 2.742810 0.000000 
#    z 0.374100 0.000000 3.154120 
# 
# 
# High freq. dielectric constant tensor:
#      x y z
#    x 1.590390 0.000000 0.028290 
#    y 0.000000 1.576460 0.000000 
#    z 0.028290 0.000000 1.598010 
# 
# From -- ./inp_files/52732.got.cif
#   From: 2010.06.25/outbox.cif.g09.slc.cpg/sg10_27_cif.got.tgz:52732.got - 2010.06.27 22:07:45.
