data_PCOD8057381
_publ_section_title
;
Structure prediction by ZEFSAII (Michael W. Deem and Ramdas Pophale) SiO2 
 PCOD8057381
Probable space group: P 2/M
;
_chemical_formula_sum "Si O2"
_cell_formula_units_Z 32
_cell_length_a 21.366633
_cell_length_b 8.625615
_cell_length_c 12.108448
_cell_angle_alpha 90.000000
_cell_angle_beta 51.922438
_cell_angle_gamma 90.000000
_cell_volume 1756.656385
_symmetry_space_group_name_H-M "P 2/M"
_symmetry_group_IT_number 10
_symmetry_cell_setting 'monoclinic'
loop_
_space_group_symop_operation_xyz
x,y,z
-x,y,-z
-x,-y,-z
x,-y,z
loop_
_atom_site_type_symbol
_atom_site_label
_atom_site_fract_x
_atom_site_fract_y
_atom_site_fract_z
Si Si1 0.741241 0.679548 0.121479
Si Si2 0.058164 0.317364 0.793984
Si Si3 0.784075 0.683401 0.477138
Si Si4 0.900875 0.180461 0.018830
Si Si5 0.376141 0.318571 0.943058
Si Si6 0.660396 0.318351 0.431778
Si Si7 0.541658 0.180792 0.719383
Si Si8 0.346232 0.683839 0.220910
O O1 0.764938 0.500000 0.109196
O O2 0.820739 0.781144 0.040334
O O3 0.700504 0.713760 0.048934
O O4 0.679040 0.726722 0.285356
O O5 0.042070 0.500000 0.801514
O O6 0.124664 0.258756 0.632752
O O7 0.093011 0.282354 0.877425
O O8 0.976704 0.224677 0.859585
O O9 0.785621 0.500000 0.475315
O O10 0.734896 0.739452 0.423706
O O11 0.738350 0.744366 0.636629
O O12 0.903968 0.000000 0.045677
O O13 0.397294 0.500000 0.922673
O O14 0.449851 0.226603 0.812581
O O15 0.356140 0.252305 0.086483
O O16 0.644680 0.500000 0.463575
O O17 0.581724 0.231400 0.560202
O O18 0.581076 0.262959 0.782113
O O19 0.551250 0.000000 0.725769
O O20 0.346931 0.500000 0.219041
#
# Coordination Sequence:
#
# PCOD8057381 Si02
#       8
#     4   4   4   4   4   4   4   4
#     4  10  20  36  55  74  99 136 176 210 250 306
#     4  10  17  30  52  76 102 135 174 208 245 297
#     4   8  14  27  51  77  99 126 161 209 255 290
#     4  11  21  31  46  75 110 138 163 203 256 306
#     4  10  21  36  56  76  97 132 176 216 254 300
#     4   9  17  33  53  73 100 132 170 210 253 301
#     4  11  22  34  51  76 105 133 167 211 260 308
#     4   9  18  35  56  78 101 128 169 218 260 295
#
# _framework density 18.216425000000001
#
# number of rings (size 3 to 8) (size 9 to 14) (size 15 to 20)
#    0.000    2.250    1.250    4.500    0.000    3.500 
#    0.000    3.125    0.000    0.750    0.000    5.250 
#    0.000    0.000    0.000    0.000    0.000    0.000 
#
# Total GULP energy -396721.228306 kJ/mol
# GULP energy per Si atom -12397.538385 kJ/mol
# Density = 1.817496 g / cm^3
# Si number density = 18.216425 Si / 1000 Ang^3
#
#
#
# Elastic Constant Matrix: (Units=GPa)
#
#
# Indices 1 2 3 4 5 6 
#
# 1 70.0836 15.1064 38.5757 0.0000 -10.0839 0.0000
# 2 15.1064 33.6771 17.5178 0.0000 -5.8841 0.0000
# 3 38.5757 17.5178 87.2257 0.0000 -21.2796 0.0000
# 4 0.0000 0.0000 0.0000 5.2133 0.0000 -1.2941
# 5 -10.0839 -5.8841 -21.2796 0.0000 28.6414 0.0000
# 6 0.0000 0.0000 0.0000 -1.2941 0.0000 11.6803
#
#
#
# Elastic Compliance Matrix: (Units=1/GPa)
#
#
# Indices 1 2 3 4 5 6 
#
# 1 0.019522 -0.004751 -0.007622 0.000000 0.000234 0.000000
# 2 -0.004751 0.034436 -0.004271 0.000000 0.002229 0.000000
# 3 -0.007622 -0.004271 0.018106 0.000000 0.009891 0.000000
# 4 0.000000 0.000000 0.000000 0.197241 0.000000 0.021853
# 5 0.000234 0.002229 0.009891 0.000000 0.042804 0.000000
# 6 0.000000 0.000000 0.000000 0.021853 0.000000 0.088035
#
#
# Mechanical properties :
#
#
# Convention : Reuss Voigt Hill
#
# Bulk Modulus (GPa) = 25.78957 37.04291 31.41624
# Shear Modulus (GPa) = 11.20176 17.09276 14.14726
#
# Velocity S-wave (km/s) = 2.48246 3.06652 2.78982
# Velocity P-wave (km/s) = 4.73338 5.73734 5.25937
#
# Compressibility (1/GPa) = 0.03877537
#
# Stress axis : x y z
#
# Youngs Moduli (GPa) = 51.22431 29.03937 55.22908
#
# Poissons Ratio (x) = 0.13797 0.42098
# Poissons Ratio (y) = 0.24337 0.23588
# Poissons Ratio (z) = 0.39045 0.12403
#
# Static dielectric constant tensor:
#      x y z
#    x 3.147760 0.000000 -0.188620 
#    y 0.000000 3.139560 0.000000 
#    z -0.188620 0.000000 3.826540 
# 
# 
# High freq. dielectric constant tensor:
#      x y z
#    x 1.677360 0.000000 -0.019680 
#    y 0.000000 1.687850 0.000000 
#    z -0.019680 0.000000 1.712960 
# 
# From -- ./inp_files/55211.got.cif
#   From: 2010.06.25/outbox.cif.g09.slc.cpg/sg10_28_cif.got.tgz:55211.got - 2010.06.27 22:07:45.
