data_PCOD8057704
_publ_section_title
;
Structure prediction by ZEFSAII (Michael W. Deem and Ramdas Pophale) SiO2 
 PCOD8057704
Probable space group: P 2/M
;
_chemical_formula_sum "Si O2"
_cell_formula_units_Z 32
_cell_length_a 29.765934
_cell_length_b 9.367241
_cell_length_c 21.049759
_cell_angle_alpha 90.000000
_cell_angle_beta 161.614395
_cell_angle_gamma 90.000000
_cell_volume 1851.205636
_symmetry_space_group_name_H-M "P 2/M"
_symmetry_group_IT_number 10
_symmetry_cell_setting 'monoclinic'
loop_
_space_group_symop_operation_xyz
x,y,z
-x,y,-z
-x,-y,-z
x,-y,z
loop_
_atom_site_type_symbol
_atom_site_label
_atom_site_fract_x
_atom_site_fract_y
_atom_site_fract_z
Si Si1 0.936821 0.335428 0.345944
Si Si2 0.652740 0.165451 0.449768
Si Si3 0.339784 0.832792 0.059735
Si Si4 0.143589 0.336193 0.036173
Si Si5 0.257002 0.157195 0.082802
Si Si6 0.133378 0.833781 0.369908
Si Si7 0.158658 0.663504 0.201150
Si Si8 0.946985 0.157542 0.605417
O O1 0.914247 0.500000 0.297692
O O2 0.000000 0.315576 0.500000
O O3 0.051438 0.269122 0.450257
O O4 0.785496 0.256765 0.140785
O O5 0.486901 0.208624 0.222737
O O6 0.722502 0.200676 0.475135
O O7 0.727612 0.249681 0.606429
O O8 0.667638 0.000000 0.487273
O O9 0.357092 0.795090 0.158204
O O10 0.301500 0.000000 0.000904
O O11 0.121962 0.500000 0.987296
O O12 0.991938 0.258955 0.828678
O O13 0.261914 0.267069 0.148098
O O14 0.201958 0.321780 0.185693
O O15 0.300856 0.000000 0.166631
O O16 0.099354 0.153699 0.843121
O O17 0.159781 0.796768 0.480249
O O18 0.089928 0.000000 0.305045
O O19 0.163435 0.500000 0.230589
O O20 0.000000 0.725026 0.000000
O O21 0.907385 0.000000 0.525722
#
# Coordination Sequence:
#
# PCOD8057704 Si02
#       8
#     4   4   4   4   4   4   4   4
#     4  10  20  33  52  79 104 125 155 194 232 277
#     4  10  20  33  51  72  95 127 166 203 241 288
#     4   9  19  35  52  73  99 127 160 196 238 290
#     4  10  18  28  45  67  92 123 163 206 245 286
#     4   8  15  29  47  66  92 122 156 201 244 282
#     4   9  17  29  46  70  97 123 157 202 242 278
#     4  10  20  33  45  65  98 130 164 207 248 287
#     4   8  15  28  47  72  99 125 155 193 237 281
#
# _framework density 17.286031999999999
#
# number of rings (size 3 to 8) (size 9 to 14) (size 15 to 20)
#    0.000    2.750    1.250    2.250    0.000    7.250 
#    0.000    0.625    0.000    4.500    0.000    5.250 
#    0.000    0.000    0.000    0.000    0.000    0.000 
#
# Total GULP energy -396657.656423 kJ/mol
# GULP energy per Si atom -12395.551763 kJ/mol
# Density = 1.724669 g / cm^3
# Si number density = 17.286032 Si / 1000 Ang^3
#
#
#
# Elastic Constant Matrix: (Units=GPa)
#
#
# Indices 1 2 3 4 5 6 
#
# 1 134.1722 63.2133 48.3285 0.0000 11.1168 0.0000
# 2 63.2133 93.7973 44.2543 0.0000 -0.8933 0.0000
# 3 48.3285 44.2543 58.2350 0.0000 6.8447 0.0000
# 4 0.0000 0.0000 0.0000 28.9589 0.0000 -2.1396
# 5 11.1168 -0.8933 6.8447 0.0000 22.6673 0.0000
# 6 0.0000 0.0000 0.0000 -2.1396 0.0000 29.0209
#
#
#
# Elastic Compliance Matrix: (Units=1/GPa)
#
#
# Indices 1 2 3 4 5 6 
#
# 1 0.012610 -0.006039 -0.005309 0.000000 -0.004819 0.000000
# 2 -0.006039 0.019996 -0.011015 0.000000 0.007076 0.000000
# 3 -0.005309 -0.011015 0.030786 0.000000 -0.007127 0.000000
# 4 0.000000 0.000000 0.000000 0.034721 0.000000 0.002560
# 5 -0.004819 0.007076 -0.007127 0.000000 0.048911 0.000000
# 6 0.000000 0.000000 0.000000 0.002560 0.000000 0.034647
#
#
# Mechanical properties :
#
#
# Convention : Reuss Voigt Hill
#
# Bulk Modulus (GPa) = 53.57633 66.42186 59.99909
# Shear Modulus (GPa) = 21.49444 24.82334 23.15889
#
# Velocity S-wave (km/s) = 3.53009 3.79362 3.66422
# Velocity P-wave (km/s) = 6.90483 7.59587 7.25858
#
# Compressibility (1/GPa) = 0.01866496
#
# Stress axis : x y z
#
# Youngs Moduli (GPa) = 79.30153 50.01045 32.48251
#
# Poissons Ratio (x) = 0.30204 0.17245
# Poissons Ratio (y) = 0.47894 0.35779
# Poissons Ratio (z) = 0.42101 0.55086
#
# Static dielectric constant tensor:
#      x y z
#    x 3.884080 0.000000 0.266560 
#    y 0.000000 3.283730 0.000000 
#    z 0.266560 0.000000 2.765470 
# 
# 
# High freq. dielectric constant tensor:
#      x y z
#    x 1.685120 0.000000 0.010180 
#    y 0.000000 1.668710 0.000000 
#    z 0.010180 0.000000 1.613040 
# 
# From -- ./inp_files/54777.got.cif
#   From: 2010.06.25/outbox.cif.g09.slc.cpg/sg10_28_cif.got.tgz:54777.got - 2010.06.27 22:07:45.
