data_PCOD8057682
_publ_section_title
;
Structure prediction by ZEFSAII (Michael W. Deem and Ramdas Pophale) SiO2 
 PCOD8057682
Probable space group: P 2/M
;
_chemical_formula_sum "Si O2"
_cell_formula_units_Z 28
_cell_length_a 19.133158
_cell_length_b 9.288443
_cell_length_c 17.884168
_cell_angle_alpha 90.000000
_cell_angle_beta 148.623885
_cell_angle_gamma 90.000000
_cell_volume 1654.806936
_symmetry_space_group_name_H-M "P 2/M"
_symmetry_group_IT_number 10
_symmetry_cell_setting 'monoclinic'
loop_
_space_group_symop_operation_xyz
x,y,z
-x,y,-z
-x,-y,-z
x,-y,z
loop_
_atom_site_type_symbol
_atom_site_label
_atom_site_fract_x
_atom_site_fract_y
_atom_site_fract_z
Si Si1 0.198978 0.838986 0.035844
Si Si2 0.779979 0.664969 0.084443
Si Si3 0.346072 0.665341 0.876693
Si Si4 0.860175 0.169749 0.411387
Si Si5 0.084848 0.669765 0.390359
Si Si6 0.146112 0.828851 0.144121
Si Si7 0.118967 0.162299 0.279616
O O1 0.236459 0.780664 0.154467
O O2 0.253365 0.000000 0.074726
O O3 0.268682 0.746495 0.034549
O O4 0.038734 0.833412 0.881685
O O5 0.782058 0.500000 0.063538
O O6 0.676806 0.698750 0.056694
O O7 0.928081 0.712494 0.246389
O O8 0.304347 0.500000 0.820845
O O9 0.259679 0.774982 0.749545
O O10 0.500000 0.694319 0.000000
O O11 0.847510 0.251219 0.478246
O O12 0.000000 0.209691 0.500000
O O13 0.845699 0.000000 0.411126
O O14 0.108884 0.500000 0.419009
O O15 0.155995 0.728357 0.379977
O O16 0.198333 0.788699 0.275632
O O17 0.132463 0.000000 0.126665
O O18 0.000000 0.757468 0.000000
O O19 0.160959 0.000000 0.341118
#
# Coordination Sequence:
#
# PCOD8057682 Si02
#       7
#     4   4   4   4   4   4   4
#     4   8  13  21  36  56  79 113 153 186 221 270
#     4   9  17  28  42  63  89 117 151 192 233 273
#     4  10  21  37  54  70  93 127 161 195 240 288
#     4  11  22  34  51  73  95 121 158 200 240 282
#     4  10  18  28  44  65  91 121 154 192 233 278
#     4   7  10  18  32  51  77 112 149 182 219 265
#     4   8  13  22  36  55  83 115 149 188 226 267
#
# _framework density 16.920401999999999
#
# number of rings (size 3 to 8) (size 9 to 14) (size 15 to 20)
#    0.000    3.000    1.429    2.571    0.000    2.000 
#    0.000    0.714    0.000    4.286    0.000    0.000 
#    0.000    1.143    0.000   13.143    0.000    7.571 
#
# Total GULP energy -346918.746869 kJ/mol
# GULP energy per Si atom -12389.955245 kJ/mol
# Density = 1.688189 g / cm^3
# Si number density = 16.920402 Si / 1000 Ang^3
#
#
#
# Elastic Constant Matrix: (Units=GPa)
#
#
# Indices 1 2 3 4 5 6 
#
# 1 126.3993 50.1969 48.3113 0.0000 -34.2877 0.0000
# 2 50.1969 69.4071 33.8232 0.0000 -16.8022 0.0000
# 3 48.3113 33.8232 41.9192 0.0000 -14.1696 0.0000
# 4 0.0000 0.0000 0.0000 13.4113 0.0000 -6.7313
# 5 -34.2877 -16.8022 -14.1696 0.0000 25.0112 0.0000
# 6 0.0000 0.0000 0.0000 -6.7313 0.0000 19.0028
#
#
#
# Elastic Compliance Matrix: (Units=1/GPa)
#
#
# Indices 1 2 3 4 5 6 
#
# 1 0.018604 -0.002948 -0.013742 0.000000 0.015738 0.000000
# 2 -0.002948 0.025043 -0.015446 0.000000 0.004031 0.000000
# 3 -0.013742 -0.015446 0.052295 0.000000 0.000411 0.000000
# 4 0.000000 0.000000 0.000000 0.090687 0.000000 0.032124
# 5 0.015738 0.004031 0.000411 0.000000 0.064498 0.000000
# 6 0.000000 0.000000 0.000000 0.032124 0.000000 0.064003
#
#
# Mechanical properties :
#
#
# Convention : Reuss Voigt Hill
#
# Bulk Modulus (GPa) = 31.57633 55.82092 43.69862
# Shear Modulus (GPa) = 12.82189 18.51135 15.66662
#
# Velocity S-wave (km/s) = 2.75576 3.31119 3.04616
# Velocity P-wave (km/s) = 5.36916 6.90511 6.18500
#
# Compressibility (1/GPa) = 0.03166929
#
# Stress axis : x y z
#
# Youngs Moduli (GPa) = 53.75263 39.93161 19.12233
#
# Poissons Ratio (x) = 0.11772 0.26278
# Poissons Ratio (y) = 0.15847 0.29536
# Poissons Ratio (z) = 0.73867 0.61678
#
# Static dielectric constant tensor:
#      x y z
#    x 3.551310 0.000000 -0.432630 
#    y 0.000000 3.076210 0.000000 
#    z -0.432630 0.000000 2.735910 
# 
# 
# High freq. dielectric constant tensor:
#      x y z
#    x 1.658410 0.000000 -0.044300 
#    y 0.000000 1.639600 0.000000 
#    z -0.044300 0.000000 1.595230 
# 
# From -- ./inp_files/79231.got.cif
#   From: 2010.06.25/outbox.cif.g09.slc.cpg/sg10_40_cif.got.tgz:79231.got - 2010.06.27 22:07:45.
