data_PCOD8057162
_publ_section_title
;
Structure prediction by ZEFSAII (Michael W. Deem and Ramdas Pophale) SiO2 
 PCOD8057162
Probable space group: P 2/M
;
_chemical_formula_sum "Si O2"
_cell_formula_units_Z 32
_cell_length_a 21.367454
_cell_length_b 8.903674
_cell_length_c 13.032612
_cell_angle_alpha 90.000000
_cell_angle_beta 53.234148
_cell_angle_gamma 90.000000
_cell_volume 1986.249735
_symmetry_space_group_name_H-M "P 2/M"
_symmetry_group_IT_number 10
_symmetry_cell_setting 'monoclinic'
loop_
_space_group_symop_operation_xyz
x,y,z
-x,y,-z
-x,-y,-z
x,-y,z
loop_
_atom_site_type_symbol
_atom_site_label
_atom_site_fract_x
_atom_site_fract_y
_atom_site_fract_z
Si Si1 0.586582 0.178372 0.030446
Si Si2 0.411171 0.178834 0.198741
Si Si3 0.840098 0.177067 0.269699
Si Si4 0.318548 0.822168 0.481328
Si Si5 0.686015 0.178719 0.122887
Si Si6 0.412062 0.821261 0.585079
Si Si7 0.163635 0.676793 0.946671
Si Si8 0.009408 0.833710 0.112324
O O1 0.498608 0.236254 0.138704
O O2 0.645197 0.239948 0.059290
O O3 0.585925 0.000000 0.035251
O O4 0.613983 0.233893 0.890458
O O5 0.351499 0.245476 0.342210
O O6 0.410099 0.000000 0.202603
O O7 0.772419 0.222797 0.416326
O O8 0.824626 0.262525 0.179239
O O9 0.924149 0.219966 0.237822
O O10 0.837557 0.000000 0.245939
O O11 0.368342 0.757190 0.527618
O O12 0.327883 0.000000 0.471057
O O13 0.633739 0.234616 0.269516
O O14 0.771076 0.252835 0.043862
O O15 0.695288 0.000000 0.114062
O O16 0.500000 0.756830 0.500000
O O17 0.413731 0.000000 0.581556
O O18 0.171173 0.500000 0.938986
O O19 0.078612 0.721466 0.076157
O O20 0.029926 0.000000 0.133975
O O21 0.000000 0.838498 0.000000
#
# Coordination Sequence:
#
# PCOD8057162 Si02
#       8
#     4   4   4   4   4   4   4   4
#     4   8  14  23  37  59  88 116 138 173 217 249
#     4   8  13  22  36  61  91 110 135 177 220 246
#     4   9  16  28  43  62  85 113 142 170 208 254
#     4   9  14  21  36  58  85 112 137 169 205 245
#     4  10  17  27  42  60  86 115 144 172 206 251
#     4   9  15  21  34  58  83 108 140 171 198 237
#     4  11  20  28  40  60  86 113 142 174 210 249
#     4   8  15  27  43  59  81 110 140 170 207 254
#
# _framework density 16.110764
#
# number of rings (size 3 to 8) (size 9 to 14) (size 15 to 20)
#    0.000    3.000    1.250    3.375    0.000    5.250 
#    0.000    0.000    0.000    0.375    0.000    3.500 
#    0.000    7.000    0.000    0.000    0.000    0.000 
#
# Total GULP energy -396561.789449 kJ/mol
# GULP energy per Si atom -12392.555920 kJ/mol
# Density = 1.607410 g / cm^3
# Si number density = 16.110764 Si / 1000 Ang^3
#
#
#
# Elastic Constant Matrix: (Units=GPa)
#
#
# Indices 1 2 3 4 5 6 
#
# 1 128.0444 27.2930 82.8806 0.0000 -13.9438 0.0000
# 2 27.2930 31.4431 17.7594 0.0000 -2.4913 0.0000
# 3 82.8806 17.7594 125.2460 0.0000 -9.1956 0.0000
# 4 0.0000 0.0000 0.0000 2.3659 0.0000 0.2600
# 5 -13.9438 -2.4913 -9.1956 0.0000 28.2989 0.0000
# 6 0.0000 0.0000 0.0000 0.2600 0.0000 2.6184
#
#
#
# Elastic Compliance Matrix: (Units=1/GPa)
#
#
# Indices 1 2 3 4 5 6 
#
# 1 0.015884 -0.008363 -0.009020 0.000000 0.004159 0.000000
# 2 -0.008363 0.039037 -0.000053 0.000000 -0.000701 0.000000
# 3 -0.009020 -0.000053 0.013967 0.000000 0.000090 0.000000
# 4 0.000000 0.000000 0.000000 0.427338 0.000000 -0.042441
# 5 0.004159 -0.000701 0.000090 0.000000 0.037354 0.000000
# 6 0.000000 0.000000 0.000000 -0.042441 0.000000 0.386130
#
#
# Mechanical properties :
#
#
# Convention : Reuss Voigt Hill
#
# Bulk Modulus (GPa) = 29.39719 60.06660 44.73190
# Shear Modulus (GPa) = 5.17642 17.11001 11.14322
#
# Velocity S-wave (km/s) = 1.79443 3.26241 2.63280
# Velocity P-wave (km/s) = 4.75183 7.18022 6.08832
#
# Compressibility (1/GPa) = 0.03401686
#
# Stress axis : x y z
#
# Youngs Moduli (GPa) = 62.95831 25.61680 71.59768
#
# Poissons Ratio (x) = 0.21424 0.64578
# Poissons Ratio (y) = 0.52653 0.00376
# Poissons Ratio (z) = 0.56786 0.00134
#
# Static dielectric constant tensor:
#      x y z
#    x 3.293030 0.000000 -0.223270 
#    y 0.000000 2.527090 0.000000 
#    z -0.223270 0.000000 3.280730 
# 
# 
# High freq. dielectric constant tensor:
#      x y z
#    x 1.616390 0.000000 -0.020820 
#    y 0.000000 1.565270 0.000000 
#    z -0.020820 0.000000 1.602530 
# 
# From -- ./inp_files/54783.got.cif
#   From: 2010.06.25/outbox.cif.g09.slc.cpg/sg10_28_cif.got.tgz:54783.got - 2010.06.27 22:07:45.
