data_PCOD8057272
_publ_section_title
;
Structure prediction by ZEFSAII (Michael W. Deem and Ramdas Pophale) SiO2 
 PCOD8057272
Probable space group: P 2/M
;
_chemical_formula_sum "Si O2"
_cell_formula_units_Z 28
_cell_length_a 31.907483
_cell_length_b 8.791158
_cell_length_c 9.747536
_cell_angle_alpha 90.000000
_cell_angle_beta 34.363467
_cell_angle_gamma 90.000000
_cell_volume 1543.305352
_symmetry_space_group_name_H-M "P 2/M"
_symmetry_group_IT_number 10
_symmetry_cell_setting 'monoclinic'
loop_
_space_group_symop_operation_xyz
x,y,z
-x,y,-z
-x,-y,-z
x,-y,z
loop_
_atom_site_type_symbol
_atom_site_label
_atom_site_fract_x
_atom_site_fract_y
_atom_site_fract_z
Si Si1 0.311937 0.679422 0.185220
Si Si2 0.762633 0.821761 0.126131
Si Si3 0.456426 0.320690 0.934573
Si Si4 0.596779 0.179046 0.642319
Si Si5 0.917866 0.320122 0.210987
Si Si6 0.192733 0.320651 0.720375
Si Si7 0.795133 0.319837 0.754011
O O1 0.301239 0.500000 0.219925
O O2 0.263363 0.743155 0.443716
O O3 0.278881 0.735975 0.129071
O O4 0.398384 0.724919 0.970360
O O5 0.676392 0.772923 0.368436
O O6 0.809677 0.759659 0.126454
O O7 0.770925 0.000000 0.100945
O O8 0.798140 0.756163 0.893130
O O9 0.472566 0.500000 0.890823
O O10 0.533245 0.228943 0.704209
O O11 0.418412 0.274813 0.180165
O O12 0.591287 0.000000 0.688233
O O13 0.922853 0.500000 0.208394
O O14 0.881467 0.275701 0.163325
O O15 0.866758 0.262982 0.474883
O O16 0.000000 0.246622 0.000000
O O17 0.197932 0.500000 0.730283
O O18 0.795003 0.500000 0.773290
#
# Coordination Sequence:
#
# PCOD8057272 Si02
#       7
#     4   4   4   4   4   4   4
#     4   8  15  29  49  74  96 120 164 212 249 289
#     4  11  22  34  47  70 104 137 171 207 241 290
#     4  10  17  28  49  73  95 121 163 214 254 294
#     4  10  20  31  43  65  99 133 165 205 250 291
#     4   8  15  31  57  86 106 122 156 206 252 294
#     4   9  16  30  54  77  99 129 164 204 246 294
#     4   9  18  33  54  75 100 132 162 201 250 298
#
# _framework density 18.142876999999999
#
# number of rings (size 3 to 8) (size 9 to 14) (size 15 to 20)
#    0.000    2.714    1.429    3.857    0.000    1.714 
#    0.000    5.714    0.000   10.286    0.000    0.000 
#    0.000    0.000    0.000    0.000    0.000    0.000 
#
# Total GULP energy -347036.104792 kJ/mol
# GULP energy per Si atom -12394.146600 kJ/mol
# Density = 1.810158 g / cm^3
# Si number density = 18.142877 Si / 1000 Ang^3
#
#
#
# Elastic Constant Matrix: (Units=GPa)
#
#
# Indices 1 2 3 4 5 6 
#
# 1 137.4666 29.8262 73.2075 0.0000 -0.8724 0.0000
# 2 29.8262 38.9518 26.9111 0.0000 -1.2488 0.0000
# 3 73.2075 26.9111 92.0417 0.0000 -1.5969 0.0000
# 4 0.0000 0.0000 0.0000 11.1424 0.0000 -8.2501
# 5 -0.8724 -1.2488 -1.5969 0.0000 35.4184 0.0000
# 6 0.0000 0.0000 0.0000 -8.2501 0.0000 1.4733
#
#
#
# Elastic Compliance Matrix: (Units=1/GPa)
#
#
# Indices 1 2 3 4 5 6 
#
# 1 0.012996 -0.003527 -0.009309 0.000000 -0.000224 0.000000
# 2 -0.003527 0.033146 -0.006873 0.000000 0.000772 0.000000
# 3 -0.009309 -0.006873 0.020286 0.000000 0.000443 0.000000
# 4 0.000000 0.000000 0.000000 -0.028527 0.000000 -0.159739
# 5 -0.000224 0.000772 0.000443 0.000000 0.028276 0.000000
# 6 0.000000 0.000000 0.000000 -0.159739 0.000000 -0.215740
#
#
# Mechanical properties :
#
#
# Convention : Reuss Voigt Hill
#
# Bulk Modulus (GPa) = 37.02252 58.70552 47.86402
# Shear Modulus (GPa) = -49.43548 18.84118 -15.29715
#
# Velocity S-wave (km/s) = -5.22561 3.22606 -2.90685
# Velocity P-wave (km/s) = 3.99487 6.80472 3.89520
#
# Compressibility (1/GPa) = 0.02701058
#
# Stress axis : x y z
#
# Youngs Moduli (GPa) = 76.94691 30.16931 49.29454
#
# Poissons Ratio (x) = 0.10640 0.45890
# Poissons Ratio (y) = 0.27137 0.33879
# Poissons Ratio (z) = 0.71633 0.20735
#
# Static dielectric constant tensor:
#      x y z
#    x 3.758320 0.000000 -0.312010 
#    y 0.000000 3.026000 0.000000 
#    z -0.312010 0.000000 3.375600 
# 
# 
# High freq. dielectric constant tensor:
#      x y z
#    x 1.710990 0.000000 -0.011170 
#    y 0.000000 1.675880 0.000000 
#    z -0.011170 0.000000 1.676700 
# 
# From -- ./inp_files/37915.got.cif
#   From: 2010.06.25/outbox.cif.g09.slc.cpg/sg10_19_cif.got.tgz:37915.got - 2010.06.27 22:07:45.
