data_PCOD8057650
_publ_section_title
;
Structure prediction by ZEFSAII (Michael W. Deem and Ramdas Pophale) SiO2 
 PCOD8057650
Probable space group: P 2/M
;
_chemical_formula_sum "Si O2"
_cell_formula_units_Z 32
_cell_length_a 15.774664
_cell_length_b 9.171548
_cell_length_c 30.173907
_cell_angle_alpha 90.000000
_cell_angle_beta 150.493056
_cell_angle_gamma 90.000000
_cell_volume 2150.137087
_symmetry_space_group_name_H-M "P 2/M"
_symmetry_group_IT_number 10
_symmetry_cell_setting 'monoclinic'
loop_
_space_group_symop_operation_xyz
x,y,z
-x,y,-z
-x,-y,-z
x,-y,z
loop_
_atom_site_type_symbol
_atom_site_label
_atom_site_fract_x
_atom_site_fract_y
_atom_site_fract_z
Si Si1 0.735669 0.666758 0.855603
Si Si2 0.095470 0.666758 0.975536
Si Si3 0.735816 0.170688 0.026149
Si Si4 0.113425 0.335298 0.507745
Si Si5 0.296384 0.664702 0.902065
Si Si6 0.829564 0.169921 0.332778
Si Si7 0.606815 0.829312 0.316482
Si Si8 0.660793 0.169921 0.164007
O O1 0.670404 0.500000 0.825194
O O2 0.587293 0.773147 0.771553
O O3 0.894961 0.686554 0.894961
O O4 0.791398 0.710971 0.930466
O O5 0.134774 0.500000 0.979984
O O6 0.140073 0.773147 0.955813
O O7 0.789366 0.249187 0.096209
O O8 0.763661 0.000000 0.045363
O O9 0.540382 0.208715 0.923973
O O10 0.156864 0.500000 0.513206
O O11 0.290105 0.249187 0.596948
O O12 0.000000 0.330591 0.500000
O O13 0.006626 0.257919 0.420005
O O14 0.225890 0.500000 0.869548
O O15 0.246762 0.742081 0.833383
O O16 0.500000 0.669409 0.000000
O O17 0.691157 0.208715 0.307565
O O18 0.748936 0.218792 0.249645
O O19 0.875208 0.000000 0.354667
O O20 0.608766 0.000000 0.327064
O O21 0.686414 0.000000 0.165873
#
# Coordination Sequence:
#
# PCOD8057650 Si02
#       8
#     4   4   4   4   4   4   4   4
#     4   9  18  31  44  59  82 111 141 174 210 244
#     4   9  18  31  44  59  82 111 141 174 210 244
#     4  10  18  28  43  61  82 110 142 173 207 246
#     4   9  17  28  41  58  80 107 139 172 205 243
#     4   9  17  28  41  58  80 107 139 172 205 243
#     4   9  17  28  41  59  84 111 138 170 208 247
#     4  10  18  28  43  61  82 110 142 173 207 246
#     4   9  17  28  41  59  84 111 138 170 208 247
#
# _framework density 14.882771999999999
#
# number of rings (size 3 to 8) (size 9 to 14) (size 15 to 20)
#    0.000    2.750    0.000    3.000    0.000    6.500 
#    0.000    1.250    0.000    0.000    0.000    0.000 
#    0.000    1.000    0.000   10.500    0.000    4.500 
#
# Total GULP energy -396828.671980 kJ/mol
# GULP energy per Si atom -12400.895999 kJ/mol
# Density = 1.484890 g / cm^3
# Si number density = 14.882772 Si / 1000 Ang^3
#
#
#
# Elastic Constant Matrix: (Units=GPa)
#
#
# Indices 1 2 3 4 5 6 
#
# 1 78.1528 43.9962 30.4971 0.0000 -11.8114 0.0000
# 2 43.9962 87.1565 47.3111 0.0000 -5.9281 0.0000
# 3 30.4971 47.3111 88.9024 0.0000 -7.4149 0.0000
# 4 0.0000 0.0000 0.0000 27.1457 0.0000 -1.3465
# 5 -11.8114 -5.9281 -7.4149 0.0000 19.2664 0.0000
# 6 0.0000 0.0000 0.0000 -1.3465 0.0000 26.3929
#
#
#
# Elastic Compliance Matrix: (Units=1/GPa)
#
#
# Indices 1 2 3 4 5 6 
#
# 1 0.019428 -0.008423 -0.001451 0.000000 0.008760 0.000000
# 2 -0.008423 0.019842 -0.007843 0.000000 -0.002077 0.000000
# 3 -0.001451 -0.007843 0.016163 0.000000 0.002918 0.000000
# 4 0.000000 0.000000 0.000000 0.036932 0.000000 0.001884
# 5 0.008760 -0.002077 0.002918 0.000000 0.057758 0.000000
# 6 0.000000 0.000000 0.000000 0.001884 0.000000 0.037985
#
#
# Mechanical properties :
#
#
# Convention : Reuss Voigt Hill
#
# Bulk Modulus (GPa) = 50.00581 55.31341 52.65961
# Shear Modulus (GPa) = 21.71950 23.38815 22.55382
#
# Velocity S-wave (km/s) = 3.82432 3.96851 3.89708
# Velocity P-wave (km/s) = 7.29200 7.63187 7.46387
#
# Compressibility (1/GPa) = 0.01999767
#
# Stress axis : x y z
#
# Youngs Moduli (GPa) = 51.47323 50.39885 61.86909
#
# Poissons Ratio (x) = 0.42453 0.08978
# Poissons Ratio (y) = 0.43358 0.48523
# Poissons Ratio (z) = 0.07470 0.39527
#
# Static dielectric constant tensor:
#      x y z
#    x 2.687590 0.000000 -0.129820 
#    y 0.000000 2.954390 0.000000 
#    z -0.129820 0.000000 2.760160 
# 
# 
# High freq. dielectric constant tensor:
#      x y z
#    x 1.541940 0.000000 -0.012450 
#    y 0.000000 1.581580 0.000000 
#    z -0.012450 0.000000 1.548890 
# 
# From -- ./inp_files/66062.got.cif
#   From: 2010.06.25/outbox.cif.g09.slc.cpg/sg10_34_cif.got.tgz:66062.got - 2010.06.27 22:07:45.
