data_PCOD8057922
_publ_section_title
;
Structure prediction by ZEFSAII (Michael W. Deem and Ramdas Pophale) SiO2 
 PCOD8057922
Probable space group: P 2/M
;
_chemical_formula_sum "Si O2"
_cell_formula_units_Z 32
_cell_length_a 15.581107
_cell_length_b 12.859426
_cell_length_c 14.418427
_cell_angle_alpha 90.000000
_cell_angle_beta 40.142185
_cell_angle_gamma 90.000000
_cell_volume 1862.457829
_symmetry_space_group_name_H-M "P 2/M"
_symmetry_group_IT_number 10
_symmetry_cell_setting 'monoclinic'
loop_
_space_group_symop_operation_xyz
x,y,z
-x,y,-z
-x,-y,-z
x,-y,z
loop_
_atom_site_type_symbol
_atom_site_label
_atom_site_fract_x
_atom_site_fract_y
_atom_site_fract_z
Si Si1 0.943829 0.880906 0.385924
Si Si2 0.461808 0.198868 0.340884
Si Si3 0.219819 0.123511 0.650601
Si Si4 0.586304 0.618975 0.336267
Si Si5 0.312901 0.880086 0.292739
Si Si6 0.849166 0.745809 0.118012
Si Si7 0.233078 0.122382 0.166080
Si Si8 0.729323 0.882889 0.071438
O O1 0.879407 0.832050 0.346296
O O2 0.843914 0.871054 0.554600
O O3 0.084973 0.826701 0.291810
O O4 0.973585 0.000000 0.337376
O O5 0.366819 0.163182 0.502513
O O6 0.513549 0.316121 0.315173
O O7 0.395427 0.192719 0.294022
O O8 0.589147 0.122910 0.240334
O O9 0.174401 0.165553 0.786451
O O10 0.222193 0.000000 0.651693
O O11 0.500000 0.633602 0.500000
O O12 0.589312 0.500000 0.301650
O O13 0.739913 0.655292 0.223042
O O14 0.324673 0.837950 0.176767
O O15 0.361741 0.000000 0.265246
O O16 0.833820 0.803268 0.031277
O O17 0.000000 0.700606 0.000000
O O18 0.222909 0.000000 0.191917
O O19 0.297480 0.149616 0.013751
O O20 0.786998 0.000000 0.029019
#
# Coordination Sequence:
#
# PCOD8057922 Si02
#       8
#     4   4   4   4   4   4   4   4
#     4   8  14  24  39  60  91 131 173 205 232 274
#     4  10  19  33  49  73  95 127 170 211 248 297
#     4  10  18  29  47  71 107 144 169 198 237 285
#     4  10  21  40  60  75  95 124 161 212 267 311
#     4   9  16  26  44  67  97 131 168 206 239 285
#     4  11  22  34  51  78 104 132 168 207 248 301
#     4   9  16  26  39  61  95 139 175 204 237 270
#     4  10  20  30  43  66 104 143 175 202 233 287
#
# _framework density 17.181595999999999
#
# number of rings (size 3 to 8) (size 9 to 14) (size 15 to 20)
#    0.000    2.375    1.250    3.375    0.000    4.250 
#    0.000    3.750    0.000    0.000    0.000    7.000 
#    0.000    9.000    0.000    0.000    0.000    0.125 
#
# Total GULP energy -396582.990325 kJ/mol
# GULP energy per Si atom -12393.218448 kJ/mol
# Density = 1.714249 g / cm^3
# Si number density = 17.181596 Si / 1000 Ang^3
#
#
#
# Elastic Constant Matrix: (Units=GPa)
#
#
# Indices 1 2 3 4 5 6 
#
# 1 95.6335 41.3959 39.3494 0.0000 4.0336 0.0000
# 2 41.3959 72.7128 29.3619 0.0000 -0.6215 0.0000
# 3 39.3494 29.3619 75.1105 0.0000 -7.0538 0.0000
# 4 0.0000 0.0000 0.0000 11.9305 0.0000 -0.4684
# 5 4.0336 -0.6215 -7.0538 0.0000 33.0493 0.0000
# 6 0.0000 0.0000 0.0000 -0.4684 0.0000 11.4062
#
#
#
# Elastic Compliance Matrix: (Units=1/GPa)
#
#
# Indices 1 2 3 4 5 6 
#
# 1 0.015993 -0.006676 -0.006086 0.000000 -0.003376 0.000000
# 2 -0.006676 0.019155 -0.003960 0.000000 0.000330 0.000000
# 3 -0.006086 -0.003960 0.018483 0.000000 0.004613 0.000000
# 4 0.000000 0.000000 0.000000 0.083954 0.000000 0.003447
# 5 -0.003376 0.000330 0.004613 0.000000 0.031661 0.000000
# 6 0.000000 0.000000 0.000000 0.003447 0.000000 0.087813
#
#
# Mechanical properties :
#
#
# Convention : Reuss Voigt Hill
#
# Bulk Modulus (GPa) = 49.53382 51.51903 50.52642
# Shear Modulus (GPa) = 16.82192 20.16718 18.49455
#
# Velocity S-wave (km/s) = 3.13240 3.42974 3.28444
# Velocity P-wave (km/s) = 6.47879 6.76271 6.62227
#
# Compressibility (1/GPa) = 0.02018823
#
# Stress axis : x y z
#
# Youngs Moduli (GPa) = 62.52765 52.20484 54.10381
#
# Poissons Ratio (x) = 0.34854 0.32926
# Poissons Ratio (y) = 0.41745 0.21422
# Poissons Ratio (z) = 0.38052 0.20671
#
# Static dielectric constant tensor:
#      x y z
#    x 3.488750 0.000000 -0.040680 
#    y 0.000000 2.692990 0.000000 
#    z -0.040680 0.000000 3.309830 
# 
# 
# High freq. dielectric constant tensor:
#      x y z
#    x 1.675730 0.000000 -0.002240 
#    y 0.000000 1.587390 0.000000 
#    z -0.002240 0.000000 1.675770 
# 
# From -- ./inp_files/67315.got.cif
#   From: 2010.06.25/outbox.cif.g09.slc.cpg/sg10_34_cif.got.tgz:67315.got - 2010.06.27 22:07:45.
