data_PCOD8057629
_publ_section_title
;
Structure prediction by ZEFSAII (Michael W. Deem and Ramdas Pophale) SiO2 
 PCOD8057629
Probable space group: P 2/M
;
_chemical_formula_sum "Si O2"
_cell_formula_units_Z 32
_cell_length_a 17.197629
_cell_length_b 8.853497
_cell_length_c 13.875729
_cell_angle_alpha 90.000000
_cell_angle_beta 102.569917
_cell_angle_gamma 90.000000
_cell_volume 2062.067672
_symmetry_space_group_name_H-M "P 2/M"
_symmetry_group_IT_number 10
_symmetry_cell_setting 'monoclinic'
loop_
_space_group_symop_operation_xyz
x,y,z
-x,y,-z
-x,-y,-z
x,-y,z
loop_
_atom_site_type_symbol
_atom_site_label
_atom_site_fract_x
_atom_site_fract_y
_atom_site_fract_z
Si Si1 0.096161 0.176807 0.907858
Si Si2 0.050068 0.325763 0.218128
Si Si3 0.181400 0.678189 0.757259
Si Si4 0.334311 0.177239 0.850675
Si Si5 0.025688 0.678354 0.608751
Si Si6 0.664501 0.676943 0.941806
Si Si7 0.827429 0.326888 0.898176
Si Si8 0.507336 0.667275 0.116361
O O1 0.154586 0.272445 0.856030
O O2 0.005380 0.224198 0.864836
O O3 0.107366 0.000000 0.891527
O O4 0.119379 0.216693 0.022834
O O5 0.022092 0.500000 0.201642
O O6 0.140963 0.305418 0.203826
O O7 0.039174 0.274880 0.326746
O O8 0.191956 0.500000 0.756186
O O9 0.267064 0.754861 0.760803
O O10 0.114270 0.734470 0.662865
O O11 0.421140 0.223086 0.832584
O O12 0.326915 0.000000 0.848372
O O13 0.319729 0.235139 0.955043
O O14 0.027884 0.500000 0.597603
O O15 0.000000 0.753478 0.500000
O O16 0.661080 0.500000 0.967569
O O17 0.733883 0.714384 0.883073
O O18 0.579711 0.724637 0.870163
O O19 0.841136 0.500000 0.934594
O O20 0.526466 0.500000 0.161578
O O21 0.500000 0.663834 0.000000
#
# Coordination Sequence:
#
# PCOD8057629 Si02
#       8
#     4   4   4   4   4   4   4   4
#     4  11  20  28  39  58  83 111 141 175 209 237
#     4   9  18  30  44  61  80 108 141 170 206 252
#     4  10  18  29  45  62  82 110 141 173 210 254
#     4  11  19  26  39  60  84 109 140 176 209 241
#     4   8  15  29  48  66  82 102 134 176 215 251
#     4   9  17  28  41  55  78 114 148 174 203 241
#     4  10  18  28  42  58  81 113 145 171 199 243
#     4   8  15  27  40  54  75 109 146 174 204 242
#
# _framework density 15.518404
#
# number of rings (size 3 to 8) (size 9 to 14) (size 15 to 20)
#    0.000    2.500    1.250    4.500    0.000    4.250 
#    0.000    0.000    0.000    9.375    0.000    0.000 
#    0.000    1.000    0.000   12.750    0.000    1.250 
#
# Total GULP energy -396530.697095 kJ/mol
# GULP energy per Si atom -12391.584284 kJ/mol
# Density = 1.548308 g / cm^3
# Si number density = 15.518404 Si / 1000 Ang^3
#
#
#
# Elastic Constant Matrix: (Units=GPa)
#
#
# Indices 1 2 3 4 5 6 
#
# 1 138.3777 36.2580 56.6212 0.0000 5.9521 0.0000
# 2 36.2580 62.8590 22.7777 0.0000 6.9651 0.0000
# 3 56.6212 22.7777 72.0250 0.0000 3.6213 0.0000
# 4 0.0000 0.0000 0.0000 3.2442 0.0000 1.3209
# 5 5.9521 6.9651 3.6213 0.0000 13.9801 0.0000
# 6 0.0000 0.0000 0.0000 1.3209 0.0000 10.6939
#
#
#
# Elastic Compliance Matrix: (Units=1/GPa)
#
#
# Indices 1 2 3 4 5 6 
#
# 1 0.011401 -0.003652 -0.007756 0.000000 -0.001025 0.000000
# 2 -0.003652 0.019967 -0.003061 0.000000 -0.007600 0.000000
# 3 -0.007756 -0.003061 0.020980 0.000000 -0.000607 0.000000
# 4 0.000000 0.000000 0.000000 0.324565 0.000000 -0.040091
# 5 -0.001025 -0.007600 -0.000607 0.000000 0.075910 0.000000
# 6 0.000000 0.000000 0.000000 -0.040091 0.000000 0.098463
#
#
# Mechanical properties :
#
#
# Convention : Reuss Voigt Hill
#
# Bulk Modulus (GPa) = 42.71926 56.06395 49.39160
# Shear Modulus (GPa) = 8.50297 16.09063 12.29680
#
# Velocity S-wave (km/s) = 2.34333 3.22355 2.81802
# Velocity P-wave (km/s) = 5.90842 7.07537 6.51806
#
# Compressibility (1/GPa) = 0.02340865
#
# Stress axis : x y z
#
# Youngs Moduli (GPa) = 87.70803 50.08349 47.66372
#
# Poissons Ratio (x) = 0.18292 0.36970
# Poissons Ratio (y) = 0.32033 0.14591
# Poissons Ratio (z) = 0.68031 0.15331
#
# Static dielectric constant tensor:
#      x y z
#    x 3.425710 0.000000 0.124930 
#    y 0.000000 2.831880 0.000000 
#    z 0.124930 0.000000 2.724440 
# 
# 
# High freq. dielectric constant tensor:
#      x y z
#    x 1.606180 0.000000 0.009680 
#    y 0.000000 1.585790 0.000000 
#    z 0.009680 0.000000 1.530620 
# 
# From -- ./inp_files/68227.got.cif
#   From: 2010.06.25/outbox.cif.g09.slc.cpg/sg10_35_cif.got.tgz:68227.got - 2010.06.27 22:07:45.
