data_PCOD8057328
_publ_section_title
;
Structure prediction by ZEFSAII (Michael W. Deem and Ramdas Pophale) SiO2 
 PCOD8057328
Probable space group: P 2/M
;
_chemical_formula_sum "Si O2"
_cell_formula_units_Z 20
_cell_length_a 12.269161
_cell_length_b 8.367703
_cell_length_c 12.408085
_cell_angle_alpha 90.000000
_cell_angle_beta 117.753715
_cell_angle_gamma 90.000000
_cell_volume 1127.322746
_symmetry_space_group_name_H-M "P 2/M"
_symmetry_group_IT_number 10
_symmetry_cell_setting 'monoclinic'
loop_
_space_group_symop_operation_xyz
x,y,z
-x,y,-z
-x,-y,-z
x,-y,z
loop_
_atom_site_type_symbol
_atom_site_label
_atom_site_fract_x
_atom_site_fract_y
_atom_site_fract_z
Si Si1 0.665212 0.815606 0.502909
Si Si2 0.191722 0.310145 0.092766
Si Si3 0.924567 0.689805 0.568399
Si Si4 0.423992 0.314236 0.317751
Si Si5 0.011288 0.310323 0.836288
O O1 0.789701 0.766284 0.500354
O O2 0.645136 0.709485 0.600004
O O3 0.550640 0.784780 0.368994
O O4 0.667996 0.000000 0.537442
O O5 0.188838 0.500000 0.098938
O O6 0.331404 0.252192 0.180509
O O7 0.101675 0.242586 0.144636
O O8 0.140329 0.253608 0.951819
O O9 0.910544 0.500000 0.562348
O O10 0.000000 0.750460 0.500000
O O11 0.997630 0.752967 0.708033
O O12 0.455176 0.500000 0.318192
O O13 0.007295 0.500000 0.833745
#
# Coordination Sequence:
#
# PCOD8057328 Si02
#       5
#     4   4   4   4   4
#     4  11  21  31  44  67  99 129 155 188 236 283
#     4   8  13  22  44  71  95 118 142 189 240 277
#     4  10  19  32  51  71  93 123 160 197 227 269
#     4  10  17  29  50  72  94 121 156 196 235 276
#     4   8  13  24  42  70  97 116 147 188 237 276
#
# _framework density 17.741147999999999
#
# number of rings (size 3 to 8) (size 9 to 14) (size 15 to 20)
#    0.000    2.600    2.000    4.800    0.000    0.400 
#    0.000    0.000    0.000    4.800    0.000    8.400 
#    0.000    0.000    0.000    0.000    0.000    0.000 
#
# Total GULP energy -247836.104538 kJ/mol
# GULP energy per Si atom -12391.805227 kJ/mol
# Density = 1.770077 g / cm^3
# Si number density = 17.741148 Si / 1000 Ang^3
#
#
#
# Elastic Constant Matrix: (Units=GPa)
#
#
# Indices 1 2 3 4 5 6 
#
# 1 108.2677 13.5259 74.9773 0.0000 17.6700 0.0000
# 2 13.5259 28.9404 10.3885 0.0000 2.4862 0.0000
# 3 74.9773 10.3885 152.6117 0.0000 24.0402 0.0000
# 4 0.0000 0.0000 0.0000 0.3947 0.0000 -1.3897
# 5 17.6700 2.4862 24.0402 0.0000 33.3116 0.0000
# 6 0.0000 0.0000 0.0000 -1.3897 0.0000 8.8687
#
#
#
# Elastic Compliance Matrix: (Units=1/GPa)
#
#
# Indices 1 2 3 4 5 6 
#
# 1 0.014737 -0.004312 -0.006506 0.000000 -0.002801 0.000000
# 2 -0.004312 0.036712 -0.000349 0.000000 -0.000201 0.000000
# 3 -0.006506 -0.000349 0.010408 0.000000 -0.004034 0.000000
# 4 0.000000 0.000000 0.000000 5.651218 0.000000 0.885511
# 5 -0.002801 -0.000201 -0.004034 0.000000 0.034432 0.000000
# 6 0.000000 0.000000 0.000000 0.885511 0.000000 0.251510
#
#
# Mechanical properties :
#
#
# Convention : Reuss Voigt Hill
#
# Bulk Modulus (GPa) = 25.30116 54.17812 39.73964
# Shear Modulus (GPa) = 0.82857 21.24353 11.03605
#
# Velocity S-wave (km/s) = 0.68414 3.46412 2.49682
# Velocity P-wave (km/s) = 3.86216 6.82676 5.54621
#
# Compressibility (1/GPa) = 0.03952388
#
# Stress axis : x y z
#
# Youngs Moduli (GPa) = 67.85419 27.23934 96.07927
#
# Poissons Ratio (x) = 0.11745 0.62507
# Poissons Ratio (y) = 0.29258 0.03353
# Poissons Ratio (z) = 0.44144 0.00950
#
# Static dielectric constant tensor:
#      x y z
#    x 3.190330 0.000000 0.401140 
#    y 0.000000 2.876330 0.000000 
#    z 0.401140 0.000000 3.772380 
# 
# 
# High freq. dielectric constant tensor:
#      x y z
#    x 1.654750 0.000000 0.037470 
#    y 0.000000 1.653220 0.000000 
#    z 0.037470 0.000000 1.686030 
# 
# From -- ./inp_files/44323.got.cif
#   From: 2010.06.25/outbox.cif.g09.slc.cpg/sg10_23_cif.got.tgz:44323.got - 2010.06.27 22:07:45.
