data_PCOD8057033
_publ_section_title
;
Structure prediction by ZEFSAII (Michael W. Deem and Ramdas Pophale) SiO2 
 PCOD8057033
Probable space group: P 2/M
;
_chemical_formula_sum "Si O2"
_cell_formula_units_Z 32
_cell_length_a 21.510169
_cell_length_b 8.736971
_cell_length_c 11.727752
_cell_angle_alpha 90.000000
_cell_angle_beta 57.913154
_cell_angle_gamma 90.000000
_cell_volume 1867.359519
_symmetry_space_group_name_H-M "P 2/M"
_symmetry_group_IT_number 10
_symmetry_cell_setting 'monoclinic'
loop_
_space_group_symop_operation_xyz
x,y,z
-x,y,-z
-x,-y,-z
x,-y,z
loop_
_atom_site_type_symbol
_atom_site_label
_atom_site_fract_x
_atom_site_fract_y
_atom_site_fract_z
Si Si1 0.426896 0.178383 0.459974
Si Si2 0.859645 0.179351 0.861838
Si Si3 0.004328 0.818997 0.121875
Si Si4 0.282828 0.819711 0.859715
Si Si5 0.132862 0.817653 0.601465
Si Si6 0.431146 0.320168 0.703762
Si Si7 0.734251 0.822322 0.379683
Si Si8 0.916160 0.319774 0.579803
O O1 0.427291 0.272479 0.576275
O O2 0.493815 0.243994 0.317028
O O3 0.346115 0.204610 0.484276
O O4 0.439535 0.000000 0.473503
O O5 0.919072 0.230041 0.897525
O O6 0.873036 0.274827 0.735395
O O7 0.866402 0.000000 0.827281
O O8 0.780634 0.222317 0.989566
O O9 0.938023 0.754788 0.262420
O O10 0.996997 0.000000 0.120585
O O11 0.000000 0.746421 0.000000
O O12 0.357357 0.742643 0.835605
O O13 0.262813 0.755351 0.752476
O O14 0.296346 0.000000 0.838472
O O15 0.204286 0.749787 0.597596
O O16 0.130243 0.752722 0.477177
O O17 0.134519 0.000000 0.592340
O O18 0.435986 0.500000 0.715327
O O19 0.752919 0.000000 0.350810
O O20 0.916979 0.500000 0.564382
O O21 0.000000 0.255918 0.500000
#
# Coordination Sequence:
#
# PCOD8057033 Si02
#       8
#     4   4   4   4   4   4   4   4
#     4   9  15  26  43  64  95 130 162 194 236 279
#     4  10  19  32  52  74  92 120 162 202 239 283
#     4   9  16  26  46  75  99 118 147 192 239 280
#     4   9  17  30  47  70 101 128 155 193 243 291
#     4  10  18  31  52  73  94 120 159 201 238 281
#     4  10  17  25  40  65  96 130 167 194 225 276
#     4   8  15  27  46  73 100 125 152 193 241 287
#     4  11  23  37  50  65  92 127 163 204 245 282
#
# _framework density 17.136496999999999
#
# number of rings (size 3 to 8) (size 9 to 14) (size 15 to 20)
#    0.000    2.500    1.250    4.125    0.000    4.000 
#    0.000    3.125    0.000    3.000    0.000    0.875 
#    0.000    7.000    0.000    0.000    0.000    0.000 
#
# Total GULP energy -396612.262907 kJ/mol
# GULP energy per Si atom -12394.133216 kJ/mol
# Density = 1.709749 g / cm^3
# Si number density = 17.136497 Si / 1000 Ang^3
#
#
#
# Elastic Constant Matrix: (Units=GPa)
#
#
# Indices 1 2 3 4 5 6 
#
# 1 70.6755 25.6703 53.1685 0.0000 -26.4720 0.0000
# 2 25.6703 38.9470 25.4637 0.0000 -8.5865 0.0000
# 3 53.1685 25.4637 93.8619 0.0000 -12.9420 0.0000
# 4 0.0000 0.0000 0.0000 14.2262 0.0000 -7.5236
# 5 -26.4720 -8.5865 -12.9420 0.0000 33.8076 0.0000
# 6 0.0000 0.0000 0.0000 -7.5236 0.0000 6.8318
#
#
#
# Elastic Compliance Matrix: (Units=1/GPa)
#
#
# Indices 1 2 3 4 5 6 
#
# 1 0.037095 -0.009753 -0.015523 0.000000 0.020627 0.000000
# 2 -0.009753 0.034580 -0.003905 0.000000 -0.000349 0.000000
# 3 -0.015523 -0.003905 0.019735 0.000000 -0.005591 0.000000
# 4 0.000000 0.000000 0.000000 0.168330 0.000000 0.185376
# 5 0.020627 -0.000349 -0.005591 0.000000 0.043501 0.000000
# 6 0.000000 0.000000 0.000000 0.185376 0.000000 0.350521
#
#
# Mechanical properties :
#
#
# Convention : Reuss Voigt Hill
#
# Bulk Modulus (GPa) = 30.25770 45.78771 38.02271
# Shear Modulus (GPa) = 6.91429 17.58526 12.24977
#
# Velocity S-wave (km/s) = 2.01087 3.20689 2.67654
# Velocity P-wave (km/s) = 4.80486 6.36315 5.63810
#
# Compressibility (1/GPa) = 0.03304943
#
# Stress axis : x y z
#
# Youngs Moduli (GPa) = 26.95773 28.91812 50.67116
#
# Poissons Ratio (x) = 0.28205 0.78655
# Poissons Ratio (y) = 0.26293 0.19785
# Poissons Ratio (z) = 0.41845 0.11291
#
# Static dielectric constant tensor:
#      x y z
#    x 3.600950 0.000000 -0.398390 
#    y 0.000000 2.906130 0.000000 
#    z -0.398390 0.000000 3.183320 
# 
# 
# High freq. dielectric constant tensor:
#      x y z
#    x 1.659620 0.000000 -0.029650 
#    y 0.000000 1.636560 0.000000 
#    z -0.029650 0.000000 1.638140 
# 
# From -- ./inp_files/54835.got.cif
#   From: 2010.06.25/outbox.cif.g09.slc.cpg/sg10_28_cif.got.tgz:54835.got - 2010.06.27 22:07:45.
