data_PCOD8057310
_publ_section_title
;
Structure prediction by ZEFSAII (Michael W. Deem and Ramdas Pophale) SiO2 
 PCOD8057310
Probable space group: P 2/M
;
_chemical_formula_sum "Si O2"
_cell_formula_units_Z 32
_cell_length_a 14.360953
_cell_length_b 9.238497
_cell_length_c 26.381405
_cell_angle_alpha 90.000000
_cell_angle_beta 35.064665
_cell_angle_gamma 90.000000
_cell_volume 2010.818978
_symmetry_space_group_name_H-M "P 2/M"
_symmetry_group_IT_number 10
_symmetry_cell_setting 'monoclinic'
loop_
_space_group_symop_operation_xyz
x,y,z
-x,y,-z
-x,-y,-z
x,-y,z
loop_
_atom_site_type_symbol
_atom_site_label
_atom_site_fract_x
_atom_site_fract_y
_atom_site_fract_z
Si Si1 0.456975 0.335454 0.863484
Si Si2 0.742283 0.828506 0.596495
Si Si3 0.106227 0.834591 0.904568
Si Si4 0.249171 0.170909 0.220176
Si Si5 0.564071 0.335261 0.243836
Si Si6 0.682702 0.829286 0.919822
Si Si7 0.185447 0.833887 0.033148
Si Si8 0.048263 0.170897 0.402082
O O1 0.457680 0.500000 0.882639
O O2 0.584832 0.244331 0.837940
O O3 0.494902 0.326904 0.787514
O O4 0.282685 0.264259 0.950269
O O5 0.571806 0.748710 0.662984
O O6 0.821689 0.776056 0.614190
O O7 0.866100 0.777447 0.496672
O O8 0.711416 0.000000 0.609600
O O9 0.261578 0.736073 0.826819
O O10 0.002229 0.821143 0.899083
O O11 0.161910 0.000000 0.889220
O O12 0.000000 0.781639 0.000000
O O13 0.218014 0.214312 0.175413
O O14 0.102252 0.225431 0.321964
O O15 0.273736 0.000000 0.215499
O O16 0.575621 0.500000 0.257767
O O17 0.784021 0.774003 0.923362
O O18 0.667040 0.000000 0.929737
O O19 0.500000 0.762998 0.000000
O O20 0.244363 0.000000 0.001956
O O21 0.047082 0.000000 0.405483
#
# Coordination Sequence:
#
# PCOD8057310 Si02
#       8
#     4   4   4   4   4   4   4   4
#     4  11  21  29  41  65  95 124 153 186 224 261
#     4   9  16  29  47  67  91 117 152 188 222 267
#     4  10  20  32  49  68  86 117 158 192 224 266
#     4  10  17  29  48  67  91 125 157 181 216 268
#     4  11  22  32  44  66  95 124 153 186 230 272
#     4   9  16  26  46  72  92 116 150 187 224 260
#     4  10  19  33  48  65  90 119 156 192 222 262
#     4   8  15  26  45  70  91 117 150 187 222 262
#
# _framework density 15.913914999999999
#
# number of rings (size 3 to 8) (size 9 to 14) (size 15 to 20)
#    0.000    2.250    3.750    1.500    0.000    1.750 
#    0.000    3.125    0.000    0.000    0.000    0.875 
#    0.000    7.000    0.000    0.000    0.000    0.000 
#
# Total GULP energy -396625.091179 kJ/mol
# GULP energy per Si atom -12394.534099 kJ/mol
# Density = 1.587769 g / cm^3
# Si number density = 15.913915 Si / 1000 Ang^3
#
#
#
# Elastic Constant Matrix: (Units=GPa)
#
#
# Indices 1 2 3 4 5 6 
#
# 1 74.1306 20.2754 38.9879 0.0000 -0.6370 0.0000
# 2 20.2754 52.2335 43.9048 0.0000 -4.3059 0.0000
# 3 38.9879 43.9048 124.2805 0.0000 -1.8541 0.0000
# 4 0.0000 0.0000 0.0000 6.7078 0.0000 1.5691
# 5 -0.6370 -4.3059 -1.8541 0.0000 23.3746 0.0000
# 6 0.0000 0.0000 0.0000 1.5691 0.0000 10.4813
#
#
#
# Elastic Compliance Matrix: (Units=1/GPa)
#
#
# Indices 1 2 3 4 5 6 
#
# 1 0.016465 -0.002957 -0.004127 0.000000 -0.000423 0.000000
# 2 -0.002957 0.028192 -0.008966 0.000000 0.004402 0.000000
# 3 -0.004127 -0.008966 0.012497 0.000000 -0.000773 0.000000
# 4 0.000000 0.000000 0.000000 0.154490 0.000000 -0.023129
# 5 -0.000423 0.004402 -0.000773 0.000000 0.043519 0.000000
# 6 0.000000 0.000000 0.000000 -0.023129 0.000000 0.098871
#
#
# Mechanical properties :
#
#
# Convention : Reuss Voigt Hill
#
# Bulk Modulus (GPa) = 39.91429 50.77564 45.34496
# Shear Modulus (GPa) = 12.67469 17.94450 15.30960
#
# Velocity S-wave (km/s) = 2.82521 3.36162 3.10502
# Velocity P-wave (km/s) = 5.98149 6.85879 6.43511
#
# Compressibility (1/GPa) = 0.02505368
#
# Stress axis : x y z
#
# Youngs Moduli (GPa) = 60.73325 35.47106 80.02008
#
# Poissons Ratio (x) = 0.10490 0.33024
# Poissons Ratio (y) = 0.17961 0.71746
# Poissons Ratio (z) = 0.25064 0.31803
#
# Static dielectric constant tensor:
#      x y z
#    x 3.015350 0.000000 0.192560 
#    y 0.000000 2.837940 0.000000 
#    z 0.192560 0.000000 3.212240 
# 
# 
# High freq. dielectric constant tensor:
#      x y z
#    x 1.585880 0.000000 0.003480 
#    y 0.000000 1.589660 0.000000 
#    z 0.003480 0.000000 1.605090 
# 
# From -- ./inp_files/72195.got.cif
#   From: 2010.06.25/outbox.cif.g09.slc.cpg/sg10_37_cif.got.tgz:72195.got - 2010.06.27 22:07:45.
