data_PCOD8057555
_publ_section_title
;
Structure prediction by ZEFSAII (Michael W. Deem and Ramdas Pophale) SiO2 
 PCOD8057555
Probable space group: P 2/M
;
_chemical_formula_sum "Si O2"
_cell_formula_units_Z 32
_cell_length_a 15.825577
_cell_length_b 9.217038
_cell_length_c 16.149875
_cell_angle_alpha 90.000000
_cell_angle_beta 70.781472
_cell_angle_gamma 90.000000
_cell_volume 2224.417364
_symmetry_space_group_name_H-M "P 2/M"
_symmetry_group_IT_number 10
_symmetry_cell_setting 'monoclinic'
loop_
_space_group_symop_operation_xyz
x,y,z
-x,y,-z
-x,-y,-z
x,-y,z
loop_
_atom_site_type_symbol
_atom_site_label
_atom_site_fract_x
_atom_site_fract_y
_atom_site_fract_z
Si Si1 0.490088 0.163965 0.905204
Si Si2 0.336014 0.669538 0.163159
Si Si3 0.167455 0.327687 0.317937
Si Si4 0.857057 0.167678 0.019719
Si Si5 0.683925 0.669146 0.023013
Si Si6 0.907757 0.328203 0.493965
Si Si7 0.973097 0.833360 0.140117
Si Si8 0.978740 0.671667 0.304624
O O1 0.575293 0.244568 0.838003
O O2 0.484872 0.000000 0.872730
O O3 0.500000 0.165720 0.000000
O O4 0.400566 0.249605 0.908893
O O5 0.353393 0.500000 0.173369
O O6 0.255122 0.734339 0.244393
O O7 0.310787 0.699041 0.076362
O O8 0.170022 0.500000 0.311491
O O9 0.168188 0.276230 0.415380
O O10 0.077541 0.273886 0.300381
O O11 0.894413 0.191760 0.099693
O O12 0.830059 0.000000 0.014824
O O13 0.772586 0.270588 0.036783
O O14 0.932224 0.214968 0.929279
O O15 0.674488 0.500000 0.045738
O O16 0.910185 0.500000 0.494936
O O17 0.000000 0.266708 0.500000
O O18 0.904223 0.279359 0.398494
O O19 0.949798 0.740862 0.227973
O O20 0.978209 0.000000 0.164673
O O21 0.978638 0.500000 0.293525
#
# Coordination Sequence:
#
# PCOD8057555 Si02
#       8
#     4   4   4   4   4   4   4   4
#     4   9  17  28  40  54  75 104 133 157 186 229
#     4   9  16  25  38  57  80 103 129 162 195 225
#     4   8  13  22  37  57  80 105 131 159 193 229
#     4   9  18  31  42  53  74 105 136 161 190 231
#     4  10  18  27  41  60  79  99 127 164 200 226
#     4   7  11  20  35  55  77 101 129 159 189 225
#     4   9  18  30  41  54  76 105 133 162 195 228
#     4   9  15  24  40  59  77 101 135 167 192 223
#
# _framework density 14.38579
#
# number of rings (size 3 to 8) (size 9 to 14) (size 15 to 20)
#    0.000    3.250    0.000    3.750    0.000    4.000 
#    0.000    1.875    0.000    4.125    0.000    0.000 
#    0.000    1.000    0.000   11.500    0.000    2.875 
#
# Total GULP energy -396482.879901 kJ/mol
# GULP energy per Si atom -12390.089997 kJ/mol
# Density = 1.435305 g / cm^3
# Si number density = 14.385790 Si / 1000 Ang^3
#
#
#
# Elastic Constant Matrix: (Units=GPa)
#
#
# Indices 1 2 3 4 5 6 
#
# 1 81.9117 38.8505 35.1259 0.0000 -11.8767 0.0000
# 2 38.8505 54.2586 32.4055 0.0000 -2.6314 0.0000
# 3 35.1259 32.4055 97.0262 0.0000 -8.4363 0.0000
# 4 0.0000 0.0000 0.0000 11.7636 0.0000 0.7376
# 5 -11.8767 -2.6314 -8.4363 0.0000 19.6021 0.0000
# 6 0.0000 0.0000 0.0000 0.7376 0.0000 23.9070
#
#
#
# Elastic Compliance Matrix: (Units=1/GPa)
#
#
# Indices 1 2 3 4 5 6 
#
# 1 0.020821 -0.013042 -0.002324 0.000000 0.009864 0.000000
# 2 -0.013042 0.031193 -0.006253 0.000000 -0.006406 0.000000
# 3 -0.002324 -0.006253 0.013548 0.000000 0.003583 0.000000
# 4 0.000000 0.000000 0.000000 0.085173 0.000000 -0.002628
# 5 0.009864 -0.006406 0.003583 0.000000 0.057674 0.000000
# 6 0.000000 0.000000 0.000000 -0.002628 0.000000 0.041910
#
#
# Mechanical properties :
#
#
# Convention : Reuss Voigt Hill
#
# Bulk Modulus (GPa) = 44.79755 49.55114 47.17435
# Shear Modulus (GPa) = 16.61142 19.50884 18.06013
#
# Velocity S-wave (km/s) = 3.40179 3.68655 3.54703
# Velocity P-wave (km/s) = 6.82915 7.25535 7.04547
#
# Compressibility (1/GPa) = 0.02232265
#
# Stress axis : x y z
#
# Youngs Moduli (GPa) = 48.02885 32.05887 73.81135
#
# Poissons Ratio (x) = 0.41810 0.17155
# Poissons Ratio (y) = 0.62638 0.46158
# Poissons Ratio (z) = 0.11163 0.20048
#
# Static dielectric constant tensor:
#      x y z
#    x 2.684830 0.000000 -0.217270 
#    y 0.000000 2.642400 0.000000 
#    z -0.217270 0.000000 2.960470 
# 
# 
# High freq. dielectric constant tensor:
#      x y z
#    x 1.524400 0.000000 -0.014140 
#    y 0.000000 1.534660 0.000000 
#    z -0.014140 0.000000 1.536170 
# 
# From -- ./inp_files/66012.got.cif
#   From: 2010.06.25/outbox.cif.g09.slc.cpg/sg10_34_cif.got.tgz:66012.got - 2010.06.27 22:07:45.
