data_PCOD8057035
_publ_section_title
;
Structure prediction by ZEFSAII (Michael W. Deem and Ramdas Pophale) SiO2 
 PCOD8057035
Probable space group: P 2/M
;
_chemical_formula_sum "Si O2"
_cell_formula_units_Z 32
_cell_length_a 19.475554
_cell_length_b 8.816978
_cell_length_c 17.148022
_cell_angle_alpha 90.000000
_cell_angle_beta 43.626186
_cell_angle_gamma 90.000000
_cell_volume 2031.615448
_symmetry_space_group_name_H-M "P 2/M"
_symmetry_group_IT_number 10
_symmetry_cell_setting 'monoclinic'
loop_
_space_group_symop_operation_xyz
x,y,z
-x,y,-z
-x,-y,-z
x,-y,z
loop_
_atom_site_type_symbol
_atom_site_label
_atom_site_fract_x
_atom_site_fract_y
_atom_site_fract_z
Si Si1 0.354711 0.822014 0.476363
Si Si2 0.887652 0.819384 0.581713
Si Si3 0.617185 0.333151 0.392622
Si Si4 0.727372 0.823761 0.833186
Si Si5 0.372673 0.824004 0.934836
Si Si6 0.749698 0.322420 0.572487
Si Si7 0.566059 0.678632 0.269132
Si Si8 0.407231 0.827459 0.194914
O O1 0.337018 0.781980 0.582018
O O2 0.264364 0.746832 0.502376
O O3 0.460787 0.764428 0.356801
O O4 0.351413 0.000000 0.467870
O O5 0.823306 0.756388 0.708572
O O6 0.844666 0.752133 0.536840
O O7 0.000000 0.762404 0.500000
O O8 0.880638 0.000000 0.582236
O O9 0.500000 0.343714 0.500000
O O10 0.664453 0.500000 0.367192
O O11 0.632954 0.278286 0.290224
O O12 0.627925 0.794138 0.864263
O O13 0.745575 0.000000 0.829543
O O14 0.709680 0.759463 0.935607
O O15 0.369064 0.727356 0.858807
O O16 0.476313 0.801285 0.894406
O O17 0.355106 0.000000 0.928347
O O18 0.767674 0.500000 0.551293
O O19 0.648490 0.287563 0.702047
O O20 0.543496 0.500000 0.286508
O O21 0.377347 0.000000 0.243025
#
# Coordination Sequence:
#
# PCOD8057035 Si02
#       8
#     4   4   4   4   4   4   4   4
#     4  11  19  28  43  62  84 112 150 188 216 252
#     4   9  18  34  53  68  86 113 145 183 225 267
#     4   8  16  29  41  55  80 115 148 180 219 255
#     4   8  15  27  43  64  85 109 145 182 220 258
#     4  10  17  25  41  61  85 117 150 183 212 251
#     4  11  20  29  44  65  90 117 145 181 222 263
#     4  10  19  29  40  57  86 120 150 181 218 256
#     4   9  16  27  41  58  83 115 149 181 213 251
#
# _framework density 15.751011
#
# number of rings (size 3 to 8) (size 9 to 14) (size 15 to 20)
#    0.000    2.500    1.250    4.500    0.000    4.500 
#    0.000    2.500    0.000    3.750    0.000    0.000 
#    0.000    1.000    0.000   11.500    0.000    2.875 
#
# Total GULP energy -396564.483250 kJ/mol
# GULP energy per Si atom -12392.640102 kJ/mol
# Density = 1.571516 g / cm^3
# Si number density = 15.751011 Si / 1000 Ang^3
#
#
#
# Elastic Constant Matrix: (Units=GPa)
#
#
# Indices 1 2 3 4 5 6 
#
# 1 94.6554 37.7354 56.0861 0.0000 21.0471 0.0000
# 2 37.7354 65.8358 24.0137 0.0000 7.2818 0.0000
# 3 56.0861 24.0137 77.2133 0.0000 19.3602 0.0000
# 4 0.0000 0.0000 0.0000 10.6219 0.0000 6.0914
# 5 21.0471 7.2818 19.3602 0.0000 24.1502 0.0000
# 6 0.0000 0.0000 0.0000 6.0914 0.0000 21.0672
#
#
#
# Elastic Compliance Matrix: (Units=1/GPa)
#
#
# Indices 1 2 3 4 5 6 
#
# 1 0.022403 -0.007624 -0.011994 0.000000 -0.007611 0.000000
# 2 -0.007624 0.019752 -0.000973 0.000000 0.001469 0.000000
# 3 -0.011994 -0.000973 0.024119 0.000000 -0.008590 0.000000
# 4 0.000000 0.000000 0.000000 0.112859 0.000000 -0.032632
# 5 -0.007611 0.001469 -0.008590 0.000000 0.054483 0.000000
# 6 0.000000 0.000000 0.000000 -0.032632 0.000000 0.056902
#
#
# Mechanical properties :
#
#
# Convention : Reuss Voigt Hill
#
# Bulk Modulus (GPa) = 39.85316 52.59722 46.22519
# Shear Modulus (GPa) = 14.70306 19.15915 16.93110
#
# Velocity S-wave (km/s) = 3.05858 3.49144 3.28216
# Velocity P-wave (km/s) = 6.15062 7.05117 6.61623
#
# Compressibility (1/GPa) = 0.02509211
#
# Stress axis : x y z
#
# Youngs Moduli (GPa) = 44.63689 50.62823 41.46043
#
# Poissons Ratio (x) = 0.38601 0.49726
# Poissons Ratio (y) = 0.34033 0.04035
# Poissons Ratio (z) = 0.53536 0.04927
#
# Static dielectric constant tensor:
#      x y z
#    x 3.099900 0.000000 0.370190 
#    y 0.000000 2.872420 0.000000 
#    z 0.370190 0.000000 3.021060 
# 
# 
# High freq. dielectric constant tensor:
#      x y z
#    x 1.588380 0.000000 0.035920 
#    y 0.000000 1.595110 0.000000 
#    z 0.035920 0.000000 1.570060 
# 
# From -- ./inp_files/77395.got.cif
#   From: 2010.06.25/outbox.cif.g09.slc.cpg/sg10_39_cif.got.tgz:77395.got - 2010.06.27 22:07:45.
