data_PCOD8057351
_publ_section_title
;
Structure prediction by ZEFSAII (Michael W. Deem and Ramdas Pophale) SiO2 
 PCOD8057351
Probable space group: P 2/M
;
_chemical_formula_sum "Si O2"
_cell_formula_units_Z 32
_cell_length_a 13.671925
_cell_length_b 19.456529
_cell_length_c 10.082617
_cell_angle_alpha 90.000000
_cell_angle_beta 136.647004
_cell_angle_gamma 90.000000
_cell_volume 1841.209844
_symmetry_space_group_name_H-M "P 2/M"
_symmetry_group_IT_number 10
_symmetry_cell_setting 'monoclinic'
loop_
_space_group_symop_operation_xyz
x,y,z
-x,y,-z
-x,-y,-z
x,-y,z
loop_
_atom_site_type_symbol
_atom_site_label
_atom_site_fract_x
_atom_site_fract_y
_atom_site_fract_z
Si Si1 0.649288 0.194386 0.396245
Si Si2 0.633815 0.574805 0.535496
Si Si3 0.633869 0.425890 0.228216
Si Si4 0.669782 0.714405 0.175798
Si Si5 0.824221 0.077668 0.466444
Si Si6 0.330573 0.283623 0.341061
Si Si7 0.687810 0.207000 0.936430
Si Si8 0.848216 0.079048 0.185833
O O1 0.714130 0.235732 0.337254
O O2 0.713867 0.118639 0.449162
O O3 0.710940 0.229116 0.588210
O O4 0.479263 0.190829 0.227764
O O5 0.500000 0.569845 0.500000
O O6 0.713723 0.500000 0.622144
O O7 0.587276 0.589084 0.335859
O O8 0.729371 0.639729 0.680994
O O9 0.715241 0.500000 0.302197
O O10 0.730052 0.362390 0.268488
O O11 0.500000 0.431512 0.000000
O O12 0.500000 0.708476 0.000000
O O13 0.735349 0.746125 0.107376
O O14 0.789445 0.087625 0.276912
O O15 0.986154 0.098747 0.656296
O O16 0.799336 0.000000 0.484304
O O17 0.500000 0.291056 0.500000
O O18 0.265455 0.253415 0.142121
O O19 0.766069 0.133253 0.011504
O O20 0.823257 0.000000 0.113498
#
# Coordination Sequence:
#
# PCOD8057351 Si02
#       8
#     4   4   4   4   4   4   4   4
#     4  10  17  30  47  69  95 122 157 191 230 275
#     4   9  16  25  37  56  88 130 163 186 228 285
#     4   9  16  24  36  58  90 126 160 194 231 273
#     4   9  16  25  40  63  89 120 154 194 228 266
#     4   9  18  32  51  72  95 120 151 192 237 280
#     4   9  18  29  42  64  95 129 156 192 235 274
#     4  10  19  30  47  69  96 125 157 191 236 277
#     4   9  18  33  50  71  96 121 150 192 239 280
#
# _framework density 17.379875999999999
#
# number of rings (size 3 to 8) (size 9 to 14) (size 15 to 20)
#    0.000    2.750    2.500    0.750    5.250    0.500 
#    0.000    2.500    0.000    3.750    0.000    0.000 
#    0.000    6.000    0.000    0.000    0.000    0.000 
#
# Total GULP energy -396421.814562 kJ/mol
# GULP energy per Si atom -12388.181705 kJ/mol
# Density = 1.734032 g / cm^3
# Si number density = 17.379876 Si / 1000 Ang^3
#
#
#
# Elastic Constant Matrix: (Units=GPa)
#
#
# Indices 1 2 3 4 5 6 
#
# 1 49.1000 43.1458 33.4192 0.0000 -22.4017 0.0000
# 2 43.1458 151.1217 51.9117 0.0000 -14.8342 0.0000
# 3 33.4192 51.9117 60.9111 0.0000 -26.6777 0.0000
# 4 0.0000 0.0000 0.0000 17.6368 0.0000 -11.8311
# 5 -22.4017 -14.8342 -26.6777 0.0000 25.8602 0.0000
# 6 0.0000 0.0000 0.0000 -11.8311 0.0000 12.0055
#
#
#
# Elastic Compliance Matrix: (Units=1/GPa)
#
#
# Indices 1 2 3 4 5 6 
#
# 1 0.043495 -0.008061 -0.004591 0.000000 0.028317 0.000000
# 2 -0.008061 0.011253 -0.009848 0.000000 -0.010688 0.000000
# 3 -0.004591 -0.009848 0.042164 0.000000 0.033871 0.000000
# 4 0.000000 0.000000 0.000000 0.167292 0.000000 0.164861
# 5 0.028317 -0.010688 0.033871 0.000000 0.092011 0.000000
# 6 0.000000 0.000000 0.000000 0.164861 0.000000 0.245761
#
#
# Mechanical properties :
#
#
# Convention : Reuss Voigt Hill
#
# Bulk Modulus (GPa) = 19.26392 57.56513 38.41452
# Shear Modulus (GPa) = 7.52695 19.94422 13.73559
#
# Velocity S-wave (km/s) = 2.08333 3.39122 2.81431
# Velocity P-wave (km/s) = 4.11036 6.96617 5.71938
#
# Compressibility (1/GPa) = 0.05191051
#
# Stress axis : x y z
#
# Youngs Moduli (GPa) = 22.99128 88.86903 23.71681
#
# Poissons Ratio (x) = 0.71639 0.10888
# Poissons Ratio (y) = 0.18534 0.23357
# Poissons Ratio (z) = 0.10555 0.87520
#
# Static dielectric constant tensor:
#      x y z
#    x 2.938680 0.000000 -0.390400 
#    y 0.000000 3.833440 0.000000 
#    z -0.390400 0.000000 2.976240 
# 
# 
# High freq. dielectric constant tensor:
#      x y z
#    x 1.630230 0.000000 -0.040900 
#    y 0.000000 1.699980 0.000000 
#    z -0.040900 0.000000 1.633890 
# 
# From -- ./inp_files/26094.got.cif
#   From: 2010.06.25/outbox.cif.g09.slc.cpg/sg10_14_cif.got.tgz:26094.got - 2010.06.27 22:07:45.
