data_PCOD8057327
_publ_section_title
;
Structure prediction by ZEFSAII (Michael W. Deem and Ramdas Pophale) SiO2 
 PCOD8057327
Probable space group: P 2/M
;
_chemical_formula_sum "Si O2"
_cell_formula_units_Z 28
_cell_length_a 18.753916
_cell_length_b 18.265906
_cell_length_c 5.054227
_cell_angle_alpha 90.000000
_cell_angle_beta 114.073370
_cell_angle_gamma 90.000000
_cell_volume 1580.774992
_symmetry_space_group_name_H-M "P 2/M"
_symmetry_group_IT_number 10
_symmetry_cell_setting 'monoclinic'
loop_
_space_group_symop_operation_xyz
x,y,z
-x,y,-z
-x,-y,-z
x,-y,z
loop_
_atom_site_type_symbol
_atom_site_label
_atom_site_fract_x
_atom_site_fract_y
_atom_site_fract_z
Si Si1 0.908530 0.856691 0.320827
Si Si2 0.798962 0.272029 0.142573
Si Si3 0.282184 0.785697 0.479509
Si Si4 0.825877 0.083817 0.697202
Si Si5 0.357800 0.581869 0.461508
Si Si6 0.448523 0.726070 0.667621
Si Si7 0.254137 0.581287 0.803712
O O1 0.879766 0.772245 0.294355
O O2 0.865466 0.905683 0.473121
O O3 0.000000 0.857777 0.500000
O O4 0.889244 0.891032 0.008394
O O5 0.734842 0.239968 0.248196
O O6 0.812174 0.357981 0.231354
O O7 0.764801 0.265788 0.796035
O O8 0.253661 0.869282 0.395600
O O9 0.373874 0.779415 0.565615
O O10 0.802068 0.000000 0.701316
O O11 0.392570 0.500000 0.553388
O O12 0.425449 0.640673 0.609497
O O13 0.287678 0.595175 0.562468
O O14 0.325287 0.591193 0.116492
O O15 0.500000 0.751165 0.500000
O O16 0.500000 0.738750 0.000000
O O17 0.216985 0.500000 0.771897
#
# Coordination Sequence:
#
# PCOD8057327 Si02
#       7
#     4   4   4   4   4   4   4
#     4  10  21  33  52  83 112 136 160 194 244 298
#     4  10  17  33  53  69  99 136 170 206 240 286
#     4  10  20  35  52  72  97 128 174 207 239 300
#     4  10  21  36  57  79 103 137 164 197 244 294
#     4  10  20  32  46  68  98 128 163 209 258 300
#     4  12  22  32  50  70  98 132 166 208 258 297
#     4  10  17  29  50  70  92 128 173 214 245 281
#
# _framework density 17.712828999999999
#
# number of rings (size 3 to 8) (size 9 to 14) (size 15 to 20)
#    0.000    1.714    2.857    2.571    0.000    2.286 
#    0.000    0.000    0.000    1.286    0.000    0.000 
#    0.000   10.286    0.000    0.000    0.000    1.714 
#
# Total GULP energy -347205.889354 kJ/mol
# GULP energy per Si atom -12400.210334 kJ/mol
# Density = 1.767251 g / cm^3
# Si number density = 17.712829 Si / 1000 Ang^3
#
#
#
# Elastic Constant Matrix: (Units=GPa)
#
#
# Indices 1 2 3 4 5 6 
#
# 1 60.4215 36.9845 19.2685 0.0000 6.2433 0.0000
# 2 36.9845 113.1980 22.7560 0.0000 17.8786 0.0000
# 3 19.2685 22.7560 73.4600 0.0000 -3.2780 0.0000
# 4 0.0000 0.0000 0.0000 18.3899 0.0000 -2.5375
# 5 6.2433 17.8786 -3.2780 0.0000 31.1037 0.0000
# 6 0.0000 0.0000 0.0000 -2.5375 0.0000 21.2325
#
#
#
# Elastic Compliance Matrix: (Units=1/GPa)
#
#
# Indices 1 2 3 4 5 6 
#
# 1 0.021638 -0.006102 -0.003841 0.000000 -0.001241 0.000000
# 2 -0.006102 0.012289 -0.002479 0.000000 -0.006101 0.000000
# 3 -0.003841 -0.002479 0.015559 0.000000 0.003836 0.000000
# 4 0.000000 0.000000 0.000000 0.055289 0.000000 0.006608
# 5 -0.001241 -0.006101 0.003836 0.000000 0.036310 0.000000
# 6 0.000000 0.000000 0.000000 0.006608 0.000000 0.047887
#
#
# Mechanical properties :
#
#
# Convention : Reuss Voigt Hill
#
# Bulk Modulus (GPa) = 40.57701 45.01083 42.79392
# Shear Modulus (GPa) = 22.51930 25.34993 23.93461
#
# Velocity S-wave (km/s) = 3.56948 3.78717 3.67993
# Velocity P-wave (km/s) = 6.32030 6.67759 6.50140
#
# Compressibility (1/GPa) = 0.02464450
#
# Stress axis : x y z
#
# Youngs Moduli (GPa) = 46.21420 81.37068 64.27008
#
# Poissons Ratio (x) = 0.49649 0.24686
# Poissons Ratio (y) = 0.28198 0.15931
# Poissons Ratio (z) = 0.17751 0.20170
#
# Static dielectric constant tensor:
#      x y z
#    x 3.141270 0.000000 -0.289620 
#    y 0.000000 3.507490 0.000000 
#    z -0.289620 0.000000 3.356580 
# 
# 
# High freq. dielectric constant tensor:
#      x y z
#    x 1.662300 0.000000 -0.033040 
#    y 0.000000 1.682890 0.000000 
#    z -0.033040 0.000000 1.692710 
# 
# From -- ./inp_files/9853.got.cif
#   From: 2010.06.25/outbox.cif.g09.slc.cpg/sg10_5_cif.got.tgz:9853.got - 2010.06.27 22:07:45.
