data_PCOD8057145
_publ_section_title
;
Structure prediction by ZEFSAII (Michael W. Deem and Ramdas Pophale) SiO2 
 PCOD8057145
Probable space group: P 2/M
;
_chemical_formula_sum "Si O2"
_cell_formula_units_Z 24
_cell_length_a 9.212690
_cell_length_b 8.769571
_cell_length_c 20.897243
_cell_angle_alpha 90.000000
_cell_angle_beta 48.315385
_cell_angle_gamma 90.000000
_cell_volume 1260.862905
_symmetry_space_group_name_H-M "P 2/M"
_symmetry_group_IT_number 10
_symmetry_cell_setting 'monoclinic'
loop_
_space_group_symop_operation_xyz
x,y,z
-x,y,-z
-x,-y,-z
x,-y,z
loop_
_atom_site_type_symbol
_atom_site_label
_atom_site_fract_x
_atom_site_fract_y
_atom_site_fract_z
Si Si1 0.285441 0.321708 0.587155
Si Si2 0.220175 0.178827 0.741915
Si Si3 0.038727 0.320880 0.084782
Si Si4 0.571155 0.174755 0.730384
Si Si5 0.730938 0.176768 0.081006
Si Si6 0.967840 0.679648 0.579973
O O1 0.500000 0.285825 0.500000
O O2 0.257269 0.500000 0.610479
O O3 0.245413 0.225549 0.661792
O O4 0.137026 0.260720 0.576942
O O5 0.411596 0.228955 0.725274
O O6 0.026137 0.259922 0.826602
O O7 0.187512 0.000000 0.758042
O O8 0.071456 0.500000 0.078398
O O9 0.869776 0.275898 0.085349
O O10 0.239712 0.241372 0.999974
O O11 0.487062 0.196518 0.827362
O O12 0.759675 0.277696 0.669186
O O13 0.629254 0.000000 0.700973
O O14 0.792446 0.000000 0.066748
O O15 0.981593 0.500000 0.571039
O O16 0.000000 0.751942 0.500000
#
# Coordination Sequence:
#
# PCOD8057145 Si02
#       6
#     4   4   4   4   4   4
#     4  10  21  37  56  78 104 134 171 214 259 310
#     4  10  20  34  52  76 106 140 176 214 259 307
#     4  10  17  26  45  74 104 136 174 214 258 302
#     4   9  19  33  51  76 105 138 174 212 254 303
#     4   9  16  28  45  70 105 139 173 213 256 302
#     4  10  21  36  55  78 103 134 170 210 259 310
#
# _framework density 19.034583000000001
#
# number of rings (size 3 to 8) (size 9 to 14) (size 15 to 20)
#    0.000    2.333    0.000    5.500    0.000    6.667 
#    0.000    0.000    0.000    1.000    0.000    7.000 
#    0.000    0.000    0.000    0.000    0.000    0.000 
#
# Total GULP energy -297502.967135 kJ/mol
# GULP energy per Si atom -12395.956964 kJ/mol
# Density = 1.899126 g / cm^3
# Si number density = 19.034583 Si / 1000 Ang^3
#
#
#
# Elastic Constant Matrix: (Units=GPa)
#
#
# Indices 1 2 3 4 5 6 
#
# 1 86.5398 26.9659 56.8652 0.0000 0.5482 0.0000
# 2 26.9659 57.4285 41.3549 0.0000 4.4677 0.0000
# 3 56.8652 41.3549 153.0385 0.0000 -0.1697 0.0000
# 4 0.0000 0.0000 0.0000 36.9725 0.0000 3.0105
# 5 0.5482 4.4677 -0.1697 0.0000 19.4590 0.0000
# 6 0.0000 0.0000 0.0000 3.0105 0.0000 17.0176
#
#
#
# Elastic Compliance Matrix: (Units=1/GPa)
#
#
# Indices 1 2 3 4 5 6 
#
# 1 0.016003 -0.004056 -0.004850 0.000000 0.000438 0.000000
# 2 -0.004056 0.023149 -0.004754 0.000000 -0.005242 0.000000
# 3 -0.004850 -0.004754 0.009623 0.000000 0.001312 0.000000
# 4 0.000000 0.000000 0.000000 0.027442 0.000000 -0.004855
# 5 0.000438 -0.005242 0.001312 0.000000 0.052593 0.000000
# 6 0.000000 0.000000 0.000000 -0.004855 0.000000 0.059622
#
#
# Mechanical properties :
#
#
# Convention : Reuss Voigt Hill
#
# Bulk Modulus (GPa) = 46.61011 60.81987 53.71499
# Shear Modulus (GPa) = 22.43127 26.14453 24.28790
#
# Velocity S-wave (km/s) = 3.43658 3.71013 3.57597
# Velocity P-wave (km/s) = 6.34720 7.09754 6.73283
#
# Compressibility (1/GPa) = 0.02145457
#
# Stress axis : x y z
#
# Youngs Moduli (GPa) = 62.48703 43.19880 103.92288
#
# Poissons Ratio (x) = 0.17522 0.50401
# Poissons Ratio (y) = 0.25345 0.49406
# Poissons Ratio (z) = 0.30305 0.20537
#
# Static dielectric constant tensor:
#      x y z
#    x 3.171740 0.000000 0.089480 
#    y 0.000000 3.351260 0.000000 
#    z 0.089480 0.000000 4.118380 
# 
# 
# High freq. dielectric constant tensor:
#      x y z
#    x 1.688110 0.000000 0.002510 
#    y 0.000000 1.738090 0.000000 
#    z 0.002510 0.000000 1.768350 
# 
# From -- ./inp_files/80060.got.cif
#   From: 2010.06.25/outbox.cif.g09.slc.cpg/sg10_41_cif.got.tgz:80060.got - 2010.06.27 22:07:45.
