data_PCOD8057055
_publ_section_title
;
Structure prediction by ZEFSAII (Michael W. Deem and Ramdas Pophale) SiO2 
 PCOD8057055
Probable space group: P 2/M
;
_chemical_formula_sum "Si O2"
_cell_formula_units_Z 32
_cell_length_a 17.932166
_cell_length_b 8.935948
_cell_length_c 11.663078
_cell_angle_alpha 90.000000
_cell_angle_beta 93.020968
_cell_angle_gamma 90.000000
_cell_volume 1866.304964
_symmetry_space_group_name_H-M "P 2/M"
_symmetry_group_IT_number 10
_symmetry_cell_setting 'monoclinic'
loop_
_space_group_symop_operation_xyz
x,y,z
-x,y,-z
-x,-y,-z
x,-y,z
loop_
_atom_site_type_symbol
_atom_site_label
_atom_site_fract_x
_atom_site_fract_y
_atom_site_fract_z
Si Si1 0.653518 0.673942 0.777450
Si Si2 0.779399 0.828347 0.655541
Si Si3 0.585739 0.322289 0.008881
Si Si4 0.232427 0.176530 0.606532
Si Si5 0.915417 0.678010 0.379794
Si Si6 0.942083 0.825357 0.626836
Si Si7 0.492232 0.673949 0.368338
Si Si8 0.378196 0.175827 0.758292
O O1 0.667219 0.500000 0.791038
O O2 0.731743 0.743814 0.746847
O O3 0.591935 0.709873 0.676043
O O4 0.626113 0.737515 0.897433
O O5 0.762689 0.768893 0.525323
O O6 0.866920 0.805652 0.696135
O O7 0.755880 0.000000 0.659350
O O8 0.588598 0.500000 0.018875
O O9 0.629741 0.252298 0.118952
O O10 0.500000 0.267223 0.000000
O O11 0.165153 0.261366 0.667931
O O12 0.308229 0.224009 0.675146
O O13 0.216561 0.000000 0.610634
O O14 0.918080 0.500000 0.373715
O O15 0.926720 0.738863 0.508148
O O16 0.984241 0.748543 0.309919
O O17 0.957081 0.000000 0.603916
O O18 0.500000 0.722758 0.500000
O O19 0.512020 0.500000 0.350582
O O20 0.546735 0.771571 0.296360
O O21 0.381267 0.000000 0.775998
#
# Coordination Sequence:
#
# PCOD8057055 Si02
#       8
#     4   4   4   4   4   4   4   4
#     4  10  20  33  50  71  94 127 163 203 250 289
#     4   9  18  31  48  70  99 133 163 196 239 293
#     4  10  20  38  56  68  93 128 165 208 253 301
#     4   9  19  34  47  67 103 137 160 193 250 302
#     4  10  17  25  43  71  97 127 169 206 232 275
#     4   9  16  28  44  64  98 139 165 190 242 294
#     4  10  20  34  51  71  98 132 165 195 241 303
#     4  11  22  34  52  75  97 125 166 211 250 291
#
# _framework density 17.146180000000001
#
# number of rings (size 3 to 8) (size 9 to 14) (size 15 to 20)
#    0.000    2.250    1.250    4.125    0.000    5.000 
#    0.000    0.000    0.000    0.000    0.000    0.875 
#    0.000    7.000    0.000    0.000    0.000    0.000 
#
# Total GULP energy -396696.683611 kJ/mol
# GULP energy per Si atom -12396.771363 kJ/mol
# Density = 1.710715 g / cm^3
# Si number density = 17.146180 Si / 1000 Ang^3
#
#
#
# Elastic Constant Matrix: (Units=GPa)
#
#
# Indices 1 2 3 4 5 6 
#
# 1 108.8110 40.5430 32.1619 0.0000 -27.6947 0.0000
# 2 40.5430 54.3669 23.3122 0.0000 -9.6618 0.0000
# 3 32.1619 23.3122 78.0346 0.0000 -18.9518 0.0000
# 4 0.0000 0.0000 0.0000 21.6656 0.0000 -3.7968
# 5 -27.6947 -9.6618 -18.9518 0.0000 16.3248 0.0000
# 6 0.0000 0.0000 0.0000 -3.7968 0.0000 32.4087
#
#
#
# Elastic Compliance Matrix: (Units=1/GPa)
#
#
# Indices 1 2 3 4 5 6 
#
# 1 0.020342 -0.010671 0.002300 0.000000 0.030864 0.000000
# 2 -0.010671 0.027319 -0.005895 0.000000 -0.008778 0.000000
# 3 0.002300 -0.005895 0.019119 0.000000 0.022608 0.000000
# 4 0.000000 0.000000 0.000000 0.047124 0.000000 0.005521
# 5 0.030864 -0.008778 0.022608 0.000000 0.134668 0.000000
# 6 0.000000 0.000000 0.000000 0.005521 0.000000 0.031503
#
#
# Mechanical properties :
#
#
# Convention : Reuss Voigt Hill
#
# Bulk Modulus (GPa) = 26.14576 48.13853 37.14215
# Shear Modulus (GPa) = 15.55910 23.75950 19.65930
#
# Velocity S-wave (km/s) = 3.01564 3.72654 3.38978
# Velocity P-wave (km/s) = 5.23520 6.83026 6.08522
#
# Compressibility (1/GPa) = 0.03824712
#
# Stress axis : x y z
#
# Youngs Moduli (GPa) = 49.15937 36.60474 52.30463
#
# Poissons Ratio (x) = 0.39060 -0.12028
# Poissons Ratio (y) = 0.52456 0.30835
# Poissons Ratio (z) = -0.11305 0.21579
#
# Static dielectric constant tensor:
#      x y z
#    x 3.767730 0.000000 -0.048820 
#    y 0.000000 3.122730 0.000000 
#    z -0.048820 0.000000 3.002890 
# 
# 
# High freq. dielectric constant tensor:
#      x y z
#    x 1.675310 0.000000 -0.006970 
#    y 0.000000 1.661720 0.000000 
#    z -0.006970 0.000000 1.618470 
# 
# From -- ./inp_files/52787.got.cif
#   From: 2010.06.25/outbox.cif.g09.slc.cpg/sg10_27_cif.got.tgz:52787.got - 2010.06.27 22:07:45.
