data_PCOD8057597
_publ_section_title
;
Structure prediction by ZEFSAII (Michael W. Deem and Ramdas Pophale) SiO2 
 PCOD8057597
Probable space group: P 2/M
;
_chemical_formula_sum "Si O2"
_cell_formula_units_Z 20
_cell_length_a 8.373422
_cell_length_b 7.424687
_cell_length_c 22.432745
_cell_angle_alpha 90.000000
_cell_angle_beta 134.680963
_cell_angle_gamma 90.000000
_cell_volume 991.638532
_symmetry_space_group_name_H-M "P 2/M"
_symmetry_group_IT_number 10
_symmetry_cell_setting 'monoclinic'
loop_
_space_group_symop_operation_xyz
x,y,z
-x,y,-z
-x,-y,-z
x,-y,z
loop_
_atom_site_type_symbol
_atom_site_label
_atom_site_fract_x
_atom_site_fract_y
_atom_site_fract_z
Si Si1 0.107260 0.200171 0.620666
Si Si2 0.640232 0.500000 0.670707
Si Si3 0.110263 0.500000 0.844014
Si Si4 0.591785 0.500000 0.910346
Si Si5 0.339564 0.799947 0.553978
Si Si6 0.591554 0.500000 0.262224
Si Si7 0.259045 0.204370 0.966929
O O1 0.224215 0.204850 0.587598
O O2 0.243698 0.328494 0.700806
O O3 0.847653 0.262256 0.543691
O O4 0.115728 0.000000 0.650176
O O5 0.908517 0.500000 0.743729
O O6 0.555679 0.671842 0.610957
O O7 0.546281 0.500000 0.713073
O O8 0.338869 0.500000 0.867512
O O9 0.095259 0.318422 0.880429
O O10 0.590176 0.500000 0.838397
O O11 0.718823 0.318802 0.965963
O O12 0.424856 0.000000 0.560933
O O13 0.166662 0.000000 0.954203
O O14 0.500000 0.191917 0.000000
#
# Coordination Sequence:
#
# PCOD8057597 Si02
#       7
#     4   2   2   2   4   2   4
#     4   8  14  25  41  61  85 115 151 183 207 240
#     4  10  18  27  43  67  92 114 138 175 220 256
#     4   9  18  31  47  68  88 108 141 178 211 254
#     4   9  18  31  47  68  88 108 141 178 211 254
#     4   8  14  25  41  61  85 115 151 183 207 240
#     4  10  18  27  43  67  92 114 138 175 220 256
#     4   8  15  31  52  66  80 110 148 178 204 246
#
# _framework density 20.168637
#
# number of rings (size 3 to 8) (size 9 to 14) (size 15 to 20)
#    0.000    3.400    0.000    3.000    0.000    4.000 
#    0.000    2.000    0.000    3.600    0.000    2.800 
#    0.000    0.000    0.000    0.000    0.000    0.000 
#
# Total GULP energy -247827.656574 kJ/mol
# GULP energy per Si atom -12391.382829 kJ/mol
# Density = 2.012273 g / cm^3
# Si number density = 20.168637 Si / 1000 Ang^3
#
#
#
# Elastic Constant Matrix: (Units=GPa)
#
#
# Indices 1 2 3 4 5 6 
#
# 1 6.9734 2.6138 -2.7150 0.0000 2.2875 0.0000
# 2 2.6138 121.3925 9.8915 0.0000 9.2827 0.0000
# 3 -2.7150 9.8915 27.9487 0.0000 15.2451 0.0000
# 4 0.0000 0.0000 0.0000 14.0990 0.0000 -0.6950
# 5 2.2875 9.2827 15.2451 0.0000 27.1796 0.0000
# 6 0.0000 0.0000 0.0000 -0.6950 0.0000 8.7812
#
#
#
# Elastic Compliance Matrix: (Units=1/GPa)
#
#
# Indices 1 2 3 4 5 6 
#
# 1 0.169781 -0.004057 0.035973 0.000000 -0.033081 0.000000
# 2 -0.004057 0.008637 -0.002922 0.000000 -0.000969 0.000000
# 3 0.035973 -0.002922 0.059673 0.000000 -0.035500 0.000000
# 4 0.000000 0.000000 0.000000 0.071205 0.000000 0.005636
# 5 -0.033081 -0.000969 -0.035500 0.000000 0.059820 0.000000
# 6 0.000000 0.000000 0.000000 0.005636 0.000000 0.114326
#
#
# Mechanical properties :
#
#
# Convention : Reuss Voigt Hill
#
# Bulk Modulus (GPa) = 3.37748 19.54392 11.46070
# Shear Modulus (GPa) = 9.53931 19.78024 14.65978
#
# Velocity S-wave (km/s) = 2.17716 3.13508 2.69896
# Velocity P-wave (km/s) = 2.82813 4.77664 3.92521
#
# Compressibility (1/GPa) = 0.29607876
#
# Stress axis : x y z
#
# Youngs Moduli (GPa) = 5.88994 115.77628 16.75806
#
# Poissons Ratio (x) = 0.46974 -0.60285
# Poissons Ratio (y) = 0.02390 0.04897
# Poissons Ratio (z) = -0.21188 0.33833
#
# Static dielectric constant tensor:
#      x y z
#    x 2.961940 0.000000 0.063040 
#    y 0.000000 4.229280 0.000000 
#    z 0.063040 0.000000 3.746180 
# 
# 
# High freq. dielectric constant tensor:
#      x y z
#    x 1.728300 0.000000 0.006610 
#    y 0.000000 1.796250 0.000000 
#    z 0.006610 0.000000 1.780470 
# 
# From -- ./inp_files/24304.got.cif
#   From: 2010.06.25/outbox.cif.g09.slc.cpg/sg10_13_cif.got.tgz:24304.got - 2010.06.27 22:07:45.
