data_PCOD8057431
_publ_section_title
;
Structure prediction by ZEFSAII (Michael W. Deem and Ramdas Pophale) SiO2 
 PCOD8057431
Probable space group: P 2/M
;
_chemical_formula_sum "Si O2"
_cell_formula_units_Z 32
_cell_length_a 9.787568
_cell_length_b 18.458980
_cell_length_c 11.743453
_cell_angle_alpha 90.000000
_cell_angle_beta 123.985990
_cell_angle_gamma 90.000000
_cell_volume 1759.236103
_symmetry_space_group_name_H-M "P 2/M"
_symmetry_group_IT_number 10
_symmetry_cell_setting 'monoclinic'
loop_
_space_group_symop_operation_xyz
x,y,z
-x,y,-z
-x,-y,-z
x,-y,z
loop_
_atom_site_type_symbol
_atom_site_label
_atom_site_fract_x
_atom_site_fract_y
_atom_site_fract_z
Si Si1 0.184923 0.084334 0.605220
Si Si2 0.612272 0.191578 0.444457
Si Si3 0.902627 0.419317 0.565808
Si Si4 0.879360 0.281801 0.693282
Si Si5 0.523118 0.580919 0.382152
Si Si6 0.356815 0.289800 0.208315
Si Si7 0.125681 0.795109 0.954369
Si Si8 0.309224 0.916101 0.914022
O O1 0.313356 0.120396 0.578102
O O2 0.232799 0.101772 0.756259
O O3 0.000000 0.113834 0.500000
O O4 0.195347 0.000000 0.581852
O O5 0.500000 0.168913 0.500000
O O6 0.763793 0.244100 0.546103
O O7 0.499622 0.232280 0.300667
O O8 0.954659 0.500000 0.632966
O O9 0.941238 0.360251 0.680139
O O10 0.713337 0.419958 0.441177
O O11 0.000000 0.395749 0.500000
O O12 0.781929 0.293059 0.762278
O O13 0.036104 0.232322 0.797960
O O14 0.500000 0.613878 0.500000
O O15 0.446251 0.500000 0.342791
O O16 0.434261 0.629510 0.244289
O O17 0.264350 0.265577 0.050093
O O18 0.215547 0.870411 0.967168
O O19 0.000000 0.810136 0.000000
O O20 0.286353 0.000000 0.936419
O O21 0.500000 0.894304 0.000000
#
# Coordination Sequence:
#
# PCOD8057431 Si02
#       8
#     4   4   4   4   4   4   4   4
#     4  10  21  36  54  79 110 139 173 219 268 323
#     4  10  19  33  56  79 105 136 178 223 263 316
#     4  10  20  33  52  80 109 138 178 222 260 312
#     4  10  19  34  52  77 107 139 171 217 270 314
#     4  10  17  31  57  80 103 141 182 220 263 312
#     4  10  18  34  52  79 106 132 178 224 259 308
#     4  10  22  36  54  78 111 142 174 224 273 318
#     4  10  21  39  58  77 105 142 183 222 263 320
#
# _framework density 18.189712
#
# number of rings (size 3 to 8) (size 9 to 14) (size 15 to 20)
#    0.000    2.000    2.500    1.875    0.000    2.000 
#    2.250    0.625    0.000   11.250    0.000    2.625 
#    0.000    0.000    0.000    0.000    0.000    0.000 
#
# Total GULP energy -396737.810232 kJ/mol
# GULP energy per Si atom -12398.056570 kJ/mol
# Density = 1.814831 g / cm^3
# Si number density = 18.189712 Si / 1000 Ang^3
#
#
#
# Elastic Constant Matrix: (Units=GPa)
#
#
# Indices 1 2 3 4 5 6 
#
# 1 73.9285 55.7463 44.4759 0.0000 13.4568 0.0000
# 2 55.7463 103.3724 36.4240 0.0000 0.3896 0.0000
# 3 44.4759 36.4240 92.3579 0.0000 14.7859 0.0000
# 4 0.0000 0.0000 0.0000 17.3793 0.0000 -0.4764
# 5 13.4568 0.3896 14.7859 0.0000 17.3583 0.0000
# 6 0.0000 0.0000 0.0000 -0.4764 0.0000 33.7964
#
#
#
# Elastic Compliance Matrix: (Units=1/GPa)
#
#
# Indices 1 2 3 4 5 6 
#
# 1 0.032279 -0.015023 -0.006562 0.000000 -0.019097 0.000000
# 2 -0.015023 0.018482 -0.002145 0.000000 0.013059 0.000000
# 3 -0.006562 -0.002145 0.016224 0.000000 -0.008684 0.000000
# 4 0.000000 0.000000 0.000000 0.057562 0.000000 0.000811
# 5 -0.019097 0.013059 -0.008684 0.000000 0.079518 0.000000
# 6 0.000000 0.000000 0.000000 0.000811 0.000000 0.029600
#
#
# Mechanical properties :
#
#
# Convention : Reuss Voigt Hill
#
# Bulk Modulus (GPa) = 51.21876 60.32792 55.77334
# Shear Modulus (GPa) = 17.38327 22.57429 19.97878
#
# Velocity S-wave (km/s) = 3.09474 3.52667 3.31774
# Velocity P-wave (km/s) = 6.40227 7.05841 6.73833
#
# Compressibility (1/GPa) = 0.01952410
#
# Stress axis : x y z
#
# Youngs Moduli (GPa) = 30.98035 54.10716 61.63812
#
# Poissons Ratio (x) = 0.81284 0.40447
# Poissons Ratio (y) = 0.46541 0.13222
# Poissons Ratio (z) = 0.20330 0.11606
#
# Static dielectric constant tensor:
#      x y z
#    x 3.284490 0.000000 0.196670 
#    y 0.000000 3.479040 0.000000 
#    z 0.196670 0.000000 3.454060 
# 
# 
# High freq. dielectric constant tensor:
#      x y z
#    x 1.701460 0.000000 0.017410 
#    y 0.000000 1.707330 0.000000 
#    z 0.017410 0.000000 1.691930 
# 
# From -- ./inp_files/43650.got.cif
#   From: 2010.06.25/outbox.cif.g09.slc.cpg/sg10_22_cif.got.tgz:43650.got - 2010.06.27 22:07:45.
