data_PCOD8057884
_publ_section_title
;
Structure prediction by ZEFSAII (Michael W. Deem and Ramdas Pophale) SiO2 
 PCOD8057884
Probable space group: P 2/M
;
_chemical_formula_sum "Si O2"
_cell_formula_units_Z 32
_cell_length_a 11.963271
_cell_length_b 14.622641
_cell_length_c 14.530387
_cell_angle_alpha 90.000000
_cell_angle_beta 133.917901
_cell_angle_gamma 90.000000
_cell_volume 1830.994825
_symmetry_space_group_name_H-M "P 2/M"
_symmetry_group_IT_number 10
_symmetry_cell_setting 'monoclinic'
loop_
_space_group_symop_operation_xyz
x,y,z
-x,y,-z
-x,-y,-z
x,-y,z
loop_
_atom_site_type_symbol
_atom_site_label
_atom_site_fract_x
_atom_site_fract_y
_atom_site_fract_z
Si Si1 0.550344 0.891663 0.127154
Si Si2 0.093806 0.107312 0.647830
Si Si3 0.356687 0.102039 0.181030
Si Si4 0.601680 0.102260 0.477531
Si Si5 0.108235 0.776016 0.338941
Si Si6 0.143427 0.753837 0.143248
Si Si7 0.717420 0.398582 0.537311
Si Si8 0.622530 0.398637 0.694314
O O1 0.725044 0.867014 0.258889
O O2 0.421968 0.852119 0.124798
O O3 0.534350 0.000000 0.117065
O O4 0.500000 0.850122 0.000000
O O5 0.000000 0.127630 0.500000
O O6 0.039285 0.176003 0.698191
O O7 0.072030 0.000000 0.663061
O O8 0.506470 0.100226 0.330663
O O9 0.211618 0.152532 0.142863
O O10 0.294881 0.000000 0.127933
O O11 0.500000 0.149039 0.500000
O O12 0.752244 0.160856 0.549118
O O13 0.651255 0.000000 0.536501
O O14 0.090676 0.769373 0.218587
O O15 0.145157 0.674811 0.401344
O O16 0.272413 0.676917 0.197293
O O17 0.000000 0.722746 0.000000
O O18 0.778073 0.500000 0.544008
O O19 0.666720 0.397706 0.613434
O O20 0.558927 0.374042 0.391724
O O21 0.656366 0.500000 0.754129
#
# Coordination Sequence:
#
# PCOD8057884 Si02
#       8
#     4   4   4   4   4   4   4   4
#     4   9  19  35  53  68  89 132 181 213 240 284
#     4  10  21  36  53  76 102 131 175 221 256 292
#     4  10  20  34  50  69  98 131 166 207 246 292
#     4  10  18  29  46  70  97 127 160 195 245 303
#     4  11  20  31  52  74 105 133 159 204 263 303
#     4  11  23  32  44  74 107 135 167 200 245 307
#     4   8  15  28  50  76  98 125 162 203 252 305
#     4   8  15  30  49  69  98 132 164 201 243 294
#
# _framework density 17.476838000000001
#
# number of rings (size 3 to 8) (size 9 to 14) (size 15 to 20)
#    0.000    2.375    1.250    2.625    3.500    3.000 
#    0.000    0.000    0.000    0.375    0.000    0.875 
#    0.000    1.000    0.000    0.000    0.000    0.000 
#
# Total GULP energy -396570.587142 kJ/mol
# GULP energy per Si atom -12392.830848 kJ/mol
# Density = 1.743706 g / cm^3
# Si number density = 17.476838 Si / 1000 Ang^3
#
#
#
# Elastic Constant Matrix: (Units=GPa)
#
#
# Indices 1 2 3 4 5 6 
#
# 1 70.9120 35.7942 24.0850 0.0000 -6.1020 0.0000
# 2 35.7942 84.5643 30.1821 0.0000 5.4873 0.0000
# 3 24.0850 30.1821 88.0536 0.0000 -0.5577 0.0000
# 4 0.0000 0.0000 0.0000 3.6494 0.0000 6.0761
# 5 -6.1020 5.4873 -0.5577 0.0000 21.8862 0.0000
# 6 0.0000 0.0000 0.0000 6.0761 0.0000 16.7438
#
#
#
# Elastic Compliance Matrix: (Units=1/GPa)
#
#
# Indices 1 2 3 4 5 6 
#
# 1 0.019577 -0.007827 -0.002626 0.000000 0.007354 0.000000
# 2 -0.007827 0.016876 -0.003685 0.000000 -0.006507 0.000000
# 3 -0.002626 -0.003685 0.013341 0.000000 0.000532 0.000000
# 4 0.000000 0.000000 0.000000 0.692283 0.000000 -0.251219
# 5 0.007354 -0.006507 0.000532 0.000000 0.049386 0.000000
# 6 0.000000 0.000000 0.000000 -0.251219 0.000000 0.150887
#
#
# Mechanical properties :
#
#
# Convention : Reuss Voigt Hill
#
# Bulk Modulus (GPa) = 46.46856 47.07248 46.77052
# Shear Modulus (GPa) = 5.11353 18.68714 11.90034
#
# Velocity S-wave (km/s) = 1.71238 3.27349 2.61228
# Velocity P-wave (km/s) = 5.52775 6.42498 5.99318
#
# Compressibility (1/GPa) = 0.02151993
#
# Stress axis : x y z
#
# Youngs Moduli (GPa) = 51.07996 59.25729 74.95526
#
# Poissons Ratio (x) = 0.46379 0.19680
# Poissons Ratio (y) = 0.39978 0.27620
# Poissons Ratio (z) = 0.13411 0.21835
#
# Static dielectric constant tensor:
#      x y z
#    x 3.165990 0.000000 0.005300 
#    y 0.000000 3.487070 0.000000 
#    z 0.005300 0.000000 3.248950 
# 
# 
# High freq. dielectric constant tensor:
#      x y z
#    x 1.650650 0.000000 0.004630 
#    y 0.000000 1.660170 0.000000 
#    z 0.004630 0.000000 1.666700 
# 
# From -- ./inp_files/65144.got.cif
#   From: 2010.06.25/outbox.cif.g09.slc.cpg/sg10_33_cif.got.tgz:65144.got - 2010.06.27 22:07:45.
