data_PCOD8057943
_publ_section_title
;
Structure prediction by ZEFSAII (Michael W. Deem and Ramdas Pophale) SiO2 
 PCOD8057943
Probable space group: P 2/M
;
_chemical_formula_sum "Si O2"
_cell_formula_units_Z 28
_cell_length_a 9.906501
_cell_length_b 12.416246
_cell_length_c 14.173807
_cell_angle_alpha 90.000000
_cell_angle_beta 68.634056
_cell_angle_gamma 90.000000
_cell_volume 1623.580789
_symmetry_space_group_name_H-M "P 2/M"
_symmetry_group_IT_number 10
_symmetry_cell_setting 'monoclinic'
loop_
_space_group_symop_operation_xyz
x,y,z
-x,y,-z
-x,-y,-z
x,-y,z
loop_
_atom_site_type_symbol
_atom_site_label
_atom_site_fract_x
_atom_site_fract_y
_atom_site_fract_z
Si Si1 0.172293 0.874403 0.959548
Si Si2 0.847862 0.262418 0.505199
Si Si3 0.648399 0.375256 0.414430
Si Si4 0.802517 0.874936 0.841053
Si Si5 0.672357 0.804136 0.258312
Si Si6 0.348306 0.124811 0.308547
Si Si7 0.085202 0.881173 0.678869
O O1 0.253452 0.798350 0.863267
O O2 0.210907 0.000000 0.929660
O O3 0.233435 0.831184 0.045060
O O4 0.000000 0.857164 0.000000
O O5 0.769693 0.353448 0.462731
O O6 0.751102 0.212787 0.613615
O O7 0.885429 0.162186 0.431199
O O8 0.000000 0.314397 0.500000
O O9 0.500000 0.336458 0.500000
O O10 0.646636 0.500000 0.387796
O O11 0.673145 0.311976 0.310017
O O12 0.673975 0.855771 0.798327
O O13 0.952052 0.819894 0.765061
O O14 0.834019 0.000000 0.850619
O O15 0.513303 0.853315 0.292615
O O16 0.768931 0.883180 0.297134
O O17 0.309657 0.000000 0.343883
O O18 0.028773 0.000000 0.674768
#
# Coordination Sequence:
#
# PCOD8057943 Si02
#       7
#     4   4   4   4   4   4   4
#     4  10  18  31  52  78 109 147 185 215 251 308
#     4  11  21  33  53  80 109 142 177 211 269 326
#     4  10  22  42  61  79 102 130 177 234 284 331
#     4   9  18  30  46  71 107 151 183 203 239 297
#     4  11  21  34  54  79 101 140 183 228 266 310
#     4  11  21  32  47  79 120 148 176 211 253 310
#     4  10  18  29  47  74 108 145 178 207 244 308
#
# _framework density 17.245830000000002
#
# number of rings (size 3 to 8) (size 9 to 14) (size 15 to 20)
#    0.000    1.714    4.286    1.714    0.000    1.429 
#    0.000    4.286    0.000    0.429    0.000    3.000 
#    0.000    0.000    0.000    0.000    0.000    0.000 
#
# Total GULP energy -346993.740685 kJ/mol
# GULP energy per Si atom -12392.633596 kJ/mol
# Density = 1.720658 g / cm^3
# Si number density = 17.245830 Si / 1000 Ang^3
#
#
#
# Elastic Constant Matrix: (Units=GPa)
#
#
# Indices 1 2 3 4 5 6 
#
# 1 116.7108 10.5480 27.7099 0.0000 5.5649 0.0000
# 2 10.5480 41.5536 25.7355 0.0000 1.9982 0.0000
# 3 27.7099 25.7355 112.9997 0.0000 10.2353 0.0000
# 4 0.0000 0.0000 0.0000 13.8499 0.0000 -5.0738
# 5 5.5649 1.9982 10.2353 0.0000 30.9061 0.0000
# 6 0.0000 0.0000 0.0000 -5.0738 0.0000 10.2460
#
#
#
# Elastic Compliance Matrix: (Units=1/GPa)
#
#
# Indices 1 2 3 4 5 6 
#
# 1 0.009166 -0.001097 -0.001912 0.000000 -0.000946 0.000000
# 2 -0.001097 0.028151 -0.006181 0.000000 0.000424 0.000000
# 3 -0.001912 -0.006181 0.010988 0.000000 -0.002895 0.000000
# 4 0.000000 0.000000 0.000000 0.088204 0.000000 0.043679
# 5 -0.000946 0.000424 -0.002895 0.000000 0.033458 0.000000
# 6 0.000000 0.000000 0.000000 0.043679 0.000000 0.119229
#
#
# Mechanical properties :
#
#
# Convention : Reuss Voigt Hill
#
# Bulk Modulus (GPa) = 33.41574 44.36120 38.88847
# Shear Modulus (GPa) = 15.74540 24.81845 20.28193
#
# Velocity S-wave (km/s) = 3.02486 3.79766 3.43308
# Velocity P-wave (km/s) = 5.62298 6.70883 6.18976
#
# Compressibility (1/GPa) = 0.02992602
#
# Stress axis : x y z
#
# Youngs Moduli (GPa) = 109.09333 35.52226 91.00480
#
# Poissons Ratio (x) = 0.03897 0.17402
# Poissons Ratio (y) = 0.11967 0.56249
# Poissons Ratio (z) = 0.20861 0.21956
#
# Static dielectric constant tensor:
#      x y z
#    x 3.500830 0.000000 0.068660 
#    y 0.000000 2.732770 0.000000 
#    z 0.068660 0.000000 3.420860 
# 
# 
# High freq. dielectric constant tensor:
#      x y z
#    x 1.684430 0.000000 0.006680 
#    y 0.000000 1.605190 0.000000 
#    z 0.006680 0.000000 1.674770 
# 
# From -- ./inp_files/28228.got.cif
#   From: 2010.06.25/outbox.cif.g09.slc.cpg/sg10_15_cif.got.tgz:28228.got - 2010.06.27 22:07:45.
