data_PCOD8057512
_publ_section_title
;
Structure prediction by ZEFSAII (Michael W. Deem and Ramdas Pophale) SiO2 
 PCOD8057512
Probable space group: P 2/M
;
_chemical_formula_sum "Si O2"
_cell_formula_units_Z 32
_cell_length_a 20.980759
_cell_length_b 18.830039
_cell_length_c 14.578754
_cell_angle_alpha 90.000000
_cell_angle_beta 21.829654
_cell_angle_gamma 90.000000
_cell_volume 2141.700121
_symmetry_space_group_name_H-M "P 2/M"
_symmetry_group_IT_number 10
_symmetry_cell_setting 'monoclinic'
loop_
_space_group_symop_operation_xyz
x,y,z
-x,y,-z
-x,-y,-z
x,-y,z
loop_
_atom_site_type_symbol
_atom_site_label
_atom_site_fract_x
_atom_site_fract_y
_atom_site_fract_z
Si Si1 0.003469 0.809693 0.099030
Si Si2 0.198465 0.422530 0.627400
Si Si3 0.342362 0.277574 0.651502
Si Si4 0.160793 0.081338 0.556398
Si Si5 0.500248 0.166271 0.105641
Si Si6 0.161870 0.918360 0.342738
Si Si7 0.336422 0.721675 0.446874
Si Si8 0.815214 0.577887 0.136966
O O1 0.980165 0.876237 0.197347
O O2 0.853485 0.752615 0.312509
O O3 0.000000 0.838748 0.000000
O O4 0.181709 0.772857 0.885575
O O5 0.274113 0.500000 0.498289
O O6 0.325640 0.359772 0.424520
O O7 0.178376 0.416487 0.762707
O O8 0.007929 0.413647 0.839846
O O9 0.500000 0.247872 0.500000
O O10 0.394100 0.275506 0.475538
O O11 0.301634 0.357450 0.742596
O O12 0.351015 0.109467 0.323676
O O13 0.114076 0.090940 0.512664
O O14 0.153763 0.000000 0.596478
O O15 0.474362 0.236331 0.201717
O O16 0.500000 0.189590 0.000000
O O17 0.677598 0.130331 0.898747
O O18 0.000000 0.892668 0.500000
O O19 0.209224 0.000000 0.257663
O O20 0.742245 0.500000 0.204509
#
# Coordination Sequence:
#
# PCOD8057512 Si02
#       8
#     4   4   4   4   4   4   4   4
#     4   9  17  29  42  57  81 111 140 167 197 239
#     4   8  12  21  40  60  78 105 137 166 200 239
#     4  10  18  26  38  59  87 115 138 164 197 238
#     4   9  17  29  46  64  80 103 135 170 206 240
#     4   9  17  29  46  65  82 102 133 174 207 239
#     4   9  17  29  45  65  87 106 126 161 210 254
#     4   9  16  28  43  59  82 110 138 167 203 238
#     4   8  13  22  37  57  81 108 136 166 199 236
#
# _framework density 14.941401000000001
#
# number of rings (size 3 to 8) (size 9 to 14) (size 15 to 20)
#    0.000    3.125    1.250    1.125    0.000    3.000 
#    0.000    0.000    0.000    0.750    0.000    0.000 
#    0.000    0.500    0.000    0.250    0.000    0.250 
#
# Total GULP energy -396639.327949 kJ/mol
# GULP energy per Si atom -12394.978998 kJ/mol
# Density = 1.490739 g / cm^3
# Si number density = 14.941401 Si / 1000 Ang^3
#
#
#
# Elastic Constant Matrix: (Units=GPa)
#
#
# Indices 1 2 3 4 5 6 
#
# 1 58.8462 45.9900 43.8429 0.0000 -11.9088 0.0000
# 2 45.9900 121.8106 57.4046 0.0000 5.3677 0.0000
# 3 43.8429 57.4046 79.6188 0.0000 -5.3955 0.0000
# 4 0.0000 0.0000 0.0000 25.1049 0.0000 2.5512
# 5 -11.9088 5.3677 -5.3955 0.0000 21.9331 0.0000
# 6 0.0000 0.0000 0.0000 2.5512 0.0000 15.1409
#
#
#
# Elastic Compliance Matrix: (Units=1/GPa)
#
#
# Indices 1 2 3 4 5 6 
#
# 1 0.037510 -0.008938 -0.012898 0.000000 0.019381 0.000000
# 2 -0.008938 0.015210 -0.006738 0.000000 -0.010233 0.000000
# 3 -0.012898 -0.006738 0.024567 0.000000 0.000689 0.000000
# 4 0.000000 0.000000 0.000000 0.040527 0.000000 -0.006829
# 5 0.019381 -0.010233 0.000689 0.000000 0.058790 0.000000
# 6 0.000000 0.000000 0.000000 -0.006829 0.000000 0.067197
#
#
# Mechanical properties :
#
#
# Convention : Reuss Voigt Hill
#
# Bulk Modulus (GPa) = 49.65301 61.63894 55.64597
# Shear Modulus (GPa) = 16.25151 19.97166 18.11159
#
# Velocity S-wave (km/s) = 3.30158 3.66001 3.48541
# Velocity P-wave (km/s) = 6.91649 7.69443 7.31581
#
# Compressibility (1/GPa) = 0.02013977
#
# Stress axis : x y z
#
# Youngs Moduli (GPa) = 26.65928 65.74433 40.70480
#
# Poissons Ratio (x) = 0.58762 0.52500
# Poissons Ratio (y) = 0.23828 0.27428
# Poissons Ratio (z) = 0.34385 0.44300
#
# Static dielectric constant tensor:
#      x y z
#    x 2.650360 0.000000 -0.016780 
#    y 0.000000 3.099570 0.000000 
#    z -0.016780 0.000000 2.721670 
# 
# 
# High freq. dielectric constant tensor:
#      x y z
#    x 1.544510 0.000000 -0.009950 
#    y 0.000000 1.577710 0.000000 
#    z -0.009950 0.000000 1.549200 
# 
# From -- ./inp_files/25707.got.cif
#   From: 2010.06.25/outbox.cif.g09.slc.cpg/sg10_13_cif.got.tgz:25707.got - 2010.06.27 22:07:45.
