data_PCOD8057839
_publ_section_title
;
Structure prediction by ZEFSAII (Michael W. Deem and Ramdas Pophale) SiO2 
 PCOD8057839
Probable space group: P 2/M
;
_chemical_formula_sum "Si O2"
_cell_formula_units_Z 26
_cell_length_a 14.393888
_cell_length_b 9.295723
_cell_length_c 11.448207
_cell_angle_alpha 90.000000
_cell_angle_beta 87.556058
_cell_angle_gamma 90.000000
_cell_volume 1530.395082
_symmetry_space_group_name_H-M "P 2/M"
_symmetry_group_IT_number 10
_symmetry_cell_setting 'monoclinic'
loop_
_space_group_symop_operation_xyz
x,y,z
-x,y,-z
-x,-y,-z
x,-y,z
loop_
_atom_site_type_symbol
_atom_site_label
_atom_site_fract_x
_atom_site_fract_y
_atom_site_fract_z
Si Si1 0.366480 0.660836 0.809432
Si Si2 0.500000 0.736251 0.000000
Si Si3 0.638799 0.836750 0.806810
Si Si4 0.011299 0.662483 0.860570
Si Si5 0.837793 0.161254 0.849151
Si Si6 0.490520 0.830050 0.635190
Si Si7 0.185531 0.161397 0.876608
O O1 0.335957 0.500000 0.775361
O O2 0.404778 0.742752 0.693428
O O3 0.279917 0.750872 0.858880
O O4 0.443634 0.643914 0.907697
O O5 0.424565 0.830692 0.073651
O O6 0.740111 0.762541 0.814836
O O7 0.584010 0.777293 0.696720
O O8 0.665001 0.000000 0.784508
O O9 0.020721 0.500000 0.812369
O O10 0.102187 0.752898 0.817368
O O11 0.921932 0.736379 0.804098
O O12 0.000000 0.660564 0.000000
O O13 0.852178 0.000000 0.796561
O O14 0.838571 0.148525 0.987508
O O15 0.500000 0.789673 0.500000
O O16 0.473792 0.000000 0.655938
O O17 0.195167 0.000000 0.822845
#
# Coordination Sequence:
#
# PCOD8057839 Si02
#       7
#     4   2   4   4   4   4   4
#     4  11  21  31  46  69  97 127 156 193 237 282
#     4  10  18  30  42  66  97 128 155 190 231 282
#     4   9  16  27  47  70  94 123 158 196 235 274
#     4   9  17  28  41  61  91 127 156 188 227 273
#     4   9  16  27  42  65  92 124 158 190 227 275
#     4   9  19  35  52  69  91 123 164 203 235 274
#     4  10  18  29  45  66  92 125 159 192 227 276
#
# _framework density 16.989077999999999
#
# number of rings (size 3 to 8) (size 9 to 14) (size 15 to 20)
#    0.000    2.462    1.538    1.846    0.000    4.000 
#    0.000    0.769    0.000    0.000    0.000    1.077 
#    0.000    8.615    0.000    0.000    0.000    0.000 
#
# Total GULP energy -322198.477699 kJ/mol
# GULP energy per Si atom -12392.249142 kJ/mol
# Density = 1.695041 g / cm^3
# Si number density = 16.989078 Si / 1000 Ang^3
#
#
#
# Elastic Constant Matrix: (Units=GPa)
#
#
# Indices 1 2 3 4 5 6 
#
# 1 120.0644 51.7447 17.6216 0.0000 1.4323 0.0000
# 2 51.7447 108.2260 17.7817 0.0000 -6.0941 0.0000
# 3 17.6216 17.7817 59.0722 0.0000 4.3138 0.0000
# 4 0.0000 0.0000 0.0000 11.6260 0.0000 -2.4911
# 5 1.4323 -6.0941 4.3138 0.0000 13.2161 0.0000
# 6 0.0000 0.0000 0.0000 -2.4911 0.0000 19.9509
#
#
#
# Elastic Compliance Matrix: (Units=1/GPa)
#
#
# Indices 1 2 3 4 5 6 
#
# 1 0.010769 -0.005079 -0.001462 0.000000 -0.003032 0.000000
# 2 -0.005079 0.012534 -0.002786 0.000000 0.007239 0.000000
# 3 -0.001462 -0.002786 0.018732 0.000000 -0.007241 0.000000
# 4 0.000000 0.000000 0.000000 0.088378 0.000000 0.011035
# 5 -0.003032 0.007239 -0.007241 0.000000 0.081695 0.000000
# 6 0.000000 0.000000 0.000000 0.011035 0.000000 0.051501
#
#
# Mechanical properties :
#
#
# Convention : Reuss Voigt Hill
#
# Bulk Modulus (GPa) = 42.77284 51.29539 47.03411
# Shear Modulus (GPa) = 17.23797 22.30624 19.77210
#
# Velocity S-wave (km/s) = 3.18881 3.62743 3.41517
# Velocity P-wave (km/s) = 6.22811 6.91397 6.57998
#
# Compressibility (1/GPa) = 0.02337932
#
# Stress axis : x y z
#
# Youngs Moduli (GPa) = 92.86249 79.78414 53.38439
#
# Poissons Ratio (x) = 0.40524 0.07805
# Poissons Ratio (y) = 0.47166 0.14875
# Poissons Ratio (z) = 0.13577 0.22231
#
# Static dielectric constant tensor:
#      x y z
#    x 3.510280 0.000000 0.056320 
#    y 0.000000 3.212470 0.000000 
#    z 0.056320 0.000000 2.718590 
# 
# 
# High freq. dielectric constant tensor:
#      x y z
#    x 1.668890 0.000000 -0.000020 
#    y 0.000000 1.651590 0.000000 
#    z -0.000020 0.000000 1.590830 
# 
# From -- ./inp_files/48730.got.cif
#   From: 2010.06.25/outbox.cif.g09.slc.cpg/sg10_25_cif.got.tgz:48730.got - 2010.06.27 22:07:45.
