data_PCOD8057703
_publ_section_title
;
Structure prediction by ZEFSAII (Michael W. Deem and Ramdas Pophale) SiO2 
 PCOD8057703
Probable space group: P 2/M
;
_chemical_formula_sum "Si O2"
_cell_formula_units_Z 32
_cell_length_a 18.684429
_cell_length_b 22.523285
_cell_length_c 13.638826
_cell_angle_alpha 90.000000
_cell_angle_beta 19.023908
_cell_angle_gamma 90.000000
_cell_volume 1870.925146
_symmetry_space_group_name_H-M "P 2/M"
_symmetry_group_IT_number 10
_symmetry_cell_setting 'monoclinic'
loop_
_space_group_symop_operation_xyz
x,y,z
-x,y,-z
-x,-y,-z
x,-y,z
loop_
_atom_site_type_symbol
_atom_site_label
_atom_site_fract_x
_atom_site_fract_y
_atom_site_fract_z
Si Si1 0.941515 0.709387 0.189852
Si Si2 0.163334 0.064925 0.698575
Si Si3 0.228641 0.564982 0.150478
Si Si4 0.480778 0.148658 0.369890
Si Si5 0.551458 0.733685 0.179273
Si Si6 0.303245 0.328790 0.183847
Si Si7 0.132303 0.164889 0.983676
Si Si8 0.126209 0.343258 0.133118
O O1 0.681920 0.701817 0.534712
O O2 0.053149 0.657702 0.113199
O O3 0.000000 0.702264 0.000000
O O4 0.019817 0.770995 0.139190
O O5 0.408360 0.085967 0.415387
O O6 0.188825 0.000000 0.614355
O O7 0.000000 0.057176 0.000000
O O8 0.057051 0.114830 0.766234
O O9 0.344531 0.500000 0.992033
O O10 0.359492 0.610425 0.051146
O O11 0.205612 0.592050 0.069491
O O12 0.000000 0.555956 0.500000
O O13 0.517207 0.196661 0.238296
O O14 0.267294 0.169170 0.707825
O O15 0.701656 0.144689 0.146244
O O16 0.701268 0.724293 0.889492
O O17 0.675922 0.704293 0.111153
O O18 0.074423 0.326129 0.535797
O O19 0.500000 0.316059 0.000000
#
# Coordination Sequence:
#
# PCOD8057703 Si02
#       8
#     4   4   4   4   4   4   4   4
#     4  12  20  30  50  75 102 133 171 206 249 297
#     4   9  17  29  42  61  93 132 169 208 249 295
#     4   8  16  32  52  73 101 133 164 201 251 301
#     4  10  18  28  45  66  95 130 167 201 247 298
#     4  11  19  31  50  70 104 137 159 204 254 300
#     4  10  19  32  51  78 106 131 162 205 256 299
#     4  10  18  29  43  67  97 129 166 207 244 297
#     4  10  21  34  50  75 106 132 162 207 251 301
#
# _framework density 17.103838
#
# number of rings (size 3 to 8) (size 9 to 14) (size 15 to 20)
#    0.000    2.000    5.000    1.500    0.000    1.250 
#    0.000    2.500    0.000    0.375    0.000    3.500 
#    0.000    6.500    0.000    0.000    0.000    0.500 
#
# Total GULP energy -396452.433684 kJ/mol
# GULP energy per Si atom -12389.138553 kJ/mol
# Density = 1.706491 g / cm^3
# Si number density = 17.103838 Si / 1000 Ang^3
#
#
#
# Elastic Constant Matrix: (Units=GPa)
#
#
# Indices 1 2 3 4 5 6 
#
# 1 94.3967 32.4974 21.6601 0.0000 -4.1289 0.0000
# 2 32.4974 91.6514 15.8390 0.0000 4.2632 0.0000
# 3 21.6601 15.8390 41.2855 0.0000 -9.0276 0.0000
# 4 0.0000 0.0000 0.0000 23.1034 0.0000 -9.5381
# 5 -4.1289 4.2632 -9.0276 0.0000 24.3408 0.0000
# 6 0.0000 0.0000 0.0000 -9.5381 0.0000 17.8381
#
#
#
# Elastic Compliance Matrix: (Units=1/GPa)
#
#
# Indices 1 2 3 4 5 6 
#
# 1 0.013144 -0.003801 -0.005228 0.000000 0.000956 0.000000
# 2 -0.003801 0.013161 -0.004027 0.000000 -0.004443 0.000000
# 3 -0.005228 -0.004027 0.030982 0.000000 0.011309 0.000000
# 4 0.000000 0.000000 0.000000 0.055545 0.000000 0.029700
# 5 0.000956 -0.004443 0.011309 0.000000 0.046218 0.000000
# 6 0.000000 0.000000 0.000000 0.029700 0.000000 0.071941
#
#
# Mechanical properties :
#
#
# Convention : Reuss Voigt Hill
#
# Bulk Modulus (GPa) = 32.07710 40.81408 36.44559
# Shear Modulus (GPa) = 18.69193 23.54562 21.11878
#
# Velocity S-wave (km/s) = 3.30941 3.71432 3.51770
# Velocity P-wave (km/s) = 5.77910 6.50455 6.15253
#
# Compressibility (1/GPa) = 0.03117489
#
# Stress axis : x y z
#
# Youngs Moduli (GPa) = 76.08166 75.98020 32.27664
#
# Poissons Ratio (x) = 0.28883 0.16875
# Poissons Ratio (y) = 0.28922 0.12996
# Poissons Ratio (z) = 0.39778 0.30593
#
# Static dielectric constant tensor:
#      x y z
#    x 3.389270 0.000000 -0.235470 
#    y 0.000000 3.391100 0.000000 
#    z -0.235470 0.000000 3.022500 
# 
# 
# High freq. dielectric constant tensor:
#      x y z
#    x 1.664730 0.000000 -0.026960 
#    y 0.000000 1.641670 0.000000 
#    z -0.026960 0.000000 1.629260 
# 
# From -- ./inp_files/54263.got.cif
#   From: 2010.06.25/outbox.cif.g09.slc.cpg/sg10_28_cif.got.tgz:54263.got - 2010.06.27 22:07:45.
