data_PCOD8057239
_publ_section_title
;
Structure prediction by ZEFSAII (Michael W. Deem and Ramdas Pophale) SiO2 
 PCOD8057239
Probable space group: P 2/M
;
_chemical_formula_sum "Si O2"
_cell_formula_units_Z 26
_cell_length_a 5.191988
_cell_length_b 19.433174
_cell_length_c 17.021067
_cell_angle_alpha 90.000000
_cell_angle_beta 87.886414
_cell_angle_gamma 90.000000
_cell_volume 1716.202931
_symmetry_space_group_name_H-M "P 2/M"
_symmetry_group_IT_number 10
_symmetry_cell_setting 'monoclinic'
loop_
_space_group_symop_operation_xyz
x,y,z
-x,y,-z
-x,-y,-z
x,-y,z
loop_
_atom_site_type_symbol
_atom_site_label
_atom_site_fract_x
_atom_site_fract_y
_atom_site_fract_z
Si Si1 0.465042 0.918302 0.181759
Si Si2 0.396204 0.866384 0.353424
Si Si3 0.977324 0.918484 0.087768
Si Si4 0.740945 0.000000 0.553218
Si Si5 0.217520 0.640473 0.589515
Si Si6 0.719364 0.419271 0.584972
Si Si7 0.092918 0.201226 0.586771
O O1 0.480174 0.879174 0.263664
O O2 0.711189 0.894073 0.129162
O O3 0.213685 0.892725 0.138119
O O4 0.464784 0.000000 0.196127
O O5 0.656026 0.845055 0.397044
O O6 0.161207 0.811160 0.356860
O O7 0.266926 0.933869 0.391398
O O8 0.986400 0.000000 0.081870
O O9 0.000000 0.886823 0.000000
O O10 0.500000 0.000000 0.500000
O O11 0.000000 0.000000 0.500000
O O12 0.249071 0.618205 0.498854
O O13 0.472704 0.613793 0.631915
O O14 0.186356 0.721374 0.597390
O O15 0.974809 0.600403 0.631093
O O16 0.685753 0.500000 0.573436
O O17 0.000000 0.184711 0.500000
#
# Coordination Sequence:
#
# PCOD8057239 Si02
#       7
#     4   4   4   2   4   4   4
#     4  10  19  34  49  65  92 110 134 177 225 282
#     4  12  24  36  50  63  81 116 151 193 249 271
#     4   9  17  29  51  75  91 107 125 154 213 288
#     4  12  24  40  48  62  75 102 157 212 242 276
#     4  10  18  29  42  61  85 105 133 176 229 276
#     4  10  17  28  46  66  84 102 129 170 241 287
#     4  12  23  35  48  62  83 114 157 198 236 279
#
# _framework density 15.149724000000001
#
# number of rings (size 3 to 8) (size 9 to 14) (size 15 to 20)
#    0.000    1.385    2.308    7.385    2.154    1.846 
#    0.000    0.000    0.000    0.000    0.000    0.000 
#    0.000    0.000    0.000    0.000    0.000    0.000 
#
# Total GULP energy -322272.432667 kJ/mol
# GULP energy per Si atom -12395.093564 kJ/mol
# Density = 1.511524 g / cm^3
# Si number density = 15.149724 Si / 1000 Ang^3
#
#
#
# Elastic Constant Matrix: (Units=GPa)
#
#
# Indices 1 2 3 4 5 6 
#
# 1 154.9234 37.0776 33.1334 0.0000 4.2260 0.0000
# 2 37.0776 70.6436 26.1576 0.0000 -2.0042 0.0000
# 3 33.1334 26.1576 61.0251 0.0000 -6.4130 0.0000
# 4 0.0000 0.0000 0.0000 3.1484 0.0000 -1.2406
# 5 4.2260 -2.0042 -6.4130 0.0000 21.0376 0.0000
# 6 0.0000 0.0000 0.0000 -1.2406 0.0000 24.5958
#
#
#
# Elastic Compliance Matrix: (Units=1/GPa)
#
#
# Indices 1 2 3 4 5 6 
#
# 1 0.007973 -0.003032 -0.003335 0.000000 -0.002907 0.000000
# 2 -0.003032 0.017987 -0.006012 0.000000 0.000490 0.000000
# 3 -0.003335 -0.006012 0.021472 0.000000 0.006643 0.000000
# 4 0.000000 0.000000 0.000000 0.324062 0.000000 0.016346
# 5 -0.002907 0.000490 0.006643 0.000000 0.050189 0.000000
# 6 0.000000 0.000000 0.000000 0.016346 0.000000 0.041482
#
#
# Mechanical properties :
#
#
# Convention : Reuss Voigt Hill
#
# Bulk Modulus (GPa) = 44.10276 53.25882 48.68079
# Shear Modulus (GPa) = 10.09119 22.43793 16.26456
#
# Velocity S-wave (km/s) = 2.58369 3.85265 3.28012
# Velocity P-wave (km/s) = 6.17050 7.41767 6.82264
#
# Compressibility (1/GPa) = 0.02267432
#
# Stress axis : x y z
#
# Youngs Moduli (GPa) = 125.42296 55.59526 46.57175
#
# Poissons Ratio (x) = 0.16859 0.15530
# Poissons Ratio (y) = 0.38033 0.27999
# Poissons Ratio (z) = 0.41824 0.33424
#
# Static dielectric constant tensor:
#      x y z
#    x 6.678250 0.000000 0.396350 
#    y 0.000000 2.776890 0.000000 
#    z 0.396350 0.000000 2.677880 
# 
# 
# High freq. dielectric constant tensor:
#      x y z
#    x 1.621100 0.000000 0.005400 
#    y 0.000000 1.554590 0.000000 
#    z 0.005400 0.000000 1.525590 
# 
# From -- ./inp_files/59253.got.cif
#   From: 2010.06.25/outbox.cif.g09.slc.cpg/sg10_30_cif.got.tgz:59253.got - 2010.06.27 22:07:45.
