data_PCOD8057141
_publ_section_title
;
Structure prediction by ZEFSAII (Michael W. Deem and Ramdas Pophale) SiO2 
 PCOD8057141
Probable space group: P 2/M
;
_chemical_formula_sum "Si O2"
_cell_formula_units_Z 18
_cell_length_a 5.564764
_cell_length_b 18.500332
_cell_length_c 6.684923
_cell_angle_alpha 90.000000
_cell_angle_beta 100.206525
_cell_angle_gamma 90.000000
_cell_volume 677.322032
_symmetry_space_group_name_H-M "P 2/M"
_symmetry_group_IT_number 10
_symmetry_cell_setting 'monoclinic'
loop_
_space_group_symop_operation_xyz
x,y,z
-x,y,-z
-x,-y,-z
x,-y,z
loop_
_atom_site_type_symbol
_atom_site_label
_atom_site_fract_x
_atom_site_fract_y
_atom_site_fract_z
Si Si1 0.500000 0.384527 0.500000
Si Si2 0.820160 0.138154 0.743799
Si Si3 0.689085 0.084184 0.289113
Si Si4 0.091475 0.297934 0.289257
Si Si5 0.258450 0.577949 0.839628
O O1 0.354586 0.334552 0.323682
O O2 0.682290 0.430471 0.389129
O O3 0.751584 0.128052 0.500174
O O4 0.582053 0.108029 0.831808
O O5 0.872108 0.221039 0.811777
O O6 0.083774 0.099373 0.831213
O O7 0.679115 0.000000 0.338778
O O8 0.000000 0.284702 0.500000
O O9 0.912514 0.352796 0.143636
O O10 0.136286 0.500000 0.879111
O O11 0.500000 0.589874 0.000000
#
# Coordination Sequence:
#
# PCOD8057141 Si02
#       5
#     2   4   4   4   4
#     4  10  21  36  64  86 117 160 202 254 321 380
#     4  10  17  27  45  71 114 157 196 252 307 365
#     4  10  17  26  44  73 115 159 199 251 312 370
#     4  10  20  34  55  82 115 159 202 252 317 373
#     4  10  23  41  60  87 121 158 210 264 311 377
#
# _framework density 26.575246
#
# number of rings (size 3 to 8) (size 9 to 14) (size 15 to 20)
#    0.000    2.000    2.222    5.000    3.111    5.778 
#    0.000    2.222    0.000    0.000    0.000    0.000 
#    0.000    9.778    0.000    0.000    0.000    0.000 
#
# Total GULP energy -223018.352086 kJ/mol
# GULP energy per Si atom -12389.908449 kJ/mol
# Density = 2.651476 g / cm^3
# Si number density = 26.575246 Si / 1000 Ang^3
#
#
#
# Elastic Constant Matrix: (Units=GPa)
#
#
# Indices 1 2 3 4 5 6 
#
# 1 222.4625 80.2720 37.4143 0.0000 18.0659 0.0000
# 2 80.2720 239.6373 21.3584 0.0000 27.9289 0.0000
# 3 37.4143 21.3584 33.4912 0.0000 5.2401 0.0000
# 4 0.0000 0.0000 0.0000 42.2974 0.0000 -2.1057
# 5 18.0659 27.9289 5.2401 0.0000 55.0207 0.0000
# 6 0.0000 0.0000 0.0000 -2.1057 0.0000 84.0037
#
#
#
# Elastic Compliance Matrix: (Units=1/GPa)
#
#
# Indices 1 2 3 4 5 6 
#
# 1 0.006029 -0.001427 -0.005714 0.000000 -0.000711 0.000000
# 2 -0.001427 0.004992 -0.001285 0.000000 -0.001943 0.000000
# 3 -0.005714 -0.001285 0.037220 0.000000 -0.001016 0.000000
# 4 0.000000 0.000000 0.000000 0.023672 0.000000 0.000593
# 5 -0.000711 -0.001943 -0.001016 0.000000 0.019491 0.000000
# 6 0.000000 0.000000 0.000000 0.000593 0.000000 0.011919
#
#
# Mechanical properties :
#
#
# Convention : Reuss Voigt Hill
#
# Bulk Modulus (GPa) = 31.85832 85.96449 58.91140
# Shear Modulus (GPa) = 38.27373 60.03412 49.15392
#
# Velocity S-wave (km/s) = 3.79912 4.75808 4.30538
# Velocity P-wave (km/s) = 5.59092 7.91224 6.85062
#
# Compressibility (1/GPa) = 0.03138897
#
# Stress axis : x y z
#
# Youngs Moduli (GPa) = 165.86938 200.31678 26.86734
#
# Poissons Ratio (x) = 0.28594 0.15351
# Poissons Ratio (y) = 0.23676 0.03452
# Poissons Ratio (z) = 0.94770 0.25741
#
# Static dielectric constant tensor:
#      x y z
#    x 5.592090 0.000000 0.029260 
#    y 0.000000 4.649920 0.000000 
#    z 0.029260 0.000000 4.371970 
# 
# 
# High freq. dielectric constant tensor:
#      x y z
#    x 2.085660 0.000000 0.000330 
#    y 0.000000 2.060220 0.000000 
#    z 0.000330 0.000000 2.057550 
# 
# From -- ./inp_files/14547.got.cif
#   From: 2010.06.25/outbox.cif.g09.slc.cpg/sg10_8_cif.got.tgz:14547.got - 2010.06.27 22:07:45.
