data_PCOD8057660
_publ_section_title
;
Structure prediction by ZEFSAII (Michael W. Deem and Ramdas Pophale) SiO2 
 PCOD8057660
Probable space group: P 2/M
;
_chemical_formula_sum "Si O2"
_cell_formula_units_Z 32
_cell_length_a 13.512296
_cell_length_b 8.949685
_cell_length_c 28.945307
_cell_angle_alpha 90.000000
_cell_angle_beta 34.973920
_cell_angle_gamma 90.000000
_cell_volume 2006.429499
_symmetry_space_group_name_H-M "P 2/M"
_symmetry_group_IT_number 10
_symmetry_cell_setting 'monoclinic'
loop_
_space_group_symop_operation_xyz
x,y,z
-x,y,-z
-x,-y,-z
x,-y,z
loop_
_atom_site_type_symbol
_atom_site_label
_atom_site_fract_x
_atom_site_fract_y
_atom_site_fract_z
Si Si1 0.097640 0.825449 0.559867
Si Si2 0.116096 0.331738 0.000757
Si Si3 0.826494 0.823825 0.162894
Si Si4 0.622447 0.671311 0.317550
Si Si5 0.540544 0.824965 0.536394
Si Si6 0.252011 0.330670 0.417544
Si Si7 0.756103 0.325120 0.685910
Si Si8 0.599862 0.823668 0.161508
O O1 0.261877 0.779884 0.528298
O O2 0.135426 0.778771 0.492626
O O3 0.929884 0.738323 0.643408
O O4 0.059243 0.000000 0.576600
O O5 0.159496 0.500000 0.000210
O O6 0.012705 0.247051 0.080612
O O7 0.292040 0.243968 0.922437
O O8 0.000000 0.333035 0.000000
O O9 0.770389 0.761196 0.234083
O O10 0.686709 0.778503 0.177174
O O11 0.847909 0.000000 0.157591
O O12 0.679426 0.500000 0.300846
O O13 0.593150 0.739147 0.379497
O O14 0.451504 0.689167 0.352762
O O15 0.500000 0.775484 0.500000
O O16 0.512009 0.000000 0.555350
O O17 0.190181 0.500000 0.451029
O O18 0.227069 0.286153 0.374348
O O19 0.736830 0.500000 0.702811
O O20 0.590812 0.242747 0.769821
O O21 0.592522 0.000000 0.158485
#
# Coordination Sequence:
#
# PCOD8057660 Si02
#       8
#     4   4   4   4   4   4   4   4
#     4  10  20  31  45  65  85 110 148 188 225 267
#     4   9  17  28  42  59  84 119 156 190 226 265
#     4  10  18  28  43  63  89 119 154 192 226 262
#     4  10  18  29  46  68  91 117 152 189 226 269
#     4   9  19  36  53  67  88 117 147 185 235 282
#     4   9  18  30  42  58  85 119 150 181 220 263
#     4  11  20  30  43  60  88 122 153 184 221 265
#     4  10  19  29  42  61  87 120 158 193 224 259
#
# _framework density 15.948727999999999
#
# number of rings (size 3 to 8) (size 9 to 14) (size 15 to 20)
#    0.000    2.250    1.250    2.625    0.000    6.250 
#    0.000    0.000    0.000    0.000    0.000    0.000 
#    0.000    1.000    0.000   10.750    0.000    4.750 
#
# Total GULP energy -396840.769262 kJ/mol
# GULP energy per Si atom -12401.274039 kJ/mol
# Density = 1.591243 g / cm^3
# Si number density = 15.948728 Si / 1000 Ang^3
#
#
#
# Elastic Constant Matrix: (Units=GPa)
#
#
# Indices 1 2 3 4 5 6 
#
# 1 44.5759 24.4297 49.1403 0.0000 3.6645 0.0000
# 2 24.4297 87.6737 67.9983 0.0000 0.4335 0.0000
# 3 49.1403 67.9983 131.5932 0.0000 -5.4865 0.0000
# 4 0.0000 0.0000 0.0000 35.3377 0.0000 -1.1514
# 5 3.6645 0.4335 -5.4865 0.0000 16.9050 0.0000
# 6 0.0000 0.0000 0.0000 -1.1514 0.0000 15.0349
#
#
#
# Elastic Compliance Matrix: (Units=1/GPa)
#
#
# Indices 1 2 3 4 5 6 
#
# 1 0.041348 0.001659 -0.016902 0.000000 -0.014491 0.000000
# 2 0.001659 0.019336 -0.010793 0.000000 -0.004358 0.000000
# 3 -0.016902 -0.010793 0.019922 0.000000 0.010406 0.000000
# 4 0.000000 0.000000 0.000000 0.028369 0.000000 0.002173
# 5 -0.014491 -0.004358 0.010406 0.000000 0.065785 0.000000
# 6 0.000000 0.000000 0.000000 0.002173 0.000000 0.066678
#
#
# Mechanical properties :
#
#
# Convention : Reuss Voigt Hill
#
# Bulk Modulus (GPa) = 35.04513 60.77548 47.91031
# Shear Modulus (GPa) = 16.50055 21.60717 19.05386
#
# Velocity S-wave (km/s) = 3.22001 3.68474 3.46018
# Velocity P-wave (km/s) = 5.98715 7.50284 6.78743
#
# Compressibility (1/GPa) = 0.02853464
#
# Stress axis : x y z
#
# Youngs Moduli (GPa) = 24.18475 51.71760 50.19676
#
# Poissons Ratio (x) = -0.08581 0.84843
# Poissons Ratio (y) = -0.04013 0.54176
# Poissons Ratio (z) = 0.40877 0.55817
#
# Static dielectric constant tensor:
#      x y z
#    x 2.660530 0.000000 -0.096820 
#    y 0.000000 3.115250 0.000000 
#    z -0.096820 0.000000 3.104540 
# 
# 
# High freq. dielectric constant tensor:
#      x y z
#    x 1.552620 0.000000 -0.010180 
#    y 0.000000 1.628090 0.000000 
#    z -0.010180 0.000000 1.617180 
# 
# From -- ./inp_files/55327.got.cif
#   From: 2010.06.25/outbox.cif.g09.slc.cpg/sg10_28_cif.got.tgz:55327.got - 2010.06.27 22:07:45.
