data_PCOD8057764
_publ_section_title
;
Structure prediction by ZEFSAII (Michael W. Deem and Ramdas Pophale) SiO2 
 PCOD8057764
Probable space group: P 2/M
;
_chemical_formula_sum "Si O2"
_cell_formula_units_Z 32
_cell_length_a 26.222894
_cell_length_b 10.086476
_cell_length_c 19.659751
_cell_angle_alpha 90.000000
_cell_angle_beta 19.718828
_cell_angle_gamma 90.000000
_cell_volume 1754.482794
_symmetry_space_group_name_H-M "P 2/M"
_symmetry_group_IT_number 10
_symmetry_cell_setting 'monoclinic'
loop_
_space_group_symop_operation_xyz
x,y,z
-x,y,-z
-x,-y,-z
x,-y,z
loop_
_atom_site_type_symbol
_atom_site_label
_atom_site_fract_x
_atom_site_fract_y
_atom_site_fract_z
Si Si1 0.626213 0.150130 0.017173
Si Si2 0.651543 0.154752 0.269705
Si Si3 0.848297 0.351359 0.102122
Si Si4 0.198867 0.352201 0.686659
Si Si5 0.660159 0.841268 0.827023
Si Si6 0.093814 0.842300 0.587606
Si Si7 0.244454 0.843369 0.006287
Si Si8 0.284847 0.850299 0.473627
O O1 0.446286 0.154476 0.235009
O O2 0.683872 0.000000 0.949306
O O3 0.689112 0.213035 0.867858
O O4 0.685629 0.220537 0.012185
O O5 0.500000 0.196367 0.500000
O O6 0.788944 0.240428 0.125811
O O7 0.687763 0.000000 0.236351
O O8 0.646249 0.188223 0.195543
O O9 0.815958 0.500000 0.114706
O O10 0.766490 0.333854 0.277379
O O11 0.024397 0.327646 0.890148
O O12 0.246370 0.500000 0.603731
O O13 0.294910 0.243202 0.526442
O O14 0.798545 0.787149 0.607609
O O15 0.655335 0.000000 0.833673
O O16 0.500000 0.786844 0.000000
O O17 0.160443 0.796311 0.576629
O O18 0.924495 0.784844 0.792368
O O19 0.095432 0.000000 0.583258
O O20 0.233005 0.000000 0.028176
O O21 0.247394 0.000000 0.544720
#
# Coordination Sequence:
#
# PCOD8057764 Si02
#       8
#     4   4   4   4   4   4   4   4
#     4   9  17  27  42  65  95 128 161 201 244 290
#     4  10  21  34  50  71 100 135 168 205 250 297
#     4   9  19  36  53  70  95 128 166 208 253 296
#     4   9  19  34  51  72  99 127 160 209 256 293
#     4   9  14  24  40  63  94 126 162 199 240 289
#     4   9  16  26  43  66  94 127 162 204 245 287
#     4   9  18  30  41  62  97 129 160 202 250 292
#     4  10  18  28  48  74  96 128 166 200 243 297
#
# _framework density 18.238992
#
# number of rings (size 3 to 8) (size 9 to 14) (size 15 to 20)
#    0.000    2.750    1.250    1.500    1.750    2.750 
#    0.000    3.750    0.000    0.000    0.000    1.750 
#    0.000    0.000    0.000    6.375    0.000    6.250 
#
# Total GULP energy -396583.564720 kJ/mol
# GULP energy per Si atom -12393.236398 kJ/mol
# Density = 1.819748 g / cm^3
# Si number density = 18.238992 Si / 1000 Ang^3
#
#
#
# Elastic Constant Matrix: (Units=GPa)
#
#
# Indices 1 2 3 4 5 6 
#
# 1 105.7479 18.4865 32.4442 0.0000 4.5744 0.0000
# 2 18.4865 36.7278 3.5913 0.0000 6.8645 0.0000
# 3 32.4442 3.5913 72.0533 0.0000 11.7933 0.0000
# 4 0.0000 0.0000 0.0000 7.2662 0.0000 -3.4282
# 5 4.5744 6.8645 11.7933 0.0000 33.9977 0.0000
# 6 0.0000 0.0000 0.0000 -3.4282 0.0000 13.1435
#
#
#
# Elastic Compliance Matrix: (Units=1/GPa)
#
#
# Indices 1 2 3 4 5 6 
#
# 1 0.012059 -0.005809 -0.005372 0.000000 0.001414 0.000000
# 2 -0.005809 0.031110 0.002083 0.000000 -0.006223 0.000000
# 3 -0.005372 0.002083 0.017116 0.000000 -0.005635 0.000000
# 4 0.000000 0.000000 0.000000 0.156937 0.000000 0.040933
# 5 0.001414 -0.006223 -0.005635 0.000000 0.032435 0.000000
# 6 0.000000 0.000000 0.000000 0.040933 0.000000 0.086760
#
#
# Mechanical properties :
#
#
# Convention : Reuss Voigt Hill
#
# Bulk Modulus (GPa) = 23.75800 35.95256 29.85528
# Shear Modulus (GPa) = 13.56336 21.54861 17.55599
#
# Velocity S-wave (km/s) = 2.72995 3.44096 3.10587
# Velocity P-wave (km/s) = 4.79490 5.96169 5.40984
#
# Compressibility (1/GPa) = 0.04209109
#
# Stress axis : x y z
#
# Youngs Moduli (GPa) = 82.92690 32.14369 58.42527
#
# Poissons Ratio (x) = 0.18671 0.31384
# Poissons Ratio (y) = 0.48169 -0.12172
# Poissons Ratio (z) = 0.44546 -0.06697
#
# Static dielectric constant tensor:
#      x y z
#    x 3.651140 0.000000 0.122500 
#    y 0.000000 2.822630 0.000000 
#    z 0.122500 0.000000 3.379270 
# 
# 
# High freq. dielectric constant tensor:
#      x y z
#    x 1.718470 0.000000 0.008210 
#    y 0.000000 1.637450 0.000000 
#    z 0.008210 0.000000 1.705020 
# 
# From -- ./inp_files/85786.got.cif
#   From: 2010.06.25/outbox.cif.g09.slc.cpg/sg10_43_cif.got.tgz:85786.got - 2010.06.27 22:07:45.
