data_PCOD8057833
_publ_section_title
;
Structure prediction by ZEFSAII (Michael W. Deem and Ramdas Pophale) SiO2 
 PCOD8057833
Probable space group: P 2/M
;
_chemical_formula_sum "Si O2"
_cell_formula_units_Z 28
_cell_length_a 27.962413
_cell_length_b 8.614377
_cell_length_c 13.779562
_cell_angle_alpha 90.000000
_cell_angle_beta 149.773841
_cell_angle_gamma 90.000000
_cell_volume 1670.935337
_symmetry_space_group_name_H-M "P 2/M"
_symmetry_group_IT_number 10
_symmetry_cell_setting 'monoclinic'
loop_
_space_group_symop_operation_xyz
x,y,z
-x,y,-z
-x,-y,-z
x,-y,z
loop_
_atom_site_type_symbol
_atom_site_label
_atom_site_fract_x
_atom_site_fract_y
_atom_site_fract_z
Si Si1 0.712867 0.316056 0.797659
Si Si2 0.905560 0.682989 0.226704
Si Si3 0.457780 0.818410 0.027721
Si Si4 0.384978 0.320613 0.186495
Si Si5 0.432531 0.679652 0.604876
Si Si6 0.104429 0.182222 0.581140
Si Si7 0.283077 0.683591 0.817444
O O1 0.701016 0.500000 0.780031
O O2 0.650590 0.241272 0.776363
O O3 0.669572 0.262083 0.617254
O O4 0.822896 0.269224 0.005316
O O5 0.924813 0.500000 0.258894
O O6 0.874210 0.729541 0.280418
O O7 0.999852 0.773243 0.359323
O O8 0.534877 0.778319 0.245876
O O9 0.439069 0.000000 0.995502
O O10 0.500000 0.760905 0.000000
O O11 0.355575 0.735082 0.860127
O O12 0.357567 0.500000 0.143049
O O13 0.496713 0.297441 0.363053
O O14 0.328399 0.250444 0.996134
O O15 0.431706 0.500000 0.636270
O O16 0.179397 0.236365 0.630068
O O17 0.109838 0.000000 0.608699
O O18 0.271086 0.500000 0.791705
#
# Coordination Sequence:
#
# PCOD8057833 Si02
#       7
#     4   4   4   4   4   4   4
#     4   9  15  25  43  68  94 124 161 198 232 265
#     4  10  18  29  45  64  93 132 173 203 228 270
#     4  10  21  36  51  70  98 126 151 189 241 289
#     4   8  13  23  41  65  91 119 153 189 225 266
#     4   9  17  28  47  70  92 121 159 197 231 276
#     4  11  20  30  43  65  97 129 163 201 242 278
#     4  10  18  31  52  72  91 122 162 200 236 279
#
# _framework density 16.757080999999999
#
# number of rings (size 3 to 8) (size 9 to 14) (size 15 to 20)
#    0.000    2.429    1.429    4.714    0.000    2.857 
#    0.000    1.429    0.000    1.714    0.000    1.000 
#    0.000    8.000    0.000    0.000    0.000    0.000 
#
# Total GULP energy -346984.021929 kJ/mol
# GULP energy per Si atom -12392.286497 kJ/mol
# Density = 1.671894 g / cm^3
# Si number density = 16.757081 Si / 1000 Ang^3
#
#
#
# Elastic Constant Matrix: (Units=GPa)
#
#
# Indices 1 2 3 4 5 6 
#
# 1 85.3749 21.5701 47.1825 0.0000 11.4263 0.0000
# 2 21.5701 50.6779 22.1564 0.0000 7.4945 0.0000
# 3 47.1825 22.1564 98.4821 0.0000 13.9412 0.0000
# 4 0.0000 0.0000 0.0000 12.8415 0.0000 3.5974
# 5 11.4263 7.4945 13.9412 0.0000 19.5014 0.0000
# 6 0.0000 0.0000 0.0000 3.5974 0.0000 20.2484
#
#
#
# Elastic Compliance Matrix: (Units=1/GPa)
#
#
# Indices 1 2 3 4 5 6 
#
# 1 0.016851 -0.003692 -0.006727 0.000000 -0.003646 0.000000
# 2 -0.003692 0.023226 -0.002780 0.000000 -0.004775 0.000000
# 3 -0.006727 -0.002780 0.014790 0.000000 -0.005563 0.000000
# 4 0.000000 0.000000 0.000000 0.081951 0.000000 -0.014560
# 5 -0.003646 -0.004775 -0.005563 0.000000 0.059226 0.000000
# 6 0.000000 0.000000 0.000000 -0.014560 0.000000 0.051973
#
#
# Mechanical properties :
#
#
# Convention : Reuss Voigt Hill
#
# Bulk Modulus (GPa) = 35.12697 46.26145 40.69421
# Shear Modulus (GPa) = 17.61146 20.09332 18.85239
#
# Velocity S-wave (km/s) = 3.24541 3.46655 3.35780
# Velocity P-wave (km/s) = 5.92043 6.60982 6.27460
#
# Compressibility (1/GPa) = 0.02846816
#
# Stress axis : x y z
#
# Youngs Moduli (GPa) = 59.34235 43.05567 67.61365
#
# Poissons Ratio (x) = 0.15898 0.45481
# Poissons Ratio (y) = 0.21912 0.18799
# Poissons Ratio (z) = 0.39917 0.11971
#
# Static dielectric constant tensor:
#      x y z
#    x 2.983190 0.000000 0.170830 
#    y 0.000000 2.903570 0.000000 
#    z 0.170830 0.000000 3.354290 
# 
# 
# High freq. dielectric constant tensor:
#      x y z
#    x 1.605710 0.000000 0.019180 
#    y 0.000000 1.629070 0.000000 
#    z 0.019180 0.000000 1.644930 
# 
# From -- ./inp_files/72470.got.cif
#   From: 2010.06.25/outbox.cif.g09.slc.cpg/sg10_37_cif.got.tgz:72470.got - 2010.06.27 22:07:45.
