data_PCOD8057608
_publ_section_title
;
Structure prediction by ZEFSAII (Michael W. Deem and Ramdas Pophale) SiO2 
 PCOD8057608
Probable space group: P 2/M
;
_chemical_formula_sum "Si O2"
_cell_formula_units_Z 24
_cell_length_a 20.374286
_cell_length_b 9.051520
_cell_length_c 14.911968
_cell_angle_alpha 90.000000
_cell_angle_beta 146.035179
_cell_angle_gamma 90.000000
_cell_volume 1536.402262
_symmetry_space_group_name_H-M "P 2/M"
_symmetry_group_IT_number 10
_symmetry_cell_setting 'monoclinic'
loop_
_space_group_symop_operation_xyz
x,y,z
-x,y,-z
-x,-y,-z
x,-y,z
loop_
_atom_site_type_symbol
_atom_site_label
_atom_site_fract_x
_atom_site_fract_y
_atom_site_fract_z
Si Si1 0.226493 0.325558 0.464632
Si Si2 0.066870 0.167585 0.161503
Si Si3 0.329554 0.830305 0.873368
Si Si4 0.982196 0.167540 0.701137
Si Si5 0.419102 0.169175 0.777916
Si Si6 0.102748 0.326777 0.684451
O O1 0.218043 0.500000 0.456661
O O2 0.182743 0.264389 0.317683
O O3 0.142042 0.256108 0.446956
O O4 0.359016 0.272891 0.634823
O O5 0.980290 0.169572 0.150736
O O6 0.106859 0.000000 0.184909
O O7 0.000000 0.236691 0.000000
O O8 0.367489 0.789887 0.816238
O O9 0.226895 0.721777 0.786249
O O10 0.287667 0.000000 0.832810
O O11 0.441169 0.803534 0.064951
O O12 0.081668 0.245939 0.755245
O O13 0.963039 0.000000 0.645442
O O14 0.390397 0.000000 0.721802
O O15 0.103929 0.500000 0.703184
O O16 0.000000 0.279626 0.500000
#
# Coordination Sequence:
#
# PCOD8057608 Si02
#       6
#     4   4   4   4   4   4
#     4  10  18  27  44  70  97 121 147 185 235 281
#     4   8  16  31  49  70  94 121 154 191 233 280
#     4   9  19  32  48  65  86 121 165 201 229 268
#     4   9  18  31  47  66  90 123 157 189 226 273
#     4   9  17  32  48  65  88 120 161 200 232 269
#     4  11  22  32  43  65  96 127 157 191 233 279
#
# _framework density 15.620908
#
# number of rings (size 3 to 8) (size 9 to 14) (size 15 to 20)
#    1.000    1.667    0.000    4.000    0.000    5.667 
#    0.000    1.667    0.000    0.000    0.000    1.167 
#    0.000    9.333    0.000    0.000    0.000    0.000 
#
# Total GULP energy -297415.147196 kJ/mol
# GULP energy per Si atom -12392.297800 kJ/mol
# Density = 1.558535 g / cm^3
# Si number density = 15.620908 Si / 1000 Ang^3
#
#
#
# Elastic Constant Matrix: (Units=GPa)
#
#
# Indices 1 2 3 4 5 6 
#
# 1 47.7768 29.5789 33.2713 0.0000 -1.9144 0.0000
# 2 29.5789 100.3262 53.6291 0.0000 -5.3589 0.0000
# 3 33.2713 53.6291 102.8809 0.0000 -8.5748 0.0000
# 4 0.0000 0.0000 0.0000 18.8167 0.0000 2.8833
# 5 -1.9144 -5.3589 -8.5748 0.0000 22.8031 0.0000
# 6 0.0000 0.0000 0.0000 2.8833 0.0000 18.0744
#
#
#
# Elastic Compliance Matrix: (Units=1/GPa)
#
#
# Indices 1 2 3 4 5 6 
#
# 1 0.028651 -0.004860 -0.006841 0.000000 -0.001309 0.000000
# 2 -0.004860 0.014649 -0.006000 0.000000 0.000779 0.000000
# 3 -0.006841 -0.006000 0.015376 0.000000 0.003798 0.000000
# 4 0.000000 0.000000 0.000000 0.054476 0.000000 -0.008690
# 5 -0.001309 0.000779 0.003798 0.000000 0.045355 0.000000
# 6 0.000000 0.000000 0.000000 -0.008690 0.000000 0.056713
#
#
# Mechanical properties :
#
#
# Convention : Reuss Voigt Hill
#
# Bulk Modulus (GPa) = 42.96507 53.77137 48.36822
# Shear Modulus (GPa) = 19.35126 20.90581 20.12853
#
# Velocity S-wave (km/s) = 3.52348 3.66228 3.59355
# Velocity P-wave (km/s) = 6.64212 7.23743 6.94616
#
# Compressibility (1/GPa) = 0.02327472
#
# Stress axis : x y z
#
# Youngs Moduli (GPa) = 34.90224 68.26417 65.03471
#
# Poissons Ratio (x) = 0.33177 0.44493
# Poissons Ratio (y) = 0.16963 0.39018
# Poissons Ratio (z) = 0.23878 0.40955
#
# Static dielectric constant tensor:
#      x y z
#    x 2.690820 0.000000 -0.075090 
#    y 0.000000 2.904590 0.000000 
#    z -0.075090 0.000000 2.940750 
# 
# 
# High freq. dielectric constant tensor:
#      x y z
#    x 1.559940 0.000000 -0.006280 
#    y 0.000000 1.605100 0.000000 
#    z -0.006280 0.000000 1.589750 
# 
# From -- ./inp_files/79202.got.cif
#   From: 2010.06.25/outbox.cif.g09.slc.cpg/sg10_40_cif.got.tgz:79202.got - 2010.06.27 22:07:45.
