data_PCOD8057834
_publ_section_title
;
Structure prediction by ZEFSAII (Michael W. Deem and Ramdas Pophale) SiO2 
 PCOD8057834
Probable space group: P 2/M
;
_chemical_formula_sum "Si O2"
_cell_formula_units_Z 28
_cell_length_a 16.275734
_cell_length_b 8.632683
_cell_length_c 13.780847
_cell_angle_alpha 90.000000
_cell_angle_beta 63.675383
_cell_angle_gamma 90.000000
_cell_volume 1735.456523
_symmetry_space_group_name_H-M "P 2/M"
_symmetry_group_IT_number 10
_symmetry_cell_setting 'monoclinic'
loop_
_space_group_symop_operation_xyz
x,y,z
-x,y,-z
-x,-y,-z
x,-y,z
loop_
_atom_site_type_symbol
_atom_site_label
_atom_site_fract_x
_atom_site_fract_y
_atom_site_fract_z
Si Si1 0.179988 0.817697 0.024680
Si Si2 0.459188 0.183780 0.167064
Si Si3 0.639255 0.815888 0.968851
Si Si4 0.193607 0.180092 0.793248
Si Si5 0.369880 0.681007 0.612026
Si Si6 0.455252 0.816841 0.385665
Si Si7 0.007218 0.325987 0.881250
O O1 0.263440 0.750126 0.045565
O O2 0.086948 0.740758 0.113507
O O3 0.168174 0.000000 0.041963
O O4 0.200003 0.773717 0.902789
O O5 0.380369 0.236453 0.132115
O O6 0.435944 0.244356 0.286716
O O7 0.465834 0.000000 0.165157
O O8 0.557805 0.248766 0.080126
O O9 0.641328 0.000000 0.975476
O O10 0.267127 0.280002 0.696410
O O11 0.093545 0.222439 0.803035
O O12 0.213105 0.000000 0.766379
O O13 0.389507 0.500000 0.614254
O O14 0.384090 0.728923 0.492501
O O15 0.440231 0.777123 0.641594
O O16 0.440698 0.000000 0.403059
O O17 0.021730 0.500000 0.835716
O O18 0.000000 0.319537 0.000000
#
# Coordination Sequence:
#
# PCOD8057834 Si02
#       7
#     4   4   4   4   4   4   4
#     4   9  16  26  43  65  89 116 145 177 211 251
#     4   8  14  24  41  64  89 114 142 179 215 246
#     4   8  13  23  40  65  91 113 141 176 214 250
#     4  10  18  29  45  65  87 113 146 180 212 251
#     4  11  21  31  43  62  87 116 146 177 218 260
#     4  10  18  30  46  64  86 114 148 182 212 247
#     4   9  17  28  41  60  88 118 144 173 212 256
#
# _framework density 16.134083
#
# number of rings (size 3 to 8) (size 9 to 14) (size 15 to 20)
#    0.000    2.714    0.000    5.143    0.000    4.571 
#    0.000    0.000    0.000    1.714    0.000    7.000 
#    0.000    8.000    0.000    0.000    0.000    0.000 
#
# Total GULP energy -347105.315731 kJ/mol
# GULP energy per Si atom -12396.618419 kJ/mol
# Density = 1.609736 g / cm^3
# Si number density = 16.134083 Si / 1000 Ang^3
#
#
#
# Elastic Constant Matrix: (Units=GPa)
#
#
# Indices 1 2 3 4 5 6 
#
# 1 125.7817 16.2395 52.3520 0.0000 -4.4308 0.0000
# 2 16.2395 41.4851 20.7543 0.0000 -1.9021 0.0000
# 3 52.3520 20.7543 83.5251 0.0000 2.7220 0.0000
# 4 0.0000 0.0000 0.0000 14.9287 0.0000 -6.8030
# 5 -4.4308 -1.9021 2.7220 0.0000 26.7007 0.0000
# 6 0.0000 0.0000 0.0000 -6.8030 0.0000 11.4385
#
#
#
# Elastic Compliance Matrix: (Units=1/GPa)
#
#
# Indices 1 2 3 4 5 6 
#
# 1 0.010946 -0.000800 -0.006742 0.000000 0.002447 0.000000
# 2 -0.000800 0.027776 -0.006482 0.000000 0.002507 0.000000
# 3 -0.006742 -0.006482 0.017920 0.000000 -0.003407 0.000000
# 4 0.000000 0.000000 0.000000 0.091890 0.000000 0.054651
# 5 0.002447 0.002507 -0.003407 0.000000 0.038384 0.000000
# 6 0.000000 0.000000 0.000000 0.054651 0.000000 0.119928
#
#
# Mechanical properties :
#
#
# Convention : Reuss Voigt Hill
#
# Bulk Modulus (GPa) = 34.97209 47.72041 41.34625
# Shear Modulus (GPa) = 14.51711 21.37665 17.94688
#
# Velocity S-wave (km/s) = 3.00289 3.64392 3.33882
# Velocity P-wave (km/s) = 5.80914 6.88083 6.36757
#
# Compressibility (1/GPa) = 0.02859423
#
# Stress axis : x y z
#
# Youngs Moduli (GPa) = 91.36053 36.00236 55.80473
#
# Poissons Ratio (x) = 0.02880 0.37621
# Poissons Ratio (y) = 0.07308 0.36173
# Poissons Ratio (z) = 0.61591 0.23337
#
# Static dielectric constant tensor:
#      x y z
#    x 3.223900 0.000000 -0.003350 
#    y 0.000000 2.865730 0.000000 
#    z -0.003350 0.000000 3.016420 
# 
# 
# High freq. dielectric constant tensor:
#      x y z
#    x 1.612230 0.000000 -0.011040 
#    y 0.000000 1.606200 0.000000 
#    z -0.011040 0.000000 1.595820 
# 
# From -- ./inp_files/65928.got.cif
#   From: 2010.06.25/outbox.cif.g09.slc.cpg/sg10_33_cif.got.tgz:65928.got - 2010.06.27 22:07:45.
