data_PCOD8057305
_publ_section_title
;
Structure prediction by ZEFSAII (Michael W. Deem and Ramdas Pophale) SiO2 
 PCOD8057305
Probable space group: P 2/M
;
_chemical_formula_sum "Si O2"
_cell_formula_units_Z 32
_cell_length_a 20.601677
_cell_length_b 8.877024
_cell_length_c 12.695705
_cell_angle_alpha 90.000000
_cell_angle_beta 65.392076
_cell_angle_gamma 90.000000
_cell_volume 2110.940349
_symmetry_space_group_name_H-M "P 2/M"
_symmetry_group_IT_number 10
_symmetry_cell_setting 'monoclinic'
loop_
_space_group_symop_operation_xyz
x,y,z
-x,y,-z
-x,-y,-z
x,-y,z
loop_
_atom_site_type_symbol
_atom_site_label
_atom_site_fract_x
_atom_site_fract_y
_atom_site_fract_z
Si Si1 0.669278 0.322739 0.922485
Si Si2 0.407070 0.677600 0.242397
Si Si3 0.565998 0.678406 0.172598
Si Si4 0.790164 0.327167 0.533809
Si Si5 0.078755 0.326679 0.431754
Si Si6 0.205955 0.178260 0.259066
Si Si7 0.423091 0.677658 0.596699
Si Si8 0.326769 0.177717 0.492417
O O1 0.683568 0.500000 0.919918
O O2 0.623708 0.279653 0.850480
O O3 0.746190 0.237925 0.870203
O O4 0.626499 0.260195 0.052525
O O5 0.402419 0.500000 0.268198
O O6 0.488600 0.735894 0.188318
O O7 0.367483 0.761046 0.363434
O O8 0.565906 0.500000 0.167970
O O9 0.582959 0.733485 0.279116
O O10 0.765539 0.500000 0.545586
O O11 0.876863 0.313673 0.486893
O O12 0.756889 0.252297 0.662474
O O13 0.755826 0.238075 0.458440
O O14 0.072663 0.500000 0.399667
O O15 0.123138 0.236734 0.311168
O O16 0.000000 0.256133 0.500000
O O17 0.206612 0.000000 0.264651
O O18 0.500000 0.725536 0.500000
O O19 0.411715 0.500000 0.592513
O O20 0.361081 0.761866 0.575991
O O21 0.327028 0.000000 0.493965
#
# Coordination Sequence:
#
# PCOD8057305 Si02
#       8
#     4   4   4   4   4   4   4   4
#     4  10  18  29  47  66  89 119 153 190 229 276
#     4  10  17  29  47  65  85 113 148 190 237 281
#     4   9  18  31  47  67  83 110 158 201 233 275
#     4   9  17  30  46  65  89 122 155 184 219 263
#     4   8  15  28  46  68  95 126 156 183 214 261
#     4  10  18  27  41  65  95 124 149 176 219 266
#     4  10  19  34  52  65  83 114 158 204 243 283
#     4  12  22  30  45  67  93 119 153 195 238 285
#
# _framework density 15.159121000000001
#
# number of rings (size 3 to 8) (size 9 to 14) (size 15 to 20)
#    0.750    1.500    2.500    2.625    0.000    2.000 
#    0.000    1.250    0.000    1.500    0.000    0.000 
#    0.000    1.000    0.000   11.500    0.000    4.500 
#
# Total GULP energy -396495.171262 kJ/mol
# GULP energy per Si atom -12390.474102 kJ/mol
# Density = 1.512462 g / cm^3
# Si number density = 15.159121 Si / 1000 Ang^3
#
#
#
# Elastic Constant Matrix: (Units=GPa)
#
#
# Indices 1 2 3 4 5 6 
#
# 1 99.7470 33.9764 57.6120 0.0000 -14.5264 0.0000
# 2 33.9764 64.2744 31.7570 0.0000 -3.1408 0.0000
# 3 57.6120 31.7570 89.0676 0.0000 -4.0441 0.0000
# 4 0.0000 0.0000 0.0000 5.9493 0.0000 0.1825
# 5 -14.5264 -3.1408 -4.0441 0.0000 21.0676 0.0000
# 6 0.0000 0.0000 0.0000 0.1825 0.0000 14.0169
#
#
#
# Elastic Compliance Matrix: (Units=1/GPa)
#
#
# Indices 1 2 3 4 5 6 
#
# 1 0.018959 -0.004475 -0.010193 0.000000 0.010448 0.000000
# 2 -0.004475 0.019991 -0.004275 0.000000 -0.000926 0.000000
# 3 -0.010193 -0.004275 0.019164 0.000000 -0.003987 0.000000
# 4 0.000000 0.000000 0.000000 0.168155 0.000000 -0.002190
# 5 0.010448 -0.000926 -0.003987 0.000000 0.053767 0.000000
# 6 0.000000 0.000000 0.000000 -0.002190 0.000000 0.071371
#
#
# Mechanical properties :
#
#
# Convention : Reuss Voigt Hill
#
# Bulk Modulus (GPa) = 49.43920 55.53110 52.48515
# Shear Modulus (GPa) = 12.62512 16.85633 14.74072
#
# Velocity S-wave (km/s) = 2.88903 3.33822 3.12172
# Velocity P-wave (km/s) = 6.61913 7.18122 6.90590
#
# Compressibility (1/GPa) = 0.02022687
#
# Stress axis : x y z
#
# Youngs Moduli (GPa) = 52.74639 50.02269 52.18122
#
# Poissons Ratio (x) = 0.22385 0.53189
# Poissons Ratio (y) = 0.23604 0.22309
# Poissons Ratio (z) = 0.53765 0.21386
#
# Static dielectric constant tensor:
#      x y z
#    x 3.032790 0.000000 -0.050830 
#    y 0.000000 2.736190 0.000000 
#    z -0.050830 0.000000 2.840320 
# 
# 
# High freq. dielectric constant tensor:
#      x y z
#    x 1.571410 0.000000 -0.008350 
#    y 0.000000 1.570990 0.000000 
#    z -0.008350 0.000000 1.547470 
# 
# From -- ./inp_files/54840.got.cif
#   From: 2010.06.25/outbox.cif.g09.slc.cpg/sg10_28_cif.got.tgz:54840.got - 2010.06.27 22:07:45.
