data_PCOD8057506
_publ_section_title
;
Structure prediction by ZEFSAII (Michael W. Deem and Ramdas Pophale) SiO2 
 PCOD8057506
Probable space group: P 2/M
;
_chemical_formula_sum "Si O2"
_cell_formula_units_Z 32
_cell_length_a 16.230561
_cell_length_b 9.121949
_cell_length_c 18.177707
_cell_angle_alpha 90.000000
_cell_angle_beta 55.084404
_cell_angle_gamma 90.000000
_cell_volume 2206.846164
_symmetry_space_group_name_H-M "P 2/M"
_symmetry_group_IT_number 10
_symmetry_cell_setting 'monoclinic'
loop_
_space_group_symop_operation_xyz
x,y,z
-x,y,-z
-x,-y,-z
x,-y,z
loop_
_atom_site_type_symbol
_atom_site_label
_atom_site_fract_x
_atom_site_fract_y
_atom_site_fract_z
Si Si1 0.005830 0.669898 0.332054
Si Si2 0.017662 0.328644 0.156195
Si Si3 0.897893 0.165153 0.506934
Si Si4 0.205582 0.672486 0.315994
Si Si5 0.201114 0.826167 0.986729
Si Si6 0.606879 0.826956 0.027405
Si Si7 0.902897 0.837731 0.100832
Si Si8 0.382551 0.826169 0.143547
O O1 0.984725 0.500000 0.358271
O O2 0.116319 0.712474 0.305025
O O3 0.998367 0.709784 0.250551
O O4 0.918878 0.761266 0.417280
O O5 0.030685 0.500000 0.135934
O O6 0.920969 0.272583 0.159182
O O7 0.118950 0.249663 0.079944
O O8 0.815022 0.257715 0.593515
O O9 0.000000 0.167112 0.500000
O O10 0.858425 0.000000 0.515279
O O11 0.218181 0.500000 0.319261
O O12 0.308062 0.740228 0.234204
O O13 0.187897 0.000000 0.003996
O O14 0.310660 0.769756 0.956387
O O15 0.187342 0.784606 0.907236
O O16 0.495604 0.777652 0.108839
O O17 0.607091 0.000000 0.023377
O O18 0.635014 0.771878 0.931227
O O19 0.880507 0.000000 0.144106
O O20 0.000000 0.842929 0.000000
O O21 0.365482 0.000000 0.160877
#
# Coordination Sequence:
#
# PCOD8057506 Si02
#       8
#     4   4   4   4   4   4   4   4
#     4   9  18  29  39  55  80 107 131 157 193 234
#     4  10  18  26  38  57  80 104 131 162 195 231
#     4   9  17  28  42  59  76  98 131 165 192 223
#     4  10  18  28  41  56  79 108 132 157 194 233
#     4   9  16  27  41  55  75 105 137 164 195 232
#     4   8  15  27  42  58  77 103 133 168 202 226
#     4   8  15  26  38  53  74 101 132 163 193 229
#     4   9  16  27  42  59  78 101 134 169 197 227
#
# _framework density 14.500330999999999
#
# number of rings (size 3 to 8) (size 9 to 14) (size 15 to 20)
#    0.000    3.000    0.000    3.375    0.000    5.250 
#    0.000    1.875    0.000    0.000    0.000    0.000 
#    0.000    1.000    0.000   11.500    0.000    2.875 
#
# Total GULP energy -396646.200783 kJ/mol
# GULP energy per Si atom -12395.193774 kJ/mol
# Density = 1.446733 g / cm^3
# Si number density = 14.500331 Si / 1000 Ang^3
#
#
#
# Elastic Constant Matrix: (Units=GPa)
#
#
# Indices 1 2 3 4 5 6 
#
# 1 105.5054 35.6492 51.0064 0.0000 5.8213 0.0000
# 2 35.6492 65.8465 51.3664 0.0000 2.7552 0.0000
# 3 51.0064 51.3664 102.4458 0.0000 -1.0721 0.0000
# 4 0.0000 0.0000 0.0000 24.4477 0.0000 4.2512
# 5 5.8213 2.7552 -1.0721 0.0000 19.0680 0.0000
# 6 0.0000 0.0000 0.0000 4.2512 0.0000 12.7639
#
#
#
# Elastic Compliance Matrix: (Units=1/GPa)
#
#
# Indices 1 2 3 4 5 6 
#
# 1 0.013166 -0.002990 -0.005096 0.000000 -0.003874 0.000000
# 2 -0.002990 0.025981 -0.011575 0.000000 -0.003492 0.000000
# 3 -0.005096 -0.011575 0.018147 0.000000 0.004249 0.000000
# 4 0.000000 0.000000 0.000000 0.043418 0.000000 -0.014461
# 5 -0.003874 -0.003492 0.004249 0.000000 0.054370 0.000000
# 6 0.000000 0.000000 0.000000 -0.014461 0.000000 0.083162
#
#
# Mechanical properties :
#
#
# Convention : Reuss Voigt Hill
#
# Bulk Modulus (GPa) = 55.64464 61.09352 58.36908
# Shear Modulus (GPa) = 17.63307 20.30765 18.97036
#
# Velocity S-wave (km/s) = 3.49097 3.74638 3.62093
# Velocity P-wave (km/s) = 7.39643 7.80627 7.60411
#
# Compressibility (1/GPa) = 0.01797118
#
# Stress axis : x y z
#
# Youngs Moduli (GPa) = 75.95197 38.48931 55.10631
#
# Poissons Ratio (x) = 0.11510 0.28085
# Poissons Ratio (y) = 0.22712 0.63784
# Poissons Ratio (z) = 0.38709 0.44550
#
# Static dielectric constant tensor:
#      x y z
#    x 3.197480 0.000000 0.102350 
#    y 0.000000 2.791770 0.000000 
#    z 0.102350 0.000000 2.696730 
# 
# 
# High freq. dielectric constant tensor:
#      x y z
#    x 1.533470 0.000000 0.009670 
#    y 0.000000 1.552220 0.000000 
#    z 0.009670 0.000000 1.533430 
# 
# From -- ./inp_files/68221.got.cif
#   From: 2010.06.25/outbox.cif.g09.slc.cpg/sg10_35_cif.got.tgz:68221.got - 2010.06.27 22:07:45.
