data_PCOD8057443
_publ_section_title
;
Structure prediction by ZEFSAII (Michael W. Deem and Ramdas Pophale) SiO2 
 PCOD8057443
Probable space group: P 2/M
;
_chemical_formula_sum "Si O2"
_cell_formula_units_Z 26
_cell_length_a 11.134968
_cell_length_b 18.712535
_cell_length_c 8.317049
_cell_angle_alpha 90.000000
_cell_angle_beta 43.234031
_cell_angle_gamma 90.000000
_cell_volume 1187.049211
_symmetry_space_group_name_H-M "P 2/M"
_symmetry_group_IT_number 10
_symmetry_cell_setting 'monoclinic'
loop_
_space_group_symop_operation_xyz
x,y,z
-x,y,-z
-x,-y,-z
x,-y,z
loop_
_atom_site_type_symbol
_atom_site_label
_atom_site_fract_x
_atom_site_fract_y
_atom_site_fract_z
Si Si1 0.234285 0.135634 0.181817
Si Si2 0.267253 0.000000 0.663350
Si Si3 0.500000 0.615975 0.500000
Si Si4 0.901403 0.000000 0.845966
Si Si5 0.103866 0.271371 0.132573
Si Si6 0.729911 0.263419 0.375823
Si Si7 0.596629 0.128943 0.655123
Si Si8 0.852472 0.421776 0.006655
O O1 0.104015 0.072308 0.254772
O O2 0.169033 0.216250 0.204827
O O3 0.252153 0.129961 0.356103
O O4 0.414110 0.118557 0.919370
O O5 0.375502 0.068201 0.502711
O O6 0.080671 0.000000 0.764013
O O7 0.252968 0.000000 0.870131
O O8 0.388437 0.665931 0.486607
O O9 0.348279 0.569636 0.733615
O O10 0.895099 0.263997 0.332537
O O11 0.200734 0.251708 0.872555
O O12 0.143748 0.356511 0.126318
O O13 0.598372 0.201227 0.552523
O O14 0.900178 0.500000 0.885922
O O15 0.000000 0.402509 0.000000
#
# Coordination Sequence:
#
# PCOD8057443 Si02
#       8
#     4   2   2   2   4   4   4   4
#     4  11  24  38  57  78 117 143 194 230 291 331
#     4  11  24  39  58  78 112 137 196 230 294 336
#     4  10  17  32  52  83 114 154 186 239 280 346
#     4  11  24  41  56  84 106 151 178 243 284 344
#     4  10  19  36  54  84 111 150 183 242 276 346
#     4  10  19  33  56  79 112 143 194 226 288 328
#     4  11  23  38  54  83 106 151 185 243 277 347
#     4  10  18  31  52  84 119 150 187 236 289 339
#
# _framework density 21.90305
#
# number of rings (size 3 to 8) (size 9 to 14) (size 15 to 20)
#    0.000    1.538    3.077    4.846    0.000    9.231 
#    0.000    0.000    0.000    0.000    0.000   15.077 
#    0.000    0.000    0.000    0.000    0.000    0.000 
#
# Total GULP energy -322164.956025 kJ/mol
# GULP energy per Si atom -12390.959847 kJ/mol
# Density = 2.185320 g / cm^3
# Si number density = 21.903050 Si / 1000 Ang^3
#
#
#
# Elastic Constant Matrix: (Units=GPa)
#
#
# Indices 1 2 3 4 5 6 
#
# 1 64.0255 7.7021 6.2485 0.0000 -15.5038 0.0000
# 2 7.7021 143.7896 -5.4953 0.0000 5.7758 0.0000
# 3 6.2485 -5.4953 57.0996 0.0000 -18.0730 0.0000
# 4 0.0000 0.0000 0.0000 -0.0902 0.0000 -16.3641
# 5 -15.5038 5.7758 -18.0730 0.0000 29.8672 0.0000
# 6 0.0000 0.0000 0.0000 -16.3641 0.0000 22.5952
#
#
#
# Elastic Compliance Matrix: (Units=1/GPa)
#
#
# Indices 1 2 3 4 5 6 
#
# 1 0.018188 -0.001348 0.001176 0.000000 0.010413 0.000000
# 2 -0.001348 0.007113 0.000217 0.000000 -0.001944 0.000000
# 3 0.001176 0.000217 0.021751 0.000000 0.013731 0.000000
# 4 0.000000 0.000000 0.000000 -0.083741 0.000000 -0.060648
# 5 0.010413 -0.001944 0.013731 0.000000 0.047572 0.000000
# 6 0.000000 0.000000 0.000000 -0.060648 0.000000 0.000334
#
#
# Mechanical properties :
#
#
# Convention : Reuss Voigt Hill
#
# Bulk Modulus (GPa) = 21.21223 31.31393 26.26308
# Shear Modulus (GPa) = 186.28353 27.57173 106.92763
#
# Velocity S-wave (km/s) = 9.23221 3.55182 6.99461
# Velocity P-wave (km/s) = 11.10633 5.58106 8.78916
#
# Compressibility (1/GPa) = 0.04714261
#
# Stress axis : x y z
#
# Youngs Moduli (GPa) = 54.98219 140.58459 45.97404
#
# Poissons Ratio (x) = 0.18945 -0.05406
# Poissons Ratio (y) = 0.07409 -0.00997
# Poissons Ratio (z) = -0.06466 -0.03047
#
# Static dielectric constant tensor:
#      x y z
#    x 3.976520 0.000000 -0.301660 
#    y 0.000000 4.022840 0.000000 
#    z -0.301660 0.000000 4.031150 
# 
# 
# High freq. dielectric constant tensor:
#      x y z
#    x 1.846490 0.000000 -0.038380 
#    y 0.000000 1.869150 0.000000 
#    z -0.038380 0.000000 1.855850 
# 
# From -- ./inp_files/26037.got.cif
#   From: 2010.06.25/outbox.cif.g09.slc.cpg/sg10_14_cif.got.tgz:26037.got - 2010.06.27 22:07:45.
