data_PCOD8057617
_publ_section_title
;
Structure prediction by ZEFSAII (Michael W. Deem and Ramdas Pophale) SiO2 
 PCOD8057617
Probable space group: P 2/M
;
_chemical_formula_sum "Si O2"
_cell_formula_units_Z 30
_cell_length_a 16.205571
_cell_length_b 9.757437
_cell_length_c 11.158649
_cell_angle_alpha 90.000000
_cell_angle_beta 102.000304
_cell_angle_gamma 90.000000
_cell_volume 1725.899945
_symmetry_space_group_name_H-M "P 2/M"
_symmetry_group_IT_number 10
_symmetry_cell_setting 'monoclinic'
loop_
_space_group_symop_operation_xyz
x,y,z
-x,y,-z
-x,-y,-z
x,-y,z
loop_
_atom_site_type_symbol
_atom_site_label
_atom_site_fract_x
_atom_site_fract_y
_atom_site_fract_z
Si Si1 0.133536 0.659285 0.862005
Si Si2 0.496490 0.849229 0.641865
Si Si3 0.000000 0.786693 0.500000
Si Si4 0.355031 0.660594 0.313991
Si Si5 0.682730 0.159205 0.469173
Si Si6 0.051754 0.656678 0.274443
Si Si7 0.814117 0.658969 0.865551
Si Si8 0.829451 0.850476 0.338236
O O1 0.156980 0.500000 0.852166
O O2 0.179151 0.741152 0.769813
O O3 0.033684 0.683495 0.824587
O O4 0.165547 0.721601 0.997751
O O5 0.500000 0.849499 0.500000
O O6 0.559480 0.732100 0.710522
O O7 0.398471 0.817685 0.643289
O O8 0.523188 0.000000 0.699308
O O9 0.954199 0.700825 0.589789
O O10 0.924738 0.871280 0.416419
O O11 0.371875 0.500000 0.346568
O O12 0.321911 0.737246 0.421522
O O13 0.284334 0.679468 0.191114
O O14 0.767195 0.198524 0.424354
O O15 0.684050 0.000000 0.513968
O O16 0.075425 0.500000 0.290114
O O17 0.127365 0.728630 0.220741
O O18 0.838916 0.500000 0.880894
O O19 0.800889 0.000000 0.282289
#
# Coordination Sequence:
#
# PCOD8057617 Si02
#       8
#     4   4   2   4   4   4   4   4
#     4   9  18  32  49  66  87 121 161 194 223 260
#     4   8  15  29  46  64  90 122 152 182 221 272
#     4  10  18  28  46  70  99 124 145 182 233 276
#     4  10  18  27  45  73  99 119 144 186 233 273
#     4   9  18  32  48  66  92 125 154 181 222 277
#     4   9  16  27  46  70  94 122 156 189 219 263
#     4   9  17  29  45  67  95 123 152 188 229 268
#     4  10  20  33  48  67  93 123 153 187 230 273
#
# _framework density 17.382235000000001
#
# number of rings (size 3 to 8) (size 9 to 14) (size 15 to 20)
#    0.000    2.800    0.000    2.800    0.000    5.067 
#    0.000    1.333    0.000    8.800    0.000    5.600 
#    0.000    0.000    0.000    0.000    0.000    0.000 
#
# Total GULP energy -371730.101641 kJ/mol
# GULP energy per Si atom -12391.003388 kJ/mol
# Density = 1.734267 g / cm^3
# Si number density = 17.382235 Si / 1000 Ang^3
#
#
#
# Elastic Constant Matrix: (Units=GPa)
#
#
# Indices 1 2 3 4 5 6 
#
# 1 79.2709 30.0462 26.7721 0.0000 1.0892 0.0000
# 2 30.0462 72.4477 36.3371 0.0000 4.7724 0.0000
# 3 26.7721 36.3371 87.7385 0.0000 0.5185 0.0000
# 4 0.0000 0.0000 0.0000 7.7199 0.0000 0.3118
# 5 1.0892 4.7724 0.5185 0.0000 15.2669 0.0000
# 6 0.0000 0.0000 0.0000 0.3118 0.0000 25.3727
#
#
#
# Elastic Compliance Matrix: (Units=1/GPa)
#
#
# Indices 1 2 3 4 5 6 
#
# 1 0.015428 -0.005143 -0.002581 0.000000 0.000595 0.000000
# 2 -0.005143 0.019560 -0.006499 0.000000 -0.005527 0.000000
# 3 -0.002581 -0.006499 0.014866 0.000000 0.001711 0.000000
# 4 0.000000 0.000000 0.000000 0.129599 0.000000 -0.001593
# 5 0.000595 -0.005527 0.001711 0.000000 0.067128 0.000000
# 6 0.000000 0.000000 0.000000 -0.001593 0.000000 0.039432
#
#
# Mechanical properties :
#
#
# Convention : Reuss Voigt Hill
#
# Bulk Modulus (GPa) = 46.71082 47.30754 47.00918
# Shear Modulus (GPa) = 15.54751 19.42536 17.48644
#
# Velocity S-wave (km/s) = 2.99398 3.34659 3.17518
# Velocity P-wave (km/s) = 6.23562 6.49677 6.36753
#
# Compressibility (1/GPa) = 0.02140832
#
# Stress axis : x y z
#
# Youngs Moduli (GPa) = 64.81779 51.12599 67.26565
#
# Poissons Ratio (x) = 0.26294 0.17362
# Poissons Ratio (y) = 0.33335 0.43714
# Poissons Ratio (z) = 0.16730 0.33225
#
# Static dielectric constant tensor:
#      x y z
#    x 3.517440 0.000000 0.091170 
#    y 0.000000 3.119830 0.000000 
#    z 0.091170 0.000000 3.092070 
# 
# 
# High freq. dielectric constant tensor:
#      x y z
#    x 1.677240 0.000000 0.009310 
#    y 0.000000 1.655220 0.000000 
#    z 0.009310 0.000000 1.643240 
# 
# From -- ./inp_files/52844.got.cif
#   From: 2010.06.25/outbox.cif.g09.slc.cpg/sg10_27_cif.got.tgz:52844.got - 2010.06.27 22:07:45.
