data_PCOD8057925
_publ_section_title
;
Structure prediction by ZEFSAII (Michael W. Deem and Ramdas Pophale) SiO2 
 PCOD8057925
Probable space group: P 2/M
;
_chemical_formula_sum "Si O2"
_cell_formula_units_Z 28
_cell_length_a 14.221056
_cell_length_b 9.182004
_cell_length_c 17.288538
_cell_angle_alpha 90.000000
_cell_angle_beta 130.793892
_cell_angle_gamma 90.000000
_cell_volume 1709.072928
_symmetry_space_group_name_H-M "P 2/M"
_symmetry_group_IT_number 10
_symmetry_cell_setting 'monoclinic'
loop_
_space_group_symop_operation_xyz
x,y,z
-x,y,-z
-x,-y,-z
x,-y,z
loop_
_atom_site_type_symbol
_atom_site_label
_atom_site_fract_x
_atom_site_fract_y
_atom_site_fract_z
Si Si1 0.184069 0.665203 0.082612
Si Si2 0.079321 0.329508 0.859193
Si Si3 0.148637 0.170663 0.214344
Si Si4 0.528090 0.168259 0.138784
Si Si5 0.566733 0.169933 0.614080
Si Si6 0.699309 0.168565 0.089934
Si Si7 0.527209 0.333227 0.744424
O O1 0.149368 0.500000 0.087343
O O2 0.125663 0.770706 0.115294
O O3 0.330443 0.686099 0.155672
O O4 0.128015 0.708151 0.970587
O O5 0.065201 0.500000 0.835933
O O6 0.176671 0.264243 0.850372
O O7 0.945662 0.251578 0.777763
O O8 0.288061 0.209241 0.315832
O O9 0.122034 0.000000 0.201895
O O10 0.646587 0.192948 0.147603
O O11 0.551571 0.259846 0.229220
O O12 0.514474 0.000000 0.154271
O O13 0.403668 0.220080 0.027519
O O14 0.500000 0.219997 0.500000
O O15 0.501531 0.255458 0.649055
O O16 0.548202 0.000000 0.620598
O O17 0.732127 0.000000 0.093780
O O18 0.486535 0.500000 0.714794
#
# Coordination Sequence:
#
# PCOD8057925 Si02
#       7
#     4   4   4   4   4   4   4
#     4   9  18  30  41  60  92 127 157 186 222 267
#     4  11  20  30  43  63  94 130 159 188 228 272
#     4  10  20  31  46  67  88 117 156 194 230 276
#     4   9  17  30  46  66  93 126 162 199 234 265
#     4   9  19  36  54  71  92 119 153 195 241 285
#     4   9  18  30  45  65  92 127 166 201 227 261
#     4  10  18  29  47  71  97 125 157 192 232 279
#
# _framework density 16.383151000000002
#
# number of rings (size 3 to 8) (size 9 to 14) (size 15 to 20)
#    0.000    2.429    1.429    2.571    0.000    4.857 
#    0.000    1.429    0.000    0.000    0.000    1.000 
#    0.000    8.000    0.000    0.000    0.000    0.000 
#
# Total GULP energy -347232.080002 kJ/mol
# GULP energy per Si atom -12401.145714 kJ/mol
# Density = 1.634586 g / cm^3
# Si number density = 16.383151 Si / 1000 Ang^3
#
#
#
# Elastic Constant Matrix: (Units=GPa)
#
#
# Indices 1 2 3 4 5 6 
#
# 1 110.0742 61.8587 36.8890 0.0000 -5.8730 0.0000
# 2 61.8587 86.5297 32.2403 0.0000 -8.5494 0.0000
# 3 36.8890 32.2403 58.2372 0.0000 -14.1738 0.0000
# 4 0.0000 0.0000 0.0000 17.0003 0.0000 -0.7737
# 5 -5.8730 -8.5494 -14.1738 0.0000 18.8191 0.0000
# 6 0.0000 0.0000 0.0000 -0.7737 0.0000 24.4707
#
#
#
# Elastic Compliance Matrix: (Units=1/GPa)
#
#
# Indices 1 2 3 4 5 6 
#
# 1 0.016421 -0.009946 -0.005814 0.000000 -0.003772 0.000000
# 2 -0.009946 0.020591 -0.004381 0.000000 0.002951 0.000000
# 3 -0.005814 -0.004381 0.027370 0.000000 0.016810 0.000000
# 4 0.000000 0.000000 0.000000 0.058907 0.000000 0.001862
# 5 -0.003772 0.002951 0.016810 0.000000 0.065961 0.000000
# 6 0.000000 0.000000 0.000000 0.001862 0.000000 0.040924
#
#
# Mechanical properties :
#
#
# Convention : Reuss Voigt Hill
#
# Bulk Modulus (GPa) = 41.49188 57.42412 49.45800
# Shear Modulus (GPa) = 17.95405 20.31489 19.13447
#
# Velocity S-wave (km/s) = 3.31401 3.52516 3.42122
# Velocity P-wave (km/s) = 6.32649 7.18998 6.77201
#
# Compressibility (1/GPa) = 0.02410110
#
# Stress axis : x y z
#
# Youngs Moduli (GPa) = 60.89740 48.56576 36.53619
#
# Poissons Ratio (x) = 0.48302 0.21241
# Poissons Ratio (y) = 0.60567 0.16006
# Poissons Ratio (z) = 0.35404 0.21277
#
# Static dielectric constant tensor:
#      x y z
#    x 3.103810 0.000000 0.039210 
#    y 0.000000 3.096870 0.000000 
#    z 0.039210 0.000000 2.786870 
# 
# 
# High freq. dielectric constant tensor:
#      x y z
#    x 1.631900 0.000000 0.001740 
#    y 0.000000 1.637280 0.000000 
#    z 0.001740 0.000000 1.583850 
# 
# From -- ./inp_files/65774.got.cif
#   From: 2010.06.25/outbox.cif.g09.slc.cpg/sg10_33_cif.got.tgz:65774.got - 2010.06.27 22:07:45.
