data_PCOD8057864
_publ_section_title
;
Structure prediction by ZEFSAII (Michael W. Deem and Ramdas Pophale) SiO2 
 PCOD8057864
Probable space group: P 2/M
;
_chemical_formula_sum "Si O2"
_cell_formula_units_Z 30
_cell_length_a 12.394635
_cell_length_b 29.361587
_cell_length_c 5.075339
_cell_angle_alpha 90.000000
_cell_angle_beta 72.112440
_cell_angle_gamma 90.000000
_cell_volume 1757.764331
_symmetry_space_group_name_H-M "P 2/M"
_symmetry_group_IT_number 10
_symmetry_cell_setting 'monoclinic'
loop_
_space_group_symop_operation_xyz
x,y,z
-x,y,-z
-x,-y,-z
x,-y,z
loop_
_atom_site_type_symbol
_atom_site_label
_atom_site_fract_x
_atom_site_fract_y
_atom_site_fract_z
Si Si1 0.634360 0.894484 0.894881
Si Si2 0.077587 0.500000 0.689967
Si Si3 0.747006 0.798613 0.799137
Si Si4 0.919799 0.401558 0.308390
Si Si5 0.761663 0.320612 0.271263
Si Si6 0.875386 0.226876 0.196762
Si Si7 0.634708 0.949186 0.396134
Si Si8 0.631169 0.704742 0.863679
O O1 0.687101 0.845989 0.788586
O O2 0.676996 0.929328 0.640526
O O3 0.500000 0.888623 0.000000
O O4 0.678732 0.915654 0.134507
O O5 0.143749 0.451439 0.625640
O O6 0.000000 0.500000 0.500000
O O7 0.000000 0.500000 0.000000
O O8 0.849067 0.790691 0.512185
O O9 0.654011 0.758698 0.857208
O O10 0.792941 0.799597 0.060908
O O11 0.820092 0.366239 0.330968
O O12 0.000000 0.390088 0.500000
O O13 0.000000 0.400688 0.000000
O O14 0.856178 0.281095 0.202450
O O15 0.660546 0.311217 0.548994
O O16 0.706585 0.323151 0.021208
O O17 0.000000 0.215803 0.000000
O O18 0.500000 0.951635 0.500000
O O19 0.684668 0.000000 0.318836
O O20 0.500000 0.694405 0.000000
#
# Coordination Sequence:
#
# PCOD8057864 Si02
#       8
#     4   2   4   4   4   4   4   4
#     4  10  18  29  46  67  94 124 151 182 219 266
#     4   8  16  28  44  68  97 126 149 186 242 290
#     4  10  20  32  48  69  92 122 159 187 225 277
#     4  10  18  30  48  72 101 125 154 194 238 291
#     4  10  20  31  49  72  91 126 163 189 234 285
#     4  10  20  33  47  66  95 122 150 192 232 270
#     4   9  17  28  43  65  94 124 149 178 222 271
#     4  10  20  34  48  67  96 126 161 201 231 264
#
# _framework density 17.067132999999998
#
# number of rings (size 3 to 8) (size 9 to 14) (size 15 to 20)
#    0.000    2.267    0.000    3.600    0.000    3.733 
#    0.000    4.000    0.000    0.000    0.000    2.800 
#    0.000   37.333    0.000    0.000    0.000    0.000 
#
# Total GULP energy -371801.810449 kJ/mol
# GULP energy per Si atom -12393.393682 kJ/mol
# Density = 1.702829 g / cm^3
# Si number density = 17.067133 Si / 1000 Ang^3
#
#
#
# Elastic Constant Matrix: (Units=GPa)
#
#
# Indices 1 2 3 4 5 6 
#
# 1 39.7328 38.0052 21.7162 0.0000 -0.0382 0.0000
# 2 38.0052 109.3588 16.3721 0.0000 2.4316 0.0000
# 3 21.7162 16.3721 77.7701 0.0000 15.6846 0.0000
# 4 0.0000 0.0000 0.0000 16.3453 0.0000 4.6151
# 5 -0.0382 2.4316 15.6846 0.0000 26.8738 0.0000
# 6 0.0000 0.0000 0.0000 4.6151 0.0000 19.5215
#
#
#
# Elastic Compliance Matrix: (Units=1/GPa)
#
#
# Indices 1 2 3 4 5 6 
#
# 1 0.044661 -0.014034 -0.011091 0.000000 0.007807 0.000000
# 2 -0.014034 0.013855 0.001427 0.000000 -0.002106 0.000000
# 3 -0.011091 0.001427 0.017777 0.000000 -0.010520 0.000000
# 4 0.000000 0.000000 0.000000 0.065555 0.000000 -0.015498
# 5 0.007807 -0.002106 -0.010520 0.000000 0.043553 0.000000
# 6 0.000000 0.000000 0.000000 -0.015498 0.000000 0.054890
#
#
# Mechanical properties :
#
#
# Convention : Reuss Voigt Hill
#
# Bulk Modulus (GPa) = 34.60644 42.11651 38.36148
# Shear Modulus (GPa) = 16.81695 22.59935 19.70815
#
# Velocity S-wave (km/s) = 3.14242 3.64283 3.40184
# Velocity P-wave (km/s) = 5.78680 6.51338 6.16081
#
# Compressibility (1/GPa) = 0.02889636
#
# Stress axis : x y z
#
# Youngs Moduli (GPa) = 22.39067 72.17771 56.25345
#
# Poissons Ratio (x) = 1.01296 0.62391
# Poissons Ratio (y) = 0.31424 -0.08027
# Poissons Ratio (z) = 0.24834 -0.10300
#
# Static dielectric constant tensor:
#      x y z
#    x 2.845320 0.000000 0.286720 
#    y 0.000000 2.954180 0.000000 
#    z 0.286720 0.000000 3.359070 
# 
# 
# High freq. dielectric constant tensor:
#      x y z
#    x 1.621620 0.000000 0.028760 
#    y 0.000000 1.658520 0.000000 
#    z 0.028760 0.000000 1.674100 
# 
# From -- ./inp_files/8152.got.cif
#   From: 2010.06.25/outbox.cif.g09.slc.cpg/sg10_5_cif.got.tgz:8152.got - 2010.06.27 22:07:45.
