data_PCOD8057848
_publ_section_title
;
Structure prediction by ZEFSAII (Michael W. Deem and Ramdas Pophale) SiO2 
 PCOD8057848
Probable space group: P 2/M
;
_chemical_formula_sum "Si O2"
_cell_formula_units_Z 32
_cell_length_a 15.102810
_cell_length_b 9.059728
_cell_length_c 14.874326
_cell_angle_alpha 90.000000
_cell_angle_beta 79.688512
_cell_angle_gamma 90.000000
_cell_volume 2002.344209
_symmetry_space_group_name_H-M "P 2/M"
_symmetry_group_IT_number 10
_symmetry_cell_setting 'monoclinic'
loop_
_space_group_symop_operation_xyz
x,y,z
-x,y,-z
-x,-y,-z
x,-y,z
loop_
_atom_site_type_symbol
_atom_site_label
_atom_site_fract_x
_atom_site_fract_y
_atom_site_fract_z
Si Si1 0.213842 0.172983 0.430785
Si Si2 0.133971 0.174404 0.921381
Si Si3 0.610488 0.674365 0.574264
Si Si4 0.936799 0.172821 0.684437
Si Si5 0.241910 0.327202 0.759358
Si Si6 0.880213 0.673601 0.386773
Si Si7 0.588249 0.674110 0.375492
Si Si8 0.944041 0.174414 0.883367
O O1 0.312309 0.235801 0.387483
O O2 0.150538 0.208545 0.357898
O O3 0.179281 0.256008 0.524717
O O4 0.218110 0.000000 0.449988
O O5 0.218883 0.249795 0.857883
O O6 0.043531 0.232860 0.888941
O O7 0.145167 0.000000 0.910522
O O8 0.127912 0.225350 0.027406
O O9 0.629278 0.500000 0.577690
O O10 0.609847 0.731799 0.471525
O O11 0.513443 0.715493 0.635688
O O12 0.915908 0.229717 0.789516
O O13 0.020428 0.259272 0.627308
O O14 0.961152 0.000000 0.678861
O O15 0.247772 0.500000 0.775971
O O16 0.165898 0.288736 0.699716
O O17 0.338412 0.263448 0.708162
O O18 0.885510 0.500000 0.402732
O O19 0.598412 0.500000 0.379244
O O20 0.948386 0.000000 0.886418
#
# Coordination Sequence:
#
# PCOD8057848 Si02
#       8
#     4   4   4   4   4   4   4   4
#     4  11  22  32  45  66  93 124 155 189 228 263
#     4   9  16  28  48  68  86 115 152 186 222 269
#     4   9  16  31  51  66  85 118 155 189 221 268
#     4  10  20  34  48  63  90 126 157 188 226 265
#     4  10  18  29  45  69  95 119 146 181 227 272
#     4  11  21  32  46  65  92 126 160 189 214 256
#     4   8  15  29  49  67  87 118 152 182 225 276
#     4   8  15  29  47  65  86 116 154 187 219 267
#
# _framework density 15.981268999999999
#
# number of rings (size 3 to 8) (size 9 to 14) (size 15 to 20)
#    0.000    2.500    2.500    2.625    0.000    3.000 
#    0.000    3.750    0.000    0.000    0.000    0.875 
#    0.000    7.000    0.000    0.000    0.000    0.000 
#
# Total GULP energy -396659.944902 kJ/mol
# GULP energy per Si atom -12395.623278 kJ/mol
# Density = 1.594489 g / cm^3
# Si number density = 15.981269 Si / 1000 Ang^3
#
#
#
# Elastic Constant Matrix: (Units=GPa)
#
#
# Indices 1 2 3 4 5 6 
#
# 1 111.0117 36.5190 36.3908 0.0000 -15.8870 0.0000
# 2 36.5190 41.8058 23.5050 0.0000 -2.3142 0.0000
# 3 36.3908 23.5050 66.6960 0.0000 -18.4954 0.0000
# 4 0.0000 0.0000 0.0000 19.3905 0.0000 -5.8417
# 5 -15.8870 -2.3142 -18.4954 0.0000 24.7673 0.0000
# 6 0.0000 0.0000 0.0000 -5.8417 0.0000 16.2932
#
#
#
# Elastic Compliance Matrix: (Units=1/GPa)
#
#
# Indices 1 2 3 4 5 6 
#
# 1 0.014207 -0.010859 -0.002117 0.000000 0.006517 0.000000
# 2 -0.010859 0.038954 -0.011004 0.000000 -0.011543 0.000000
# 3 -0.002117 -0.011004 0.024423 0.000000 0.015852 0.000000
# 4 0.000000 0.000000 0.000000 0.057817 0.000000 0.020730
# 5 0.006517 -0.011543 0.015852 0.000000 0.055315 0.000000
# 6 0.000000 0.000000 0.000000 0.020730 0.000000 0.068808
#
#
# Mechanical properties :
#
#
# Convention : Reuss Voigt Hill
#
# Bulk Modulus (GPa) = 33.75863 45.81589 39.78726
# Shear Modulus (GPa) = 15.75502 20.29681 18.02592
#
# Velocity S-wave (km/s) = 3.14322 3.56762 3.36213
# Velocity P-wave (km/s) = 5.86028 6.76028 6.32630
#
# Compressibility (1/GPa) = 0.02962205
#
# Stress axis : x y z
#
# Youngs Moduli (GPa) = 70.38699 25.67121 40.94566
#
# Poissons Ratio (x) = 0.27877 0.08670
# Poissons Ratio (y) = 0.76435 0.45058
# Poissons Ratio (z) = 0.14904 0.28249
#
# Static dielectric constant tensor:
#      x y z
#    x 3.100100 0.000000 -0.170660 
#    y 0.000000 2.813650 0.000000 
#    z -0.170660 0.000000 3.239550 
# 
# 
# High freq. dielectric constant tensor:
#      x y z
#    x 1.601000 0.000000 -0.015200 
#    y 0.000000 1.595270 0.000000 
#    z -0.015200 0.000000 1.601300 
# 
# From -- ./inp_files/66004.got.cif
#   From: 2010.06.25/outbox.cif.g09.slc.cpg/sg10_34_cif.got.tgz:66004.got - 2010.06.27 22:07:45.
