data_PCOD8057292
_publ_section_title
;
Structure prediction by ZEFSAII (Michael W. Deem and Ramdas Pophale) SiO2 
 PCOD8057292
Probable space group: P 2/M
;
_chemical_formula_sum "Si O2"
_cell_formula_units_Z 24
_cell_length_a 15.866356
_cell_length_b 13.663460
_cell_length_c 9.626324
_cell_angle_alpha 90.000000
_cell_angle_beta 142.386068
_cell_angle_gamma 90.000000
_cell_volume 1273.704332
_symmetry_space_group_name_H-M "P 2/M"
_symmetry_group_IT_number 10
_symmetry_cell_setting 'monoclinic'
loop_
_space_group_symop_operation_xyz
x,y,z
-x,y,-z
-x,-y,-z
x,-y,z
loop_
_atom_site_type_symbol
_atom_site_label
_atom_site_fract_x
_atom_site_fract_y
_atom_site_fract_z
Si Si1 0.882479 0.605262 0.959541
Si Si2 0.401450 0.886498 0.250279
Si Si3 0.442696 0.783315 0.773750
Si Si4 0.168883 0.884980 0.351734
Si Si5 0.118744 0.815130 0.975519
Si Si6 0.577080 0.610282 0.460607
O O1 0.886610 0.500000 0.046439
O O2 0.903507 0.699329 0.084784
O O3 0.739433 0.615592 0.693011
O O4 0.000000 0.606675 0.000000
O O5 0.500000 0.840367 0.500000
O O6 0.466539 0.865068 0.185751
O O7 0.245410 0.846633 0.045276
O O8 0.390461 0.000000 0.262987
O O9 0.287965 0.825730 0.586548
O O10 0.459662 0.681848 0.713273
O O11 0.500000 0.763486 0.000000
O O12 0.158547 0.837100 0.186578
O O13 0.203992 0.000000 0.385540
O O14 0.024216 0.871191 0.245937
O O15 0.500000 0.645119 0.500000
O O16 0.529149 0.500000 0.359069
#
# Coordination Sequence:
#
# PCOD8057292 Si02
#       6
#     4   4   4   4   4   4
#     4  10  17  28  51  82 113 139 170 223 285 336
#     4  11  21  35  57  82 109 145 193 242 283 330
#     4  12  24  38  56  81 119 156 186 232 286 347
#     4  11  21  34  54  82 112 149 191 236 290 337
#     4  11  18  34  57  83 112 139 190 248 286 329
#     4  10  20  37  60  85 112 145 188 237 281 329
#
# _framework density 18.842676999999998
#
# number of rings (size 3 to 8) (size 9 to 14) (size 15 to 20)
#    0.000    1.167    5.000    4.000    0.000    1.667 
#    0.000    0.833    0.000    2.000    0.000    0.000 
#    0.000   18.667    0.000    0.000    0.000    0.000 
#
# Total GULP energy -297513.144857 kJ/mol
# GULP energy per Si atom -12396.381036 kJ/mol
# Density = 1.879979 g / cm^3
# Si number density = 18.842677 Si / 1000 Ang^3
#
#
#
# Elastic Constant Matrix: (Units=GPa)
#
#
# Indices 1 2 3 4 5 6 
#
# 1 99.8370 26.7114 61.8633 0.0000 22.5199 0.0000
# 2 26.7114 136.7238 35.5633 0.0000 0.3930 0.0000
# 3 61.8633 35.5633 92.1438 0.0000 12.6352 0.0000
# 4 0.0000 0.0000 0.0000 15.3366 0.0000 7.7734
# 5 22.5199 0.3930 12.6352 0.0000 34.3497 0.0000
# 6 0.0000 0.0000 0.0000 7.7734 0.0000 27.2930
#
#
#
# Elastic Compliance Matrix: (Units=1/GPa)
#
#
# Indices 1 2 3 4 5 6 
#
# 1 0.019202 -0.000748 -0.011456 0.000000 -0.008367 0.000000
# 2 -0.000748 0.008200 -0.002862 0.000000 0.001449 0.000000
# 3 -0.011456 -0.002862 0.019603 0.000000 0.000333 0.000000
# 4 0.000000 0.000000 0.000000 0.076204 0.000000 -0.021704
# 5 -0.008367 0.001449 0.000333 0.000000 0.034459 0.000000
# 6 0.000000 0.000000 0.000000 -0.021704 0.000000 0.042821
#
#
# Mechanical properties :
#
#
# Convention : Reuss Voigt Hill
#
# Bulk Modulus (GPa) = 59.26107 64.10896 61.68502
# Shear Modulus (GPa) = 21.16447 29.03364 25.09905
#
# Velocity S-wave (km/s) = 3.35508 3.92962 3.65366
# Velocity P-wave (km/s) = 6.82111 7.39502 7.11385
#
# Compressibility (1/GPa) = 0.01687448
#
# Stress axis : x y z
#
# Youngs Moduli (GPa) = 52.07701 121.94729 51.01282
#
# Poissons Ratio (x) = 0.09116 0.58441
# Poissons Ratio (y) = 0.03893 0.14598
# Poissons Ratio (z) = 0.59661 0.34898
#
# Static dielectric constant tensor:
#      x y z
#    x 3.461780 0.000000 0.497070 
#    y 0.000000 4.018870 0.000000 
#    z 0.497070 0.000000 3.217120 
# 
# 
# High freq. dielectric constant tensor:
#      x y z
#    x 1.721210 0.000000 0.052680 
#    y 0.000000 1.759930 0.000000 
#    z 0.052680 0.000000 1.688800 
# 
# From -- ./inp_files/29653.got.cif
#   From: 2010.06.25/outbox.cif.g09.slc.cpg/sg10_15_cif.got.tgz:29653.got - 2010.06.27 22:07:45.
