data_PCOD8057341
_publ_section_title
;
Structure prediction by ZEFSAII (Michael W. Deem and Ramdas Pophale) SiO2 
 PCOD8057341
Probable space group: P 2/M
;
_chemical_formula_sum "Si O2"
_cell_formula_units_Z 32
_cell_length_a 15.524838
_cell_length_b 9.260460
_cell_length_c 26.195723
_cell_angle_alpha 90.000000
_cell_angle_beta 152.744440
_cell_angle_gamma 90.000000
_cell_volume 1724.716616
_symmetry_space_group_name_H-M "P 2/M"
_symmetry_group_IT_number 10
_symmetry_cell_setting 'monoclinic'
loop_
_space_group_symop_operation_xyz
x,y,z
-x,y,-z
-x,-y,-z
x,-y,z
loop_
_atom_site_type_symbol
_atom_site_label
_atom_site_fract_x
_atom_site_fract_y
_atom_site_fract_z
Si Si1 0.446121 0.171601 0.234561
Si Si2 0.236583 0.666526 0.759277
Si Si3 0.160215 0.170990 0.999999
Si Si4 0.185324 0.171263 0.627520
Si Si5 0.302765 0.171263 0.372480
Si Si6 0.663983 0.334775 0.999999
Si Si7 0.742435 0.171601 0.765438
Si Si8 0.958751 0.333474 0.240722
O O1 0.272901 0.226465 0.108740
O O2 0.640287 0.232321 0.313926
O O3 0.410765 0.228068 0.273843
O O4 0.453279 0.000000 0.238225
O O5 0.219183 0.500000 0.733892
O O6 0.187559 0.762780 0.684841
O O7 0.443779 0.698958 0.890607
O O8 0.088606 0.705442 0.725738
O O9 0.255603 0.230392 0.999999
O O10 0.167873 0.000000 0.999999
O O11 0.946679 0.226466 0.891259
O O12 0.000000 0.220533 0.500000
O O13 0.195590 0.000000 0.639273
O O14 0.500000 0.220535 0.500000
O O15 0.301495 0.232320 0.313928
O O16 0.133032 0.237219 0.315156
O O17 0.277773 0.000000 0.360728
O O18 0.696077 0.500000 0.999999
O O19 0.771955 0.301045 0.109391
O O20 0.738601 0.000000 0.761774
O O21 0.017509 0.500000 0.266108
#
# Coordination Sequence:
#
# PCOD8057341 Si02
#       8
#     4   4   4   4   4   4   4   4
#     4   9  17  30  50  76 104 134 170 213 262 316
#     4  10  21  37  57  80 108 144 182 220 268 326
#     4  10  17  29  53  78 100 132 175 217 265 322
#     4  10  21  36  55  80 108 140 180 225 268 312
#     4  10  21  36  55  80 108 140 180 225 268 312
#     4  10  19  33  55  80 108 140 175 219 273 324
#     4   9  17  30  50  76 104 134 170 213 262 316
#     4  10  21  37  57  80 108 144 182 220 268 326
#
# _framework density 18.553774000000001
#
# number of rings (size 3 to 8) (size 9 to 14) (size 15 to 20)
#    0.000    2.250    2.500    0.750    0.000    5.000 
#    0.000    2.500    0.000    6.000    0.000    0.000 
#    0.000    0.000    0.000    0.000    0.000    0.000 
#
# Total GULP energy -396747.825999 kJ/mol
# GULP energy per Si atom -12398.369562 kJ/mol
# Density = 1.851154 g / cm^3
# Si number density = 18.553774 Si / 1000 Ang^3
#
#
#
# Elastic Constant Matrix: (Units=GPa)
#
#
# Indices 1 2 3 4 5 6 
#
# 1 158.8511 27.5547 77.8082 0.0000 -4.1434 0.0000
# 2 27.5547 21.5661 32.6724 0.0000 0.3732 0.0000
# 3 77.8082 32.6724 151.3349 0.0000 3.5873 0.0000
# 4 0.0000 0.0000 0.0000 14.6856 0.0000 -0.5771
# 5 -4.1434 0.3732 3.5873 0.0000 12.7673 0.0000
# 6 0.0000 0.0000 0.0000 -0.5771 0.0000 22.5838
#
#
#
# Elastic Compliance Matrix: (Units=1/GPa)
#
#
# Indices 1 2 3 4 5 6 
#
# 1 0.009232 -0.006728 -0.003392 0.000000 0.004146 0.000000
# 2 -0.006728 0.073870 -0.012469 0.000000 -0.000839 0.000000
# 3 -0.003392 -0.012469 0.011136 0.000000 -0.003865 0.000000
# 4 0.000000 0.000000 0.000000 0.068162 0.000000 0.001742
# 5 0.004146 -0.000839 -0.003865 0.000000 0.080781 0.000000
# 6 0.000000 0.000000 0.000000 0.001742 0.000000 0.044324
#
#
# Mechanical properties :
#
#
# Convention : Reuss Voigt Hill
#
# Bulk Modulus (GPa) = 20.38360 67.53586 43.95973
# Shear Modulus (GPa) = 14.32512 22.92181 18.62347
#
# Velocity S-wave (km/s) = 2.78166 3.51868 3.17165
# Velocity P-wave (km/s) = 4.61811 7.27923 6.09566
#
# Compressibility (1/GPa) = 0.04905904
#
# Stress axis : x y z
#
# Youngs Moduli (GPa) = 108.31860 13.53724 89.80148
#
# Poissons Ratio (x) = 0.09108 0.30464
# Poissons Ratio (y) = 0.72876 1.11975
# Poissons Ratio (z) = 0.36745 0.16880
#
# Static dielectric constant tensor:
#      x y z
#    x 3.620190 0.000000 0.000210 
#    y 0.000000 3.077850 0.000000 
#    z 0.000210 0.000000 3.623120 
# 
# 
# High freq. dielectric constant tensor:
#      x y z
#    x 1.733170 0.000000 -0.000650 
#    y 0.000000 1.681370 0.000000 
#    z -0.000650 0.000000 1.724220 
# 
# From -- ./inp_files/66490.got.cif
#   From: 2010.06.25/outbox.cif.g09.slc.cpg/sg10_34_cif.got.tgz:66490.got - 2010.06.27 22:07:45.
