data_PCOD8057998
_publ_section_title
;
Structure prediction by ZEFSAII (Michael W. Deem and Ramdas Pophale) SiO2 
 PCOD8057998
Probable space group: P 2/M
;
_chemical_formula_sum "Si O2"
_cell_formula_units_Z 24
_cell_length_a 11.182206
_cell_length_b 9.214903
_cell_length_c 19.788025
_cell_angle_alpha 90.000000
_cell_angle_beta 43.205731
_cell_angle_gamma 90.000000
_cell_volume 1395.951405
_symmetry_space_group_name_H-M "P 2/M"
_symmetry_group_IT_number 10
_symmetry_cell_setting 'monoclinic'
loop_
_space_group_symop_operation_xyz
x,y,z
-x,y,-z
-x,-y,-z
x,-y,z
loop_
_atom_site_type_symbol
_atom_site_label
_atom_site_fract_x
_atom_site_fract_y
_atom_site_fract_z
Si Si1 0.239686 0.666977 0.151497
Si Si2 0.616849 0.666401 0.051882
Si Si3 0.619915 0.336052 0.516202
Si Si4 0.102070 0.830398 0.674884
Si Si5 0.661430 0.831205 0.294747
Si Si6 0.804734 0.171437 0.091296
O O1 0.177685 0.500000 0.180083
O O2 0.411378 0.689796 0.125707
O O3 0.093268 0.770685 0.242248
O O4 0.278456 0.712414 0.058427
O O5 0.656959 0.500000 0.052821
O O6 0.674723 0.765149 0.089682
O O7 0.500000 0.333275 0.500000
O O8 0.666378 0.500000 0.518647
O O9 0.797163 0.248979 0.427709
O O10 0.515932 0.258368 0.619653
O O11 0.194268 0.796884 0.708125
O O12 0.098496 0.000000 0.660145
O O13 0.740902 0.779427 0.191247
O O14 0.611460 0.000000 0.315516
O O15 0.802242 0.000000 0.084471
O O16 0.000000 0.232349 0.000000
#
# Coordination Sequence:
#
# PCOD8057998 Si02
#       6
#     4   4   4   4   4   4
#     4   9  18  33  50  69  96 126 158 199 240 277
#     4   9  19  34  50  69  95 128 162 196 236 280
#     4   9  17  29  46  69  96 125 158 196 237 280
#     4  10  18  29  49  74  97 124 159 195 236 285
#     4   9  18  31  46  68 100 131 157 192 236 280
#     4  10  20  33  49  71 100 130 159 193 233 279
#
# _framework density 17.192575999999999
#
# number of rings (size 3 to 8) (size 9 to 14) (size 15 to 20)
#    0.000    2.667    0.000    3.000    0.000    6.333 
#    0.000    1.667    0.000    1.000    0.000    7.000 
#    0.000    0.000    0.000    0.000    0.000    0.000 
#
# Total GULP energy -297639.404067 kJ/mol
# GULP energy per Si atom -12401.641836 kJ/mol
# Density = 1.715345 g / cm^3
# Si number density = 17.192576 Si / 1000 Ang^3
#
#
#
# Elastic Constant Matrix: (Units=GPa)
#
#
# Indices 1 2 3 4 5 6 
#
# 1 59.3218 31.9314 44.6906 0.0000 2.5809 0.0000
# 2 31.9314 76.5472 67.2082 0.0000 -5.8619 0.0000
# 3 44.6906 67.2082 153.2252 0.0000 -7.1569 0.0000
# 4 0.0000 0.0000 0.0000 34.6009 0.0000 -3.4901
# 5 2.5809 -5.8619 -7.1569 0.0000 24.6997 0.0000
# 6 0.0000 0.0000 0.0000 -3.4901 0.0000 27.5811
#
#
#
# Elastic Compliance Matrix: (Units=1/GPa)
#
#
# Indices 1 2 3 4 5 6 
#
# 1 0.023888 -0.006565 -0.004336 0.000000 -0.005310 0.000000
# 2 -0.006565 0.023188 -0.008076 0.000000 0.003849 0.000000
# 3 -0.004336 -0.008076 0.011420 0.000000 0.001845 0.000000
# 4 0.000000 0.000000 0.000000 0.029275 0.000000 0.003704
# 5 -0.005310 0.003849 0.001845 0.000000 0.042489 0.000000
# 6 0.000000 0.000000 0.000000 0.003704 0.000000 0.036726
#
#
# Mechanical properties :
#
#
# Convention : Reuss Voigt Hill
#
# Bulk Modulus (GPa) = 48.68065 64.08387 56.38226
# Shear Modulus (GPa) = 23.60862 27.06059 25.33460
#
# Velocity S-wave (km/s) = 3.70967 3.97163 3.84289
# Velocity P-wave (km/s) = 6.83559 7.64113 7.24956
#
# Compressibility (1/GPa) = 0.02054204
#
# Stress axis : x y z
#
# Youngs Moduli (GPa) = 41.86130 43.12580 87.56781
#
# Poissons Ratio (x) = 0.28310 0.37970
# Poissons Ratio (y) = 0.27480 0.70723
# Poissons Ratio (z) = 0.18152 0.34830
#
# Static dielectric constant tensor:
#      x y z
#    x 2.880460 0.000000 -0.039800 
#    y 0.000000 3.197880 0.000000 
#    z -0.039800 0.000000 3.317550 
# 
# 
# High freq. dielectric constant tensor:
#      x y z
#    x 1.630540 0.000000 -0.008190 
#    y 0.000000 1.666790 0.000000 
#    z -0.008190 0.000000 1.672300 
# 
# From -- ./inp_files/45159.got.cif
#   From: 2010.06.25/outbox.cif.g09.slc.cpg/sg10_23_cif.got.tgz:45159.got - 2010.06.27 22:07:45.
