data_PCOD8057404
_publ_section_title
;
Structure prediction by ZEFSAII (Michael W. Deem and Ramdas Pophale) SiO2 
 PCOD8057404
Probable space group: P 2/M
;
_chemical_formula_sum "Si O2"
_cell_formula_units_Z 24
_cell_length_a 14.862277
_cell_length_b 11.823921
_cell_length_c 15.583471
_cell_angle_alpha 90.000000
_cell_angle_beta 152.391277
_cell_angle_gamma 90.000000
_cell_volume 1269.100754
_symmetry_space_group_name_H-M "P 2/M"
_symmetry_group_IT_number 10
_symmetry_cell_setting 'monoclinic'
loop_
_space_group_symop_operation_xyz
x,y,z
-x,y,-z
-x,-y,-z
x,-y,z
loop_
_atom_site_type_symbol
_atom_site_label
_atom_site_fract_x
_atom_site_fract_y
_atom_site_fract_z
Si Si1 0.002376 0.758797 0.403060
Si Si2 0.823213 0.000000 0.686734
Si Si3 0.492432 0.183778 0.402498
Si Si4 0.075730 0.000000 0.728825
Si Si5 0.799466 0.000000 0.887944
Si Si6 0.633356 0.633543 0.033570
Si Si7 0.423302 0.756652 0.707529
Si Si8 0.568233 0.000000 0.864586
O O1 0.970830 0.892088 0.367883
O O2 0.842578 0.688728 0.217583
O O3 0.000000 0.723735 0.500000
O O4 0.201895 0.719207 0.528536
O O5 0.686009 0.107791 0.564948
O O6 0.958338 0.000000 0.718185
O O7 0.959397 0.000000 0.892063
O O8 0.500000 0.251778 0.500000
O O9 0.292603 0.110962 0.234918
O O10 0.501454 0.263267 0.326490
O O11 0.307444 0.000000 0.943016
O O12 0.722344 0.000000 0.919134
O O13 0.653950 0.500000 0.049485
O O14 0.500000 0.674321 0.000000
O O15 0.549860 0.675622 0.873269
O O16 0.435679 0.888364 0.746732
#
# Coordination Sequence:
#
# PCOD8057404 Si02
#       8
#     4   2   4   2   2   4   4   2
#     4  12  23  37  59  89 117 158 191 231 293 350
#     4  10  17  31  49  78 120 159 195 235 270 336
#     4  10  20  32  51  81 116 157 198 233 274 337
#     4  11  19  33  54  84 128 160 187 225 278 352
#     4   8  17  28  46  73 110 157 192 223 275 317
#     4  11  25  44  63  85 111 147 198 249 295 345
#     4  11  21  39  59  85 123 154 191 237 288 344
#     4   9  18  32  56  80 117 159 187 219 278 345
#
# _framework density 18.911027000000001
#
# number of rings (size 3 to 8) (size 9 to 14) (size 15 to 20)
#    0.000    1.500    5.000    2.250    0.000    2.333 
#    0.000    1.667    0.000    0.500    0.000    1.167 
#    0.000    0.000    0.000    0.000    0.000    0.000 
#
# Total GULP energy -297545.410219 kJ/mol
# GULP energy per Si atom -12397.725426 kJ/mol
# Density = 1.886799 g / cm^3
# Si number density = 18.911027 Si / 1000 Ang^3
#
#
#
# Elastic Constant Matrix: (Units=GPa)
#
#
# Indices 1 2 3 4 5 6 
#
# 1 100.2368 22.3301 54.1110 0.0000 -8.3203 0.0000
# 2 22.3301 53.9486 29.7002 0.0000 0.2594 0.0000
# 3 54.1110 29.7002 139.2853 0.0000 9.4124 0.0000
# 4 0.0000 0.0000 0.0000 9.5969 0.0000 2.8716
# 5 -8.3203 0.2594 9.4124 0.0000 35.9538 0.0000
# 6 0.0000 0.0000 0.0000 2.8716 0.0000 14.0065
#
#
#
# Elastic Compliance Matrix: (Units=1/GPa)
#
#
# Indices 1 2 3 4 5 6 
#
# 1 0.013705 -0.002941 -0.005001 0.000000 0.004502 0.000000
# 2 -0.002941 0.021671 -0.003483 0.000000 0.000075 0.000000
# 3 -0.005001 -0.003483 0.010121 0.000000 -0.003782 0.000000
# 4 0.000000 0.000000 0.000000 0.111011 0.000000 -0.022759
# 5 0.004502 0.000075 -0.003782 0.000000 0.029845 0.000000
# 6 0.000000 0.000000 0.000000 -0.022759 0.000000 0.076062
#
#
# Mechanical properties :
#
#
# Convention : Reuss Voigt Hill
#
# Bulk Modulus (GPa) = 44.15961 56.19481 50.17721
# Shear Modulus (GPa) = 17.07567 24.40004 20.73786
#
# Velocity S-wave (km/s) = 3.00817 3.59591 3.31509
# Velocity P-wave (km/s) = 5.95545 6.85716 6.42215
#
# Compressibility (1/GPa) = 0.02264513
#
# Stress axis : x y z
#
# Youngs Moduli (GPa) = 72.96502 46.14487 98.80559
#
# Poissons Ratio (x) = 0.13571 0.49417
# Poissons Ratio (y) = 0.21459 0.34419
# Poissons Ratio (z) = 0.36493 0.16074
#
# Static dielectric constant tensor:
#      x y z
#    x 3.743730 0.000000 -0.112590 
#    y 0.000000 2.988510 0.000000 
#    z -0.112590 0.000000 3.915830 
# 
# 
# High freq. dielectric constant tensor:
#      x y z
#    x 1.747380 0.000000 -0.006240 
#    y 0.000000 1.673430 0.000000 
#    z -0.006240 0.000000 1.765000 
# 
# From -- ./inp_files/67086.got.cif
#   From: 2010.06.25/outbox.cif.g09.slc.cpg/sg10_34_cif.got.tgz:67086.got - 2010.06.27 22:07:45.
