data_PCOD8057383
_publ_section_title
;
Structure prediction by ZEFSAII (Michael W. Deem and Ramdas Pophale) SiO2 
 PCOD8057383
Probable space group: P 2/M
;
_chemical_formula_sum "Si O2"
_cell_formula_units_Z 32
_cell_length_a 20.824686
_cell_length_b 9.001525
_cell_length_c 25.666060
_cell_angle_alpha 90.000000
_cell_angle_beta 22.404691
_cell_angle_gamma 90.000000
_cell_volume 1833.771446
_symmetry_space_group_name_H-M "P 2/M"
_symmetry_group_IT_number 10
_symmetry_cell_setting 'monoclinic'
loop_
_space_group_symop_operation_xyz
x,y,z
-x,y,-z
-x,-y,-z
x,-y,z
loop_
_atom_site_type_symbol
_atom_site_label
_atom_site_fract_x
_atom_site_fract_y
_atom_site_fract_z
Si Si1 0.169469 0.175476 0.141156
Si Si2 0.007551 0.822863 0.157572
Si Si3 0.406483 0.823363 0.413052
Si Si4 0.147593 0.325925 0.428731
Si Si5 0.365404 0.177393 0.560009
Si Si6 0.909025 0.175562 0.418963
Si Si7 0.339454 0.824180 0.860267
Si Si8 0.510729 0.825159 0.839136
O O1 0.061147 0.240030 0.174035
O O2 0.085030 0.223838 0.259106
O O3 0.160796 0.000000 0.142109
O O4 0.365601 0.224191 0.989487
O O5 0.820670 0.765721 0.283473
O O6 0.007278 0.000000 0.159318
O O7 0.146505 0.765896 0.011057
O O8 0.407756 0.759574 0.470704
O O9 0.240835 0.771112 0.506474
O O10 0.571830 0.761400 0.258498
O O11 0.408131 0.000000 0.414102
O O12 0.168570 0.500000 0.420245
O O13 0.102843 0.256225 0.517578
O O14 0.318758 0.261096 0.275755
O O15 0.000000 0.283798 0.500000
O O16 0.500000 0.242710 0.500000
O O17 0.371895 0.000000 0.554816
O O18 0.899196 0.000000 0.436296
O O19 0.450403 0.777608 0.826844
O O20 0.336222 0.000000 0.860016
O O21 0.546815 0.000000 0.815231
#
# Coordination Sequence:
#
# PCOD8057383 Si02
#       8
#     4   4   4   4   4   4   4   4
#     4   8  14  25  47  76  96 112 151 207 247 274
#     4   8  12  20  33  54  86 119 149 185 230 274
#     4   9  14  22  38  62  86 113 155 196 227 266
#     4  11  24  38  49  67  99 132 156 186 237 295
#     4   9  15  21  30  50  88 133 161 178 220 287
#     4  10  17  30  53  76  94 120 162 205 238 273
#     4   8  13  21  38  62  83 106 146 198 237 263
#     4   9  16  30  52  75  94 119 158 199 239 282
#
# _framework density 17.450374
#
# number of rings (size 3 to 8) (size 9 to 14) (size 15 to 20)
#    0.000    3.000    2.500    1.875    0.000    1.000 
#    0.000    1.875    0.000    7.500    0.000    0.000 
#    0.000    0.500    0.000    4.750    0.000    5.000 
#
# Total GULP energy -396493.863555 kJ/mol
# GULP energy per Si atom -12390.433236 kJ/mol
# Density = 1.741066 g / cm^3
# Si number density = 17.450374 Si / 1000 Ang^3
#
#
#
# Elastic Constant Matrix: (Units=GPa)
#
#
# Indices 1 2 3 4 5 6 
#
# 1 107.7095 25.7579 80.2169 0.0000 -2.0180 0.0000
# 2 25.7579 18.0639 27.7355 0.0000 -4.7982 0.0000
# 3 80.2169 27.7355 189.8557 0.0000 1.2393 0.0000
# 4 0.0000 0.0000 0.0000 2.0527 0.0000 2.6134
# 5 -2.0180 -4.7982 1.2393 0.0000 26.6061 0.0000
# 6 0.0000 0.0000 0.0000 2.6134 0.0000 -2.0921
#
#
#
# Elastic Compliance Matrix: (Units=1/GPa)
#
#
# Indices 1 2 3 4 5 6 
#
# 1 0.016804 -0.017425 -0.004544 0.000000 -0.001656 0.000000
# 2 -0.017425 0.094522 -0.006551 0.000000 0.016030 0.000000
# 3 -0.004544 -0.006551 0.008156 0.000000 -0.001906 0.000000
# 4 0.000000 0.000000 0.000000 0.188068 0.000000 0.234927
# 5 -0.001656 0.016030 -0.001906 0.000000 0.040439 0.000000
# 6 0.000000 0.000000 0.000000 0.234927 0.000000 -0.184523
#
#
# Mechanical properties :
#
#
# Convention : Reuss Voigt Hill
#
# Bulk Modulus (GPa) = 16.01443 64.78328 40.39885
# Shear Modulus (GPa) = 20.71932 17.44126 19.08029
#
# Velocity S-wave (km/s) = 3.44950 3.16488 3.31025
# Velocity P-wave (km/s) = 5.00624 7.11057 6.14909
#
# Compressibility (1/GPa) = 0.06244370
#
# Stress axis : x y z
#
# Youngs Moduli (GPa) = 59.50899 10.57950 122.60451
#
# Poissons Ratio (x) = 0.18435 0.55707
# Poissons Ratio (y) = 1.03696 0.80314
# Poissons Ratio (z) = 0.27038 0.06930
#
# Static dielectric constant tensor:
#      x y z
#    x 3.198760 0.000000 0.180680 
#    y 0.000000 2.584320 0.000000 
#    z 0.180680 0.000000 3.908160 
# 
# 
# High freq. dielectric constant tensor:
#      x y z
#    x 1.649730 0.000000 0.011120 
#    y 0.000000 1.601080 0.000000 
#    z 0.011120 0.000000 1.699950 
# 
# From -- ./inp_files/93828.got.cif
#   From: 2010.06.25/outbox.cif.g09.slc.cpg/sg10_47_cif.got.tgz:93828.got - 2010.06.27 22:07:45.
