data_PCOD8057523
_publ_section_title
;
Structure prediction by ZEFSAII (Michael W. Deem and Ramdas Pophale) SiO2 
 PCOD8057523
Probable space group: P 2/M
;
_chemical_formula_sum "Si O2"
_cell_formula_units_Z 28
_cell_length_a 25.515307
_cell_length_b 8.968656
_cell_length_c 17.736773
_cell_angle_alpha 90.000000
_cell_angle_beta 25.379178
_cell_angle_gamma 90.000000
_cell_volume 1739.649881
_symmetry_space_group_name_H-M "P 2/M"
_symmetry_group_IT_number 10
_symmetry_cell_setting 'monoclinic'
loop_
_space_group_symop_operation_xyz
x,y,z
-x,y,-z
-x,-y,-z
x,-y,z
loop_
_atom_site_type_symbol
_atom_site_label
_atom_site_fract_x
_atom_site_fract_y
_atom_site_fract_z
Si Si1 0.144335 0.327764 0.755960
Si Si2 0.182061 0.672811 0.311801
Si Si3 0.051595 0.826584 0.176742
Si Si4 0.794133 0.672363 0.485557
Si Si5 0.639458 0.175280 0.809662
Si Si6 0.085054 0.672493 0.279323
Si Si7 0.111409 0.827338 0.937562
O O1 0.106319 0.500000 0.813562
O O2 0.234275 0.307533 0.567334
O O3 0.027396 0.225377 0.892827
O O4 0.198337 0.266935 0.766259
O O5 0.216219 0.500000 0.275487
O O6 0.287576 0.770373 0.211846
O O7 0.170434 0.717155 0.238953
O O8 0.055361 0.706443 0.518351
O O9 0.926703 0.734741 0.333805
O O10 0.124171 0.771334 0.156487
O O11 0.139693 0.798241 0.989447
O O12 0.017955 0.000000 0.226967
O O13 0.794141 0.500000 0.509074
O O14 0.688777 0.754314 0.668331
O O15 0.653524 0.000000 0.784811
O O16 0.500000 0.225537 0.000000
O O17 0.103304 0.500000 0.235794
O O18 0.125069 0.000000 0.899480
#
# Coordination Sequence:
#
# PCOD8057523 Si02
#       7
#     4   4   4   4   4   4   4
#     4   9  16  25  38  56  78 108 146 181 212 252
#     4   9  18  32  48  66  87 114 149 185 223 265
#     4  10  18  26  40  64  91 118 148 179 215 262
#     4  10  19  30  44  61  83 114 151 186 221 262
#     4  11  23  35  47  66  90 115 149 190 226 263
#     4   9  17  29  46  67  90 115 147 185 220 262
#     4   9  16  24  35  55  84 115 143 172 210 256
#
# _framework density 16.095192999999998
#
# number of rings (size 3 to 8) (size 9 to 14) (size 15 to 20)
#    0.000    2.429    1.429    3.857    0.000    5.143 
#    0.000    1.429    0.000    0.000    0.000    0.000 
#    0.000    1.143    0.000   12.571    0.000    9.143 
#
# Total GULP energy -346972.652127 kJ/mol
# GULP energy per Si atom -12391.880433 kJ/mol
# Density = 1.605856 g / cm^3
# Si number density = 16.095193 Si / 1000 Ang^3
#
#
#
# Elastic Constant Matrix: (Units=GPa)
#
#
# Indices 1 2 3 4 5 6 
#
# 1 118.7250 50.4411 54.6021 0.0000 31.8611 0.0000
# 2 50.4411 66.1935 38.0932 0.0000 10.3804 0.0000
# 3 54.6021 38.0932 60.9370 0.0000 13.3392 0.0000
# 4 0.0000 0.0000 0.0000 14.2374 0.0000 7.7923
# 5 31.8611 10.3804 13.3392 0.0000 26.5816 0.0000
# 6 0.0000 0.0000 0.0000 7.7923 0.0000 28.4957
#
#
#
# Elastic Compliance Matrix: (Units=1/GPa)
#
#
# Indices 1 2 3 4 5 6 
#
# 1 0.020831 -0.007201 -0.010463 0.000000 -0.016906 0.000000
# 2 -0.007201 0.026184 -0.010747 0.000000 0.003800 0.000000
# 3 -0.010463 -0.010747 0.032399 0.000000 0.000480 0.000000
# 4 0.000000 0.000000 0.000000 0.082600 0.000000 -0.022587
# 5 -0.016906 0.003800 0.000480 0.000000 0.056159 0.000000
# 6 0.000000 0.000000 0.000000 -0.022587 0.000000 0.041270
#
#
# Mechanical properties :
#
#
# Convention : Reuss Voigt Hill
#
# Bulk Modulus (GPa) = 44.26600 59.12539 51.69569
# Shear Modulus (GPa) = 15.44180 20.71089 18.07634
#
# Velocity S-wave (km/s) = 3.10079 3.59106 3.35489
# Velocity P-wave (km/s) = 6.35470 7.34907 6.86990
#
# Compressibility (1/GPa) = 0.02259070
#
# Stress axis : x y z
#
# Youngs Moduli (GPa) = 48.00454 38.19150 30.86492
#
# Poissons Ratio (x) = 0.27503 0.32295
# Poissons Ratio (y) = 0.34570 0.33171
# Poissons Ratio (z) = 0.50228 0.41045
#
# Static dielectric constant tensor:
#      x y z
#    x 3.546600 0.000000 0.630320 
#    y 0.000000 3.103280 0.000000 
#    z 0.630320 0.000000 2.820170 
# 
# 
# High freq. dielectric constant tensor:
#      x y z
#    x 1.621840 0.000000 0.048230 
#    y 0.000000 1.632840 0.000000 
#    z 0.048230 0.000000 1.558900 
# 
# From -- ./inp_files/79849.got.cif
#   From: 2010.06.25/outbox.cif.g09.slc.cpg/sg10_40_cif.got.tgz:79849.got - 2010.06.27 22:07:45.
