data_PCOD8057276
_publ_section_title
;
Structure prediction by ZEFSAII (Michael W. Deem and Ramdas Pophale) SiO2 
 PCOD8057276
Probable space group: P 2/M
;
_chemical_formula_sum "Si O2"
_cell_formula_units_Z 32
_cell_length_a 22.322824
_cell_length_b 13.030226
_cell_length_c 16.385092
_cell_angle_alpha 90.000000
_cell_angle_beta 156.883717
_cell_angle_gamma 90.000000
_cell_volume 1871.106946
_symmetry_space_group_name_H-M "P 2/M"
_symmetry_group_IT_number 10
_symmetry_cell_setting 'monoclinic'
loop_
_space_group_symop_operation_xyz
x,y,z
-x,y,-z
-x,-y,-z
x,-y,z
loop_
_atom_site_type_symbol
_atom_site_label
_atom_site_fract_x
_atom_site_fract_y
_atom_site_fract_z
Si Si1 0.189703 0.620022 0.441042
Si Si2 0.177866 0.211751 0.714272
Si Si3 0.645565 0.387271 0.629883
Si Si4 0.278736 0.381282 0.960056
Si Si5 0.516023 0.881194 0.846636
Si Si6 0.649485 0.254331 0.229377
Si Si7 0.847950 0.378211 0.027170
Si Si8 0.417770 0.709861 0.614612
O O1 0.196543 0.500000 0.434277
O O2 0.284442 0.649884 0.639262
O O3 0.252347 0.680261 0.441454
O O4 0.019740 0.660064 0.240888
O O5 0.196745 0.321239 0.783460
O O6 0.221764 0.217921 0.673621
O O7 0.000000 0.175004 0.500000
O O8 0.301993 0.134333 0.909935
O O9 0.500000 0.411225 0.500000
O O10 0.698295 0.500000 0.660117
O O11 0.597510 0.305381 0.501027
O O12 0.770166 0.336365 0.846600
O O13 0.235717 0.500000 0.894427
O O14 0.224735 0.336033 0.980046
O O15 0.461201 0.366137 0.188987
O O16 0.409066 0.838676 0.786024
O O17 0.466819 0.825518 0.700307
O O18 0.480554 0.000000 0.792044
O O19 0.500000 0.300759 0.000000
O O20 0.829351 0.500000 0.003827
#
# Coordination Sequence:
#
# PCOD8057276 Si02
#       8
#     4   4   4   4   4   4   4   4
#     4  10  19  30  44  68 105 134 160 200 238 275
#     4  10  20  31  48  76 101 123 162 207 242 287
#     4  10  17  28  49  76 103 130 165 194 221 279
#     4  10  18  30  46  67 101 141 169 190 225 283
#     4   9  20  38  55  69  91 122 159 207 257 302
#     4   9  19  33  49  71  95 129 170 194 239 296
#     4   9  18  29  44  69 101 139 168 190 230 276
#     4  10  19  31  50  73  92 122 166 205 240 284
#
# _framework density 17.102174999999999
#
# number of rings (size 3 to 8) (size 9 to 14) (size 15 to 20)
#    0.000    2.375    1.250    2.625    0.000    4.000 
#    0.000    1.875    0.000    0.375    0.000    7.000 
#    0.000    0.000    0.000    0.000    0.000    0.000 
#
# Total GULP energy -396570.391258 kJ/mol
# GULP energy per Si atom -12392.824727 kJ/mol
# Density = 1.706325 g / cm^3
# Si number density = 17.102175 Si / 1000 Ang^3
#
#
#
# Elastic Constant Matrix: (Units=GPa)
#
#
# Indices 1 2 3 4 5 6 
#
# 1 93.1843 33.9304 39.7653 0.0000 -5.3501 0.0000
# 2 33.9304 71.9336 33.4954 0.0000 -11.7008 0.0000
# 3 39.7653 33.4954 86.6298 0.0000 2.0929 0.0000
# 4 0.0000 0.0000 0.0000 14.5102 0.0000 -2.9519
# 5 -5.3501 -11.7008 2.0929 0.0000 32.2371 0.0000
# 6 0.0000 0.0000 0.0000 -2.9519 0.0000 18.7868
#
#
#
# Elastic Compliance Matrix: (Units=1/GPa)
#
#
# Indices 1 2 3 4 5 6 
#
# 1 0.014513 -0.004318 -0.005021 0.000000 0.001167 0.000000
# 2 -0.004318 0.019762 -0.005824 0.000000 0.006834 0.000000
# 3 -0.005021 -0.005824 0.016196 0.000000 -0.003999 0.000000
# 4 0.000000 0.000000 0.000000 0.071193 0.000000 0.011186
# 5 0.001167 0.006834 -0.003999 0.000000 0.033954 0.000000
# 6 0.000000 0.000000 0.000000 0.011186 0.000000 0.054987
#
#
# Mechanical properties :
#
#
# Convention : Reuss Voigt Hill
#
# Bulk Modulus (GPa) = 49.63664 51.79221 50.71443
# Shear Modulus (GPa) = 20.19013 22.74393 21.46703
#
# Velocity S-wave (km/s) = 3.43965 3.65072 3.54676
# Velocity P-wave (km/s) = 6.69788 6.93686 6.81842
#
# Compressibility (1/GPa) = 0.02014641
#
# Stress axis : x y z
#
# Youngs Moduli (GPa) = 68.90281 50.60192 61.74222
#
# Poissons Ratio (x) = 0.21850 0.30998
# Poissons Ratio (y) = 0.29753 0.35959
# Poissons Ratio (z) = 0.34593 0.29471
#
# Static dielectric constant tensor:
#      x y z
#    x 3.553030 0.000000 -0.118550 
#    y 0.000000 2.750700 0.000000 
#    z -0.118550 0.000000 3.496970 
# 
# 
# High freq. dielectric constant tensor:
#      x y z
#    x 1.667760 0.000000 0.005420 
#    y 0.000000 1.608200 0.000000 
#    z 0.005420 0.000000 1.665100 
# 
# From -- ./inp_files/38223.got.cif
#   From: 2010.06.25/outbox.cif.g09.slc.cpg/sg10_20_cif.got.tgz:38223.got - 2010.06.27 22:07:45.
