data_PCOD8057218
_publ_section_title
;
Structure prediction by ZEFSAII (Michael W. Deem and Ramdas Pophale) SiO2 
 PCOD8057218
Probable space group: P 2/M
;
_chemical_formula_sum "Si O2"
_cell_formula_units_Z 28
_cell_length_a 8.261905
_cell_length_b 17.440719
_cell_length_c 12.966325
_cell_angle_alpha 90.000000
_cell_angle_beta 50.950307
_cell_angle_gamma 90.000000
_cell_volume 1450.971193
_symmetry_space_group_name_H-M "P 2/M"
_symmetry_group_IT_number 10
_symmetry_cell_setting 'monoclinic'
loop_
_space_group_symop_operation_xyz
x,y,z
-x,y,-z
-x,-y,-z
x,-y,z
loop_
_atom_site_type_symbol
_atom_site_label
_atom_site_fract_x
_atom_site_fract_y
_atom_site_fract_z
Si Si1 0.599405 0.412692 0.717401
Si Si2 0.280751 0.409519 0.549926
Si Si3 0.223597 0.673172 0.948825
Si Si4 0.863437 0.411161 0.815026
Si Si5 0.701568 0.152502 0.124569
Si Si6 0.653031 0.087613 0.842769
Si Si7 0.004361 0.087839 0.844883
O O1 0.523963 0.500000 0.733937
O O2 0.740531 0.388361 0.562595
O O3 0.393665 0.361146 0.803371
O O4 0.730845 0.401258 0.766102
O O5 0.500000 0.375003 0.500000
O O6 0.272239 0.500000 0.568513
O O7 0.091674 0.376971 0.695096
O O8 0.243914 0.764138 0.940370
O O9 0.249139 0.640186 0.053830
O O10 0.000000 0.645398 0.000000
O O11 0.867832 0.500000 0.849176
O O12 0.452311 0.135638 0.210258
O O13 0.790478 0.139246 0.206472
O O14 0.831176 0.091615 0.004727
O O15 0.885143 0.116076 0.786682
O O16 0.669791 0.000000 0.800127
O O17 0.500000 0.098208 0.000000
O O18 0.074760 0.000000 0.802685
#
# Coordination Sequence:
#
# PCOD8057218 Si02
#       7
#     4   4   4   4   4   4   4
#     4  10  21  36  53  72  95 127 168 211 253 298
#     4   9  17  33  57  77  91 115 159 212 253 292
#     4  12  23  33  44  70 104 138 167 199 254 306
#     4  10  21  36  53  72  95 127 168 211 253 298
#     4  10  17  28  39  60  94 130 163 199 242 296
#     4   8  14  23  40  61  81 118 166 202 237 283
#     4   9  15  26  43  61  84 122 167 203 235 284
#
# _framework density 19.297419999999999
#
# number of rings (size 3 to 8) (size 9 to 14) (size 15 to 20)
#    0.000    2.286    1.429    4.714    0.000    8.571 
#    0.000    0.000    0.000    0.000    0.000    0.000 
#    0.000    0.000    0.000   16.714    0.000   99.429 
#
# Total GULP energy -346900.381293 kJ/mol
# GULP energy per Si atom -12389.299332 kJ/mol
# Density = 1.925350 g / cm^3
# Si number density = 19.297420 Si / 1000 Ang^3
#
#
#
# Elastic Constant Matrix: (Units=GPa)
#
#
# Indices 1 2 3 4 5 6 
#
# 1 139.9345 45.6822 18.0226 0.0000 11.2269 0.0000
# 2 45.6822 66.2378 18.5373 0.0000 4.5130 0.0000
# 3 18.0226 18.5373 38.4157 0.0000 2.2466 0.0000
# 4 0.0000 0.0000 0.0000 0.6228 0.0000 1.4532
# 5 11.2269 4.5130 2.2466 0.0000 24.8285 0.0000
# 6 0.0000 0.0000 0.0000 1.4532 0.0000 17.1301
#
#
#
# Elastic Compliance Matrix: (Units=1/GPa)
#
#
# Indices 1 2 3 4 5 6 
#
# 1 0.009522 -0.005962 -0.001409 0.000000 -0.003095 0.000000
# 2 -0.005962 0.021333 -0.007468 0.000000 -0.000506 0.000000
# 3 -0.001409 -0.007468 0.030340 0.000000 -0.000751 0.000000
# 4 0.000000 0.000000 0.000000 2.002043 0.000000 -0.169840
# 5 -0.003095 -0.000506 -0.000751 0.000000 0.041835 0.000000
# 6 0.000000 0.000000 0.000000 -0.169840 0.000000 0.072785
#
#
# Mechanical properties :
#
#
# Convention : Reuss Voigt Hill
#
# Bulk Modulus (GPa) = 31.72883 45.45248 38.59065
# Shear Modulus (GPa) = 2.25424 19.33933 10.79679
#
# Velocity S-wave (km/s) = 1.08199 3.16914 2.36793
# Velocity P-wave (km/s) = 4.24719 6.08244 5.24570
#
# Compressibility (1/GPa) = 0.03151708
#
# Stress axis : x y z
#
# Youngs Moduli (GPa) = 105.01655 46.87515 32.96022
#
# Poissons Ratio (x) = 0.27947 0.04646
# Poissons Ratio (y) = 0.62610 0.24613
# Poissons Ratio (z) = 0.14802 0.35005
#
# Static dielectric constant tensor:
#      x y z
#    x 4.363050 0.000000 0.091410 
#    y 0.000000 3.200360 0.000000 
#    z 0.091410 0.000000 3.174080 
# 
# 
# High freq. dielectric constant tensor:
#      x y z
#    x 1.782260 0.000000 0.012980 
#    y 0.000000 1.718510 0.000000 
#    z 0.012980 0.000000 1.685260 
# 
# From -- ./inp_files/42891.got.cif
#   From: 2010.06.25/outbox.cif.g09.slc.cpg/sg10_22_cif.got.tgz:42891.got - 2010.06.27 22:07:45.
