data_PCOD8057596
_publ_section_title
;
Structure prediction by ZEFSAII (Michael W. Deem and Ramdas Pophale) SiO2 
 PCOD8057596
Probable space group: P 2/M
;
_chemical_formula_sum "Si O2"
_cell_formula_units_Z 28
_cell_length_a 18.056611
_cell_length_b 9.205101
_cell_length_c 13.903887
_cell_angle_alpha 90.000000
_cell_angle_beta 48.589725
_cell_angle_gamma 90.000000
_cell_volume 1733.236908
_symmetry_space_group_name_H-M "P 2/M"
_symmetry_group_IT_number 10
_symmetry_cell_setting 'monoclinic'
loop_
_space_group_symop_operation_xyz
x,y,z
-x,y,-z
-x,-y,-z
x,-y,z
loop_
_atom_site_type_symbol
_atom_site_label
_atom_site_fract_x
_atom_site_fract_y
_atom_site_fract_z
Si Si1 0.284222 0.670272 0.750519
Si Si2 0.905705 0.832472 0.015230
Si Si3 0.161938 0.669590 0.506422
Si Si4 0.025908 0.829496 0.253941
Si Si5 0.887248 0.839958 0.628697
Si Si6 0.471413 0.835938 0.635502
Si Si7 0.342838 0.332598 0.485196
O O1 0.290167 0.500000 0.765839
O O2 0.370383 0.747654 0.737928
O O3 0.294626 0.706910 0.629005
O O4 0.179903 0.729811 0.873842
O O5 0.931327 0.784031 0.885281
O O6 0.871471 0.000000 0.049075
O O7 0.000000 0.805595 0.000000
O O8 0.138747 0.500000 0.522778
O O9 0.075407 0.744961 0.640758
O O10 0.171407 0.728502 0.388928
O O11 0.264847 0.704083 0.469512
O O12 0.109649 0.789704 0.262099
O O13 0.000307 0.000000 0.280708
O O14 0.000000 0.846715 0.500000
O O15 0.838781 0.000000 0.660340
O O16 0.500000 0.831190 0.500000
O O17 0.559701 0.761999 0.619724
O O18 0.456564 0.000000 0.685160
O O19 0.375094 0.500000 0.456248
#
# Coordination Sequence:
#
# PCOD8057596 Si02
#       7
#     4   4   4   4   4   4   4
#     4  10  19  31  46  63  89 122 149 177 216 261
#     4  10  20  32  46  65  89 118 153 188 215 246
#     4  10  18  27  43  67  91 114 144 183 221 259
#     4   9  18  31  44  60  87 121 151 181 218 258
#     4   8  15  28  43  59  83 115 147 178 218 265
#     4   9  17  29  46  66  86 112 148 184 215 254
#     4   9  18  30  43  64  93 119 142 175 222 266
#
# _framework density 16.154744000000001
#
# number of rings (size 3 to 8) (size 9 to 14) (size 15 to 20)
#    0.000    2.714    0.000    3.000    0.000    6.857 
#    0.000    0.000    0.000    0.000    0.000    1.000 
#    0.000    8.000    0.000    0.000    0.000    0.000 
#
# Total GULP energy -347158.653201 kJ/mol
# GULP energy per Si atom -12398.523329 kJ/mol
# Density = 1.611798 g / cm^3
# Si number density = 16.154744 Si / 1000 Ang^3
#
#
#
# Elastic Constant Matrix: (Units=GPa)
#
#
# Indices 1 2 3 4 5 6 
#
# 1 115.6380 59.6111 45.7353 0.0000 2.5909 0.0000
# 2 59.6111 91.7088 37.1121 0.0000 -9.3826 0.0000
# 3 45.7353 37.1121 55.7998 0.0000 0.1491 0.0000
# 4 0.0000 0.0000 0.0000 24.1402 0.0000 -4.7712
# 5 2.5909 -9.3826 0.1491 0.0000 25.0573 0.0000
# 6 0.0000 0.0000 0.0000 -4.7712 0.0000 29.2516
#
#
#
# Elastic Compliance Matrix: (Units=1/GPa)
#
#
# Indices 1 2 3 4 5 6 
#
# 1 0.015723 -0.007467 -0.007909 0.000000 -0.004375 0.000000
# 2 -0.007467 0.019310 -0.006744 0.000000 0.008043 0.000000
# 3 -0.007909 -0.006744 0.028894 0.000000 -0.001879 0.000000
# 4 0.000000 0.000000 0.000000 0.042805 0.000000 0.006982
# 5 -0.004375 0.008043 -0.001879 0.000000 0.043384 0.000000
# 6 0.000000 0.000000 0.000000 0.006982 0.000000 0.035325
#
#
# Mechanical properties :
#
#
# Convention : Reuss Voigt Hill
#
# Bulk Modulus (GPa) = 50.79609 60.89597 55.84603
# Shear Modulus (GPa) = 21.16469 23.73568 22.45019
#
# Velocity S-wave (km/s) = 3.62349 3.83726 3.73191
# Velocity P-wave (km/s) = 7.00128 7.57694 7.29479
#
# Compressibility (1/GPa) = 0.01968655
#
# Stress axis : x y z
#
# Youngs Moduli (GPa) = 63.60121 51.78774 34.60893
#
# Poissons Ratio (x) = 0.38670 0.27373
# Poissons Ratio (y) = 0.47491 0.23340
# Poissons Ratio (z) = 0.50303 0.34926
#
# Static dielectric constant tensor:
#      x y z
#    x 3.292550 0.000000 0.157840 
#    y 0.000000 3.137490 0.000000 
#    z 0.157840 0.000000 2.842010 
# 
# 
# High freq. dielectric constant tensor:
#      x y z
#    x 1.622660 0.000000 -0.000880 
#    y 0.000000 1.629220 0.000000 
#    z -0.000880 0.000000 1.581260 
# 
# From -- ./inp_files/54980.got.cif
#   From: 2010.06.25/outbox.cif.g09.slc.cpg/sg10_28_cif.got.tgz:54980.got - 2010.06.27 22:07:45.
