data_PCOD8057472
_publ_section_title
;
Structure prediction by ZEFSAII (Michael W. Deem and Ramdas Pophale) SiO2 
 PCOD8057472
Probable space group: P 2/M
;
_chemical_formula_sum "Si O2"
_cell_formula_units_Z 26
_cell_length_a 10.712576
_cell_length_b 15.281336
_cell_length_c 10.957878
_cell_angle_alpha 90.000000
_cell_angle_beta 48.531700
_cell_angle_gamma 90.000000
_cell_volume 1344.157963
_symmetry_space_group_name_H-M "P 2/M"
_symmetry_group_IT_number 10
_symmetry_cell_setting 'monoclinic'
loop_
_space_group_symop_operation_xyz
x,y,z
-x,y,-z
-x,-y,-z
x,-y,z
loop_
_atom_site_type_symbol
_atom_site_label
_atom_site_fract_x
_atom_site_fract_y
_atom_site_fract_z
Si Si1 0.474130 0.248909 0.157179
Si Si2 0.867797 0.180012 0.678718
Si Si3 0.000000 0.825844 0.000000
Si Si4 0.319198 0.402899 0.624382
Si Si5 0.303185 0.598697 0.911990
Si Si6 0.269960 0.901436 0.992170
Si Si7 0.988401 0.696520 0.223744
O O1 0.283281 0.221315 0.303322
O O2 0.534024 0.338210 0.184378
O O3 0.500000 0.268832 0.000000
O O4 0.583955 0.166700 0.128717
O O5 0.806617 0.112540 0.822558
O O6 0.000000 0.134752 0.500000
O O7 0.963203 0.258643 0.682058
O O8 0.937154 0.764984 0.151209
O O9 0.141095 0.888414 0.964768
O O10 0.500000 0.355152 0.500000
O O11 0.341798 0.500000 0.554690
O O12 0.249934 0.405515 0.806210
O O13 0.177907 0.356682 0.635804
O O14 0.344841 0.500000 0.932156
O O15 0.145711 0.636989 0.085550
O O16 0.339602 0.000000 0.941736
#
# Coordination Sequence:
#
# PCOD8057472 Si02
#       7
#     4   4   2   4   4   4   4
#     4  10  19  38  54  81 111 143 191 230 270 332
#     4  10  23  37  55  80 114 153 189 226 278 337
#     4  10  17  34  59  86 114 132 179 228 283 328
#     4  10  21  33  49  80 112 143 187 233 282 335
#     4  11  20  34  58  82 110 148 190 234 276 329
#     4  10  20  36  63  88 111 142 181 235 283 335
#     4  11  18  36  56  79 111 148 189 234 273 329
#
# _framework density 19.342963000000001
#
# number of rings (size 3 to 8) (size 9 to 14) (size 15 to 20)
#    0.000    1.692    6.154    0.692    2.154    4.615 
#    0.000    0.000    0.000    2.308    0.000    3.231 
#    0.000    0.000    0.000    0.000    0.000    0.000 
#
# Total GULP energy -322241.359303 kJ/mol
# GULP energy per Si atom -12393.898435 kJ/mol
# Density = 1.929894 g / cm^3
# Si number density = 19.342963 Si / 1000 Ang^3
#
#
#
# Elastic Constant Matrix: (Units=GPa)
#
#
# Indices 1 2 3 4 5 6 
#
# 1 111.3061 44.7739 17.9293 0.0000 -14.7207 0.0000
# 2 44.7739 119.9913 5.7244 0.0000 -4.2178 0.0000
# 3 17.9293 5.7244 51.4101 0.0000 -12.0539 0.0000
# 4 0.0000 0.0000 0.0000 12.0079 0.0000 3.6400
# 5 -14.7207 -4.2178 -12.0539 0.0000 26.9275 0.0000
# 6 0.0000 0.0000 0.0000 3.6400 0.0000 13.0956
#
#
#
# Elastic Compliance Matrix: (Units=1/GPa)
#
#
# Indices 1 2 3 4 5 6 
#
# 1 0.011631 -0.004058 -0.002528 0.000000 0.004591 0.000000
# 2 -0.004058 0.009818 0.000181 0.000000 -0.000599 0.000000
# 3 -0.002528 0.000181 0.022340 0.000000 0.008647 0.000000
# 4 0.000000 0.000000 0.000000 0.090941 0.000000 -0.025277
# 5 0.004591 -0.000599 0.008647 0.000000 0.043424 0.000000
# 6 0.000000 0.000000 0.000000 -0.025277 0.000000 0.083388
#
#
# Mechanical properties :
#
#
# Convention : Reuss Voigt Hill
#
# Bulk Modulus (GPa) = 32.27832 46.61810 39.44821
# Shear Modulus (GPa) = 17.56370 24.69150 21.12760
#
# Velocity S-wave (km/s) = 3.01660 3.57671 3.30853
# Velocity P-wave (km/s) = 5.37185 6.41952 5.91891
#
# Compressibility (1/GPa) = 0.03098055
#
# Stress axis : x y z
#
# Youngs Moduli (GPa) = 85.97685 101.84911 44.76225
#
# Poissons Ratio (x) = 0.41331 0.11316
# Poissons Ratio (y) = 0.34890 -0.00812
# Poissons Ratio (z) = 0.21735 -0.01848
#
# Static dielectric constant tensor:
#      x y z
#    x 3.875470 0.000000 -0.138050 
#    y 0.000000 3.492760 0.000000 
#    z -0.138050 0.000000 3.254020 
# 
# 
# High freq. dielectric constant tensor:
#      x y z
#    x 1.763690 0.000000 -0.008410 
#    y 0.000000 1.741890 0.000000 
#    z -0.008410 0.000000 1.726990 
# 
# From -- ./inp_files/47333.got.cif
#   From: 2010.06.25/outbox.cif.g09.slc.cpg/sg10_24_cif.got.tgz:47333.got - 2010.06.27 22:07:45.
