data_PCOD8057879
_publ_section_title
;
Structure prediction by ZEFSAII (Michael W. Deem and Ramdas Pophale) SiO2 
 PCOD8057879
Probable space group: P 2/M
;
_chemical_formula_sum "Si O2"
_cell_formula_units_Z 28
_cell_length_a 19.463680
_cell_length_b 8.939008
_cell_length_c 15.269508
_cell_angle_alpha 90.000000
_cell_angle_beta 37.442022
_cell_angle_gamma 90.000000
_cell_volume 1615.150998
_symmetry_space_group_name_H-M "P 2/M"
_symmetry_group_IT_number 10
_symmetry_cell_setting 'monoclinic'
loop_
_space_group_symop_operation_xyz
x,y,z
-x,y,-z
-x,-y,-z
x,-y,z
loop_
_atom_site_type_symbol
_atom_site_label
_atom_site_fract_x
_atom_site_fract_y
_atom_site_fract_z
Si Si1 0.999563 0.159911 0.599494
Si Si2 0.877219 0.677066 0.300947
Si Si3 0.241212 0.823537 0.092230
Si Si4 0.138814 0.676701 0.035923
Si Si5 0.629828 0.323758 0.883939
Si Si6 0.133605 0.832779 0.864125
Si Si7 0.212327 0.673242 0.428830
O O1 0.086149 0.293364 0.526153
O O2 0.000000 0.115630 0.500000
O O3 0.877287 0.221590 0.745868
O O4 0.026848 0.000000 0.621675
O O5 0.876454 0.500000 0.286327
O O6 0.827437 0.756671 0.265713
O O7 0.789872 0.726575 0.467065
O O8 0.008110 0.725886 0.190191
O O9 0.232802 0.750358 0.004534
O O10 0.336370 0.753223 0.058685
O O11 0.262746 0.000000 0.062657
O O12 0.151432 0.500000 0.027528
O O13 0.174855 0.732778 0.903325
O O14 0.652435 0.500000 0.870357
O O15 0.697413 0.254517 0.730607
O O16 0.500000 0.286039 0.000000
O O17 0.184813 0.000000 0.818860
O O18 0.000000 0.839830 0.000000
O O19 0.236740 0.500000 0.401847
#
# Coordination Sequence:
#
# PCOD8057879 Si02
#       7
#     4   4   4   4   4   4   4
#     4  10  19  30  44  68  99 127 157 196 245 293
#     4   9  17  28  43  67  97 130 164 197 237 285
#     4  11  21  32  49  72  99 130 164 203 245 293
#     4  10  18  29  46  69  99 132 164 198 237 287
#     4  10  22  38  53  70  95 129 169 210 248 289
#     4   9  17  28  42  64  97 134 165 194 232 283
#     4  10  19  31  49  71  96 128 166 203 241 288
#
# _framework density 17.335840999999999
#
# number of rings (size 3 to 8) (size 9 to 14) (size 15 to 20)
#    0.000    2.143    2.857    1.286    0.000    4.000 
#    0.000    0.000    0.000    0.000    0.000    1.000 
#    0.000    8.000    0.000    0.000    0.000    0.000 
#
# Total GULP energy -346880.067519 kJ/mol
# GULP energy per Si atom -12388.573840 kJ/mol
# Density = 1.729638 g / cm^3
# Si number density = 17.335841 Si / 1000 Ang^3
#
#
#
# Elastic Constant Matrix: (Units=GPa)
#
#
# Indices 1 2 3 4 5 6 
#
# 1 123.6171 49.6258 55.5786 0.0000 21.3214 0.0000
# 2 49.6258 59.4886 28.5363 0.0000 11.2347 0.0000
# 3 55.5786 28.5363 49.5719 0.0000 10.8273 0.0000
# 4 0.0000 0.0000 0.0000 14.7368 0.0000 5.0008
# 5 21.3214 11.2347 10.8273 0.0000 25.1190 0.0000
# 6 0.0000 0.0000 0.0000 5.0008 0.0000 25.2396
#
#
#
# Elastic Compliance Matrix: (Units=1/GPa)
#
#
# Indices 1 2 3 4 5 6 
#
# 1 0.019309 -0.007185 -0.016156 0.000000 -0.006213 0.000000
# 2 -0.007185 0.026504 -0.006563 0.000000 -0.002927 0.000000
# 3 -0.016156 -0.006563 0.042422 0.000000 -0.001637 0.000000
# 4 0.000000 0.000000 0.000000 0.072749 0.000000 -0.014414
# 5 -0.006213 -0.002927 -0.001637 0.000000 0.047099 0.000000
# 6 0.000000 0.000000 0.000000 -0.014414 0.000000 0.042476
#
#
# Mechanical properties :
#
#
# Convention : Reuss Voigt Hill
#
# Bulk Modulus (GPa) = 35.17625 55.57322 45.37473
# Shear Modulus (GPa) = 15.63274 19.61487 17.62380
#
# Velocity S-wave (km/s) = 3.00619 3.36737 3.19189
# Velocity P-wave (km/s) = 5.69075 6.87353 6.30991
#
# Compressibility (1/GPa) = 0.02842827
#
# Stress axis : x y z
#
# Youngs Moduli (GPa) = 51.78917 37.72975 23.57276
#
# Poissons Ratio (x) = 0.27107 0.38084
# Poissons Ratio (y) = 0.37208 0.15471
# Poissons Ratio (z) = 0.83671 0.24762
#
# Static dielectric constant tensor:
#      x y z
#    x 3.200230 0.000000 0.377010 
#    y 0.000000 3.228710 0.000000 
#    z 0.377010 0.000000 3.159380 
# 
# 
# High freq. dielectric constant tensor:
#      x y z
#    x 1.654330 0.000000 0.038910 
#    y 0.000000 1.673960 0.000000 
#    z 0.038910 0.000000 1.635220 
# 
# From -- ./inp_files/54648.got.cif
#   From: 2010.06.25/outbox.cif.g09.slc.cpg/sg10_28_cif.got.tgz:54648.got - 2010.06.27 22:07:45.
