data_PCOD8057380
_publ_section_title
;
Structure prediction by ZEFSAII (Michael W. Deem and Ramdas Pophale) SiO2 
 PCOD8057380
Probable space group: P 2/M
;
_chemical_formula_sum "Si O2"
_cell_formula_units_Z 32
_cell_length_a 14.665434
_cell_length_b 9.056653
_cell_length_c 25.106568
_cell_angle_alpha 90.000000
_cell_angle_beta 29.314600
_cell_angle_gamma 90.000000
_cell_volume 1632.659186
_symmetry_space_group_name_H-M "P 2/M"
_symmetry_group_IT_number 10
_symmetry_cell_setting 'monoclinic'
loop_
_space_group_symop_operation_xyz
x,y,z
-x,y,-z
-x,-y,-z
x,-y,z
loop_
_atom_site_type_symbol
_atom_site_label
_atom_site_fract_x
_atom_site_fract_y
_atom_site_fract_z
Si Si1 0.970247 0.825397 0.453752
Si Si2 0.023272 0.824179 0.158766
Si Si3 0.531445 0.836505 0.214858
Si Si4 0.059536 0.164800 0.024111
Si Si5 0.430878 0.171581 0.379005
Si Si6 0.597668 0.326668 0.005450
Si Si7 0.614672 0.824340 0.391485
Si Si8 0.318236 0.672956 0.239845
O O1 0.771971 0.765571 0.533286
O O2 0.000000 0.775118 0.500000
O O3 0.119494 0.753151 0.337364
O O4 0.986184 0.000000 0.440700
O O5 0.997161 0.761918 0.111412
O O6 0.832667 0.779104 0.286066
O O7 0.054346 0.000000 0.141545
O O8 0.201666 0.751893 0.095678
O O9 0.566443 0.798136 0.259273
O O10 0.399257 0.714613 0.256372
O O11 0.434302 0.000000 0.261306
O O12 0.719070 0.840340 0.086135
O O13 0.971175 0.000000 0.066269
O O14 0.000000 0.251302 0.000000
O O15 0.522078 0.245183 0.385078
O O16 0.411406 0.000000 0.401199
O O17 0.634050 0.500000 0.992791
O O18 0.459388 0.269815 0.122293
O O19 0.500000 0.285824 0.000000
O O20 0.500000 0.760577 0.500000
O O21 0.602598 0.000000 0.395799
O O22 0.286917 0.500000 0.250951
#
# Coordination Sequence:
#
# PCOD8057380 Si02
#       8
#     4   4   4   4   4   4   4   4
#     4  10  19  33  54  80 110 147 184 219 266 327
#     4  10  19  33  57  86 109 137 183 229 269 318
#     4  10  17  30  52  75 105 139 175 219 266 322
#     4   9  16  26  47  80 110 136 172 220 270 321
#     4   9  17  30  50  75 106 145 181 211 260 327
#     4  10  23  42  59  76 107 151 189 224 277 338
#     4   9  18  32  51  80 115 143 171 218 273 317
#     4  11  22  35  53  77 106 141 181 227 277 322
#
# _framework density 19.599926
#
# number of rings (size 3 to 8) (size 9 to 14) (size 15 to 20)
#    0.000    2.250    2.500    1.125    0.000    5.000 
#    0.000    1.250    0.000    4.875    0.000    0.000 
#    0.000    0.000    0.000    0.000    0.000    0.000 
#
# Total GULP energy -396584.733514 kJ/mol
# GULP energy per Si atom -12393.272922 kJ/mol
# Density = 1.955532 g / cm^3
# Si number density = 19.599926 Si / 1000 Ang^3
#
#
#
# Elastic Constant Matrix: (Units=GPa)
#
#
# Indices 1 2 3 4 5 6 
#
# 1 118.5023 21.6390 59.1096 0.0000 3.2102 0.0000
# 2 21.6390 26.2678 27.5923 0.0000 -2.5573 0.0000
# 3 59.1096 27.5923 151.4717 0.0000 2.7004 0.0000
# 4 0.0000 0.0000 0.0000 17.4141 0.0000 2.5995
# 5 3.2102 -2.5573 2.7004 0.0000 30.6298 0.0000
# 6 0.0000 0.0000 0.0000 2.5995 0.0000 11.2543
#
#
#
# Elastic Compliance Matrix: (Units=1/GPa)
#
#
# Indices 1 2 3 4 5 6 
#
# 1 0.011184 -0.005922 -0.003261 0.000000 -0.001379 0.000000
# 2 -0.005922 0.050897 -0.007058 0.000000 0.005492 0.000000
# 3 -0.003261 -0.007058 0.009179 0.000000 -0.001057 0.000000
# 4 0.000000 0.000000 0.000000 0.059476 0.000000 -0.013738
# 5 -0.001379 0.005492 -0.001057 0.000000 0.033344 0.000000
# 6 0.000000 0.000000 0.000000 -0.013738 0.000000 0.092028
#
#
# Mechanical properties :
#
#
# Convention : Reuss Voigt Hill
#
# Bulk Modulus (GPa) = 25.78839 56.99151 41.38995
# Shear Modulus (GPa) = 16.58281 24.38634 20.48458
#
# Velocity S-wave (km/s) = 2.91188 3.53116 3.23636
# Velocity P-wave (km/s) = 4.94887 6.76505 5.92694
#
# Compressibility (1/GPa) = 0.03877714
#
# Stress axis : x y z
#
# Youngs Moduli (GPa) = 89.41309 19.64753 108.94349
#
# Poissons Ratio (x) = 0.11635 0.35527
# Poissons Ratio (y) = 0.52951 0.76896
# Poissons Ratio (z) = 0.29158 0.13868
#
# Static dielectric constant tensor:
#      x y z
#    x 3.681350 0.000000 0.041190 
#    y 0.000000 3.018540 0.000000 
#    z 0.041190 0.000000 3.816690 
# 
# 
# High freq. dielectric constant tensor:
#      x y z
#    x 1.763660 0.000000 -0.003690 
#    y 0.000000 1.698330 0.000000 
#    z -0.003690 0.000000 1.780070 
# 
# From -- ./inp_files/66607.got.cif
#   From: 2010.06.25/outbox.cif.g09.slc.cpg/sg10_34_cif.got.tgz:66607.got - 2010.06.27 22:07:45.
