data_PCOD8057457
_publ_section_title
;
Structure prediction by ZEFSAII (Michael W. Deem and Ramdas Pophale) SiO2 
 PCOD8057457
Probable space group: P 2/M
;
_chemical_formula_sum "Si O2"
_cell_formula_units_Z 26
_cell_length_a 9.519411
_cell_length_b 10.973604
_cell_length_c 19.843394
_cell_angle_alpha 90.000000
_cell_angle_beta 38.590381
_cell_angle_gamma 90.000000
_cell_volume 1292.958992
_symmetry_space_group_name_H-M "P 2/M"
_symmetry_group_IT_number 10
_symmetry_cell_setting 'monoclinic'
loop_
_space_group_symop_operation_xyz
x,y,z
-x,y,-z
-x,-y,-z
x,-y,z
loop_
_atom_site_type_symbol
_atom_site_label
_atom_site_fract_x
_atom_site_fract_y
_atom_site_fract_z
Si Si1 0.314842 0.250505 0.625489
Si Si2 0.604497 0.000000 0.815908
Si Si3 0.117073 0.265987 0.062791
Si Si4 0.189868 0.000000 0.056633
Si Si5 0.851773 0.360296 0.803972
Si Si6 0.050764 0.000000 0.716835
Si Si7 0.521974 0.735957 0.818555
Si Si8 0.368193 0.639918 0.742594
O O1 0.500000 0.272927 0.500000
O O2 0.425017 0.272556 0.657871
O O3 0.118657 0.350343 0.690675
O O4 0.213157 0.115754 0.657665
O O5 0.526918 0.119090 0.803677
O O6 0.877813 0.000000 0.718909
O O7 0.459860 0.000000 0.940630
O O8 0.076137 0.121344 0.067872
O O9 0.212213 0.291268 0.102629
O O10 0.886860 0.337765 0.136524
O O11 0.298698 0.311237 0.940568
O O12 0.135422 0.000000 0.155406
O O13 0.778865 0.500000 0.837376
O O14 0.734476 0.297191 0.784732
O O15 0.536819 0.670812 0.740602
O O16 0.399609 0.500000 0.709568
#
# Coordination Sequence:
#
# PCOD8057457 Si02
#       8
#     4   2   4   2   4   2   4   4
#     4  11  24  42  66  88 113 151 207 262 308 347
#     4  10  21  35  61  94 125 160 189 234 307 354
#     4  10  20  35  58  88 124 164 201 235 289 357
#     4  10  17  32  60  91 122 154 192 240 291 348
#     4  11  22  36  58  86 118 161 206 246 291 351
#     4  12  18  39  67  92 120 149 198 257 294 357
#     4  11  22  37  59  90 127 160 194 240 299 365
#     4  11  24  40  59  87 124 165 200 243 299 354
#
# _framework density 20.108912
#
# number of rings (size 3 to 8) (size 9 to 14) (size 15 to 20)
#    0.000    1.231    4.615    3.692    0.000    8.615 
#    0.000    3.077    0.000    2.769    0.000    0.000 
#    0.000    0.000    0.000    0.000    0.000    0.000 
#
# Total GULP energy -322347.302062 kJ/mol
# GULP energy per Si atom -12397.973156 kJ/mol
# Density = 2.006314 g / cm^3
# Si number density = 20.108912 Si / 1000 Ang^3
#
#
#
# Elastic Constant Matrix: (Units=GPa)
#
#
# Indices 1 2 3 4 5 6 
#
# 1 108.8831 17.8901 23.1118 0.0000 16.8615 0.0000
# 2 17.8901 113.1752 15.5034 0.0000 5.0676 0.0000
# 3 23.1118 15.5034 86.1808 0.0000 18.8880 0.0000
# 4 0.0000 0.0000 0.0000 -0.2597 0.0000 0.3869
# 5 16.8615 5.0676 18.8880 0.0000 13.9247 0.0000
# 6 0.0000 0.0000 0.0000 0.3869 0.0000 27.5241
#
#
#
# Elastic Compliance Matrix: (Units=1/GPa)
#
#
# Indices 1 2 3 4 5 6 
#
# 1 0.011466 -0.001220 0.000128 0.000000 -0.013614 0.000000
# 2 -0.001220 0.009212 -0.001308 0.000000 -0.000101 0.000000
# 3 0.000128 -0.001308 0.016698 0.000000 -0.022330 0.000000
# 4 0.000000 0.000000 0.000000 -3.772085 0.000000 0.053023
# 5 -0.013614 -0.000101 -0.022330 0.000000 0.118625 0.000000
# 6 0.000000 0.000000 0.000000 0.053023 0.000000 0.035586
#
#
# Mechanical properties :
#
#
# Convention : Reuss Voigt Hill
#
# Bulk Modulus (GPa) = 30.69686 46.80551 38.75119
# Shear Modulus (GPa) = -1.40259 25.02009 11.80875
#
# Velocity S-wave (km/s) = -0.83607 3.53119 2.42593
# Velocity P-wave (km/s) = 3.79031 6.32078 5.21146
#
# Compressibility (1/GPa) = 0.03257662
#
# Stress axis : x y z
#
# Youngs Moduli (GPa) = 87.21700 108.54878 59.88636
#
# Poissons Ratio (x) = 0.13248 -0.00769
# Poissons Ratio (y) = 0.10644 0.07832
# Poissons Ratio (z) = -0.01120 0.14197
#
# Static dielectric constant tensor:
#      x y z
#    x 3.531170 0.000000 0.035270 
#    y 0.000000 3.867750 0.000000 
#    z 0.035270 0.000000 3.426910 
# 
# 
# High freq. dielectric constant tensor:
#      x y z
#    x 1.773950 0.000000 -0.002220 
#    y 0.000000 1.799980 0.000000 
#    z -0.002220 0.000000 1.749770 
# 
# From -- ./inp_files/82592.got.cif
#   From: 2010.06.25/outbox.cif.g09.slc.cpg/sg10_42_cif.got.tgz:82592.got - 2010.06.27 22:07:45.
