data_PCOD8057503
_publ_section_title
;
Structure prediction by ZEFSAII (Michael W. Deem and Ramdas Pophale) SiO2 
 PCOD8057503
Probable space group: P 2/M
;
_chemical_formula_sum "Si O2"
_cell_formula_units_Z 32
_cell_length_a 22.863118
_cell_length_b 9.194562
_cell_length_c 34.132248
_cell_angle_alpha 90.000000
_cell_angle_beta 17.160722
_cell_angle_gamma 90.000000
_cell_volume 2117.052315
_symmetry_space_group_name_H-M "P 2/M"
_symmetry_group_IT_number 10
_symmetry_cell_setting 'monoclinic'
loop_
_space_group_symop_operation_xyz
x,y,z
-x,y,-z
-x,-y,-z
x,-y,z
loop_
_atom_site_type_symbol
_atom_site_label
_atom_site_fract_x
_atom_site_fract_y
_atom_site_fract_z
Si Si1 0.742361 0.330317 0.239129
Si Si2 0.720934 0.337299 0.816280
Si Si3 0.700759 0.334827 0.922374
Si Si4 0.435874 0.332931 0.730940
Si Si5 0.523145 0.166794 0.530104
Si Si6 0.136390 0.327768 0.563693
Si Si7 0.080532 0.831806 0.679660
Si Si8 0.094546 0.164426 0.982225
O O1 0.778817 0.500000 0.222016
O O2 0.621160 0.297178 0.277238
O O3 0.620012 0.269412 0.353661
O O4 0.956653 0.252636 0.100511
O O5 0.707645 0.500000 0.808795
O O6 0.721059 0.335232 0.862921
O O7 0.939237 0.272452 0.665603
O O8 0.519631 0.264083 0.927417
O O9 0.719702 0.500000 0.926325
O O10 0.876650 0.236794 0.827477
O O11 0.388612 0.500000 0.770845
O O12 0.668925 0.296089 0.586891
O O13 0.312754 0.235862 0.840369
O O14 0.500000 0.211501 0.500000
O O15 0.752184 0.190868 0.394728
O O16 0.460161 0.000000 0.577964
O O17 0.118652 0.500000 0.584312
O O18 0.155965 0.245554 0.592166
O O19 0.041830 0.000000 0.694973
O O20 0.115754 0.000000 0.983749
O O21 0.000000 0.171897 0.000000
#
# Coordination Sequence:
#
# PCOD8057503 Si02
#       8
#     4   4   4   4   4   4   4   4
#     4  10  18  29  44  60  76  96 128 169 205 234
#     4   7  11  20  35  52  69  96 129 154 179 222
#     4   8  13  23  37  50  68  95 127 157 186 224
#     4   9  16  25  39  59  80 102 129 163 195 225
#     4  10  21  34  44  55  75 103 134 168 207 247
#     4   9  15  25  39  54  76 104 131 157 190 227
#     4  10  18  26  38  54  71  95 128 165 201 233
#     4   9  17  27  40  57  78 104 130 156 190 235
#
# _framework density 15.115354999999999
#
# number of rings (size 3 to 8) (size 9 to 14) (size 15 to 20)
#    0.000    3.000    1.250    2.625    0.000    3.250 
#    0.000    5.000    0.000    0.000    0.000    0.000 
#    0.000    0.000    0.000    1.125    0.000   23.500 
#
# Total GULP energy -396446.710692 kJ/mol
# GULP energy per Si atom -12388.959709 kJ/mol
# Density = 1.508095 g / cm^3
# Si number density = 15.115355 Si / 1000 Ang^3
#
#
#
# Elastic Constant Matrix: (Units=GPa)
#
#
# Indices 1 2 3 4 5 6 
#
# 1 32.5660 25.3749 37.1488 0.0000 -7.9118 0.0000
# 2 25.3749 77.9549 59.4638 0.0000 -6.0136 0.0000
# 3 37.1488 59.4638 143.0000 0.0000 -25.3562 0.0000
# 4 0.0000 0.0000 0.0000 21.9264 0.0000 -0.6008
# 5 -7.9118 -6.0136 -25.3562 0.0000 16.7371 0.0000
# 6 0.0000 0.0000 0.0000 -0.6008 0.0000 11.5932
#
#
#
# Elastic Compliance Matrix: (Units=1/GPa)
#
#
# Indices 1 2 3 4 5 6 
#
# 1 0.048387 -0.009778 -0.006934 0.000000 0.008855 0.000000
# 2 -0.009778 0.021374 -0.007938 0.000000 -0.008969 0.000000
# 3 -0.006934 -0.007938 0.015052 0.000000 0.016673 0.000000
# 4 0.000000 0.000000 0.000000 0.045672 0.000000 0.002367
# 5 0.008855 -0.008969 0.016673 0.000000 0.085970 0.000000
# 6 0.000000 0.000000 0.000000 0.002367 0.000000 0.086380
#
#
# Mechanical properties :
#
#
# Convention : Reuss Voigt Hill
#
# Bulk Modulus (GPa) = 28.15920 55.27731 41.71825
# Shear Modulus (GPa) = 13.73735 18.82023 16.27879
#
# Velocity S-wave (km/s) = 3.01796 3.53243 3.28528
# Velocity P-wave (km/s) = 5.55104 7.29981 6.48464
#
# Compressibility (1/GPa) = 0.03551238
#
# Stress axis : x y z
#
# Youngs Moduli (GPa) = 20.66687 46.78567 66.43840
#
# Poissons Ratio (x) = 0.45747 0.46067
# Poissons Ratio (y) = 0.20208 0.52739
# Poissons Ratio (z) = 0.14330 0.37139
#
# Static dielectric constant tensor:
#      x y z
#    x 2.449820 0.000000 -0.403110 
#    y 0.000000 2.907020 0.000000 
#    z -0.403110 0.000000 3.371850 
# 
# 
# High freq. dielectric constant tensor:
#      x y z
#    x 1.504290 0.000000 -0.030440 
#    y 0.000000 1.574390 0.000000 
#    z -0.030440 0.000000 1.594290 
# 
# From -- ./inp_files/95658.got.cif
#   From: 2010.06.25/outbox.cif.g09.slc.cpg/sg10_48_cif.got.tgz:95658.got - 2010.06.27 22:07:45.
