data_PCOD8057096
_publ_section_title
;
Structure prediction by ZEFSAII (Michael W. Deem and Ramdas Pophale) SiO2 
 PCOD8057096
Probable space group: P 2/M
;
_chemical_formula_sum "Si O2"
_cell_formula_units_Z 32
_cell_length_a 11.532802
_cell_length_b 9.065130
_cell_length_c 23.236786
_cell_angle_alpha 90.000000
_cell_angle_beta 53.696809
_cell_angle_gamma 90.000000
_cell_volume 1957.778519
_symmetry_space_group_name_H-M "P 2/M"
_symmetry_group_IT_number 10
_symmetry_cell_setting 'monoclinic'
loop_
_space_group_symop_operation_xyz
x,y,z
-x,y,-z
-x,-y,-z
x,-y,z
loop_
_atom_site_type_symbol
_atom_site_label
_atom_site_fract_x
_atom_site_fract_y
_atom_site_fract_z
Si Si1 0.184729 0.174587 0.299900
Si Si2 0.378651 0.665212 0.987015
Si Si3 0.425917 0.163076 0.146776
Si Si4 0.317558 0.325515 0.605115
Si Si5 0.630134 0.324859 0.536764
Si Si6 0.157374 0.671074 0.428123
Si Si7 0.011676 0.675351 0.735393
Si Si8 0.819016 0.165404 0.877015
O O1 0.345584 0.212183 0.228998
O O2 0.174664 0.228046 0.367607
O O3 0.067408 0.260571 0.297044
O O4 0.155239 0.000000 0.303462
O O5 0.326270 0.500000 0.990439
O O6 0.444007 0.728412 0.908252
O O7 0.500000 0.669605 0.000000
O O8 0.240212 0.759181 0.047407
O O9 0.306493 0.162520 0.132537
O O10 0.492470 0.000000 0.133528
O O11 0.321047 0.500000 0.598979
O O12 0.464063 0.272488 0.593786
O O13 0.311752 0.262737 0.541476
O O14 0.178484 0.275428 0.681992
O O15 0.641972 0.500000 0.533426
O O16 0.728155 0.264531 0.559629
O O17 0.186016 0.500000 0.403978
O O18 0.000000 0.691570 0.500000
O O19 0.991015 0.500000 0.742082
O O20 0.952169 0.741895 0.812444
O O21 0.870598 0.000000 0.876517
#
# Coordination Sequence:
#
# PCOD8057096 Si02
#       8
#     4   4   4   4   4   4   4   4
#     4  10  20  31  42  59  86 118 147 175 213 259
#     4   9  15  22  35  55  77 104 139 176 209 242
#     4   8  15  26  37  50  73 108 143 171 204 249
#     4   8  14  25  43  64  85 109 137 175 219 258
#     4   8  14  26  43  64  87 109 137 174 218 260
#     4  10  19  30  46  67  88 111 143 181 215 250
#     4  10  17  26  42  63  85 110 145 183 215 249
#     4   9  16  25  36  53  81 114 142 169 207 254
#
# _framework density 16.345057000000001
#
# number of rings (size 3 to 8) (size 9 to 14) (size 15 to 20)
#    0.000    3.000    0.000    3.750    0.000    7.250 
#    0.000    0.000    0.000    1.500    0.000    5.250 
#    0.000    1.000    0.000   11.500    0.000    5.625 
#
# Total GULP energy -396603.035429 kJ/mol
# GULP energy per Si atom -12393.844857 kJ/mol
# Density = 1.630785 g / cm^3
# Si number density = 16.345057 Si / 1000 Ang^3
#
#
#
# Elastic Constant Matrix: (Units=GPa)
#
#
# Indices 1 2 3 4 5 6 
#
# 1 62.3798 25.1388 38.9186 0.0000 -13.7671 0.0000
# 2 25.1388 84.8019 55.8987 0.0000 -11.1982 0.0000
# 3 38.9186 55.8987 125.4115 0.0000 -23.3752 0.0000
# 4 0.0000 0.0000 0.0000 26.9854 0.0000 2.2800
# 5 -13.7671 -11.1982 -23.3752 0.0000 17.7734 0.0000
# 6 0.0000 0.0000 0.0000 2.2800 0.0000 3.4405
#
#
#
# Elastic Compliance Matrix: (Units=1/GPa)
#
#
# Indices 1 2 3 4 5 6 
#
# 1 0.021635 -0.002680 -0.003591 0.000000 0.010347 0.000000
# 2 -0.002680 0.017043 -0.006823 0.000000 -0.000311 0.000000
# 3 -0.003591 -0.006823 0.014320 0.000000 0.011753 0.000000
# 4 0.000000 0.000000 0.000000 0.039255 0.000000 -0.026014
# 5 0.010347 -0.000311 0.011753 0.000000 0.079540 0.000000
# 6 0.000000 0.000000 0.000000 -0.026014 0.000000 0.307890
#
#
# Mechanical properties :
#
#
# Convention : Reuss Voigt Hill
#
# Bulk Modulus (GPa) = 37.29923 56.94504 47.12213
# Shear Modulus (GPa) = 9.71239 19.81568 14.76404
#
# Velocity S-wave (km/s) = 2.44029 3.48564 3.00871
# Velocity P-wave (km/s) = 5.55062 7.14944 6.40015
#
# Compressibility (1/GPa) = 0.02681020
#
# Stress axis : x y z
#
# Youngs Moduli (GPa) = 46.22196 58.67545 69.83412
#
# Poissons Ratio (x) = 0.15727 0.25075
# Poissons Ratio (y) = 0.12389 0.47645
# Poissons Ratio (z) = 0.16597 0.40032
#
# Static dielectric constant tensor:
#      x y z
#    x 2.824810 0.000000 -0.205380 
#    y 0.000000 3.002610 0.000000 
#    z -0.205380 0.000000 3.351140 
# 
# 
# High freq. dielectric constant tensor:
#      x y z
#    x 1.571940 0.000000 -0.018840 
#    y 0.000000 1.616940 0.000000 
#    z -0.018840 0.000000 1.639860 
# 
# From -- ./inp_files/83579.got.cif
#   From: 2010.06.25/outbox.cif.g09.slc.cpg/sg10_42_cif.got.tgz:83579.got - 2010.06.27 22:07:45.
