data_PCOD8057882
_publ_section_title
;
Structure prediction by ZEFSAII (Michael W. Deem and Ramdas Pophale) SiO2 
 PCOD8057882
Probable space group: P 2/M
;
_chemical_formula_sum "Si O2"
_cell_formula_units_Z 28
_cell_length_a 13.550350
_cell_length_b 9.232466
_cell_length_c 13.939903
_cell_angle_alpha 90.000000
_cell_angle_beta 57.630377
_cell_angle_gamma 90.000000
_cell_volume 1472.940396
_symmetry_space_group_name_H-M "P 2/M"
_symmetry_group_IT_number 10
_symmetry_cell_setting 'monoclinic'
loop_
_space_group_symop_operation_xyz
x,y,z
-x,y,-z
-x,-y,-z
x,-y,z
loop_
_atom_site_type_symbol
_atom_site_label
_atom_site_fract_x
_atom_site_fract_y
_atom_site_fract_z
Si Si1 0.446334 0.667782 0.424536
Si Si2 0.250009 0.829388 0.045816
Si Si3 0.155982 0.335594 0.364019
Si Si4 0.645651 0.835535 0.811647
Si Si5 0.025860 0.171186 0.268966
Si Si6 0.423998 0.835582 0.807406
Si Si7 0.183243 0.336126 0.565307
O O1 0.500000 0.696213 0.500000
O O2 0.442239 0.500000 0.398829
O O3 0.531274 0.743397 0.304574
O O4 0.313947 0.730630 0.492984
O O5 0.330889 0.778525 0.092749
O O6 0.114688 0.784001 0.136028
O O7 0.259408 0.000000 0.032876
O O8 0.303007 0.770536 0.916774
O O9 0.149024 0.500000 0.327583
O O10 0.288172 0.274818 0.293977
O O11 0.078320 0.227939 0.341544
O O12 0.119329 0.333609 0.494688
O O13 0.510852 0.830748 0.853373
O O14 0.694988 0.000000 0.774971
O O15 0.898393 0.243381 0.319815
O O16 0.010127 0.000000 0.283340
O O17 0.408949 0.000000 0.778114
O O18 0.189892 0.500000 0.601280
#
# Coordination Sequence:
#
# PCOD8057882 Si02
#       7
#     4   4   4   4   4   4   4
#     4  10  22  40  58  76 101 133 170 216 269 314
#     4   8  16  30  47  73 107 140 169 200 247 302
#     4  10  18  29  46  70 104 141 173 209 250 298
#     4   9  16  27  46  73 104 139 173 205 246 302
#     4  10  20  32  49  74 105 139 174 205 243 304
#     4  10  18  31  54  77 102 133 169 215 258 302
#     4  10  20  34  51  71  99 134 170 212 260 304
#
# _framework density 19.009595000000001
#
# number of rings (size 3 to 8) (size 9 to 14) (size 15 to 20)
#    0.000    2.429    1.429    2.571    0.000    5.429 
#    0.000    3.571    0.000    5.143    0.000    6.000 
#    0.000    0.000    0.000    0.000    0.000    0.000 
#
# Total GULP energy -346939.925438 kJ/mol
# GULP energy per Si atom -12390.711623 kJ/mol
# Density = 1.896633 g / cm^3
# Si number density = 19.009595 Si / 1000 Ang^3
#
#
#
# Elastic Constant Matrix: (Units=GPa)
#
#
# Indices 1 2 3 4 5 6 
#
# 1 41.3025 22.2637 46.6362 0.0000 -10.5769 0.0000
# 2 22.2637 68.6773 60.9895 0.0000 -11.0151 0.0000
# 3 46.6362 60.9895 162.3054 0.0000 -29.4337 0.0000
# 4 0.0000 0.0000 0.0000 11.9166 0.0000 -3.2057
# 5 -10.5769 -11.0151 -29.4337 0.0000 21.4703 0.0000
# 6 0.0000 0.0000 0.0000 -3.2057 0.0000 19.6505
#
#
#
# Elastic Compliance Matrix: (Units=1/GPa)
#
#
# Indices 1 2 3 4 5 6 
#
# 1 0.036857 -0.003822 -0.008274 0.000000 0.004853 0.000000
# 2 -0.003822 0.022250 -0.007365 0.000000 -0.000565 0.000000
# 3 -0.008274 -0.007365 0.013151 0.000000 0.010175 0.000000
# 4 0.000000 0.000000 0.000000 0.087768 0.000000 0.014318
# 5 0.004853 -0.000565 0.010175 0.000000 0.062626 0.000000
# 6 0.000000 0.000000 0.000000 0.014318 0.000000 0.053225
#
#
# Mechanical properties :
#
#
# Convention : Reuss Voigt Hill
#
# Bulk Modulus (GPa) = 29.99744 59.11823 44.55784
# Shear Modulus (GPa) = 15.34157 20.10053 17.72105
#
# Velocity S-wave (km/s) = 2.84393 3.25528 3.05653
# Velocity P-wave (km/s) = 5.15736 6.73021 5.99559
#
# Compressibility (1/GPa) = 0.03333618
#
# Stress axis : x y z
#
# Youngs Moduli (GPa) = 27.13173 44.94407 76.03759
#
# Poissons Ratio (x) = 0.17178 0.62915
# Poissons Ratio (y) = 0.10370 0.56002
# Poissons Ratio (z) = 0.22449 0.33101
#
# Static dielectric constant tensor:
#      x y z
#    x 3.212770 0.000000 -0.349240 
#    y 0.000000 3.390710 0.000000 
#    z -0.349240 0.000000 3.755620 
# 
# 
# High freq. dielectric constant tensor:
#      x y z
#    x 1.701930 0.000000 -0.028860 
#    y 0.000000 1.719860 0.000000 
#    z -0.028860 0.000000 1.743180 
# 
# From -- ./inp_files/66408.got.cif
#   From: 2010.06.25/outbox.cif.g09.slc.cpg/sg10_34_cif.got.tgz:66408.got - 2010.06.27 22:07:45.
