data_PCOD8057259
_publ_section_title
;
Structure prediction by ZEFSAII (Michael W. Deem and Ramdas Pophale) SiO2 
 PCOD8057259
Probable space group: P 2/M
;
_chemical_formula_sum "Si O2"
_cell_formula_units_Z 32
_cell_length_a 18.404633
_cell_length_b 19.328092
_cell_length_c 10.789950
_cell_angle_alpha 90.000000
_cell_angle_beta 29.234459
_cell_angle_gamma 90.000000
_cell_volume 1874.552073
_symmetry_space_group_name_H-M "P 2/M"
_symmetry_group_IT_number 10
_symmetry_cell_setting 'monoclinic'
loop_
_space_group_symop_operation_xyz
x,y,z
-x,y,-z
-x,-y,-z
x,-y,z
loop_
_atom_site_type_symbol
_atom_site_label
_atom_site_fract_x
_atom_site_fract_y
_atom_site_fract_z
Si Si1 0.586837 0.801860 0.243254
Si Si2 0.443433 0.424785 0.387302
Si Si3 0.264781 0.424210 0.907796
Si Si4 0.267233 0.920832 0.404786
Si Si5 0.090830 0.207019 0.737995
Si Si6 0.340066 0.284165 0.491805
Si Si7 0.432353 0.921284 0.906879
Si Si8 0.162766 0.718458 0.010189
O O1 0.500000 0.813467 0.500000
O O2 0.492048 0.757321 0.286659
O O3 0.617999 0.875742 0.134807
O O4 0.743157 0.763805 0.032873
O O5 0.417941 0.500000 0.361288
O O6 0.356119 0.422017 0.645604
O O7 0.618284 0.413639 0.154413
O O8 0.382270 0.363155 0.391049
O O9 0.185624 0.500000 0.038617
O O10 0.146619 0.360711 0.085129
O O11 0.128649 0.870619 0.638336
O O12 0.393941 0.909674 0.320063
O O13 0.210021 0.000000 0.493601
O O14 0.332958 0.902309 0.173156
O O15 0.243590 0.250137 0.526343
O O16 0.000000 0.201892 0.000000
O O17 0.997714 0.246394 0.769968
O O18 0.246262 0.283507 0.756239
O O19 0.404631 0.000000 0.908722
#
# Coordination Sequence:
#
# PCOD8057259 Si02
#       8
#     4   4   4   4   4   4   4   4
#     4  10  17  28  48  70  96 123 152 193 233 274
#     4   8  12  19  35  58  85 120 157 190 225 266
#     4   8  12  20  35  56  86 123 156 184 223 275
#     4   9  18  34  53  70  91 121 158 195 230 277
#     4  10  19  30  46  68  96 126 154 187 233 284
#     4   9  15  26  41  62  92 123 156 193 228 267
#     4   9  18  33  53  73  91 117 156 199 236 271
#     4   9  17  26  39  65  95 124 152 186 234 276
#
# _framework density 17.070744999999999
#
# number of rings (size 3 to 8) (size 9 to 14) (size 15 to 20)
#    0.000    3.000    2.500    1.500    0.000    0.500 
#    0.000    1.875    0.000    5.250    0.000    0.000 
#    0.000    6.000    0.000    0.000    0.000    0.000 
#
# Total GULP energy -396570.408648 kJ/mol
# GULP energy per Si atom -12392.825270 kJ/mol
# Density = 1.703189 g / cm^3
# Si number density = 17.070745 Si / 1000 Ang^3
#
#
#
# Elastic Constant Matrix: (Units=GPa)
#
#
# Indices 1 2 3 4 5 6 
#
# 1 67.6917 59.4344 30.0210 0.0000 -24.9188 0.0000
# 2 59.4344 159.5105 44.6443 0.0000 -19.5102 0.0000
# 3 30.0210 44.6443 38.4757 0.0000 -19.0788 0.0000
# 4 0.0000 0.0000 0.0000 12.7965 0.0000 -14.2677
# 5 -24.9188 -19.5102 -19.0788 0.0000 22.2241 0.0000
# 6 0.0000 0.0000 0.0000 -14.2677 0.0000 21.4362
#
#
#
# Elastic Compliance Matrix: (Units=1/GPa)
#
#
# Indices 1 2 3 4 5 6 
#
# 1 0.033617 -0.008365 -0.002568 0.000000 0.028145 0.000000
# 2 -0.008365 0.011412 -0.011141 0.000000 -0.008924 0.000000
# 3 -0.002568 -0.011141 0.060321 0.000000 0.039125 0.000000
# 4 0.000000 0.000000 0.000000 0.303014 0.000000 0.201682
# 5 0.028145 -0.008924 0.039125 0.000000 0.102308 0.000000
# 6 0.000000 0.000000 0.000000 0.201682 0.000000 0.180887
#
#
# Mechanical properties :
#
#
# Convention : Reuss Voigt Hill
#
# Bulk Modulus (GPa) = 16.33867 59.31969 37.82918
# Shear Modulus (GPa) = 6.61283 20.06326 13.33804
#
# Velocity S-wave (km/s) = 1.97033 3.43198 2.79828
# Velocity P-wave (km/s) = 3.84294 7.10841 5.71391
#
# Compressibility (1/GPa) = 0.06120448
#
# Stress axis : x y z
#
# Youngs Moduli (GPa) = 29.74695 87.62380 16.57788
#
# Poissons Ratio (x) = 0.73294 0.04257
# Poissons Ratio (y) = 0.24882 0.18469
# Poissons Ratio (z) = 0.07639 0.97619
#
# Static dielectric constant tensor:
#      x y z
#    x 2.989240 0.000000 -0.290420 
#    y 0.000000 3.545970 0.000000 
#    z -0.290420 0.000000 2.782280 
# 
# 
# High freq. dielectric constant tensor:
#      x y z
#    x 1.626390 0.000000 -0.021350 
#    y 0.000000 1.678940 0.000000 
#    z -0.021350 0.000000 1.608480 
# 
# From -- ./inp_files/47766.got.cif
#   From: 2010.06.25/outbox.cif.g09.slc.cpg/sg10_24_cif.got.tgz:47766.got - 2010.06.27 22:07:45.
