data_PCOD8057286
_publ_section_title
;
Structure prediction by ZEFSAII (Michael W. Deem and Ramdas Pophale) SiO2 
 PCOD8057286
Probable space group: P 2/M
;
_chemical_formula_sum "Si O2"
_cell_formula_units_Z 32
_cell_length_a 14.461102
_cell_length_b 8.936056
_cell_length_c 14.294268
_cell_angle_alpha 90.000000
_cell_angle_beta 60.206842
_cell_angle_gamma 90.000000
_cell_volume 1603.028505
_symmetry_space_group_name_H-M "P 2/M"
_symmetry_group_IT_number 10
_symmetry_cell_setting 'monoclinic'
loop_
_space_group_symop_operation_xyz
x,y,z
-x,y,-z
-x,-y,-z
x,-y,z
loop_
_atom_site_type_symbol
_atom_site_label
_atom_site_fract_x
_atom_site_fract_y
_atom_site_fract_z
Si Si1 0.323526 0.321885 0.847374
Si Si2 0.947368 0.833414 0.282197
Si Si3 0.406006 0.675319 0.610194
Si Si4 0.108575 0.174257 0.890202
Si Si5 0.276197 0.166150 0.536806
Si Si6 0.515087 0.822890 0.099953
Si Si7 0.920341 0.179584 0.620113
Si Si8 0.311056 0.178000 0.315384
O O1 0.317200 0.500000 0.858887
O O2 0.397400 0.270415 0.721830
O O3 0.203997 0.260274 0.894731
O O4 0.378845 0.254404 0.912027
O O5 0.913504 0.753742 0.202028
O O6 0.851185 0.840283 0.405704
O O7 0.042491 0.759748 0.295443
O O8 0.982553 0.000000 0.233926
O O9 0.500000 0.750435 0.500000
O O10 0.418674 0.500000 0.602388
O O11 0.299152 0.724676 0.611655
O O12 0.142054 0.000000 0.866916
O O13 0.000000 0.198222 0.000000
O O14 0.324671 0.230982 0.416002
O O15 0.321991 0.000000 0.533811
O O16 0.410475 0.761168 0.206119
O O17 0.528191 0.000000 0.104913
O O18 0.500000 0.776853 0.000000
O O19 0.800658 0.242218 0.667264
O O20 0.000000 0.241691 0.500000
O O21 0.923330 0.000000 0.618321
O O22 0.306067 0.000000 0.314329
#
# Coordination Sequence:
#
# PCOD8057286 Si02
#       8
#     4   4   4   4   4   4   4   4
#     4  11  23  39  60  83 110 148 190 233 280 333
#     4   9  16  27  46  75 108 140 173 214 266 321
#     4  10  21  35  51  76 109 146 185 224 277 334
#     4  10  21  37  58  84 114 147 184 230 282 334
#     4  10  17  28  50  78 107 138 177 225 271 319
#     4  10  22  39  58  81 111 146 185 232 282 332
#     4   9  14  23  42  71 107 138 167 214 271 322
#     4   9  17  29  49  80 112 143 182 227 277 329
#
# _framework density 19.962216000000002
#
# number of rings (size 3 to 8) (size 9 to 14) (size 15 to 20)
#    0.000    2.250    2.500    1.125    0.000    2.250 
#    0.000    3.750    0.000    0.000    0.000    3.500 
#    0.000    0.000    0.000    0.000    0.000    0.000 
#
# Total GULP energy -396543.811597 kJ/mol
# GULP energy per Si atom -12391.994112 kJ/mol
# Density = 1.991678 g / cm^3
# Si number density = 19.962216 Si / 1000 Ang^3
#
#
#
# Elastic Constant Matrix: (Units=GPa)
#
#
# Indices 1 2 3 4 5 6 
#
# 1 138.6889 25.6887 54.0195 0.0000 18.1830 0.0000
# 2 25.6887 15.0862 26.6557 0.0000 -0.3843 0.0000
# 3 54.0195 26.6557 111.5286 0.0000 13.8486 0.0000
# 4 0.0000 0.0000 0.0000 13.5935 0.0000 -0.3202
# 5 18.1830 -0.3843 13.8486 0.0000 33.7075 0.0000
# 6 0.0000 0.0000 0.0000 -0.3202 0.0000 4.2303
#
#
#
# Elastic Compliance Matrix: (Units=1/GPa)
#
#
# Indices 1 2 3 4 5 6 
#
# 1 0.011847 -0.020157 -0.000104 0.000000 -0.006578 0.000000
# 2 -0.020157 0.154942 -0.030388 0.000000 0.025125 0.000000
# 3 -0.000104 -0.030388 0.017193 0.000000 -0.007354 0.000000
# 4 0.000000 0.000000 0.000000 0.073696 0.000000 0.005578
# 5 -0.006578 0.025125 -0.007354 0.000000 0.036523 0.000000
# 6 0.000000 0.000000 0.000000 0.005578 0.000000 0.236813
#
#
# Mechanical properties :
#
#
# Convention : Reuss Voigt Hill
#
# Bulk Modulus (GPa) = 12.09433 53.11460 32.60447
# Shear Modulus (GPa) = 7.57722 20.90224 14.23973
#
# Velocity S-wave (km/s) = 1.95039 3.23939 2.67373
# Velocity P-wave (km/s) = 3.33823 6.37627 5.08924
#
# Compressibility (1/GPa) = 0.08268337
#
# Stress axis : x y z
#
# Youngs Moduli (GPa) = 84.41129 6.45404 58.16475
#
# Poissons Ratio (x) = 0.13009 0.00603
# Poissons Ratio (y) = 1.70148 1.76752
# Poissons Ratio (z) = 0.00875 0.19613
#
# Static dielectric constant tensor:
#      x y z
#    x 3.759830 0.000000 0.004580 
#    y 0.000000 3.044400 0.000000 
#    z 0.004580 0.000000 3.798260 
# 
# 
# High freq. dielectric constant tensor:
#      x y z
#    x 1.791900 0.000000 0.006000 
#    y 0.000000 1.717070 0.000000 
#    z 0.006000 0.000000 1.780880 
# 
# From -- ./inp_files/66501.got.cif
#   From: 2010.06.25/outbox.cif.g09.slc.cpg/sg10_34_cif.got.tgz:66501.got - 2010.06.27 22:07:45.
