data_PCOD8057614
_publ_section_title
;
Structure prediction by ZEFSAII (Michael W. Deem and Ramdas Pophale) SiO2 
 PCOD8057614
Probable space group: P 2/M
;
_chemical_formula_sum "Si O2"
_cell_formula_units_Z 32
_cell_length_a 12.485555
_cell_length_b 8.897319
_cell_length_c 23.930997
_cell_angle_alpha 90.000000
_cell_angle_beta 134.325219
_cell_angle_gamma 90.000000
_cell_volume 1901.812905
_symmetry_space_group_name_H-M "P 2/M"
_symmetry_group_IT_number 10
_symmetry_cell_setting 'monoclinic'
loop_
_space_group_symop_operation_xyz
x,y,z
-x,y,-z
-x,-y,-z
x,-y,z
loop_
_atom_site_type_symbol
_atom_site_label
_atom_site_fract_x
_atom_site_fract_y
_atom_site_fract_z
Si Si1 0.861766 0.166345 0.991618
Si Si2 0.544236 0.822432 0.407505
Si Si3 0.909677 0.177954 0.837246
Si Si4 0.951757 0.323279 0.422632
Si Si5 0.376103 0.326532 0.677486
Si Si6 0.687522 0.326823 0.841094
Si Si7 0.202988 0.676010 0.431839
Si Si8 0.226421 0.675465 0.312773
O O1 0.930544 0.221632 0.075969
O O2 0.791617 0.000000 0.972008
O O3 0.734589 0.276718 0.920986
O O4 0.000000 0.161276 0.000000
O O5 0.611218 0.774654 0.372595
O O6 0.648478 0.762594 0.495227
O O7 0.380620 0.755771 0.355082
O O8 0.534342 0.000000 0.407427
O O9 0.770911 0.230743 0.824569
O O10 0.902134 0.258731 0.774619
O O11 0.895931 0.000000 0.825331
O O12 0.975975 0.500000 0.433100
O O13 0.778277 0.282787 0.347320
O O14 0.000000 0.253817 0.500000
O O15 0.058954 0.259579 0.412909
O O16 0.372134 0.500000 0.656198
O O17 0.510516 0.298520 0.769905
O O18 0.730611 0.500000 0.848365
O O19 0.229871 0.500000 0.452449
O O20 0.173788 0.709029 0.356295
O O21 0.247389 0.500000 0.308777
#
# Coordination Sequence:
#
# PCOD8057614 Si02
#       8
#     4   4   4   4   4   4   4   4
#     4   8  16  29  44  64  95 131 161 191 235 290
#     4  12  23  33  49  71  99 132 164 199 243 290
#     4  10  19  31  47  68  97 132 162 193 240 293
#     4   9  16  31  56  74  90 124 165 203 246 292
#     4  10  19  32  51  74  99 128 164 201 242 289
#     4  10  18  27  45  72 100 128 160 199 238 283
#     4  10  21  37  54  71  93 127 168 207 245 288
#     4  11  22  34  50  72  98 128 165 205 242 288
#
# _framework density 16.826049000000001
#
# number of rings (size 3 to 8) (size 9 to 14) (size 15 to 20)
#    0.000    2.000    2.500    3.375    0.000    5.750 
#    0.000    1.250    0.000    0.000    0.000    0.875 
#    0.000    7.000    0.000    0.000    0.000    0.000 
#
# Total GULP energy -396744.088847 kJ/mol
# GULP energy per Si atom -12398.252776 kJ/mol
# Density = 1.678775 g / cm^3
# Si number density = 16.826049 Si / 1000 Ang^3
#
#
#
# Elastic Constant Matrix: (Units=GPa)
#
#
# Indices 1 2 3 4 5 6 
#
# 1 50.9332 16.6901 38.4098 0.0000 -9.1621 0.0000
# 2 16.6901 74.0954 51.1405 0.0000 -6.5681 0.0000
# 3 38.4098 51.1405 143.0714 0.0000 -5.5556 0.0000
# 4 0.0000 0.0000 0.0000 25.7834 0.0000 -4.2867
# 5 -9.1621 -6.5681 -5.5556 0.0000 19.7921 0.0000
# 6 0.0000 0.0000 0.0000 -4.2867 0.0000 0.9983
#
#
#
# Elastic Compliance Matrix: (Units=1/GPa)
#
#
# Indices 1 2 3 4 5 6 
#
# 1 0.026602 -0.000566 -0.006540 0.000000 0.010291 0.000000
# 2 -0.000566 0.018279 -0.006224 0.000000 0.004057 0.000000
# 3 -0.006540 -0.006224 0.010891 0.000000 -0.002036 0.000000
# 4 0.000000 0.000000 0.000000 0.135571 0.000000 0.582149
# 5 0.010291 0.004057 -0.002036 0.000000 0.056064 0.000000
# 6 0.000000 0.000000 0.000000 0.582149 0.000000 3.501511
#
#
# Mechanical properties :
#
#
# Convention : Reuss Voigt Hill
#
# Bulk Modulus (GPa) = 34.35040 53.39787 43.87413
# Shear Modulus (GPa) = 1.32091 20.10539 10.71315
#
# Velocity S-wave (km/s) = 0.88698 3.46048 2.52603
# Velocity P-wave (km/s) = 4.63771 6.91163 5.88553
#
# Compressibility (1/GPa) = 0.02911175
#
# Stress axis : x y z
#
# Youngs Moduli (GPa) = 37.59111 54.70673 91.81854
#
# Poissons Ratio (x) = 0.03098 0.60047
# Poissons Ratio (y) = 0.02128 0.57151
# Poissons Ratio (z) = 0.24584 0.34051
#
# Static dielectric constant tensor:
#      x y z
#    x 2.999270 0.000000 0.014730 
#    y 0.000000 3.123710 0.000000 
#    z 0.014730 0.000000 3.568800 
# 
# 
# High freq. dielectric constant tensor:
#      x y z
#    x 1.606900 0.000000 0.003880 
#    y 0.000000 1.643180 0.000000 
#    z 0.003880 0.000000 1.658960 
# 
# From -- ./inp_files/83647.got.cif
#   From: 2010.06.25/outbox.cif.g09.slc.cpg/sg10_42_cif.got.tgz:83647.got - 2010.06.27 22:07:45.
