data_PCOD8057116
_publ_section_title
;
Structure prediction by ZEFSAII (Michael W. Deem and Ramdas Pophale) SiO2 
 PCOD8057116
Probable space group: P 2/M
;
_chemical_formula_sum "Si O2"
_cell_formula_units_Z 32
_cell_length_a 21.485751
_cell_length_b 9.433689
_cell_length_c 12.649778
_cell_angle_alpha 90.000000
_cell_angle_beta 126.068477
_cell_angle_gamma 90.000000
_cell_volume 2072.502475
_symmetry_space_group_name_H-M "P 2/M"
_symmetry_group_IT_number 10
_symmetry_cell_setting 'monoclinic'
loop_
_space_group_symop_operation_xyz
x,y,z
-x,y,-z
-x,-y,-z
x,-y,z
loop_
_atom_site_type_symbol
_atom_site_label
_atom_site_fract_x
_atom_site_fract_y
_atom_site_fract_z
Si Si1 0.676602 0.168056 0.383043
Si Si2 0.413199 0.831539 0.913199
Si Si3 0.412072 0.336767 0.534403
Si Si4 0.000000 0.843864 0.373981
Si Si5 0.164295 0.169117 0.545974
Si Si6 0.412071 0.336767 0.289740
Si Si7 0.164295 0.830883 0.782616
Si Si8 0.676602 0.831944 0.970160
O O1 0.629669 0.224169 0.234320
O O2 0.644881 0.239215 0.456409
O O3 0.765899 0.215182 0.460226
O O4 0.668413 0.000000 0.386180
O O5 0.412218 0.000000 0.912219
O O6 0.500000 0.771804 0.000000
O O7 0.370331 0.775831 0.974983
O O8 0.397996 0.500000 0.549865
O O9 0.393694 0.309751 0.393694
O O10 0.500000 0.294222 0.647539
O O11 0.081159 0.768410 0.421402
O O12 0.000000 0.855494 0.500000
O O13 0.918841 0.768410 0.259084
O O14 0.000000 0.000000 0.322877
O O15 0.182107 0.225066 0.682107
O O16 0.158006 0.000000 0.543716
O O17 0.397995 0.500000 0.246126
O O18 0.355119 0.239215 0.166648
O O19 0.158006 0.000000 0.772296
O O20 0.234101 0.784818 0.928428
O O21 0.668413 0.000000 0.950646
#
# Coordination Sequence:
#
# PCOD8057116 Si02
#       8
#     4   4   4   4   4   4   4   4
#     4  10  17  26  43  66  89 111 139 174 208 246
#     4   9  16  24  35  56  88 118 135 155 201 255
#     4   9  19  35  49  59  77 108 144 181 219 254
#     4   7  10  16  30  52  82 117 144 162 191 238
#     4   8  12  20  34  57  88 117 140 165 199 243
#     4   9  19  35  49  59  77 108 144 181 219 254
#     4   8  12  20  34  57  88 117 140 165 199 243
#     4  10  17  26  43  66  89 111 139 174 208 246
#
# _framework density 15.440270999999999
#
# number of rings (size 3 to 8) (size 9 to 14) (size 15 to 20)
#    0.000    3.250    1.250    3.000    0.000    2.000 
#    0.000    1.875    0.000    2.250    0.000    1.750 
#    0.000   10.000    0.000    0.000    0.000    0.000 
#
# Total GULP energy -396433.298065 kJ/mol
# GULP energy per Si atom -12388.540565 kJ/mol
# Density = 1.540513 g / cm^3
# Si number density = 15.440271 Si / 1000 Ang^3
#
#
#
# Elastic Constant Matrix: (Units=GPa)
#
#
# Indices 1 2 3 4 5 6 
#
# 1 130.9210 31.0306 66.5168 0.0000 25.0775 0.0000
# 2 31.0306 23.2461 27.9536 0.0000 3.2929 0.0000
# 3 66.5168 27.9536 89.4214 0.0000 19.3322 0.0000
# 4 0.0000 0.0000 0.0000 1.8192 0.0000 4.0534
# 5 25.0775 3.2929 19.3322 0.0000 26.6332 0.0000
# 6 0.0000 0.0000 0.0000 4.0534 0.0000 5.6071
#
#
#
# Elastic Compliance Matrix: (Units=1/GPa)
#
#
# Indices 1 2 3 4 5 6 
#
# 1 0.014940 -0.012174 -0.005446 0.000000 -0.008609 0.000000
# 2 -0.012174 0.080489 -0.019491 0.000000 0.015659 0.000000
# 3 -0.005446 -0.019491 0.023364 0.000000 -0.009421 0.000000
# 4 0.000000 0.000000 0.000000 -0.900136 0.000000 0.650708
# 5 -0.008609 0.015659 -0.009421 0.000000 0.050555 0.000000
# 6 0.000000 0.000000 0.000000 0.650708 0.000000 -0.292051
#
#
# Mechanical properties :
#
#
# Convention : Reuss Voigt Hill
#
# Bulk Modulus (GPa) = 22.43658 54.95451 38.69555
# Shear Modulus (GPa) = -5.35469 14.68440 4.66485
#
# Velocity S-wave (km/s) = -1.86428 3.08725 1.74005
# Velocity P-wave (km/s) = 3.15099 6.95536 5.39934
#
# Compressibility (1/GPa) = 0.04457007
#
# Stress axis : x y z
#
# Youngs Moduli (GPa) = 66.93592 12.42413 42.80108
#
# Poissons Ratio (x) = 0.15125 0.23310
# Poissons Ratio (y) = 0.81488 0.83422
# Poissons Ratio (z) = 0.36455 0.24216
#
# Static dielectric constant tensor:
#      x y z
#    x 3.236500 0.000000 0.358580 
#    y 0.000000 2.450820 0.000000 
#    z 0.358580 0.000000 2.901410 
# 
# 
# High freq. dielectric constant tensor:
#      x y z
#    x 1.596360 0.000000 0.023540 
#    y 0.000000 1.537930 0.000000 
#    z 0.023540 0.000000 1.574360 
# 
# From -- ./inp_files/54890.got.cif
#   From: 2010.06.25/outbox.cif.g09.slc.cpg/sg10_28_cif.got.tgz:54890.got - 2010.06.27 22:07:45.
