data_PCOD8057261
_publ_section_title
;
Structure prediction by ZEFSAII (Michael W. Deem and Ramdas Pophale) SiO2 
 PCOD8057261
Probable space group: P 2/M
;
_chemical_formula_sum "Si O2"
_cell_formula_units_Z 28
_cell_length_a 12.061801
_cell_length_b 9.548045
_cell_length_c 14.148503
_cell_angle_alpha 90.000000
_cell_angle_beta 107.347743
_cell_angle_gamma 90.000000
_cell_volume 1555.316598
_symmetry_space_group_name_H-M "P 2/M"
_symmetry_group_IT_number 10
_symmetry_cell_setting 'monoclinic'
loop_
_space_group_symop_operation_xyz
x,y,z
-x,y,-z
-x,-y,-z
x,-y,z
loop_
_atom_site_type_symbol
_atom_site_label
_atom_site_fract_x
_atom_site_fract_y
_atom_site_fract_z
Si Si1 0.570057 0.343678 0.823238
Si Si2 0.759677 0.343958 0.720599
Si Si3 0.203246 0.661375 0.832364
Si Si4 0.331341 0.662460 0.686196
Si Si5 0.975017 0.335461 0.888202
Si Si6 0.369307 0.332226 0.488743
Si Si7 0.368132 0.842549 0.997516
O O1 0.561377 0.500000 0.866274
O O2 0.637572 0.350980 0.742590
O O3 0.443048 0.277660 0.771207
O O4 0.644406 0.243173 0.909214
O O5 0.807932 0.500000 0.713087
O O6 0.724981 0.272103 0.611594
O O7 0.859845 0.267958 0.809432
O O8 0.234205 0.500000 0.864697
O O9 0.215476 0.685742 0.721186
O O10 0.077182 0.699245 0.840214
O O11 0.294756 0.765401 0.900170
O O12 0.358230 0.500000 0.677912
O O13 0.323971 0.726889 0.578893
O O14 0.956058 0.500000 0.898247
O O15 0.000000 0.270965 0.000000
O O16 0.500000 0.277521 0.500000
O O17 0.367889 0.500000 0.482172
O O18 0.321192 0.000000 0.000116
O O19 0.500000 0.842597 0.000000
#
# Coordination Sequence:
#
# PCOD8057261 Si02
#       7
#     4   4   4   4   4   4   4
#     4  10  17  28  48  71  94 123 158 194 233 281
#     4   9  16  26  45  71  97 127 161 195 237 282
#     4  10  19  32  49  67  94 128 161 198 235 280
#     4   9  16  25  41  68  95 120 154 194 235 280
#     4   9  17  29  44  65  93 126 165 201 232 276
#     4   9  14  23  39  66 102 128 149 191 245 290
#     4  11  22  32  44  68  99 125 153 195 247 294
#
# _framework density 18.002765
#
# number of rings (size 3 to 8) (size 9 to 14) (size 15 to 20)
#    0.000    2.429    2.857    1.286    0.000    2.857 
#    0.000    0.714    0.000    8.143    0.000    3.000 
#    0.000    1.143    0.000    0.000    0.000    0.000 
#
# Total GULP energy -346872.819653 kJ/mol
# GULP energy per Si atom -12388.314988 kJ/mol
# Density = 1.796179 g / cm^3
# Si number density = 18.002765 Si / 1000 Ang^3
#
#
#
# Elastic Constant Matrix: (Units=GPa)
#
#
# Indices 1 2 3 4 5 6 
#
# 1 98.9513 9.3304 56.9173 0.0000 -7.6760 0.0000
# 2 9.3304 38.3408 20.2689 0.0000 -2.0521 0.0000
# 3 56.9173 20.2689 149.6036 0.0000 -4.8229 0.0000
# 4 0.0000 0.0000 0.0000 -2.3262 0.0000 -2.0354
# 5 -7.6760 -2.0521 -4.8229 0.0000 31.5726 0.0000
# 6 0.0000 0.0000 0.0000 -2.0354 0.0000 0.6537
#
#
#
# Elastic Compliance Matrix: (Units=1/GPa)
#
#
# Indices 1 2 3 4 5 6 
#
# 1 0.013130 -0.000502 -0.004850 0.000000 0.002419 0.000000
# 2 -0.000502 0.028163 -0.003587 0.000000 0.001160 0.000000
# 3 -0.004850 -0.003587 0.009014 0.000000 -0.000035 0.000000
# 4 0.000000 0.000000 0.000000 -0.115424 0.000000 -0.359379
# 5 0.002419 0.001160 -0.000035 0.000000 0.032331 0.000000
# 6 0.000000 0.000000 0.000000 -0.359379 0.000000 0.410722
#
#
# Mechanical properties :
#
#
# Convention : Reuss Voigt Hill
#
# Bulk Modulus (GPa) = 30.83607 51.10322 40.96965
# Shear Modulus (GPa) = 12.29638 19.33863 15.81750
#
# Velocity S-wave (km/s) = 2.61631 3.28106 2.96736
# Velocity P-wave (km/s) = 5.12762 6.54230 5.87768
#
# Compressibility (1/GPa) = 0.03242955
#
# Stress axis : x y z
#
# Youngs Moduli (GPa) = 76.15891 35.50820 110.93601
#
# Poissons Ratio (x) = 0.01783 0.53799
# Poissons Ratio (y) = 0.03825 0.39794
# Poissons Ratio (z) = 0.36933 0.12737
#
# Static dielectric constant tensor:
#      x y z
#    x 3.345080 0.000000 -0.041190 
#    y 0.000000 2.802810 0.000000 
#    z -0.041190 0.000000 3.643370 
# 
# 
# High freq. dielectric constant tensor:
#      x y z
#    x 1.690880 0.000000 -0.010890 
#    y 0.000000 1.617620 0.000000 
#    z -0.010890 0.000000 1.706160 
# 
# From -- ./inp_files/49347.got.cif
#   From: 2010.06.25/outbox.cif.g09.slc.cpg/sg10_25_cif.got.tgz:49347.got - 2010.06.27 22:07:45.
