data_PCOD8057045
_publ_section_title
;
Structure prediction by ZEFSAII (Michael W. Deem and Ramdas Pophale) SiO2 
 PCOD8057045
Probable space group: P 2/M
;
_chemical_formula_sum "Si O2"
_cell_formula_units_Z 28
_cell_length_a 17.707741
_cell_length_b 8.986136
_cell_length_c 14.231897
_cell_angle_alpha 90.000000
_cell_angle_beta 50.859155
_cell_angle_gamma 90.000000
_cell_volume 1756.446171
_symmetry_space_group_name_H-M "P 2/M"
_symmetry_group_IT_number 10
_symmetry_cell_setting 'monoclinic'
loop_
_space_group_symop_operation_xyz
x,y,z
-x,y,-z
-x,-y,-z
x,-y,z
loop_
_atom_site_type_symbol
_atom_site_label
_atom_site_fract_x
_atom_site_fract_y
_atom_site_fract_z
Si Si1 0.527825 0.676368 0.202152
Si Si2 0.312224 0.170665 0.047862
Si Si3 0.854975 0.828389 0.952630
Si Si4 0.773245 0.324550 0.197809
Si Si5 0.571289 0.828649 0.357161
Si Si6 0.054206 0.834984 0.858274
Si Si7 0.400882 0.664870 0.136293
O O1 0.539446 0.500000 0.204550
O O2 0.518512 0.752777 0.310084
O O3 0.429906 0.715640 0.219151
O O4 0.623042 0.734952 0.074396
O O5 0.199943 0.190882 0.103795
O O6 0.323441 0.226353 0.146807
O O7 0.345640 0.000000 0.016492
O O8 0.969672 0.785025 0.850362
O O9 0.848277 0.000000 0.992966
O O10 0.802853 0.726385 0.070655
O O11 0.761854 0.500000 0.208812
O O12 0.671255 0.251787 0.305720
O O13 0.854383 0.276521 0.211306
O O14 0.500000 0.811350 0.500000
O O15 0.592990 0.000000 0.315793
O O16 0.093563 0.000000 0.803354
O O17 0.000000 0.833853 0.000000
O O18 0.355049 0.500000 0.173656
O O19 0.500000 0.664906 0.000000
#
# Coordination Sequence:
#
# PCOD8057045 Si02
#       7
#     4   4   4   4   4   4   4
#     4  10  19  31  45  61  84 115 146 182 225 261
#     4  10  17  25  42  65  89 118 151 179 209 255
#     4   9  17  28  42  62  89 120 149 178 213 255
#     4  11  20  29  44  63  85 113 145 183 223 260
#     4  11  23  36  49  64  83 112 151 190 225 264
#     4   8  15  28  43  58  83 117 147 176 213 256
#     4   8  16  28  40  58  86 115 144 176 215 260
#
# _framework density 15.941279
#
# number of rings (size 3 to 8) (size 9 to 14) (size 15 to 20)
#    0.000    2.429    1.429    4.286    0.000    7.429 
#    0.000    0.000    0.000    0.000    0.000    0.000 
#    0.000    1.143    0.000   12.857    0.000    6.429 
#
# Total GULP energy -347018.914105 kJ/mol
# GULP energy per Si atom -12393.532647 kJ/mol
# Density = 1.590500 g / cm^3
# Si number density = 15.941279 Si / 1000 Ang^3
#
#
#
# Elastic Constant Matrix: (Units=GPa)
#
#
# Indices 1 2 3 4 5 6 
#
# 1 154.3741 69.3684 37.1625 0.0000 -7.9719 0.0000
# 2 69.3684 114.4871 33.9694 0.0000 -5.0866 0.0000
# 3 37.1625 33.9694 35.3804 0.0000 -2.9904 0.0000
# 4 0.0000 0.0000 0.0000 6.0144 0.0000 5.0467
# 5 -7.9719 -5.0866 -2.9904 0.0000 16.9605 0.0000
# 6 0.0000 0.0000 0.0000 5.0467 0.0000 25.2455
#
#
#
# Elastic Compliance Matrix: (Units=1/GPa)
#
#
# Indices 1 2 3 4 5 6 
#
# 1 0.009945 -0.004029 -0.006380 0.000000 0.002341 0.000000
# 2 -0.004029 0.013890 -0.009047 0.000000 0.000677 0.000000
# 3 -0.006380 -0.009047 0.043822 0.000000 0.002014 0.000000
# 4 0.000000 0.000000 0.000000 0.199780 0.000000 -0.039937
# 5 0.002341 0.000677 0.002014 0.000000 0.060619 0.000000
# 6 0.000000 0.000000 0.000000 -0.039937 0.000000 0.047595
#
#
# Mechanical properties :
#
#
# Convention : Reuss Voigt Hill
#
# Bulk Modulus (GPa) = 34.78813 65.02692 49.90752
# Shear Modulus (GPa) = 11.78845 20.56016 16.17430
#
# Velocity S-wave (km/s) = 2.72231 3.59520 3.18876
# Velocity P-wave (km/s) = 5.63483 7.62325 6.70318
#
# Compressibility (1/GPa) = 0.02874544
#
# Stress axis : x y z
#
# Youngs Moduli (GPa) = 100.55545 71.99369 22.81942
#
# Poissons Ratio (x) = 0.29003 0.14558
# Poissons Ratio (y) = 0.40510 0.20646
# Poissons Ratio (z) = 0.64153 0.65136
#
# Static dielectric constant tensor:
#      x y z
#    x 3.704860 0.000000 -0.097090 
#    y 0.000000 3.141720 0.000000 
#    z -0.097090 0.000000 2.471980 
# 
# 
# High freq. dielectric constant tensor:
#      x y z
#    x 1.633730 0.000000 -0.010480 
#    y 0.000000 1.622800 0.000000 
#    z -0.010480 0.000000 1.532440 
# 
# From -- ./inp_files/68613.got.cif
#   From: 2010.06.25/outbox.cif.g09.slc.cpg/sg10_35_cif.got.tgz:68613.got - 2010.06.27 22:07:45.
