data_PCOD8057300
_publ_section_title
;
Structure prediction by ZEFSAII (Michael W. Deem and Ramdas Pophale) SiO2 
 PCOD8057300
Probable space group: P 2/M
;
_chemical_formula_sum "Si O2"
_cell_formula_units_Z 32
_cell_length_a 23.706877
_cell_length_b 18.199031
_cell_length_c 8.118906
_cell_angle_alpha 90.000000
_cell_angle_beta 32.559585
_cell_angle_gamma 90.000000
_cell_volume 1885.145079
_symmetry_space_group_name_H-M "P 2/M"
_symmetry_group_IT_number 10
_symmetry_cell_setting 'monoclinic'
loop_
_space_group_symop_operation_xyz
x,y,z
-x,y,-z
-x,-y,-z
x,-y,z
loop_
_atom_site_type_symbol
_atom_site_label
_atom_site_fract_x
_atom_site_fract_y
_atom_site_fract_z
Si Si1 0.999288 0.912849 0.686878
Si Si2 0.388152 0.195849 0.731112
Si Si3 0.221537 0.915209 0.263719
Si Si4 0.380588 0.649454 0.919533
Si Si5 0.609075 0.810233 0.652779
Si Si6 0.779549 0.084370 0.353692
Si Si7 0.623284 0.652425 0.713416
Si Si8 0.395119 0.415372 0.565465
O O1 0.103544 0.885919 0.523656
O O2 0.000000 0.881795 0.500000
O O3 0.996990 0.000000 0.694613
O O4 0.895651 0.883039 0.033991
O O5 0.500000 0.160164 0.500000
O O6 0.363326 0.265838 0.908462
O O7 0.398164 0.217948 0.516066
O O8 0.300397 0.133816 0.965128
O O9 0.249354 0.906142 0.385513
O O10 0.232665 0.000000 0.179420
O O11 0.504308 0.636231 0.648468
O O12 0.331643 0.597602 0.894490
O O13 0.329290 0.628204 0.224618
O O14 0.694328 0.873944 0.454997
O O15 0.646486 0.738831 0.659767
O O16 0.500000 0.838989 0.000000
O O17 0.775117 0.000000 0.308462
O O18 0.670834 0.610402 0.435217
O O19 0.500000 0.634436 0.000000
O O20 0.426980 0.500000 0.467053
#
# Coordination Sequence:
#
# PCOD8057300 Si02
#       8
#     4   4   4   4   4   4   4   4
#     4   9  17  32  51  71  94 118 151 200 256 302
#     4  12  20  33  50  65  95 130 168 203 246 297
#     4  10  21  34  50  72  93 123 165 208 250 295
#     4  10  17  29  43  63  89 124 159 195 236 285
#     4  11  21  33  48  68  93 130 169 204 244 297
#     4  10  20  34  51  70  93 124 163 208 254 295
#     4   9  17  29  43  60  91 123 159 193 234 285
#     4  10  18  28  44  67  90 121 163 197 233 281
#
# _framework density 16.974822
#
# number of rings (size 3 to 8) (size 9 to 14) (size 15 to 20)
#    0.000    1.875    2.500    4.875    0.000    6.250 
#    0.000    0.000    0.000    0.000    0.000    0.000 
#    0.000    0.000    0.000    3.375    0.000   44.250 
#
# Total GULP energy -396492.438936 kJ/mol
# GULP energy per Si atom -12390.388717 kJ/mol
# Density = 1.693619 g / cm^3
# Si number density = 16.974822 Si / 1000 Ang^3
#
#
#
# Elastic Constant Matrix: (Units=GPa)
#
#
# Indices 1 2 3 4 5 6 
#
# 1 113.1473 31.3683 30.7408 0.0000 26.5054 0.0000
# 2 31.3683 62.1231 26.1929 0.0000 -3.0808 0.0000
# 3 30.7408 26.1929 64.3056 0.0000 4.0869 0.0000
# 4 0.0000 0.0000 0.0000 4.5603 0.0000 8.7624
# 5 26.5054 -3.0808 4.0869 0.0000 32.5595 0.0000
# 6 0.0000 0.0000 0.0000 8.7624 0.0000 16.3884
#
#
#
# Elastic Compliance Matrix: (Units=1/GPa)
#
#
# Indices 1 2 3 4 5 6 
#
# 1 0.014315 -0.006333 -0.003513 0.000000 -0.011812 0.000000
# 2 -0.006333 0.022503 -0.006655 0.000000 0.008120 0.000000
# 3 -0.003513 -0.006655 0.019958 0.000000 -0.000275 0.000000
# 4 0.000000 0.000000 0.000000 -8.020893 0.000000 4.288504
# 5 -0.011812 0.008120 -0.000275 0.000000 0.041131 0.000000
# 6 0.000000 0.000000 0.000000 4.288504 0.000000 -2.231902
#
#
# Mechanical properties :
#
#
# Convention : Reuss Voigt Hill
#
# Bulk Modulus (GPa) = 42.06028 46.24221 44.15125
# Shear Modulus (GPa) = -0.49437 20.78658 10.14611
#
# Velocity S-wave (km/s) = -0.54025 3.50316 2.44747
# Velocity P-wave (km/s) = 4.94395 6.60784 5.83551
#
# Compressibility (1/GPa) = 0.02377540
#
# Stress axis : x y z
#
# Youngs Moduli (GPa) = 69.85628 44.43806 50.10466
#
# Poissons Ratio (x) = 0.28142 0.17602
# Poissons Ratio (y) = 0.44238 0.33343
# Poissons Ratio (z) = 0.24541 0.29572
#
# Static dielectric constant tensor:
#      x y z
#    x 3.612690 0.000000 0.476360 
#    y 0.000000 2.906370 0.000000 
#    z 0.476360 0.000000 3.110870 
# 
# 
# High freq. dielectric constant tensor:
#      x y z
#    x 1.669890 0.000000 0.040780 
#    y 0.000000 1.630590 0.000000 
#    z 0.040780 0.000000 1.611020 
# 
# From -- ./inp_files/36445.got.cif
#   From: 2010.06.25/outbox.cif.g09.slc.cpg/sg10_19_cif.got.tgz:36445.got - 2010.06.27 22:07:45.
