data_PCOD8057623
_publ_section_title
;
Structure prediction by ZEFSAII (Michael W. Deem and Ramdas Pophale) SiO2 
 PCOD8057623
Probable space group: P 2/M
;
_chemical_formula_sum "Si O2"
_cell_formula_units_Z 24
_cell_length_a 9.132897
_cell_length_b 12.426513
_cell_length_c 19.268138
_cell_angle_alpha 90.000000
_cell_angle_beta 44.684996
_cell_angle_gamma 90.000000
_cell_volume 1537.735796
_symmetry_space_group_name_H-M "P 2/M"
_symmetry_group_IT_number 10
_symmetry_cell_setting 'monoclinic'
loop_
_space_group_symop_operation_xyz
x,y,z
-x,y,-z
-x,-y,-z
x,-y,z
loop_
_atom_site_type_symbol
_atom_site_label
_atom_site_fract_x
_atom_site_fract_y
_atom_site_fract_z
Si Si1 0.768846 0.000000 0.103696
Si Si2 0.928596 0.375623 0.100321
Si Si3 0.590005 0.208370 0.214754
Si Si4 0.579933 0.000000 0.896304
Si Si5 0.734267 0.791630 0.785246
Si Si6 0.169690 0.871206 0.386873
Si Si7 0.270442 0.375623 0.100321
O O1 0.738968 0.895003 0.161036
O O2 0.606811 0.000000 0.095459
O O3 0.000000 0.000000 0.000000
O O4 0.862833 0.500000 0.121398
O O5 0.726033 0.309596 0.194195
O O6 0.117099 0.353315 0.088600
O O7 0.000000 0.336845 0.000000
O O8 0.492881 0.234832 0.171413
O O9 0.396181 0.178775 0.331804
O O10 0.722077 0.104997 0.838964
O O11 0.500000 0.000000 0.000000
O O12 0.891591 0.821225 0.668196
O O13 0.808617 0.690404 0.805805
O O14 0.000000 0.834958 0.500000
O O15 0.188287 0.000000 0.374475
O O16 0.272972 0.500000 0.121398
O O17 0.500000 0.336845 0.000000
#
# Coordination Sequence:
#
# PCOD8057623 Si02
#       7
#     2   4   4   2   4   4   4
#     4  10  18  28  40  66 100 130 152 188 236 296
#     4  10  20  32  47  69  99 138 172 200 240 292
#     4   9  17  31  47  71  99 121 164 204 246 291
#     4  10  18  28  40  66 100 130 152 188 236 296
#     4   9  17  31  47  71  99 121 164 204 246 291
#     4   9  16  32  57  77  99 127 166 213 257 300
#     4  10  20  32  47  69  99 138 172 200 240 292
#
# _framework density 15.607362
#
# number of rings (size 3 to 8) (size 9 to 14) (size 15 to 20)
#    1.000    1.500    1.667    2.000    0.000    6.000 
#    0.000    0.000    0.000    3.000    0.000    4.667 
#    0.000    0.000    0.000    0.000    0.000    0.000 
#
# Total GULP energy -297383.848522 kJ/mol
# GULP energy per Si atom -12390.993688 kJ/mol
# Density = 1.557184 g / cm^3
# Si number density = 15.607362 Si / 1000 Ang^3
#
#
#
# Elastic Constant Matrix: (Units=GPa)
#
#
# Indices 1 2 3 4 5 6 
#
# 1 53.5815 44.0222 35.3724 0.0000 -0.0015 0.0000
# 2 44.0222 85.5419 54.6670 0.0000 -0.0005 0.0000
# 3 35.3724 54.6670 133.1367 0.0000 -0.0026 0.0000
# 4 0.0000 0.0000 0.0000 22.0336 0.0000 0.0003
# 5 -0.0015 -0.0005 -0.0026 0.0000 23.7987 0.0000
# 6 0.0000 0.0000 0.0000 0.0003 0.0000 28.4154
#
#
#
# Elastic Compliance Matrix: (Units=1/GPa)
#
#
# Indices 1 2 3 4 5 6 
#
# 1 0.032902 -0.015382 -0.002426 0.000000 0.000001 0.000000
# 2 -0.015382 0.023041 -0.005374 0.000000 -0.000001 0.000000
# 3 -0.002426 -0.005374 0.010362 0.000000 0.000001 0.000000
# 4 0.000000 0.000000 0.000000 0.045385 0.000000 -0.000001
# 5 0.000001 -0.000001 0.000001 0.000000 0.042019 0.000000
# 6 0.000000 0.000000 0.000000 -0.000001 0.000000 0.035192
#
#
# Mechanical properties :
#
#
# Convention : Reuss Voigt Hill
#
# Bulk Modulus (GPa) = 50.14640 60.04259 55.09450
# Shear Modulus (GPa) = 20.66865 24.06278 22.36571
#
# Velocity S-wave (km/s) = 3.64303 3.93078 3.78964
# Velocity P-wave (km/s) = 7.06366 7.69127 7.38413
#
# Compressibility (1/GPa) = 0.01994161
#
# Stress axis : x y z
#
# Youngs Moduli (GPa) = 30.39286 43.40165 96.50625
#
# Poissons Ratio (x) = 0.66762 0.23408
# Poissons Ratio (y) = 0.46752 0.51860
# Poissons Ratio (z) = 0.07372 0.23323
#
# Static dielectric constant tensor:
#      x y z
#    x 2.267840 0.000000 0.000000 
#    y 0.000000 3.011200 0.000000 
#    z 0.000000 0.000000 2.760610 
# 
# 
# High freq. dielectric constant tensor:
#      x y z
#    x 1.578750 0.000000 0.000000 
#    y 0.000000 1.606600 0.000000 
#    z 0.000000 0.000000 1.571360 
# 
# From -- ./inp_files/82345.got.cif
#   From: 2010.06.25/outbox.cif.g09.slc.cpg/sg10_42_cif.got.tgz:82345.got - 2010.06.27 22:07:45.
