data_PCOD8057420
_publ_section_title
;
Structure prediction by ZEFSAII (Michael W. Deem and Ramdas Pophale) SiO2 
 PCOD8057420
Probable space group: P 2/M
;
_chemical_formula_sum "Si O2"
_cell_formula_units_Z 28
_cell_length_a 16.840553
_cell_length_b 8.746997
_cell_length_c 15.149978
_cell_angle_alpha 90.000000
_cell_angle_beta 45.594502
_cell_angle_gamma 90.000000
_cell_volume 1594.307689
_symmetry_space_group_name_H-M "P 2/M"
_symmetry_group_IT_number 10
_symmetry_cell_setting 'monoclinic'
loop_
_space_group_symop_operation_xyz
x,y,z
-x,y,-z
-x,-y,-z
x,-y,z
loop_
_atom_site_type_symbol
_atom_site_label
_atom_site_fract_x
_atom_site_fract_y
_atom_site_fract_z
Si Si1 0.149192 0.819434 0.949537
Si Si2 0.908031 0.181269 0.194857
Si Si3 0.230627 0.818718 0.354909
Si Si4 0.527466 0.180604 0.882407
Si Si5 0.891986 0.320381 0.389715
Si Si6 0.702214 0.819428 0.010807
Si Si7 0.863070 0.319603 0.743198
O O1 0.162629 0.767423 0.837091
O O2 0.143077 0.000000 0.953953
O O3 0.250849 0.760306 0.931299
O O4 0.034114 0.761028 0.081265
O O5 0.858963 0.269804 0.316715
O O6 0.901569 0.000000 0.216300
O O7 0.355913 0.754339 0.243728
O O8 0.191980 0.765487 0.480602
O O9 0.149340 0.749193 0.344615
O O10 0.226075 0.000000 0.351833
O O11 0.537617 0.000000 0.882938
O O12 0.500000 0.250495 0.000000
O O13 0.427640 0.225750 0.893287
O O14 0.876559 0.500000 0.413304
O O15 0.017780 0.267896 0.312052
O O16 0.766454 0.742578 0.880514
O O17 0.719410 0.000000 0.986848
O O18 0.853928 0.500000 0.744086
#
# Coordination Sequence:
#
# PCOD8057420 Si02
#       7
#     4   4   4   4   4   4   4
#     4   8  15  27  50  80 104 127 162 209 250 292
#     4   9  16  30  51  77 103 129 167 206 247 300
#     4  11  22  36  54  73  97 135 176 209 247 296
#     4   9  17  31  52  78 101 124 166 217 249 284
#     4  11  23  36  49  72 106 138 167 206 252 299
#     4  10  17  31  55  77 103 135 165 202 252 299
#     4  11  22  34  48  73 107 136 164 204 249 298
#
# _framework density 17.562481999999999
#
# number of rings (size 3 to 8) (size 9 to 14) (size 15 to 20)
#    0.000    2.143    2.857    2.571    0.000    3.429 
#    0.000    4.286    0.000    0.857    0.000    6.000 
#    0.000    0.000    0.000    0.000    0.000    0.000 
#
# Total GULP energy -347147.383655 kJ/mol
# GULP energy per Si atom -12398.120845 kJ/mol
# Density = 1.752251 g / cm^3
# Si number density = 17.562482 Si / 1000 Ang^3
#
#
#
# Elastic Constant Matrix: (Units=GPa)
#
#
# Indices 1 2 3 4 5 6 
#
# 1 120.5062 22.5947 50.1646 0.0000 19.2215 0.0000
# 2 22.5947 29.6111 15.7661 0.0000 -3.6672 0.0000
# 3 50.1646 15.7661 92.1241 0.0000 9.3815 0.0000
# 4 0.0000 0.0000 0.0000 9.3254 0.0000 -0.5939
# 5 19.2215 -3.6672 9.3815 0.0000 28.2441 0.0000
# 6 0.0000 0.0000 0.0000 -0.5939 0.0000 14.7632
#
#
#
# Elastic Compliance Matrix: (Units=1/GPa)
#
#
# Indices 1 2 3 4 5 6 
#
# 1 0.013320 -0.008609 -0.004909 0.000000 -0.008552 0.000000
# 2 -0.008609 0.044183 -0.004196 0.000000 0.012990 0.000000
# 3 -0.004909 -0.004196 0.014450 0.000000 -0.002004 0.000000
# 4 0.000000 0.000000 0.000000 0.107509 0.000000 0.004325
# 5 -0.008552 0.012990 -0.002004 0.000000 0.043578 0.000000
# 6 0.000000 0.000000 0.000000 0.004325 0.000000 0.067910
#
#
# Mechanical properties :
#
#
# Convention : Reuss Voigt Hill
#
# Bulk Modulus (GPa) = 27.37877 46.58804 36.98340
# Shear Modulus (GPa) = 14.76865 20.71429 17.74147
#
# Velocity S-wave (km/s) = 2.90301 3.43806 3.18180
# Velocity P-wave (km/s) = 5.18264 6.50730 5.88238
#
# Compressibility (1/GPa) = 0.03652465
#
# Stress axis : x y z
#
# Youngs Moduli (GPa) = 75.07372 22.63292 69.20313
#
# Poissons Ratio (x) = 0.19486 0.33972
# Poissons Ratio (y) = 0.64634 0.29039
# Poissons Ratio (z) = 0.36853 0.09497
#
# Static dielectric constant tensor:
#      x y z
#    x 3.728890 0.000000 0.073250 
#    y 0.000000 2.977230 0.000000 
#    z 0.073250 0.000000 3.210980 
# 
# 
# High freq. dielectric constant tensor:
#      x y z
#    x 1.683180 0.000000 0.011240 
#    y 0.000000 1.654970 0.000000 
#    z 0.011240 0.000000 1.662880 
# 
# From -- ./inp_files/49170.got.cif
#   From: 2010.06.25/outbox.cif.g09.slc.cpg/sg10_25_cif.got.tgz:49170.got - 2010.06.27 22:07:45.
