data_PCOD8057493
_publ_section_title
;
Structure prediction by ZEFSAII (Michael W. Deem and Ramdas Pophale) SiO2 
 PCOD8057493
Probable space group: P 2/M
;
_chemical_formula_sum "Si O2"
_cell_formula_units_Z 28
_cell_length_a 15.441054
_cell_length_b 7.867322
_cell_length_c 32.025110
_cell_angle_alpha 90.000000
_cell_angle_beta 26.402379
_cell_angle_gamma 90.000000
_cell_volume 1729.954348
_symmetry_space_group_name_H-M "P 2/M"
_symmetry_group_IT_number 10
_symmetry_cell_setting 'monoclinic'
loop_
_space_group_symop_operation_xyz
x,y,z
-x,y,-z
-x,-y,-z
x,-y,z
loop_
_atom_site_type_symbol
_atom_site_label
_atom_site_fract_x
_atom_site_fract_y
_atom_site_fract_z
Si Si1 0.244696 0.000000 0.150562
Si Si2 0.798394 0.199563 0.067615
Si Si3 0.062309 0.306001 0.374012
Si Si4 0.190234 0.309896 0.446203
Si Si5 0.784787 0.698174 0.778332
Si Si6 0.330619 0.689570 0.965129
Si Si7 0.296213 0.000000 0.035698
Si Si8 0.592419 0.808161 0.721475
O O1 0.161521 0.826122 0.207187
O O2 0.182327 0.000000 0.128981
O O3 0.475404 0.000000 0.054811
O O4 0.762802 0.297073 0.040028
O O5 0.629712 0.245856 0.173804
O O6 0.804853 0.000000 0.055108
O O7 0.000000 0.264683 0.000000
O O8 0.004661 0.500000 0.393971
O O9 0.088984 0.233759 0.315801
O O10 0.264432 0.302808 0.312139
O O11 0.882778 0.222213 0.478361
O O12 0.267908 0.500000 0.420489
O O13 0.361651 0.209768 0.348063
O O14 0.000000 0.313394 0.500000
O O15 0.828608 0.500000 0.771285
O O16 0.560916 0.720129 0.861882
O O17 0.288327 0.500000 0.001146
O O18 0.235864 0.829819 0.036672
O O19 0.627760 0.000000 0.720476
#
# Coordination Sequence:
#
# PCOD8057493 Si02
#       8
#     2   4   4   4   4   4   2   4
#     4   9  18  28  44  62  82 114 139 170 220 256
#     4  10  20  32  44  59  83 114 148 188 226 252
#     4   9  16  26  39  55  79 112 141 170 207 248
#     4   8  15  26  37  51  76 108 139 168 207 248
#     4   9  17  27  42  63  86 111 144 177 207 251
#     4  10  18  29  47  63  79 112 147 178 217 254
#     4   9  18  32  43  60  87 107 139 181 214 259
#     4  10  18  25  39  57  77 105 142 183 213 244
#
# _framework density 16.185397999999999
#
# number of rings (size 3 to 8) (size 9 to 14) (size 15 to 20)
#    0.000    2.714    2.143    1.286    1.000    4.000 
#    0.000    2.857    0.000    0.000    0.000    0.000 
#    0.000    0.000    0.000    2.571    0.000   11.571 
#
# Total GULP energy -346891.063823 kJ/mol
# GULP energy per Si atom -12388.966565 kJ/mol
# Density = 1.614856 g / cm^3
# Si number density = 16.185398 Si / 1000 Ang^3
#
#
#
# Elastic Constant Matrix: (Units=GPa)
#
#
# Indices 1 2 3 4 5 6 
#
# 1 57.8558 36.2962 49.3281 0.0000 25.7814 0.0000
# 2 36.2962 73.7332 32.6347 0.0000 20.6631 0.0000
# 3 49.3281 32.6347 98.0141 0.0000 31.1804 0.0000
# 4 0.0000 0.0000 0.0000 15.8849 0.0000 7.1796
# 5 25.7814 20.6631 31.1804 0.0000 29.6865 0.0000
# 6 0.0000 0.0000 0.0000 7.1796 0.0000 15.7760
#
#
#
# Elastic Compliance Matrix: (Units=1/GPa)
#
#
# Indices 1 2 3 4 5 6 
#
# 1 0.041386 -0.010523 -0.012346 0.000000 -0.015650 0.000000
# 2 -0.010523 0.020061 0.000227 0.000000 -0.005063 0.000000
# 3 -0.012346 0.000227 0.019493 0.000000 -0.009910 0.000000
# 4 0.000000 0.000000 0.000000 0.079255 0.000000 -0.036069
# 5 -0.015650 -0.005063 -0.009910 0.000000 0.061210 0.000000
# 6 0.000000 0.000000 0.000000 -0.036069 0.000000 0.079802
#
#
# Mechanical properties :
#
#
# Convention : Reuss Voigt Hill
#
# Bulk Modulus (GPa) = 28.04536 51.79124 39.91830
# Shear Modulus (GPa) = 13.95178 19.69241 16.82209
#
# Velocity S-wave (km/s) = 2.93917 3.49187 3.22737
# Velocity P-wave (km/s) = 5.37433 6.95168 6.21326
#
# Compressibility (1/GPa) = 0.03565652
#
# Stress axis : x y z
#
# Youngs Moduli (GPa) = 24.16249 49.84867 51.29978
#
# Poissons Ratio (x) = 0.52453 0.63337
# Poissons Ratio (y) = 0.25425 -0.01165
# Poissons Ratio (z) = 0.29832 -0.01132
#
# Static dielectric constant tensor:
#      x y z
#    x 2.736970 0.000000 0.455160 
#    y 0.000000 3.131060 0.000000 
#    z 0.455160 0.000000 3.294510 
# 
# 
# High freq. dielectric constant tensor:
#      x y z
#    x 1.562300 0.000000 0.043240 
#    y 0.000000 1.628090 0.000000 
#    z 0.043240 0.000000 1.606440 
# 
# From -- ./inp_files/95187.got.cif
#   From: 2010.06.25/outbox.cif.g09.slc.cpg/sg10_48_cif.got.tgz:95187.got - 2010.06.27 22:07:45.
