data_PCOD8057966
_publ_section_title
;
Structure prediction by ZEFSAII (Michael W. Deem and Ramdas Pophale) SiO2 
 PCOD8057966
Probable space group: P 2/M
;
_chemical_formula_sum "Si O2"
_cell_formula_units_Z 32
_cell_length_a 13.370006
_cell_length_b 13.555989
_cell_length_c 11.749771
_cell_angle_alpha 90.000000
_cell_angle_beta 121.664814
_cell_angle_gamma 90.000000
_cell_volume 1812.549901
_symmetry_space_group_name_H-M "P 2/M"
_symmetry_group_IT_number 10
_symmetry_cell_setting 'monoclinic'
loop_
_space_group_symop_operation_xyz
x,y,z
-x,y,-z
-x,-y,-z
x,-y,z
loop_
_atom_site_type_symbol
_atom_site_label
_atom_site_fract_x
_atom_site_fract_y
_atom_site_fract_z
Si Si1 0.562913 0.222372 0.866797
Si Si2 0.893141 0.303689 0.563745
Si Si3 0.862136 0.384410 0.300956
Si Si4 0.441545 0.611138 0.290066
Si Si5 0.535029 0.114280 0.397734
Si Si6 0.677385 0.387648 0.546342
Si Si7 0.681509 0.221694 0.160206
Si Si8 0.220082 0.886002 0.574565
O O1 0.608540 0.326664 0.844902
O O2 0.553262 0.149044 0.754304
O O3 0.438588 0.245901 0.848678
O O4 0.653802 0.181003 0.016077
O O5 0.865304 0.372136 0.438598
O O6 0.795228 0.325577 0.599343
O O7 0.885543 0.186855 0.527438
O O8 0.021785 0.333469 0.685586
O O9 0.853570 0.500000 0.263431
O O10 0.751029 0.324505 0.187341
O O11 0.458700 0.500000 0.258904
O O12 0.349324 0.616932 0.336745
O O13 0.568004 0.655940 0.407251
O O14 0.500000 0.162862 0.500000
O O15 0.669831 0.135339 0.443196
O O16 0.511383 0.000000 0.393392
O O17 0.697013 0.500000 0.519768
O O18 0.749516 0.139386 0.275325
O O19 0.179541 0.000000 0.543264
#
# Coordination Sequence:
#
# PCOD8057966 Si02
#       8
#     4   4   4   4   4   4   4   4
#     4  10  19  31  50  68  99 132 166 198 243 289
#     4  10  18  29  48  72  94 127 166 196 246 299
#     4  10  19  32  49  70  98 128 165 211 243 279
#     4   9  18  27  41  68  97 123 155 196 242 292
#     4   9  18  30  48  76 102 125 158 199 249 296
#     4   9  16  27  43  67  96 123 153 194 244 295
#     4   9  20  34  46  70  95 134 170 199 236 297
#     4   9  18  32  49  72 102 128 156 202 246 292
#
# _framework density 17.654686000000002
#
# number of rings (size 3 to 8) (size 9 to 14) (size 15 to 20)
#    0.000    2.625    0.000    4.500    3.500    2.500 
#    0.000    8.750    0.000    0.750    0.000    2.625 
#    0.000    3.000    0.000    0.000    0.000    0.000 
#
# Total GULP energy -396584.151650 kJ/mol
# GULP energy per Si atom -12393.254739 kJ/mol
# Density = 1.761450 g / cm^3
# Si number density = 17.654686 Si / 1000 Ang^3
#
#
#
# Elastic Constant Matrix: (Units=GPa)
#
#
# Indices 1 2 3 4 5 6 
#
# 1 62.8353 29.6683 24.3719 0.0000 -0.5261 0.0000
# 2 29.6683 82.5944 21.3645 0.0000 0.7322 0.0000
# 3 24.3719 21.3645 69.2091 0.0000 -9.4826 0.0000
# 4 0.0000 0.0000 0.0000 17.2110 0.0000 -3.3075
# 5 -0.5261 0.7322 -9.4826 0.0000 20.7022 0.0000
# 6 0.0000 0.0000 0.0000 -3.3075 0.0000 24.2540
#
#
#
# Elastic Compliance Matrix: (Units=1/GPa)
#
#
# Indices 1 2 3 4 5 6 
#
# 1 0.020990 -0.006024 -0.005793 0.000000 -0.001907 0.000000
# 2 -0.006024 0.015008 -0.002779 0.000000 -0.001957 0.000000
# 3 -0.005793 -0.002779 0.018501 0.000000 0.008426 0.000000
# 4 0.000000 0.000000 0.000000 0.059666 0.000000 0.008137
# 5 -0.001907 -0.001957 0.008426 0.000000 0.052184 0.000000
# 6 0.000000 0.000000 0.000000 0.008137 0.000000 0.042340
#
#
# Mechanical properties :
#
#
# Convention : Reuss Voigt Hill
#
# Bulk Modulus (GPa) = 39.51764 40.60536 40.06150
# Shear Modulus (GPa) = 20.29892 21.71571 21.00731
#
# Velocity S-wave (km/s) = 3.39451 3.51098 3.45324
# Velocity P-wave (km/s) = 6.14783 6.28376 6.21617
#
# Compressibility (1/GPa) = 0.02530515
#
# Stress axis : x y z
#
# Youngs Moduli (GPa) = 47.64144 66.63281 54.04970
#
# Poissons Ratio (x) = 0.40142 0.31312
# Poissons Ratio (y) = 0.28701 0.15023
# Poissons Ratio (z) = 0.27600 0.18520
#
# Static dielectric constant tensor:
#      x y z
#    x 3.294260 0.000000 -0.086550 
#    y 0.000000 3.286650 0.000000 
#    z -0.086550 0.000000 3.162350 
# 
# 
# High freq. dielectric constant tensor:
#      x y z
#    x 1.673050 0.000000 -0.013000 
#    y 0.000000 1.688120 0.000000 
#    z -0.013000 0.000000 1.644210 
# 
# From -- ./inp_files/51285.got.cif
#   From: 2010.06.25/outbox.cif.g09.slc.cpg/sg10_26_cif.got.tgz:51285.got - 2010.06.27 22:07:45.
