data_PCOD8057158
_publ_section_title
;
Structure prediction by ZEFSAII (Michael W. Deem and Ramdas Pophale) SiO2 
 PCOD8057158
Probable space group: P 2/M
;
_chemical_formula_sum "Si O2"
_cell_formula_units_Z 28
_cell_length_a 30.713687
_cell_length_b 8.974616
_cell_length_c 19.647797
_cell_angle_alpha 90.000000
_cell_angle_beta 159.192454
_cell_angle_gamma 90.000000
_cell_volume 1923.850955
_symmetry_space_group_name_H-M "P 2/M"
_symmetry_group_IT_number 10
_symmetry_cell_setting 'monoclinic'
loop_
_space_group_symop_operation_xyz
x,y,z
-x,y,-z
-x,-y,-z
x,-y,z
loop_
_atom_site_type_symbol
_atom_site_label
_atom_site_fract_x
_atom_site_fract_y
_atom_site_fract_z
Si Si1 0.757452 0.168828 0.531551
Si Si2 0.462941 0.830185 0.873151
Si Si3 0.371506 0.331998 0.274196
Si Si4 0.512779 0.825224 0.676765
Si Si5 0.738443 0.824794 0.765033
Si Si6 0.537848 0.675769 0.261312
Si Si7 0.018642 0.824135 0.951429
O O1 0.686373 0.174879 0.354657
O O2 0.681005 0.271682 0.472832
O O3 0.898256 0.221400 0.731244
O O4 0.754444 0.000000 0.556788
O O5 0.522663 0.736232 0.898039
O O6 0.511424 0.000000 0.939875
O O7 0.500000 0.759250 0.000000
O O8 0.500000 0.329850 0.500000
O O9 0.329927 0.500000 0.196672
O O10 0.383829 0.239375 0.222528
O O11 0.271106 0.254954 0.175828
O O12 0.377426 0.786454 0.451491
O O13 0.533120 0.747177 0.779075
O O14 0.533261 0.000000 0.714403
O O15 0.747365 0.000000 0.791851
O O16 0.859953 0.758198 0.906349
O O17 0.527491 0.500000 0.249699
O O18 0.036166 0.000000 0.980983
O O19 0.000000 0.758630 0.000000
#
# Coordination Sequence:
#
# PCOD8057158 Si02
#       7
#     4   4   4   4   4   4   4
#     4   8  15  27  40  56  79 108 139 169 201 234
#     4   8  15  28  44  60  80 107 137 168 205 246
#     4   9  17  28  40  55  77 104 134 172 214 249
#     4  10  17  27  42  58  78 105 139 174 207 243
#     4   9  17  27  41  58  76 105 144 178 206 239
#     4  10  18  26  39  60  84 107 133 164 205 248
#     4   9  15  24  40  59  79 106 143 178 201 229
#
# _framework density 14.554141
#
# number of rings (size 3 to 8) (size 9 to 14) (size 15 to 20)
#    0.857    2.143    0.000    2.571    0.000    4.857 
#    0.000    0.714    0.000    1.714    0.000    0.000 
#    0.000    1.143    0.000   13.429    0.000    2.571 
#
# Total GULP energy -346901.530673 kJ/mol
# GULP energy per Si atom -12389.340381 kJ/mol
# Density = 1.452102 g / cm^3
# Si number density = 14.554141 Si / 1000 Ang^3
#
#
#
# Elastic Constant Matrix: (Units=GPa)
#
#
# Indices 1 2 3 4 5 6 
#
# 1 137.9886 53.0249 44.0839 0.0000 5.6372 0.0000
# 2 53.0249 73.7460 14.8447 0.0000 -0.8805 0.0000
# 3 44.0839 14.8447 46.1681 0.0000 1.7409 0.0000
# 4 0.0000 0.0000 0.0000 8.1354 0.0000 -0.2404
# 5 5.6372 -0.8805 1.7409 0.0000 23.1989 0.0000
# 6 0.0000 0.0000 0.0000 -0.2404 0.0000 17.9961
#
#
#
# Elastic Compliance Matrix: (Units=1/GPa)
#
#
# Indices 1 2 3 4 5 6 
#
# 1 0.013695 -0.007773 -0.010470 0.000000 -0.002837 0.000000
# 2 -0.007773 0.018929 0.001241 0.000000 0.002514 0.000000
# 3 -0.010470 0.001241 0.031249 0.000000 0.000246 0.000000
# 4 0.000000 0.000000 0.000000 0.122968 0.000000 0.001643
# 5 -0.002837 0.002514 0.000246 0.000000 0.043872 0.000000
# 6 0.000000 0.000000 0.000000 0.001643 0.000000 0.055589
#
#
# Mechanical properties :
#
#
# Convention : Reuss Voigt Hill
#
# Bulk Modulus (GPa) = 33.48004 53.53440 43.50722
# Shear Modulus (GPa) = 15.13939 19.59603 17.36771
#
# Velocity S-wave (km/s) = 3.22873 3.67334 3.45819
# Velocity P-wave (km/s) = 6.07893 7.40635 6.77523
#
# Compressibility (1/GPa) = 0.02986854
#
# Stress axis : x y z
#
# Youngs Moduli (GPa) = 73.02013 52.82813 32.00068
#
# Poissons Ratio (x) = 0.41064 0.33506
# Poissons Ratio (y) = 0.56759 -0.03971
# Poissons Ratio (z) = 0.76454 -0.06556
#
# Static dielectric constant tensor:
#      x y z
#    x 2.883310 0.000000 0.063930 
#    y 0.000000 2.714040 0.000000 
#    z 0.063930 0.000000 2.595320 
# 
# 
# High freq. dielectric constant tensor:
#      x y z
#    x 1.551900 0.000000 0.004560 
#    y 0.000000 1.549100 0.000000 
#    z 0.004560 0.000000 1.507340 
# 
# From -- ./inp_files/87150.got.cif
#   From: 2010.06.25/outbox.cif.g09.slc.cpg/sg10_44_cif.got.tgz:87150.got - 2010.06.27 22:07:45.
