data_PCOD8057731
_publ_section_title
;
Structure prediction by ZEFSAII (Michael W. Deem and Ramdas Pophale) SiO2 
 PCOD8057731
Probable space group: P 2/M
;
_chemical_formula_sum "Si O2"
_cell_formula_units_Z 32
_cell_length_a 16.470156
_cell_length_b 8.978941
_cell_length_c 23.629022
_cell_angle_alpha 90.000000
_cell_angle_beta 150.066907
_cell_angle_gamma 90.000000
_cell_volume 1743.648708
_symmetry_space_group_name_H-M "P 2/M"
_symmetry_group_IT_number 10
_symmetry_cell_setting 'monoclinic'
loop_
_space_group_symop_operation_xyz
x,y,z
-x,y,-z
-x,-y,-z
x,-y,z
loop_
_atom_site_type_symbol
_atom_site_label
_atom_site_fract_x
_atom_site_fract_y
_atom_site_fract_z
Si Si1 0.484833 0.824737 0.744693
Si Si2 0.018409 0.672199 0.791887
Si Si3 0.885088 0.175426 0.481445
Si Si4 0.727777 0.664069 0.693769
Si Si5 0.131472 0.327204 0.414644
Si Si6 0.528958 0.176532 0.390685
Si Si7 0.006570 0.664743 0.941907
Si Si8 0.758048 0.826414 0.992608
O O1 0.299237 0.777696 0.645078
O O2 0.534109 0.772449 0.710443
O O3 0.506727 0.000000 0.760720
O O4 0.597748 0.758690 0.863756
O O5 0.031693 0.500000 0.818067
O O6 0.851279 0.732521 0.720967
O O7 0.004485 0.694646 0.716265
O O8 0.186881 0.749345 0.914890
O O9 0.943205 0.259569 0.573076
O O10 0.000000 0.227901 0.500000
O O11 0.898835 0.000000 0.500967
O O12 0.664231 0.500000 0.636083
O O13 0.575855 0.768516 0.618600
O O14 0.823622 0.648580 0.810208
O O15 0.173726 0.500000 0.448832
O O16 0.292090 0.241394 0.492461
O O17 0.539567 0.000000 0.399598
O O18 0.091622 0.500000 0.990721
O O19 0.094889 0.792686 0.960413
O O20 0.000000 0.730060 0.000000
O O21 0.738193 0.000000 0.992893
#
# Coordination Sequence:
#
# PCOD8057731 Si02
#       8
#     4   4   4   4   4   4   4   4
#     4   8  16  30  47  72 102 127 154 194 245 293
#     4   9  20  36  49  65  95 135 173 207 245 288
#     4   9  18  35  59  83 106 128 150 187 242 298
#     4   9  17  29  43  61  89 127 171 211 247 286
#     4  10  20  35  54  73  97 129 164 203 244 290
#     4  10  19  31  47  69  99 130 165 210 255 296
#     4   9  17  28  41  59  88 127 169 209 248 292
#     4  10  18  28  46  69  94 125 163 206 243 284
#
# _framework density 18.352322000000001
#
# number of rings (size 3 to 8) (size 9 to 14) (size 15 to 20)
#    0.000    2.750    0.000    3.375    0.000    4.000 
#    0.000    8.125    0.000    0.750    0.000    5.250 
#    0.000    0.000    0.000    0.000    0.000    0.000 
#
# Total GULP energy -396432.270907 kJ/mol
# GULP energy per Si atom -12388.508466 kJ/mol
# Density = 1.831055 g / cm^3
# Si number density = 18.352322 Si / 1000 Ang^3
#
#
#
# Elastic Constant Matrix: (Units=GPa)
#
#
# Indices 1 2 3 4 5 6 
#
# 1 76.2261 24.1109 29.3620 0.0000 -8.9264 0.0000
# 2 24.1109 56.3401 28.2964 0.0000 -6.0535 0.0000
# 3 29.3620 28.2964 88.2922 0.0000 -20.6252 0.0000
# 4 0.0000 0.0000 0.0000 23.2553 0.0000 -3.8695
# 5 -8.9264 -6.0535 -20.6252 0.0000 23.5263 0.0000
# 6 0.0000 0.0000 0.0000 -3.8695 0.0000 21.2933
#
#
#
# Elastic Compliance Matrix: (Units=1/GPa)
#
#
# Indices 1 2 3 4 5 6 
#
# 1 0.016228 -0.005070 -0.003318 0.000000 0.001944 0.000000
# 2 -0.005070 0.022746 -0.005893 0.000000 -0.001237 0.000000
# 3 -0.003318 -0.005893 0.017190 0.000000 0.012295 0.000000
# 4 0.000000 0.000000 0.000000 0.044342 0.000000 0.008058
# 5 0.001944 -0.001237 0.012295 0.000000 0.053704 0.000000
# 6 0.000000 0.000000 0.000000 0.008058 0.000000 0.048427
#
#
# Mechanical properties :
#
#
# Convention : Reuss Voigt Hill
#
# Bulk Modulus (GPa) = 36.22724 42.71076 39.46900
# Shear Modulus (GPa) = 20.79881 22.88760 21.84320
#
# Velocity S-wave (km/s) = 3.37011 3.53529 3.45369
# Velocity P-wave (km/s) = 5.90985 6.32357 6.12021
#
# Compressibility (1/GPa) = 0.02760354
#
# Stress axis : x y z
#
# Youngs Moduli (GPa) = 61.62151 43.96464 58.17307
#
# Poissons Ratio (x) = 0.22288 0.19301
# Poissons Ratio (y) = 0.31240 0.34279
# Poissons Ratio (z) = 0.20445 0.25907
#
# Static dielectric constant tensor:
#      x y z
#    x 3.201780 0.000000 -0.224590 
#    y 0.000000 3.279690 0.000000 
#    z -0.224590 0.000000 3.608880 
# 
# 
# High freq. dielectric constant tensor:
#      x y z
#    x 1.677290 0.000000 -0.020740 
#    y 0.000000 1.698100 0.000000 
#    z -0.020740 0.000000 1.711970 
# 
# From -- ./inp_files/89956.got.cif
#   From: 2010.06.25/outbox.cif.g09.slc.cpg/sg10_45_cif.got.tgz:89956.got - 2010.06.27 22:07:45.
