data_PCOD8057642
_publ_section_title
;
Structure prediction by ZEFSAII (Michael W. Deem and Ramdas Pophale) SiO2 
 PCOD8057642
Probable space group: P 2/M
;
_chemical_formula_sum "Si O2"
_cell_formula_units_Z 32
_cell_length_a 21.460847
_cell_length_b 9.379841
_cell_length_c 31.040394
_cell_angle_alpha 90.000000
_cell_angle_beta 18.986159
_cell_angle_gamma 90.000000
_cell_volume 2032.856248
_symmetry_space_group_name_H-M "P 2/M"
_symmetry_group_IT_number 10
_symmetry_cell_setting 'monoclinic'
loop_
_space_group_symop_operation_xyz
x,y,z
-x,y,-z
-x,-y,-z
x,-y,z
loop_
_atom_site_type_symbol
_atom_site_label
_atom_site_fract_x
_atom_site_fract_y
_atom_site_fract_z
Si Si1 0.856231 0.657762 0.633971
Si Si2 0.805475 0.668796 0.288683
Si Si3 0.216394 0.665451 0.444563
Si Si4 0.812807 0.165150 0.094487
Si Si5 0.150504 0.836616 0.027277
Si Si6 0.462534 0.333676 0.362764
Si Si7 0.584906 0.835684 0.759786
Si Si8 0.552667 0.668664 0.531365
O O1 0.768663 0.500000 0.698451
O O2 0.683895 0.767257 0.737560
O O3 0.000000 0.657737 0.500000
O O4 0.989906 0.704054 0.587262
O O5 0.837316 0.500000 0.267026
O O6 0.722968 0.722035 0.388786
O O7 0.654683 0.718248 0.350579
O O8 0.007138 0.743454 0.149210
O O9 0.248420 0.500000 0.410679
O O10 0.276920 0.694164 0.454254
O O11 0.349680 0.759348 0.326651
O O12 0.643585 0.254583 0.225370
O O13 0.751855 0.000000 0.134262
O O14 0.849430 0.218312 0.021977
O O15 0.000000 0.193575 0.000000
O O16 0.082891 0.000000 0.072875
O O17 0.358259 0.818071 0.912851
O O18 0.514454 0.500000 0.330991
O O19 0.415650 0.272901 0.441012
O O20 0.646238 0.000000 0.716736
O O21 0.557263 0.500000 0.527247
#
# Coordination Sequence:
#
# PCOD8057642 Si02
#       8
#     4   4   4   4   4   4   4   4
#     4   8  15  27  41  59  86 114 144 178 214 257
#     4   9  17  31  50  66  85 115 150 187 226 262
#     4   9  17  28  42  63  89 117 144 177 217 260
#     4  10  20  32  43  59  90 125 149 176 219 263
#     4  10  20  31  42  63  93 118 145 184 220 255
#     4  10  18  29  47  67  89 116 148 182 219 264
#     4  10  18  28  42  61  88 119 147 178 215 256
#     4   8  16  31  48  68  89 110 145 193 229 255
#
# _framework density 15.741398
#
# number of rings (size 3 to 8) (size 9 to 14) (size 15 to 20)
#    0.000    2.750    1.250    2.625    0.000    4.000 
#    0.000    1.875    0.000    0.000    0.000    0.875 
#    0.000    7.000    0.000    0.000    0.000    0.000 
#
# Total GULP energy -396672.005537 kJ/mol
# GULP energy per Si atom -12396.000173 kJ/mol
# Density = 1.570557 g / cm^3
# Si number density = 15.741398 Si / 1000 Ang^3
#
#
#
# Elastic Constant Matrix: (Units=GPa)
#
#
# Indices 1 2 3 4 5 6 
#
# 1 107.9389 40.0743 60.8842 0.0000 -9.6698 0.0000
# 2 40.0743 57.7406 43.6408 0.0000 -3.7881 0.0000
# 3 60.8842 43.6408 87.1719 0.0000 -0.7046 0.0000
# 4 0.0000 0.0000 0.0000 -138.7463 0.0000 -25.1711
# 5 -9.6698 -3.7881 -0.7046 0.0000 19.9482 0.0000
# 6 0.0000 0.0000 0.0000 -25.1711 0.0000 15.0139
#
#
#
# Elastic Compliance Matrix: (Units=1/GPa)
#
#
# Indices 1 2 3 4 5 6 
#
# 1 0.016843 -0.003823 -0.009792 0.000000 0.007093 0.000000
# 2 -0.003823 0.029196 -0.011920 0.000000 0.003270 0.000000
# 3 -0.009792 -0.011920 0.024228 0.000000 -0.006155 0.000000
# 4 0.000000 0.000000 0.000000 -0.005527 0.000000 -0.009265
# 5 0.007093 0.003270 -0.006155 0.000000 0.053972 0.000000
# 6 0.000000 0.000000 0.000000 -0.009265 0.000000 0.051072
#
#
# Mechanical properties :
#
#
# Convention : Reuss Voigt Hill
#
# Bulk Modulus (GPa) = 52.09185 60.22777 56.15981
# Shear Modulus (GPa) = 22.00197 -13.54004 4.23097
#
# Velocity S-wave (km/s) = 3.74266 -2.93602 1.64123
# Velocity P-wave (km/s) = 7.20005 5.18172 6.27260
#
# Compressibility (1/GPa) = 0.01919686
#
# Stress axis : x y z
#
# Youngs Moduli (GPa) = 59.37263 34.25175 41.27381
#
# Poissons Ratio (x) = 0.13095 0.40417
# Poissons Ratio (y) = 0.22699 0.49196
# Poissons Ratio (z) = 0.58140 0.40826
#
# Static dielectric constant tensor:
#      x y z
#    x 3.521190 0.000000 -0.174330 
#    y 0.000000 2.919840 0.000000 
#    z -0.174330 0.000000 2.838950 
# 
# 
# High freq. dielectric constant tensor:
#      x y z
#    x 1.604190 0.000000 -0.020120 
#    y 0.000000 1.595400 0.000000 
#    z -0.020120 0.000000 1.577750 
# 
# From -- ./inp_files/54855.got.cif
#   From: 2010.06.25/outbox.cif.g09.slc.cpg/sg10_28_cif.got.tgz:54855.got - 2010.06.27 22:07:45.
