data_PCOD8057038
_publ_section_title
;
Structure prediction by ZEFSAII (Michael W. Deem and Ramdas Pophale) SiO2 
 PCOD8057038
Probable space group: P 2/M
;
_chemical_formula_sum "Si O2"
_cell_formula_units_Z 28
_cell_length_a 28.169287
_cell_length_b 8.893843
_cell_length_c 18.904248
_cell_angle_alpha 90.000000
_cell_angle_beta 159.065512
_cell_angle_gamma 90.000000
_cell_volume 1692.224783
_symmetry_space_group_name_H-M "P 2/M"
_symmetry_group_IT_number 10
_symmetry_cell_setting 'monoclinic'
loop_
_space_group_symop_operation_xyz
x,y,z
-x,y,-z
-x,-y,-z
x,-y,z
loop_
_atom_site_type_symbol
_atom_site_label
_atom_site_fract_x
_atom_site_fract_y
_atom_site_fract_z
Si Si1 0.699308 0.322065 0.271035
Si Si2 0.343362 0.675569 0.422005
Si Si3 0.316238 0.171691 0.529371
Si Si4 0.812914 0.821950 0.920948
Si Si5 0.489691 0.174963 0.083363
Si Si6 0.424389 0.834440 0.321158
Si Si7 0.109825 0.823815 0.364681
O O1 0.702131 0.500000 0.266283
O O2 0.591756 0.269111 0.178200
O O3 0.841447 0.263078 0.496891
O O4 0.656801 0.245398 0.136260
O O5 0.334132 0.500000 0.399019
O O6 0.301943 0.718937 0.443376
O O7 0.239504 0.749454 0.224001
O O8 0.496072 0.725745 0.620845
O O9 0.461977 0.193650 0.768358
O O10 0.200953 0.215086 0.424165
O O11 0.298910 0.000000 0.479767
O O12 0.723237 0.774098 0.864445
O O13 0.804568 0.000000 0.898659
O O14 0.961911 0.766750 0.142217
O O15 0.494302 0.000000 0.067984
O O16 0.500000 0.845650 0.500000
O O17 0.417416 0.000000 0.276021
O O18 0.114701 0.000000 0.388277
#
# Coordination Sequence:
#
# PCOD8057038 Si02
#       7
#     4   4   4   4   4   4   4
#     4  10  17  25  41  65  92 118 143 180 226 266
#     4  11  21  30  44  66  93 121 148 184 226 268
#     4   9  18  31  46  64  89 121 154 185 216 259
#     4   9  18  33  51  67  86 116 153 190 223 259
#     4   9  16  28  45  62  83 116 155 189 218 255
#     4   8  15  30  50  67  83 108 147 191 227 260
#     4   9  18  32  48  66  89 120 155 185 217 263
#
# _framework density 16.546264999999998
#
# number of rings (size 3 to 8) (size 9 to 14) (size 15 to 20)
#    0.000    2.714    0.000    5.571    0.000    6.571 
#    0.000    2.857    0.000    0.000    0.000    1.000 
#    0.000    8.000    0.000    0.000    0.000    0.000 
#
# Total GULP energy -346984.224598 kJ/mol
# GULP energy per Si atom -12392.293736 kJ/mol
# Density = 1.650860 g / cm^3
# Si number density = 16.546265 Si / 1000 Ang^3
#
#
#
# Elastic Constant Matrix: (Units=GPa)
#
#
# Indices 1 2 3 4 5 6 
#
# 1 28.7554 19.2907 53.0293 0.0000 4.6215 0.0000
# 2 19.2907 65.2316 47.3696 0.0000 -4.2835 0.0000
# 3 53.0293 47.3696 131.9836 0.0000 -6.8320 0.0000
# 4 0.0000 0.0000 0.0000 16.2381 0.0000 -0.7524
# 5 4.6215 -4.2835 -6.8320 0.0000 15.2684 0.0000
# 6 0.0000 0.0000 0.0000 -0.7524 0.0000 2.5260
#
#
#
# Elastic Compliance Matrix: (Units=1/GPa)
#
#
# Indices 1 2 3 4 5 6 
#
# 1 0.264382 -0.006404 -0.110727 0.000000 -0.131367 0.000000
# 2 -0.006404 0.020986 -0.004662 0.000000 0.005740 0.000000
# 3 -0.110727 -0.004662 0.056719 0.000000 0.057587 0.000000
# 4 0.000000 0.000000 0.000000 0.062446 0.000000 0.018601
# 5 -0.131367 0.005740 0.057587 0.000000 0.132636 0.000000
# 6 0.000000 0.000000 0.000000 0.018601 0.000000 0.401427
#
#
# Mechanical properties :
#
#
# Convention : Reuss Voigt Hill
#
# Bulk Modulus (GPa) = 10.15205 51.70552 30.92878
# Shear Modulus (GPa) = 4.11517 13.89188 9.00353
#
# Velocity S-wave (km/s) = 1.57876 2.90069 2.33522
# Velocity P-wave (km/s) = 3.07769 6.52193 5.09940
#
# Compressibility (1/GPa) = 0.09850229
#
# Stress axis : x y z
#
# Youngs Moduli (GPa) = 3.78240 47.65073 17.63063
#
# Poissons Ratio (x) = 0.30515 1.95219
# Poissons Ratio (y) = 0.02422 0.08219
# Poissons Ratio (z) = 0.41881 0.22214
#
# Static dielectric constant tensor:
#      x y z
#    x 2.966450 0.000000 -0.076180 
#    y 0.000000 3.035850 0.000000 
#    z -0.076180 0.000000 3.667460 
# 
# 
# High freq. dielectric constant tensor:
#      x y z
#    x 1.597090 0.000000 -0.013040 
#    y 0.000000 1.635770 0.000000 
#    z -0.013040 0.000000 1.634020 
# 
# From -- ./inp_files/83192.got.cif
#   From: 2010.06.25/outbox.cif.g09.slc.cpg/sg10_42_cif.got.tgz:83192.got - 2010.06.27 22:07:45.
