data_PCOD8057416
_publ_section_title
;
Structure prediction by ZEFSAII (Michael W. Deem and Ramdas Pophale) SiO2 
 PCOD8057416
Probable space group: P 2/M
;
_chemical_formula_sum "Si O2"
_cell_formula_units_Z 32
_cell_length_a 14.719165
_cell_length_b 8.860303
_cell_length_c 14.300651
_cell_angle_alpha 90.000000
_cell_angle_beta 120.338677
_cell_angle_gamma 90.000000
_cell_volume 1609.629476
_symmetry_space_group_name_H-M "P 2/M"
_symmetry_group_IT_number 10
_symmetry_cell_setting 'monoclinic'
loop_
_space_group_symop_operation_xyz
x,y,z
-x,y,-z
-x,-y,-z
x,-y,z
loop_
_atom_site_type_symbol
_atom_site_label
_atom_site_fract_x
_atom_site_fract_y
_atom_site_fract_z
Si Si1 0.753884 0.832350 0.714211
Si Si2 0.308980 0.175676 0.121373
Si Si3 0.924159 0.821449 0.046122
Si Si4 0.504776 0.180064 0.107618
Si Si5 0.904099 0.821175 0.514867
Si Si6 0.942869 0.676105 0.735451
Si Si7 0.416656 0.830920 0.523718
Si Si8 0.675555 0.820160 0.338366
O O1 0.675956 0.790762 0.759785
O O2 0.846273 0.710999 0.755151
O O3 0.694613 0.836328 0.585661
O O4 0.802859 0.000000 0.760089
O O5 0.405476 0.249381 0.113524
O O6 0.312994 0.000000 0.101392
O O7 0.194251 0.238333 0.033508
O O8 0.955318 0.745126 0.160786
O O9 0.927871 0.000000 0.060827
O O10 0.000000 0.770845 0.000000
O O11 0.615975 0.231702 0.212722
O O12 0.500219 0.000000 0.104780
O O13 0.500000 0.244723 0.000000
O O14 0.921246 0.751149 0.624887
O O15 0.795938 0.762000 0.409017
O O16 0.000000 0.767884 0.500000
O O17 0.901534 0.000000 0.525602
O O18 0.957606 0.500000 0.728724
O O19 0.500000 0.742741 0.500000
O O20 0.394444 0.752946 0.611871
O O21 0.461736 0.000000 0.564768
O O22 0.676608 0.000000 0.348144
#
# Coordination Sequence:
#
# PCOD8057416 Si02
#       8
#     4   4   4   4   4   4   4   4
#     4  10  17  31  53  76 106 140 182 228 273 324
#     4   9  17  29  49  76 105 141 182 222 272 328
#     4  10  19  34  56  80 109 147 187 229 275 327
#     4   9  17  28  44  74 115 144 167 214 276 326
#     4  10  21  38  60  83 108 145 191 232 271 323
#     4  12  24  36  53  79 113 149 184 226 283 336
#     4   9  15  23  44  77 106 132 170 224 275 318
#     4   9  16  28  47  75 107 139 175 215 265 319
#
# _framework density 19.880351000000001
#
# number of rings (size 3 to 8) (size 9 to 14) (size 15 to 20)
#    0.000    2.250    2.500    1.875    0.000    4.500 
#    0.000    3.750    0.000    0.375    0.000    0.875 
#    0.000    3.500    0.000    0.000    0.000    0.000 
#
# Total GULP energy -396557.152838 kJ/mol
# GULP energy per Si atom -12392.411026 kJ/mol
# Density = 1.983510 g / cm^3
# Si number density = 19.880351 Si / 1000 Ang^3
#
#
#
# Elastic Constant Matrix: (Units=GPa)
#
#
# Indices 1 2 3 4 5 6 
#
# 1 125.4168 13.6999 62.2403 0.0000 -4.6006 0.0000
# 2 13.6999 19.0405 14.7649 0.0000 -0.2972 0.0000
# 3 62.2403 14.7649 155.1622 0.0000 -6.3943 0.0000
# 4 0.0000 0.0000 0.0000 5.0853 0.0000 -0.2290
# 5 -4.6006 -0.2972 -6.3943 0.0000 30.6653 0.0000
# 6 0.0000 0.0000 0.0000 -0.2290 0.0000 3.0752
#
#
#
# Elastic Compliance Matrix: (Units=1/GPa)
#
#
# Indices 1 2 3 4 5 6 
#
# 1 0.010324 -0.004566 -0.003676 0.000000 0.000738 0.000000
# 2 -0.004566 0.058733 -0.003795 0.000000 -0.000907 0.000000
# 3 -0.003676 -0.003795 0.008328 0.000000 0.001148 0.000000
# 4 0.000000 0.000000 0.000000 0.197308 0.000000 0.014695
# 5 0.000738 -0.000907 0.001148 0.000000 0.032951 0.000000
# 6 0.000000 0.000000 0.000000 0.014695 0.000000 0.326282
#
#
# Mechanical properties :
#
#
# Convention : Reuss Voigt Hill
#
# Bulk Modulus (GPa) = 18.75782 53.44775 36.10278
# Shear Modulus (GPa) = 7.39897 21.69278 14.54587
#
# Velocity S-wave (km/s) = 1.93128 3.30687 2.70788
# Velocity P-wave (km/s) = 3.79854 6.44388 5.28926
#
# Compressibility (1/GPa) = 0.05331111
#
# Stress axis : x y z
#
# Youngs Moduli (GPa) = 96.86523 17.02615 120.07758
#
# Poissons Ratio (x) = 0.07774 0.44143
# Poissons Ratio (y) = 0.44226 0.45568
# Poissons Ratio (z) = 0.35610 0.06461
#
# Static dielectric constant tensor:
#      x y z
#    x 3.849780 0.000000 0.047510 
#    y 0.000000 2.869000 0.000000 
#    z 0.047510 0.000000 3.836600 
# 
# 
# High freq. dielectric constant tensor:
#      x y z
#    x 1.778560 0.000000 0.003850 
#    y 0.000000 1.689670 0.000000 
#    z 0.003850 0.000000 1.792800 
# 
# From -- ./inp_files/66618.got.cif
#   From: 2010.06.25/outbox.cif.g09.slc.cpg/sg10_34_cif.got.tgz:66618.got - 2010.06.27 22:07:45.
