data_PCOD8057762
_publ_section_title
;
Structure prediction by ZEFSAII (Michael W. Deem and Ramdas Pophale) SiO2 
 PCOD8057762
Probable space group: P 2/M
;
_chemical_formula_sum "Si O2"
_cell_formula_units_Z 32
_cell_length_a 23.995535
_cell_length_b 9.204975
_cell_length_c 17.915281
_cell_angle_alpha 90.000000
_cell_angle_beta 30.077082
_cell_angle_gamma 90.000000
_cell_volume 1983.157002
_symmetry_space_group_name_H-M "P 2/M"
_symmetry_group_IT_number 10
_symmetry_cell_setting 'monoclinic'
loop_
_space_group_symop_operation_xyz
x,y,z
-x,y,-z
-x,-y,-z
x,-y,z
loop_
_atom_site_type_symbol
_atom_site_label
_atom_site_fract_x
_atom_site_fract_y
_atom_site_fract_z
Si Si1 0.022526 0.329996 0.057636
Si Si2 0.724446 0.670838 0.204859
Si Si3 0.397362 0.168813 0.780991
Si Si4 0.370801 0.160125 0.129656
Si Si5 0.644328 0.831626 0.439364
Si Si6 0.432992 0.173345 0.903864
Si Si7 0.675404 0.173871 0.660219
Si Si8 0.177130 0.171641 0.644359
O O1 0.998933 0.500000 0.091750
O O2 0.940897 0.247959 0.208584
O O3 0.146953 0.287912 0.935473
O O4 0.000000 0.274719 0.000000
O O5 0.704865 0.500000 0.229485
O O6 0.684394 0.733791 0.172812
O O7 0.652920 0.740249 0.353976
O O8 0.525019 0.198898 0.613133
O O9 0.377601 0.218278 0.889727
O O10 0.368053 0.000000 0.802931
O O11 0.309108 0.236407 0.272356
O O12 0.318828 0.000000 0.181930
O O13 0.500000 0.148844 0.000000
O O14 0.362402 0.236942 0.057266
O O15 0.738142 0.780092 0.388761
O O16 0.659088 0.000000 0.401742
O O17 0.559511 0.232171 0.760124
O O18 0.436949 0.000000 0.905957
O O19 0.775010 0.225126 0.491013
O O20 0.671146 0.000000 0.668226
O O21 0.160316 0.000000 0.665023
#
# Coordination Sequence:
#
# PCOD8057762 Si02
#       8
#     4   4   4   4   4   4   4   4
#     4  10  21  37  50  61  83 116 152 193 237 270
#     4  11  23  36  48  62  84 117 158 196 226 263
#     4  10  19  31  47  68  96 123 149 181 219 265
#     4   7  10  16  32  59  92 124 146 166 202 257
#     4  10  19  31  47  68  94 121 146 179 224 268
#     4   8  12  21  38  62  93 126 148 167 208 264
#     4   8  12  21  37  64  97 120 143 176 213 257
#     4  10  18  28  48  73  93 116 148 185 223 264
#
# _framework density 16.135888000000001
#
# number of rings (size 3 to 8) (size 9 to 14) (size 15 to 20)
#    0.000    2.750    2.500    2.250    0.000    3.250 
#    0.000    0.000    0.000    0.000    0.000    1.750 
#    0.000   10.000    0.000    0.000    0.000    0.000 
#
# Total GULP energy -396523.731432 kJ/mol
# GULP energy per Si atom -12391.366607 kJ/mol
# Density = 1.609916 g / cm^3
# Si number density = 16.135888 Si / 1000 Ang^3
#
#
#
# Elastic Constant Matrix: (Units=GPa)
#
#
# Indices 1 2 3 4 5 6 
#
# 1 112.8254 32.5531 56.0404 0.0000 25.8503 0.0000
# 2 32.5531 27.1839 25.0261 0.0000 3.0320 0.0000
# 3 56.0404 25.0261 79.1912 0.0000 25.3559 0.0000
# 4 0.0000 0.0000 0.0000 6.4179 0.0000 -9.1206
# 5 25.8503 3.0320 25.3559 0.0000 32.8578 0.0000
# 6 0.0000 0.0000 0.0000 -9.1206 0.0000 12.8497
#
#
#
# Elastic Compliance Matrix: (Units=1/GPa)
#
#
# Indices 1 2 3 4 5 6 
#
# 1 0.017903 -0.016103 -0.004710 0.000000 -0.008964 0.000000
# 2 -0.016103 0.069211 -0.016587 0.000000 0.019082 0.000000
# 3 -0.004710 -0.016587 0.025934 0.000000 -0.014777 0.000000
# 4 0.000000 0.000000 0.000000-17.916226 0.000000-12.716746
# 5 -0.008964 0.019082 -0.014777 0.000000 0.047129 0.000000
# 6 0.000000 0.000000 0.000000-12.716746 0.000000 -8.948388
#
#
# Mechanical properties :
#
#
# Convention : Reuss Voigt Hill
#
# Bulk Modulus (GPa) = 26.14443 49.60442 37.87443
# Shear Modulus (GPa) = -0.18785 17.46380 8.63797
#
# Velocity S-wave (km/s) = -0.34157 3.29340 2.31622
# Velocity P-wave (km/s) = 4.01027 6.72832 5.53862
#
# Compressibility (1/GPa) = 0.03824906
#
# Stress axis : x y z
#
# Youngs Moduli (GPa) = 55.85794 14.44847 38.55980
#
# Poissons Ratio (x) = 0.23266 0.18162
# Poissons Ratio (y) = 0.89946 0.63958
# Poissons Ratio (z) = 0.26309 0.23965
#
# Static dielectric constant tensor:
#      x y z
#    x 3.238030 0.000000 0.374470 
#    y 0.000000 2.670130 0.000000 
#    z 0.374470 0.000000 3.130060 
# 
# 
# High freq. dielectric constant tensor:
#      x y z
#    x 1.613660 0.000000 0.026980 
#    y 0.000000 1.577990 0.000000 
#    z 0.026980 0.000000 1.610170 
# 
# From -- ./inp_files/54858.got.cif
#   From: 2010.06.25/outbox.cif.g09.slc.cpg/sg10_28_cif.got.tgz:54858.got - 2010.06.27 22:07:45.
