data_PCOD8057552
_publ_section_title
;
Structure prediction by ZEFSAII (Michael W. Deem and Ramdas Pophale) SiO2 
 PCOD8057552
Probable space group: P 2/M
;
_chemical_formula_sum "Si O2"
_cell_formula_units_Z 32
_cell_length_a 33.626996
_cell_length_b 9.494945
_cell_length_c 22.375969
_cell_angle_alpha 90.000000
_cell_angle_beta 17.278756
_cell_angle_gamma 90.000000
_cell_volume 2122.019221
_symmetry_space_group_name_H-M "P 2/M"
_symmetry_group_IT_number 10
_symmetry_cell_setting 'monoclinic'
loop_
_space_group_symop_operation_xyz
x,y,z
-x,y,-z
-x,-y,-z
x,-y,z
loop_
_atom_site_type_symbol
_atom_site_label
_atom_site_fract_x
_atom_site_fract_y
_atom_site_fract_z
Si Si1 0.083239 0.160462 0.595336
Si Si2 0.791632 0.836032 0.039368
Si Si3 0.692828 0.342306 0.766838
Si Si4 0.583070 0.659472 0.790969
Si Si5 0.184263 0.835215 0.582444
Si Si6 0.264847 0.662906 0.762470
Si Si7 0.004389 0.660664 0.062994
Si Si8 0.491355 0.155640 0.583694
O O1 0.174442 0.247560 0.418123
O O2 0.114310 0.196021 0.619643
O O3 0.116759 0.000000 0.533278
O O4 0.927068 0.196365 0.808179
O O5 0.789529 0.739334 0.100728
O O6 0.664019 0.804416 0.179237
O O7 0.789757 0.000000 0.062972
O O8 0.735214 0.500000 0.722895
O O9 0.639669 0.334894 0.776191
O O10 0.573200 0.292214 0.982872
O O11 0.594713 0.500000 0.749413
O O12 0.667848 0.765148 0.627865
O O13 0.094703 0.766433 0.761936
O O14 0.199420 0.000000 0.573676
O O15 0.291841 0.500000 0.738765
O O16 0.404118 0.732305 0.539373
O O17 0.156576 0.682239 0.865921
O O18 0.958249 0.500000 0.141644
O O19 0.000000 0.698188 0.000000
O O20 0.500000 0.156193 0.500000
O O21 0.525940 0.000000 0.559220
#
# Coordination Sequence:
#
# PCOD8057552 Si02
#       8
#     4   4   4   4   4   4   4   4
#     4   9  16  24  36  54  78 103 128 159 190 223
#     4   9  16  27  39  54  78 106 130 152 188 236
#     4   8  14  23  35  52  73 100 131 157 184 221
#     4   8  14  25  38  51  72 100 128 157 189 229
#     4  10  18  27  41  58  73  95 129 168 201 229
#     4  10  18  27  41  57  72  93 126 168 200 227
#     4  10  21  34  44  55  74 102 133 165 206 247
#     4   8  15  26  40  54  73 101 126 151 188 235
#
# _framework density 15.079977
#
# number of rings (size 3 to 8) (size 9 to 14) (size 15 to 20)
#    0.000    3.000    1.250    2.250    0.000    4.500 
#    0.000    2.500    0.000    0.000    0.000    0.000 
#    0.000    0.000    0.000    1.125    0.000   22.750 
#
# Total GULP energy -396578.852654 kJ/mol
# GULP energy per Si atom -12393.089145 kJ/mol
# Density = 1.504565 g / cm^3
# Si number density = 15.079977 Si / 1000 Ang^3
#
#
#
# Elastic Constant Matrix: (Units=GPa)
#
#
# Indices 1 2 3 4 5 6 
#
# 1 26.8798 27.3536 27.3476 0.0000 -3.9225 0.0000
# 2 27.3536 96.9358 76.7370 0.0000 -1.3393 0.0000
# 3 27.3476 76.7370 151.5324 0.0000 -6.4751 0.0000
# 4 0.0000 0.0000 0.0000 32.7877 0.0000 0.0347
# 5 -3.9225 -1.3393 -6.4751 0.0000 10.1752 0.0000
# 6 0.0000 0.0000 0.0000 0.0347 0.0000 10.2937
#
#
#
# Elastic Compliance Matrix: (Units=1/GPa)
#
#
# Indices 1 2 3 4 5 6 
#
# 1 0.056308 -0.013707 -0.002437 0.000000 0.018352 0.000000
# 2 -0.013707 0.020669 -0.008329 0.000000 -0.007864 0.000000
# 3 -0.002437 -0.008329 0.011482 0.000000 0.005271 0.000000
# 4 0.000000 0.000000 0.000000 0.030499 0.000000 -0.000103
# 5 0.018352 -0.007864 0.005271 0.000000 0.107672 0.000000
# 6 0.000000 0.000000 0.000000 -0.000103 0.000000 0.097147
#
#
# Mechanical properties :
#
#
# Convention : Reuss Voigt Hill
#
# Bulk Modulus (GPa) = 25.30748 59.80272 42.55510
# Shear Modulus (GPa) = 12.95690 20.24528 16.60109
#
# Velocity S-wave (km/s) = 2.93441 3.66803 3.32154
# Velocity P-wave (km/s) = 5.31974 7.59489 6.55675
#
# Compressibility (1/GPa) = 0.03951401
#
# Stress axis : x y z
#
# Youngs Moduli (GPa) = 17.75941 48.38213 87.09120
#
# Poissons Ratio (x) = 0.66315 0.21223
# Poissons Ratio (y) = 0.24342 0.72540
# Poissons Ratio (z) = 0.04328 0.40298
#
# Static dielectric constant tensor:
#      x y z
#    x 2.323650 0.000000 -0.157410 
#    y 0.000000 3.030230 0.000000 
#    z -0.157410 0.000000 3.416460 
# 
# 
# High freq. dielectric constant tensor:
#      x y z
#    x 1.494210 0.000000 -0.009720 
#    y 0.000000 1.585460 0.000000 
#    z -0.009720 0.000000 1.594720 
# 
# From -- ./inp_files/87189.got.cif
#   From: 2010.06.25/outbox.cif.g09.slc.cpg/sg10_44_cif.got.tgz:87189.got - 2010.06.27 22:07:45.
