data_PCOD8057149
_publ_section_title
;
Structure prediction by ZEFSAII (Michael W. Deem and Ramdas Pophale) SiO2 
 PCOD8057149
Probable space group: P 2/M
;
_chemical_formula_sum "Si O2"
_cell_formula_units_Z 24
_cell_length_a 20.006653
_cell_length_b 9.017531
_cell_length_c 11.562410
_cell_angle_alpha 90.000000
_cell_angle_beta 137.124484
_cell_angle_gamma 90.000000
_cell_volume 1419.318013
_symmetry_space_group_name_H-M "P 2/M"
_symmetry_group_IT_number 10
_symmetry_cell_setting 'monoclinic'
loop_
_space_group_symop_operation_xyz
x,y,z
-x,y,-z
-x,-y,-z
x,-y,z
loop_
_atom_site_type_symbol
_atom_site_label
_atom_site_fract_x
_atom_site_fract_y
_atom_site_fract_z
Si Si1 0.402185 0.327039 0.303579
Si Si2 0.178359 0.675035 0.383266
Si Si3 0.777693 0.175588 0.801746
Si Si4 0.644711 0.675617 0.240175
Si Si5 0.987705 0.163535 0.121210
Si Si6 0.449167 0.676132 0.109098
O O1 0.500000 0.299146 0.500000
O O2 0.373147 0.500000 0.267345
O O3 0.315309 0.232680 0.247364
O O4 0.418474 0.262554 0.195263
O O5 0.179451 0.500000 0.367355
O O6 0.218406 0.747920 0.317713
O O7 0.250113 0.727780 0.577940
O O8 0.067995 0.725447 0.277212
O O9 0.771923 0.000000 0.774918
O O10 0.875523 0.216352 0.001126
O O11 0.637560 0.500000 0.233432
O O12 0.556891 0.737486 0.210286
O O13 0.629246 0.729534 0.087998
O O14 0.005903 0.000000 0.197088
O O15 0.000000 0.157774 0.000000
O O16 0.453053 0.500000 0.121672
#
# Coordination Sequence:
#
# PCOD8057149 Si02
#       6
#     4   4   4   4   4   4
#     4  10  19  30  47  71  94 116 148 187 222 261
#     4  10  17  26  46  73  93 111 147 192 226 262
#     4  10  20  32  45  63  92 126 152 178 220 272
#     4   8  14  25  43  67  92 117 144 177 221 269
#     4   8  16  30  44  61  88 120 150 181 223 270
#     4   8  14  26  43  64  93 122 143 173 222 269
#
# _framework density 16.909528999999999
#
# number of rings (size 3 to 8) (size 9 to 14) (size 15 to 20)
#    0.000    3.000    0.000    4.000    0.000    6.667 
#    0.000    0.000    0.000    3.000    0.000   14.000 
#    0.000    0.000    0.000    0.000    0.000    0.000 
#
# Total GULP energy -297419.966889 kJ/mol
# GULP energy per Si atom -12392.498620 kJ/mol
# Density = 1.687104 g / cm^3
# Si number density = 16.909529 Si / 1000 Ang^3
#
#
#
# Elastic Constant Matrix: (Units=GPa)
#
#
# Indices 1 2 3 4 5 6 
#
# 1 77.9081 31.2043 58.0366 0.0000 4.8018 0.0000
# 2 31.2043 52.7372 47.9077 0.0000 7.0829 0.0000
# 3 58.0366 47.9077 145.1465 0.0000 10.1981 0.0000
# 4 0.0000 0.0000 0.0000 6.8750 0.0000 11.1218
# 5 4.8018 7.0829 10.1981 0.0000 28.0643 0.0000
# 6 0.0000 0.0000 0.0000 11.1218 0.0000 16.2869
#
#
#
# Elastic Compliance Matrix: (Units=1/GPa)
#
#
# Indices 1 2 3 4 5 6 
#
# 1 0.019700 -0.006464 -0.005768 0.000000 0.000357 0.000000
# 2 -0.006464 0.029579 -0.006908 0.000000 -0.003849 0.000000
# 3 -0.005768 -0.006908 0.011580 0.000000 -0.001478 0.000000
# 4 0.000000 0.000000 0.000000 -1.389409 0.000000 0.948780
# 5 0.000357 -0.003849 -0.001478 0.000000 0.037080 0.000000
# 6 0.000000 0.000000 0.000000 0.948780 0.000000 -0.586491
#
#
# Mechanical properties :
#
#
# Convention : Reuss Voigt Hill
#
# Bulk Modulus (GPa) = 44.29100 61.12100 52.70600
# Shear Modulus (GPa) = -2.72903 19.48812 8.37955
#
# Velocity S-wave (km/s) = -1.27177 3.39852 2.22851
# Velocity P-wave (km/s) = 4.90849 7.18500 6.15295
#
# Compressibility (1/GPa) = 0.02257795
#
# Stress axis : x y z
#
# Youngs Moduli (GPa) = 50.76203 33.80793 86.35593
#
# Poissons Ratio (x) = 0.21853 0.49814
# Poissons Ratio (y) = 0.32812 0.59654
# Poissons Ratio (z) = 0.29282 0.23354
#
# Static dielectric constant tensor:
#      x y z
#    x 3.182940 0.000000 0.159130 
#    y 0.000000 2.906960 0.000000 
#    z 0.159130 0.000000 3.554350 
# 
# 
# High freq. dielectric constant tensor:
#      x y z
#    x 1.629400 0.000000 0.016060 
#    y 0.000000 1.624390 0.000000 
#    z 0.016060 0.000000 1.658570 
# 
# From -- ./inp_files/52863.got.cif
#   From: 2010.06.25/outbox.cif.g09.slc.cpg/sg10_27_cif.got.tgz:52863.got - 2010.06.27 22:07:45.
