data_PCOD8057566
_publ_section_title
;
Structure prediction by ZEFSAII (Michael W. Deem and Ramdas Pophale) SiO2 
 PCOD8057566
Probable space group: P 2/M
;
_chemical_formula_sum "Si O2"
_cell_formula_units_Z 28
_cell_length_a 16.828224
_cell_length_b 13.811290
_cell_length_c 8.592941
_cell_angle_alpha 90.000000
_cell_angle_beta 61.229935
_cell_angle_gamma 90.000000
_cell_volume 1750.633137
_symmetry_space_group_name_H-M "P 2/M"
_symmetry_group_IT_number 10
_symmetry_cell_setting 'monoclinic'
loop_
_space_group_symop_operation_xyz
x,y,z
-x,y,-z
-x,-y,-z
x,-y,z
loop_
_atom_site_type_symbol
_atom_site_label
_atom_site_fract_x
_atom_site_fract_y
_atom_site_fract_z
Si Si1 0.308057 0.114126 0.495315
Si Si2 0.139353 0.112732 0.174674
Si Si3 0.984949 0.741560 0.838907
Si Si4 0.320699 0.886267 0.833516
Si Si5 0.845993 0.225537 0.535857
Si Si6 0.502288 0.886503 0.170864
Si Si7 0.096359 0.392363 0.326861
O O1 0.297519 0.151299 0.682240
O O2 0.245609 0.182104 0.447910
O O3 0.410408 0.134836 0.348380
O O4 0.282817 0.000000 0.496973
O O5 0.070341 0.158055 0.114921
O O6 0.116988 0.151952 0.367864
O O7 0.122507 0.000000 0.187716
O O8 0.241637 0.140259 0.028960
O O9 0.922097 0.658908 0.820635
O O10 0.081012 0.760269 0.667666
O O11 0.000000 0.708134 0.000000
O O12 0.413966 0.840104 0.811379
O O13 0.333620 0.000000 0.804095
O O14 0.832980 0.329618 0.634944
O O15 0.520462 0.000000 0.137412
O O16 0.500000 0.840469 0.000000
O O17 0.136961 0.500000 0.264081
O O18 0.000000 0.397535 0.500000
#
# Coordination Sequence:
#
# PCOD8057566 Si02
#       7
#     4   4   4   4   4   4   4
#     4  10  18  27  41  62  90 120 147 179 217 253
#     4  10  19  30  43  59  85 121 154 181 210 249
#     4  10  20  31  44  65  89 113 144 180 215 255
#     4   9  17  28  41  59  85 118 153 187 218 245
#     4  10  19  30  45  64  86 113 146 178 212 259
#     4   9  16  26  40  58  82 115 153 186 215 249
#     4   8  16  32  50  65  83 108 138 176 220 260
#
# _framework density 15.994213
#
# number of rings (size 3 to 8) (size 9 to 14) (size 15 to 20)
#    0.000    2.571    0.000    3.857    0.000    6.286 
#    0.000    0.000    0.000    0.000    0.000    0.000 
#    0.000   16.571    0.000    0.000    0.000    3.714 
#
# Total GULP energy -347065.934650 kJ/mol
# GULP energy per Si atom -12395.211952 kJ/mol
# Density = 1.595781 g / cm^3
# Si number density = 15.994213 Si / 1000 Ang^3
#
#
#
# Elastic Constant Matrix: (Units=GPa)
#
#
# Indices 1 2 3 4 5 6 
#
# 1 89.0289 38.8581 26.6379 0.0000 17.5174 0.0000
# 2 38.8581 78.7155 35.6242 0.0000 3.3913 0.0000
# 3 26.6379 35.6242 74.1842 0.0000 20.5559 0.0000
# 4 0.0000 0.0000 0.0000 7.6427 0.0000 3.5057
# 5 17.5174 3.3913 20.5559 0.0000 25.1538 0.0000
# 6 0.0000 0.0000 0.0000 3.5057 0.0000 13.4802
#
#
#
# Elastic Compliance Matrix: (Units=1/GPa)
#
#
# Indices 1 2 3 4 5 6 
#
# 1 0.016778 -0.008309 0.001154 0.000000 -0.011507 0.000000
# 2 -0.008309 0.020936 -0.010201 0.000000 0.011300 0.000000
# 3 0.001154 -0.010201 0.023018 0.000000 -0.018239 0.000000
# 4 0.000000 0.000000 0.000000 0.148567 0.000000 -0.038637
# 5 -0.011507 0.011300 -0.018239 0.000000 0.061151 0.000000
# 6 0.000000 0.000000 0.000000 -0.038637 0.000000 0.084231
#
#
# Mechanical properties :
#
#
# Convention : Reuss Voigt Hill
#
# Bulk Modulus (GPa) = 38.43292 49.35212 43.89252
# Shear Modulus (GPa) = 12.56075 18.64256 15.60165
#
# Velocity S-wave (km/s) = 2.80542 3.41777 3.12662
# Velocity P-wave (km/s) = 5.88007 6.81895 6.36684
#
# Compressibility (1/GPa) = 0.02601936
#
# Stress axis : x y z
#
# Youngs Moduli (GPa) = 59.60304 47.76568 43.44392
#
# Poissons Ratio (x) = 0.39688 -0.05014
# Poissons Ratio (y) = 0.49523 0.44318
# Poissons Ratio (z) = -0.06878 0.48727
#
# Static dielectric constant tensor:
#      x y z
#    x 3.115700 0.000000 0.135320 
#    y 0.000000 2.909410 0.000000 
#    z 0.135320 0.000000 3.072110 
# 
# 
# High freq. dielectric constant tensor:
#      x y z
#    x 1.616060 0.000000 0.011680 
#    y 0.000000 1.565070 0.000000 
#    z 0.011680 0.000000 1.620660 
# 
# From -- ./inp_files/28824.got.cif
#   From: 2010.06.25/outbox.cif.g09.slc.cpg/sg10_15_cif.got.tgz:28824.got - 2010.06.27 22:07:45.
