data_PCOD8057692
_publ_section_title
;
Structure prediction by ZEFSAII (Michael W. Deem and Ramdas Pophale) SiO2 
 PCOD8057692
Probable space group: P 2/M
;
_chemical_formula_sum "Si O2"
_cell_formula_units_Z 32
_cell_length_a 19.546542
_cell_length_b 12.894261
_cell_length_c 15.262976
_cell_angle_alpha 90.000000
_cell_angle_beta 29.774894
_cell_angle_gamma 90.000000
_cell_volume 1910.322970
_symmetry_space_group_name_H-M "P 2/M"
_symmetry_group_IT_number 10
_symmetry_cell_setting 'monoclinic'
loop_
_space_group_symop_operation_xyz
x,y,z
-x,y,-z
-x,-y,-z
x,-y,z
loop_
_atom_site_type_symbol
_atom_site_label
_atom_site_fract_x
_atom_site_fract_y
_atom_site_fract_z
Si Si1 0.615571 0.112572 0.431348
Si Si2 0.147969 0.749756 0.878358
Si Si3 0.213746 0.879829 0.482188
Si Si4 0.615377 0.616854 0.445482
Si Si5 0.441211 0.211549 0.343352
Si Si6 0.914655 0.883407 0.888367
Si Si7 0.301590 0.118676 0.020853
Si Si8 0.853914 0.121911 0.634875
O O1 0.500000 0.172265 0.500000
O O2 0.765226 0.163587 0.269404
O O3 0.560834 0.110443 0.591251
O O4 0.634114 0.000000 0.369708
O O5 0.239931 0.646291 0.763990
O O6 0.134250 0.791786 0.992543
O O7 0.000000 0.733047 0.000000
O O8 0.322131 0.800356 0.404126
O O9 0.195015 0.836088 0.404751
O O10 0.074707 0.869002 0.691697
O O11 0.264598 0.000000 0.425914
O O12 0.500000 0.625865 0.500000
O O13 0.628604 0.500000 0.466230
O O14 0.579670 0.688010 0.570260
O O15 0.587720 0.205143 0.131891
O O16 0.888798 0.000000 0.955856
O O17 0.833886 0.870916 0.887633
O O18 0.358314 0.000000 0.954495
O O19 0.261044 0.148248 0.164985
O O20 0.000000 0.173032 0.500000
O O21 0.876860 0.000000 0.599757
#
# Coordination Sequence:
#
# PCOD8057692 Si02
#       8
#     4   4   4   4   4   4   4   4
#     4  10  19  31  45  63  99 144 174 198 234 284
#     4  11  21  31  47  73 101 127 161 210 253 296
#     4  10  19  30  46  69 105 142 167 196 236 281
#     4  10  22  41  59  70  91 128 163 203 259 317
#     4  11  20  31  47  73  97 117 160 213 249 283
#     4  10  18  28  44  67  97 138 176 197 225 275
#     4  10  18  28  47  71  99 134 170 203 228 272
#     4   9  16  30  46  66 101 144 176 193 223 274
#
# _framework density 16.751094999999999
#
# number of rings (size 3 to 8) (size 9 to 14) (size 15 to 20)
#    0.000    1.875    1.250    6.000    0.000    4.750 
#    0.000    1.875    0.000    0.000    0.000    1.750 
#    0.000    1.000    0.000    0.000    0.000    0.000 
#
# Total GULP energy -396462.905204 kJ/mol
# GULP energy per Si atom -12389.465788 kJ/mol
# Density = 1.671297 g / cm^3
# Si number density = 16.751095 Si / 1000 Ang^3
#
#
#
# Elastic Constant Matrix: (Units=GPa)
#
#
# Indices 1 2 3 4 5 6 
#
# 1 110.8021 30.0600 42.7126 0.0000 -0.7471 0.0000
# 2 30.0600 77.9358 29.8578 0.0000 -0.0947 0.0000
# 3 42.7126 29.8578 87.2305 0.0000 -6.1390 0.0000
# 4 0.0000 0.0000 0.0000 17.3660 0.0000 0.2134
# 5 -0.7471 -0.0947 -6.1390 0.0000 35.4151 0.0000
# 6 0.0000 0.0000 0.0000 0.2134 0.0000 15.4159
#
#
#
# Elastic Compliance Matrix: (Units=1/GPa)
#
#
# Indices 1 2 3 4 5 6 
#
# 1 0.011591 -0.002625 -0.004819 0.000000 -0.000598 0.000000
# 2 -0.002625 0.015387 -0.004032 0.000000 -0.000713 0.000000
# 3 -0.004819 -0.004032 0.015383 0.000000 0.002554 0.000000
# 4 0.000000 0.000000 0.000000 0.057594 0.000000 -0.000797
# 5 -0.000598 -0.000713 0.002554 0.000000 0.028665 0.000000
# 6 0.000000 0.000000 0.000000 -0.000797 0.000000 0.064879
#
#
# Mechanical properties :
#
#
# Convention : Reuss Voigt Hill
#
# Bulk Modulus (GPa) = 51.52032 53.46990 52.49511
# Shear Modulus (GPa) = 22.42954 25.19528 23.81241
#
# Velocity S-wave (km/s) = 3.66319 3.88248 3.77443
# Velocity P-wave (km/s) = 6.97962 7.21718 7.09939
#
# Compressibility (1/GPa) = 0.01940982
#
# Stress axis : x y z
#
# Youngs Moduli (GPa) = 86.27433 64.98876 65.00574
#
# Poissons Ratio (x) = 0.17061 0.31327
# Poissons Ratio (y) = 0.22648 0.26208
# Poissons Ratio (z) = 0.41576 0.26201
#
# Static dielectric constant tensor:
#      x y z
#    x 3.236440 0.000000 0.026560 
#    y 0.000000 2.863140 0.000000 
#    z 0.026560 0.000000 3.240370 
# 
# 
# High freq. dielectric constant tensor:
#      x y z
#    x 1.653550 0.000000 -0.004930 
#    y 0.000000 1.586110 0.000000 
#    z -0.004930 0.000000 1.656520 
# 
# From -- ./inp_files/38282.got.cif
#   From: 2010.06.25/outbox.cif.g09.slc.cpg/sg10_20_cif.got.tgz:38282.got - 2010.06.27 22:07:45.
