data_PCOD8057098
_publ_section_title
;
Structure prediction by ZEFSAII (Michael W. Deem and Ramdas Pophale) SiO2 
 PCOD8057098
Probable space group: P 2/M
;
_chemical_formula_sum "Si O2"
_cell_formula_units_Z 24
_cell_length_a 13.647067
_cell_length_b 12.803937
_cell_length_c 9.585279
_cell_angle_alpha 90.000000
_cell_angle_beta 107.983760
_cell_angle_gamma 90.000000
_cell_volume 1593.066532
_symmetry_space_group_name_H-M "P 2/M"
_symmetry_group_IT_number 10
_symmetry_cell_setting 'monoclinic'
loop_
_space_group_symop_operation_xyz
x,y,z
-x,y,-z
-x,-y,-z
x,-y,z
loop_
_atom_site_type_symbol
_atom_site_label
_atom_site_fract_x
_atom_site_fract_y
_atom_site_fract_z
Si Si1 0.236869 0.618623 0.137184
Si Si2 0.071889 0.321364 0.278546
Si Si3 0.991330 0.882993 0.162147
Si Si4 0.845899 0.284831 0.166110
Si Si5 0.614638 0.624070 0.562380
Si Si6 0.217138 0.621888 0.582939
O O1 0.259269 0.500000 0.103786
O O2 0.132275 0.622010 0.181096
O O3 0.330433 0.664933 0.272110
O O4 0.228511 0.685539 0.993728
O O5 0.079321 0.194224 0.263709
O O6 0.115349 0.356284 0.446743
O O7 0.951372 0.354703 0.213618
O O8 0.879570 0.836837 0.161583
O O9 0.004886 0.000000 0.227326
O O10 0.000000 0.881588 0.000000
O O11 0.784485 0.305558 0.281395
O O12 0.500000 0.671959 0.500000
O O13 0.611147 0.500000 0.568489
O O14 0.681628 0.657340 0.457819
O O15 0.221562 0.500000 0.625951
#
# Coordination Sequence:
#
# PCOD8057098 Si02
#       6
#     4   4   4   4   4   4
#     4  10  17  26  42  63  88 116 151 178 205 255
#     4   9  17  29  40  63  86 124 148 175 197 259
#     4   9  17  31  45  59  87 122 151 183 214 243
#     4  10  18  28  39  67  90 117 144 183 207 256
#     4   8  16  31  46  58  79 117 153 180 213 253
#     4  10  19  28  42  63  94 122 144 175 217 257
#
# _framework density 15.065284
#
# number of rings (size 3 to 8) (size 9 to 14) (size 15 to 20)
#    1.000    1.667    1.667    3.000    0.000    4.000 
#    0.000    2.500    0.000    4.000    0.000    0.000 
#    0.000   25.333    0.000    0.000    0.000    0.000 
#
# Total GULP energy -297367.232163 kJ/mol
# GULP energy per Si atom -12390.301340 kJ/mol
# Density = 1.503099 g / cm^3
# Si number density = 15.065284 Si / 1000 Ang^3
#
#
#
# Elastic Constant Matrix: (Units=GPa)
#
#
# Indices 1 2 3 4 5 6 
#
# 1 72.1925 10.3214 43.1895 0.0000 8.2140 0.0000
# 2 10.3214 58.6147 13.2898 0.0000 -4.6559 0.0000
# 3 43.1895 13.2898 92.2058 0.0000 -8.7151 0.0000
# 4 0.0000 0.0000 0.0000 9.5917 0.0000 -4.2897
# 5 8.2140 -4.6559 -8.7151 0.0000 22.7178 0.0000
# 6 0.0000 0.0000 0.0000 -4.2897 0.0000 6.3368
#
#
#
# Elastic Compliance Matrix: (Units=1/GPa)
#
#
# Indices 1 2 3 4 5 6 
#
# 1 0.022515 -0.002407 -0.011430 0.000000 -0.013019 0.000000
# 2 -0.002407 0.018060 -0.001083 0.000000 0.004156 0.000000
# 3 -0.011430 -0.001083 0.017354 0.000000 0.010568 0.000000
# 4 0.000000 0.000000 0.000000 0.149527 0.000000 0.101223
# 5 -0.013019 0.004156 0.010568 0.000000 0.053631 0.000000
# 6 0.000000 0.000000 0.000000 0.101223 0.000000 0.226333
#
#
# Mechanical properties :
#
#
# Convention : Reuss Voigt Hill
#
# Bulk Modulus (GPa) = 35.59990 39.62381 37.61185
# Shear Modulus (GPa) = 9.49446 18.14342 13.81894
#
# Velocity S-wave (km/s) = 2.51314 3.47410 3.03193
# Velocity P-wave (km/s) = 5.66594 6.51544 6.10548
#
# Compressibility (1/GPa) = 0.02808997
#
# Stress axis : x y z
#
# Youngs Moduli (GPa) = 44.41453 55.37075 57.62383
#
# Poissons Ratio (x) = 0.13329 0.65862
# Poissons Ratio (y) = 0.10692 0.06238
# Poissons Ratio (z) = 0.50765 0.05994
#
# Static dielectric constant tensor:
#      x y z
#    x 2.821410 0.000000 0.045280 
#    y 0.000000 2.709910 0.000000 
#    z 0.045280 0.000000 2.982500 
# 
# 
# High freq. dielectric constant tensor:
#      x y z
#    x 1.551300 0.000000 -0.009580 
#    y 0.000000 1.540080 0.000000 
#    z -0.009580 0.000000 1.579310 
# 
# From -- ./inp_files/28878.got.cif
#   From: 2010.06.25/outbox.cif.g09.slc.cpg/sg10_15_cif.got.tgz:28878.got - 2010.06.27 22:07:45.
