data_PCOD8057438
_publ_section_title
;
Structure prediction by ZEFSAII (Michael W. Deem and Ramdas Pophale) SiO2 
 PCOD8057438
Probable space group: P 2/M
;
_chemical_formula_sum "Si O2"
_cell_formula_units_Z 26
_cell_length_a 10.306338
_cell_length_b 14.405262
_cell_length_c 11.443332
_cell_angle_alpha 90.000000
_cell_angle_beta 69.728114
_cell_angle_gamma 90.000000
_cell_volume 1593.706051
_symmetry_space_group_name_H-M "P 2/M"
_symmetry_group_IT_number 10
_symmetry_cell_setting 'monoclinic'
loop_
_space_group_symop_operation_xyz
x,y,z
-x,y,-z
-x,-y,-z
x,-y,z
loop_
_atom_site_type_symbol
_atom_site_label
_atom_site_fract_x
_atom_site_fract_y
_atom_site_fract_z
Si Si1 0.162828 0.392960 0.447090
Si Si2 0.500000 0.780971 0.000000
Si Si3 0.301629 0.742705 0.253764
Si Si4 0.209407 0.891096 0.695944
Si Si5 0.356566 0.254368 0.490064
Si Si6 0.721824 0.106779 0.067350
Si Si7 0.109385 0.106108 0.207074
O O1 0.204095 0.500000 0.444627
O O2 0.215337 0.351447 0.306412
O O3 0.240221 0.336775 0.528215
O O4 0.000000 0.377597 0.500000
O O5 0.401622 0.719074 0.113440
O O6 0.586755 0.843880 0.060520
O O7 0.384883 0.772578 0.345348
O O8 0.200814 0.828273 0.259333
O O9 0.302974 0.835487 0.575589
O O10 0.240917 0.854532 0.816599
O O11 0.049524 0.870141 0.720303
O O12 0.242175 0.000000 0.671879
O O13 0.500000 0.290736 0.500000
O O14 0.682502 0.000000 0.089435
O O15 0.853177 0.122185 0.940993
O O16 0.142152 0.000000 0.232207
#
# Coordination Sequence:
#
# PCOD8057438 Si02
#       7
#     4   2   4   4   4   4   4
#     4   9  19  37  58  77  99 128 166 210 255 307
#     4  10  17  32  49  68 102 132 170 208 250 300
#     4   9  20  32  51  75 100 131 171 207 248 305
#     4  10  19  30  47  71 104 139 172 211 255 293
#     4  10  21  34  50  75 105 132 166 209 254 303
#     4   9  17  28  45  68  98 138 179 209 242 290
#     4   9  17  30  48  72 100 137 178 214 244 290
#
# _framework density 16.314174999999999
#
# number of rings (size 3 to 8) (size 9 to 14) (size 15 to 20)
#    0.923    1.692    0.000    2.538    0.000    3.692 
#    0.000    1.923    0.000    0.000    0.000    0.000 
#    0.000   12.000    0.000    0.000    0.000    0.000 
#
# Total GULP energy -322202.322983 kJ/mol
# GULP energy per Si atom -12392.397038 kJ/mol
# Density = 1.627704 g / cm^3
# Si number density = 16.314175 Si / 1000 Ang^3
#
#
#
# Elastic Constant Matrix: (Units=GPa)
#
#
# Indices 1 2 3 4 5 6 
#
# 1 108.2601 47.5721 41.5923 0.0000 3.4664 0.0000
# 2 47.5721 75.5698 41.7510 0.0000 -1.2140 0.0000
# 3 41.5923 41.7510 95.1329 0.0000 2.3128 0.0000
# 4 0.0000 0.0000 0.0000 7.2235 0.0000 -0.3203
# 5 3.4664 -1.2140 2.3128 0.0000 28.8914 0.0000
# 6 0.0000 0.0000 0.0000 -0.3203 0.0000 19.3993
#
#
#
# Elastic Compliance Matrix: (Units=1/GPa)
#
#
# Indices 1 2 3 4 5 6 
#
# 1 0.013403 -0.006930 -0.002778 0.000000 -0.001677 0.000000
# 2 -0.006930 0.021104 -0.006286 0.000000 0.002221 0.000000
# 3 -0.002778 -0.006286 0.014511 0.000000 -0.001093 0.000000
# 4 0.000000 0.000000 0.000000 0.138538 0.000000 0.002288
# 5 -0.001677 0.002221 -0.001093 0.000000 0.034994 0.000000
# 6 0.000000 0.000000 0.000000 0.002288 0.000000 0.051586
#
#
# Mechanical properties :
#
#
# Convention : Reuss Voigt Hill
#
# Bulk Modulus (GPa) = 58.71658 60.08819 59.40238
# Shear Modulus (GPa) = 16.03591 20.97267 18.50429
#
# Velocity S-wave (km/s) = 3.13859 3.58935 3.37151
# Velocity P-wave (km/s) = 7.01453 7.35457 7.18656
#
# Compressibility (1/GPa) = 0.01703097
#
# Stress axis : x y z
#
# Youngs Moduli (GPa) = 74.61055 47.38508 68.91101
#
# Poissons Ratio (x) = 0.32836 0.19143
# Poissons Ratio (y) = 0.51701 0.43319
# Poissons Ratio (z) = 0.20726 0.29787
#
# Static dielectric constant tensor:
#      x y z
#    x 3.101920 0.000000 -0.008950 
#    y 0.000000 2.800490 0.000000 
#    z -0.008950 0.000000 3.085210 
# 
# 
# High freq. dielectric constant tensor:
#      x y z
#    x 1.636490 0.000000 -0.003800 
#    y 0.000000 1.596360 0.000000 
#    z -0.003800 0.000000 1.627290 
# 
# From -- ./inp_files/47138.got.cif
#   From: 2010.06.25/outbox.cif.g09.slc.cpg/sg10_24_cif.got.tgz:47138.got - 2010.06.27 22:07:45.
