data_PCOD8057621
_publ_section_title
;
Structure prediction by ZEFSAII (Michael W. Deem and Ramdas Pophale) SiO2 
 PCOD8057621
Probable space group: P 2/M
;
_chemical_formula_sum "Si O2"
_cell_formula_units_Z 30
_cell_length_a 14.576650
_cell_length_b 9.341974
_cell_length_c 12.060702
_cell_angle_alpha 90.000000
_cell_angle_beta 89.999779
_cell_angle_gamma 90.000000
_cell_volume 1642.362299
_symmetry_space_group_name_H-M "P 2/M"
_symmetry_group_IT_number 10
_symmetry_cell_setting 'monoclinic'
loop_
_space_group_symop_operation_xyz
x,y,z
-x,y,-z
-x,-y,-z
x,-y,z
loop_
_atom_site_type_symbol
_atom_site_label
_atom_site_fract_x
_atom_site_fract_y
_atom_site_fract_z
Si Si1 0.295678 0.160485 0.000001
Si Si2 0.500000 0.765265 0.000000
Si Si3 0.802780 0.668221 0.190639
Si Si4 0.000001 0.669404 0.124008
Si Si5 0.802781 0.331778 0.809358
Si Si6 0.328401 0.668313 0.377156
Si Si7 0.500001 0.664356 0.754874
Si Si8 0.671597 0.331687 0.377155
O O1 0.261191 0.245577 0.893159
O O2 0.254957 0.000000 0.000002
O O3 0.406310 0.143936 1.000000
O O4 0.261193 0.245580 0.106843
O O5 0.500000 0.672733 0.887715
O O6 0.794486 0.500000 0.160059
O O7 0.908061 0.722421 0.185751
O O8 0.767540 0.699719 0.314857
O O9 0.000004 0.500000 0.119315
O O10 0.091939 0.722426 0.185750
O O11 0.000000 0.733148 0.000000
O O12 0.794487 0.500000 0.839936
O O13 0.767542 0.300276 0.685140
O O14 0.342836 0.500000 0.388785
O O15 0.410508 0.735505 0.302711
O O16 0.326357 0.738470 0.500001
O O17 0.500000 0.500000 0.722960
O O18 0.410509 0.735506 0.697289
O O19 0.657160 0.500000 0.388786
#
# Coordination Sequence:
#
# PCOD8057621 Si02
#       8
#     4   2   4   4   4   4   4   4
#     4  12  24  36  51  75 108 141 167 210 263 309
#     4  12  22  34  48  72 103 142 165 206 259 320
#     4  10  19  34  55  78 103 138 175 211 254 309
#     4   9  16  28  51  79 107 132 165 212 263 305
#     4  10  19  34  55  78 103 138 175 211 254 309
#     4   9  17  29  47  74 106 137 171 213 254 294
#     4  10  18  27  48  78 105 131 171 215 255 304
#     4   9  17  29  47  74 106 137 171 213 254 294
#
# _framework density 18.266372
#
# number of rings (size 3 to 8) (size 9 to 14) (size 15 to 20)
#    0.000    2.000    4.000    1.200    0.000    2.667 
#    0.000    2.000    0.000    4.800    0.000    1.867 
#    0.000    2.133    0.000    0.000    0.000    0.000 
#
# Total GULP energy -371751.905559 kJ/mol
# GULP energy per Si atom -12391.730185 kJ/mol
# Density = 1.822480 g / cm^3
# Si number density = 18.266372 Si / 1000 Ang^3
#
#
#
# Elastic Constant Matrix: (Units=GPa)
#
#
# Indices 1 2 3 4 5 6 
#
# 1 165.4107 18.6859 81.4801 0.0000 0.0021 0.0000
# 2 18.6859 38.7706 15.5883 0.0000 -0.0001 0.0000
# 3 81.4801 15.5883 166.3126 0.0000 0.0016 0.0000
# 4 0.0000 0.0000 0.0000 1.3125 0.0000 -0.0001
# 5 0.0021 -0.0001 0.0016 0.0000 25.7220 0.0000
# 6 0.0000 0.0000 0.0000 -0.0001 0.0000 7.9532
#
#
#
# Elastic Compliance Matrix: (Units=1/GPa)
#
#
# Indices 1 2 3 4 5 6 
#
# 1 0.008182 -0.002423 -0.003781 0.000000 0.000000 0.000000
# 2 -0.002423 0.027520 -0.001392 0.000000 0.000000 0.000000
# 3 -0.003781 -0.001392 0.007996 0.000000 0.000000 0.000000
# 4 0.000000 0.000000 0.000000 0.761894 0.000000 0.000007
# 5 0.000000 0.000000 0.000000 0.000000 0.038877 0.000000
# 6 0.000000 0.000000 0.000000 0.000007 0.000000 0.125736
#
#
# Mechanical properties :
#
#
# Convention : Reuss Voigt Hill
#
# Bulk Modulus (GPa) = 35.08202 66.88918 50.98560
# Shear Modulus (GPa) = 5.02563 23.98016 14.50289
#
# Velocity S-wave (km/s) = 1.66050 3.62719 2.82080
# Velocity P-wave (km/s) = 4.78789 7.36480 6.21145
#
# Compressibility (1/GPa) = 0.02850463
#
# Stress axis : x y z
#
# Youngs Moduli (GPa) = 122.21981 36.33669 125.06439
#
# Poissons Ratio (x) = 0.08804 0.47292
# Poissons Ratio (y) = 0.29614 0.17414
# Poissons Ratio (z) = 0.46216 0.05059
#
# Static dielectric constant tensor:
#      x y z
#    x 3.724300 0.000000 0.000030 
#    y 0.000000 2.751790 0.000000 
#    z 0.000030 0.000000 3.551470 
# 
# 
# High freq. dielectric constant tensor:
#      x y z
#    x 1.721190 0.000000 0.000000 
#    y 0.000000 1.639480 0.000000 
#    z 0.000000 0.000000 1.708040 
# 
# From -- ./inp_files/49270.got.cif
#   From: 2010.06.25/outbox.cif.g09.slc.cpg/sg10_25_cif.got.tgz:49270.got - 2010.06.27 22:07:45.
