data_PCOD8057562
_publ_section_title
;
Structure prediction by ZEFSAII (Michael W. Deem and Ramdas Pophale) SiO2 
 PCOD8057562
Probable space group: P 2/M
;
_chemical_formula_sum "Si O2"
_cell_formula_units_Z 32
_cell_length_a 24.544587
_cell_length_b 15.778225
_cell_length_c 24.177745
_cell_angle_alpha 90.000000
_cell_angle_beta 168.078954
_cell_angle_gamma 90.000000
_cell_volume 1934.120192
_symmetry_space_group_name_H-M "P 2/M"
_symmetry_group_IT_number 10
_symmetry_cell_setting 'monoclinic'
loop_
_space_group_symop_operation_xyz
x,y,z
-x,y,-z
-x,-y,-z
x,-y,z
loop_
_atom_site_type_symbol
_atom_site_label
_atom_site_fract_x
_atom_site_fract_y
_atom_site_fract_z
Si Si1 0.006882 0.399782 0.445197
Si Si2 0.874865 0.596615 0.680696
Si Si3 0.160579 0.829809 0.962038
Si Si4 0.416897 0.226463 0.476272
Si Si5 0.349079 0.904320 0.508617
Si Si6 0.512985 0.399599 0.882382
Si Si7 0.371061 0.667224 0.120509
Si Si8 0.085532 0.296914 0.985188
O O1 0.024119 0.500000 0.467786
O O2 0.000000 0.359911 0.500000
O O3 0.256804 0.366397 0.659764
O O4 0.751737 0.371554 0.158256
O O5 0.779604 0.500000 0.586305
O O6 0.120182 0.606201 0.882120
O O7 0.990124 0.621332 0.855482
O O8 0.616940 0.652783 0.407601
O O9 0.258564 0.763150 0.012789
O O10 0.119408 0.780626 0.977692
O O11 0.876237 0.873635 0.671316
O O12 0.382013 0.901562 0.189095
O O13 0.500000 0.185555 0.500000
O O14 0.384482 0.152307 0.488940
O O15 0.139437 0.274811 0.193692
O O16 0.628641 0.301356 0.701903
O O17 0.290497 0.000000 0.431211
O O18 0.507758 0.500000 0.865390
O O19 0.521418 0.349862 0.833437
#
# Coordination Sequence:
#
# PCOD8057562 Si02
#       8
#     4   4   4   4   4   4   4   4
#     4   9  17  28  40  55  81 120 161 196 228 261
#     4  11  20  31  48  67  89 115 148 191 232 269
#     4   9  18  32  47  65  91 120 145 171 213 274
#     4  10  19  32  50  68  88 114 143 177 219 261
#     4  10  19  32  50  71  92 114 144 175 207 261
#     4  10  18  27  41  62  87 115 155 200 229 251
#     4  11  20  31  46  68  94 119 150 188 234 272
#     4   9  18  32  47  64  86 116 147 174 215 274
#
# _framework density 16.544991
#
# number of rings (size 3 to 8) (size 9 to 14) (size 15 to 20)
#    0.000    2.125    0.000    6.750    0.000    2.750 
#    0.000    0.000    0.000    6.750    0.000    0.000 
#    0.000    0.000    0.000    0.000    0.000   43.750 
#
# Total GULP energy -396476.720504 kJ/mol
# GULP energy per Si atom -12389.897516 kJ/mol
# Density = 1.650733 g / cm^3
# Si number density = 16.544991 Si / 1000 Ang^3
#
#
#
# Elastic Constant Matrix: (Units=GPa)
#
#
# Indices 1 2 3 4 5 6 
#
# 1 84.1061 34.0408 33.7331 0.0000 11.2478 0.0000
# 2 34.0408 50.9086 21.9443 0.0000 3.0240 0.0000
# 3 33.7331 21.9443 109.3344 0.0000 11.3633 0.0000
# 4 0.0000 0.0000 0.0000 12.5836 0.0000 0.3424
# 5 11.2478 3.0240 11.3633 0.0000 24.9372 0.0000
# 6 0.0000 0.0000 0.0000 0.3424 0.0000 11.2697
#
#
#
# Elastic Compliance Matrix: (Units=1/GPa)
#
#
# Indices 1 2 3 4 5 6 
#
# 1 0.018031 -0.010485 -0.002882 0.000000 -0.005548 0.000000
# 2 -0.010485 0.027611 -0.002572 0.000000 0.002553 0.000000
# 3 -0.002882 -0.002572 0.010900 0.000000 -0.003355 0.000000
# 4 0.000000 0.000000 0.000000 0.079534 0.000000 -0.002416
# 5 -0.005548 0.002553 -0.003355 0.000000 0.043823 0.000000
# 6 0.000000 0.000000 0.000000 -0.002416 0.000000 0.088807
#
#
# Mechanical properties :
#
#
# Convention : Reuss Voigt Hill
#
# Bulk Modulus (GPa) = 40.54458 47.08727 43.81592
# Shear Modulus (GPa) = 16.19137 20.06684 18.12911
#
# Velocity S-wave (km/s) = 3.13170 3.48640 3.31380
# Velocity P-wave (km/s) = 6.13478 6.68794 6.41732
#
# Compressibility (1/GPa) = 0.02466421
#
# Stress axis : x y z
#
# Youngs Moduli (GPa) = 55.45899 36.21737 91.73931
#
# Poissons Ratio (x) = 0.37974 0.26441
# Poissons Ratio (y) = 0.58149 0.23597
# Poissons Ratio (z) = 0.15984 0.09316
#
# Static dielectric constant tensor:
#      x y z
#    x 2.989760 0.000000 0.161220 
#    y 0.000000 2.746860 0.000000 
#    z 0.161220 0.000000 3.671860 
# 
# 
# High freq. dielectric constant tensor:
#      x y z
#    x 1.613230 0.000000 0.017080 
#    y 0.000000 1.584160 0.000000 
#    z 0.017080 0.000000 1.668350 
# 
# From -- ./inp_files/91146.got.cif
#   From: 2010.06.25/outbox.cif.g09.slc.cpg/sg10_46_cif.got.tgz:91146.got - 2010.06.27 22:07:45.
