data_PCOD8057062
_publ_section_title
;
Structure prediction by ZEFSAII (Michael W. Deem and Ramdas Pophale) SiO2 
 PCOD8057062
Probable space group: P 2/M
;
_chemical_formula_sum "Si O2"
_cell_formula_units_Z 28
_cell_length_a 23.154536
_cell_length_b 15.284376
_cell_length_c 5.243861
_cell_angle_alpha 90.000000
_cell_angle_beta 63.067220
_cell_angle_gamma 90.000000
_cell_volume 1654.531680
_symmetry_space_group_name_H-M "P 2/M"
_symmetry_group_IT_number 10
_symmetry_cell_setting 'monoclinic'
loop_
_space_group_symop_operation_xyz
x,y,z
-x,y,-z
-x,-y,-z
x,-y,z
loop_
_atom_site_type_symbol
_atom_site_label
_atom_site_fract_x
_atom_site_fract_y
_atom_site_fract_z
Si Si1 0.524414 0.763856 0.201172
Si Si2 0.566787 0.594765 0.616426
Si Si3 0.958246 0.000000 0.833509
Si Si4 0.219274 0.394601 0.311452
Si Si5 0.140798 0.346350 0.968404
Si Si6 0.955384 0.190855 0.839233
Si Si7 0.958091 0.500000 0.833818
Si Si8 0.365198 0.352894 0.019603
O O1 0.500000 0.816444 0.500000
O O2 0.488699 0.668304 0.272602
O O3 0.500000 0.816444 0.000000
O O4 0.601351 0.745042 0.047297
O O5 0.531736 0.500000 0.686529
O O6 0.613095 0.598618 0.768354
O O7 0.613095 0.598618 0.279267
O O8 0.000000 0.000000 0.500000
O O9 0.921519 0.906385 0.906961
O O10 0.000000 0.000000 0.000000
O O11 0.225137 0.500000 0.299725
O O12 0.183288 0.360442 0.632936
O O13 0.288300 0.346760 0.173400
O O14 0.183288 0.360442 0.133912
O O15 0.107643 0.251726 0.034714
O O16 0.083212 0.413820 0.083576
O O17 0.000000 0.206594 0.500000
O O18 0.000000 0.206594 0.000000
O O19 0.000000 0.500000 0.500000
O O20 0.000000 0.500000 0.000000
#
# Coordination Sequence:
#
# PCOD8057062 Si02
#       8
#     4   4   2   4   4   4   2   4
#     4   8  16  26  37  54  72  89 125 181 230 266
#     4  10  17  26  38  56  72  90 130 185 232 269
#     4   8  16  30  54  80 100 110 126 164 216 282
#     4  12  22  35  44  58  88 122 159 194 217 254
#     4  12  23  36  48  67  90 117 151 189 220 259
#     4  10  19  35  55  77  95 113 137 173 228 276
#     4  12  22  36  52  64  80 110 146 186 220 246
#     4  10  20  29  41  53  71 107 140 177 231 260
#
# _framework density 16.923219
#
# number of rings (size 3 to 8) (size 9 to 14) (size 15 to 20)
#    0.000    1.714    1.429    4.714    0.000    5.714 
#    0.000    0.000    0.000    0.000    0.000    0.000 
#    0.000    0.000    0.000    0.000    0.000    0.000 
#
# Total GULP energy -346884.945249 kJ/mol
# GULP energy per Si atom -12388.748045 kJ/mol
# Density = 1.688470 g / cm^3
# Si number density = 16.923219 Si / 1000 Ang^3
#
#
#
# Elastic Constant Matrix: (Units=GPa)
#
#
# Indices 1 2 3 4 5 6 
#
# 1 121.2363 31.2486 70.3800 0.0000 6.2954 0.0000
# 2 31.2486 67.2429 24.2601 0.0000 -7.1992 0.0000
# 3 70.3800 24.2601 145.6535 0.0000 18.8584 0.0000
# 4 0.0000 0.0000 0.0000 11.5306 0.0000 3.3637
# 5 6.2954 -7.1992 18.8584 0.0000 41.4255 0.0000
# 6 0.0000 0.0000 0.0000 3.3637 0.0000 8.2654
#
#
#
# Elastic Compliance Matrix: (Units=1/GPa)
#
#
# Indices 1 2 3 4 5 6 
#
# 1 0.012316 -0.003826 -0.005298 0.000000 -0.000125 0.000000
# 2 -0.003826 0.017728 -0.001677 0.000000 0.004426 0.000000
# 3 -0.005298 -0.001677 0.010242 0.000000 -0.004149 0.000000
# 4 0.000000 0.000000 0.000000 0.098409 0.000000 -0.040048
# 5 -0.000125 0.004426 -0.004149 0.000000 0.026817 0.000000
# 6 0.000000 0.000000 0.000000 -0.040048 0.000000 0.137284
#
#
# Mechanical properties :
#
#
# Convention : Reuss Voigt Hill
#
# Bulk Modulus (GPa) = 53.51859 65.10112 59.30986
# Shear Modulus (GPa) = 15.12279 26.12722 20.62501
#
# Velocity S-wave (km/s) = 2.99258 3.93347 3.49483
# Velocity P-wave (km/s) = 6.60558 7.69296 7.16991
#
# Compressibility (1/GPa) = 0.01868510
#
# Stress axis : x y z
#
# Youngs Moduli (GPa) = 81.19222 56.40717 97.63543
#
# Poissons Ratio (x) = 0.21579 0.51727
# Poissons Ratio (y) = 0.31060 0.16377
# Poissons Ratio (z) = 0.43016 0.09462
#
# Static dielectric constant tensor:
#      x y z
#    x 3.611710 0.000000 0.786350 
#    y 0.000000 2.975120 0.000000 
#    z 0.786350 0.000000 4.375040 
# 
# 
# High freq. dielectric constant tensor:
#      x y z
#    x 1.655010 0.000000 0.026980 
#    y 0.000000 1.594940 0.000000 
#    z 0.026980 0.000000 1.681190 
# 
# From -- ./inp_files/12771.got.cif
#   From: 2010.06.25/outbox.cif.g09.slc.cpg/sg10_7_cif.got.tgz:12771.got - 2010.06.27 22:07:45.
