data_PCOD8057408
_publ_section_title
;
Structure prediction by ZEFSAII (Michael W. Deem and Ramdas Pophale) SiO2 
 PCOD8057408
Probable space group: P 2/M
;
_chemical_formula_sum "Si O2"
_cell_formula_units_Z 24
_cell_length_a 13.179483
_cell_length_b 10.969051
_cell_length_c 12.269103
_cell_angle_alpha 90.000000
_cell_angle_beta 47.287078
_cell_angle_gamma 90.000000
_cell_volume 1303.246932
_symmetry_space_group_name_H-M "P 2/M"
_symmetry_group_IT_number 10
_symmetry_cell_setting 'monoclinic'
loop_
_space_group_symop_operation_xyz
x,y,z
-x,y,-z
-x,-y,-z
x,-y,z
loop_
_atom_site_type_symbol
_atom_site_label
_atom_site_fract_x
_atom_site_fract_y
_atom_site_fract_z
Si Si1 0.339581 0.131492 0.838436
Si Si2 0.663278 0.261191 0.375783
Si Si3 0.362327 0.360702 0.241741
Si Si4 0.325119 0.314921 0.019847
Si Si5 0.138902 0.500000 0.041827
Si Si6 0.663485 0.865396 0.589818
Si Si7 0.819616 0.500000 0.241483
O O1 0.285100 0.217270 0.780697
O O2 0.307359 0.179826 0.983589
O O3 0.501514 0.118391 0.707914
O O4 0.267687 0.000000 0.880325
O O5 0.500000 0.286532 0.500000
O O6 0.709117 0.161860 0.432503
O O7 0.741727 0.384549 0.347764
O O8 0.308768 0.500000 0.306729
O O9 0.528292 0.367636 0.129068
O O10 0.297122 0.254023 0.365487
O O11 0.315903 0.318799 0.155862
O O12 0.196786 0.384402 0.062650
O O13 0.975102 0.500000 0.170457
O O14 0.191073 0.500000 0.880628
O O15 0.726400 0.000000 0.579415
#
# Coordination Sequence:
#
# PCOD8057408 Si02
#       7
#     4   4   4   4   2   4   2
#     4   9  17  29  48  75 102 136 170 203 257 313
#     4  10  19  32  52  74 105 132 168 214 258 307
#     4  10  18  28  51  81 105 135 174 206 255 306
#     4  10  17  31  51  72 107 139 164 211 255 297
#     4  11  20  35  51  71 113 133 164 211 262 305
#     4   9  19  31  47  75 109 136 162 210 261 306
#     4  11  23  32  51  81 100 136 171 210 264 312
#
# _framework density 18.415544000000001
#
# number of rings (size 3 to 8) (size 9 to 14) (size 15 to 20)
#    0.000    2.167    3.333    1.250    1.167    2.667 
#    0.000    3.333    0.000    5.000    0.000    1.167 
#    0.000    0.000    0.000    0.000    0.000    0.000 
#
# Total GULP energy -297325.761190 kJ/mol
# GULP energy per Si atom -12388.573383 kJ/mol
# Density = 1.837363 g / cm^3
# Si number density = 18.415544 Si / 1000 Ang^3
#
#
#
# Elastic Constant Matrix: (Units=GPa)
#
#
# Indices 1 2 3 4 5 6 
#
# 1 83.7888 45.2789 33.3620 0.0000 16.5224 0.0000
# 2 45.2789 165.8343 42.8990 0.0000 18.6800 0.0000
# 3 33.3620 42.8990 40.2714 0.0000 13.3861 0.0000
# 4 0.0000 0.0000 0.0000 13.2267 0.0000 12.3643
# 5 16.5224 18.6800 13.3861 0.0000 21.6248 0.0000
# 6 0.0000 0.0000 0.0000 12.3643 0.0000 17.7707
#
#
#
# Elastic Compliance Matrix: (Units=1/GPa)
#
#
# Indices 1 2 3 4 5 6 
#
# 1 0.018571 -0.001302 -0.012157 0.000000 -0.005539 0.000000
# 2 -0.001302 0.008495 -0.007381 0.000000 -0.001775 0.000000
# 3 -0.012157 -0.007381 0.047288 0.000000 -0.013608 0.000000
# 4 0.000000 0.000000 0.000000 0.216266 0.000000 -0.150471
# 5 -0.005539 -0.001775 -0.013608 0.000000 0.060432 0.000000
# 6 0.000000 0.000000 0.000000 -0.150471 0.000000 0.160966
#
#
# Mechanical properties :
#
#
# Convention : Reuss Voigt Hill
#
# Bulk Modulus (GPa) = 30.60408 59.21938 44.91173
# Shear Modulus (GPa) = 8.85601 21.74805 15.30203
#
# Velocity S-wave (km/s) = 2.19532 3.44024 2.88571
# Velocity P-wave (km/s) = 4.80423 6.92874 5.96188
#
# Compressibility (1/GPa) = 0.03267538
#
# Stress axis : x y z
#
# Youngs Moduli (GPa) = 53.84737 117.72015 21.14695
#
# Poissons Ratio (x) = 0.15325 0.25708
# Poissons Ratio (y) = 0.07010 0.15608
# Poissons Ratio (z) = 0.65461 0.86885
#
# Static dielectric constant tensor:
#      x y z
#    x 3.209710 0.000000 0.349210 
#    y 0.000000 3.820380 0.000000 
#    z 0.349210 0.000000 3.082550 
# 
# 
# High freq. dielectric constant tensor:
#      x y z
#    x 1.687800 0.000000 0.038000 
#    y 0.000000 1.729540 0.000000 
#    z 0.038000 0.000000 1.673880 
# 
# From -- ./inp_files/46560.got.cif
#   From: 2010.06.25/outbox.cif.g09.slc.cpg/sg10_24_cif.got.tgz:46560.got - 2010.06.27 22:07:45.
