data_PCOD8057482
_publ_section_title
;
Structure prediction by ZEFSAII (Michael W. Deem and Ramdas Pophale) SiO2 
 PCOD8057482
Probable space group: P 2/M
;
_chemical_formula_sum "Si O2"
_cell_formula_units_Z 28
_cell_length_a 21.402945
_cell_length_b 7.779947
_cell_length_c 15.705791
_cell_angle_alpha 90.000000
_cell_angle_beta 149.873027
_cell_angle_gamma 90.000000
_cell_volume 1312.631222
_symmetry_space_group_name_H-M "P 2/M"
_symmetry_group_IT_number 10
_symmetry_cell_setting 'monoclinic'
loop_
_space_group_symop_operation_xyz
x,y,z
-x,y,-z
-x,-y,-z
x,-y,z
loop_
_atom_site_type_symbol
_atom_site_label
_atom_site_fract_x
_atom_site_fract_y
_atom_site_fract_z
Si Si1 0.996575 0.304646 0.331156
Si Si2 0.136435 0.000000 0.201698
Si Si3 0.521467 0.694330 0.730692
Si Si4 0.260452 0.192368 0.921310
Si Si5 0.357253 0.800916 0.679660
Si Si6 0.578259 0.000000 0.504206
Si Si7 0.124721 0.309144 0.314144
Si Si8 0.758279 0.200283 0.286831
O O1 0.950610 0.500000 0.280480
O O2 0.886273 0.185135 0.233486
O O3 0.024192 0.250249 0.266009
O O4 0.116710 0.288131 0.532294
O O5 0.268853 0.000000 0.303366
O O6 0.135681 0.824460 0.251910
O O7 0.000000 0.000000 0.000000
O O8 0.485025 0.500000 0.659950
O O9 0.484194 0.742916 0.784497
O O10 0.461444 0.827238 0.593115
O O11 0.670680 0.707746 0.919489
O O12 0.280429 0.276506 0.850677
O O13 0.314238 0.000000 0.984709
O O14 0.255920 0.680254 0.516156
O O15 0.354625 0.769577 0.778534
O O16 0.326470 0.000000 0.622867
O O17 0.500000 0.000000 0.500000
O O18 0.094358 0.500000 0.242290
O O19 0.788009 0.000000 0.311482
#
# Coordination Sequence:
#
# PCOD8057482 Si02
#       8
#     4   2   4   4   4   2   4   4
#     4  10  21  34  55  87 125 174 224 273 327 379
#     4  12  26  44  72 105 127 162 210 262 330 406
#     4  12  24  43  70  95 125 171 218 264 326 398
#     4  11  22  37  56  88 133 179 226 275 321 383
#     4  10  17  36  65  91 123 170 219 261 312 375
#     4  12  28  52  74 102 136 170 208 265 345 412
#     4  10  20  38  64  93 125 164 211 262 316 381
#     4   9  20  34  56  88 127 177 226 271 326 374
#
# _framework density 21.331199000000002
#
# number of rings (size 3 to 8) (size 9 to 14) (size 15 to 20)
#    0.000    1.429    3.571    1.714    2.000    5.714 
#    0.000    2.857    0.000    0.000    0.000    0.000 
#    0.000    0.000    0.000    0.000    0.000    0.000 
#
# Total GULP energy -346914.400514 kJ/mol
# GULP energy per Si atom -12389.800018 kJ/mol
# Density = 2.128265 g / cm^3
# Si number density = 21.331199 Si / 1000 Ang^3
#
#
#
# Elastic Constant Matrix: (Units=GPa)
#
#
# Indices 1 2 3 4 5 6 
#
# 1 113.8531 42.1262 39.6204 0.0000 -0.4978 0.0000
# 2 42.1262 101.8429 26.8590 0.0000 -4.8387 0.0000
# 3 39.6204 26.8590 88.2092 0.0000 4.4606 0.0000
# 4 0.0000 0.0000 0.0000 13.4687 0.0000 10.7656
# 5 -0.4978 -4.8387 4.4606 0.0000 13.9962 0.0000
# 6 0.0000 0.0000 0.0000 10.7656 0.0000 14.4310
#
#
#
# Elastic Compliance Matrix: (Units=1/GPa)
#
#
# Indices 1 2 3 4 5 6 
#
# 1 0.011576 -0.003686 -0.004099 0.000000 0.000444 0.000000
# 2 -0.003686 0.012178 -0.002296 0.000000 0.004811 0.000000
# 3 -0.004099 -0.002296 0.014153 0.000000 -0.005450 0.000000
# 4 0.000000 0.000000 0.000000 0.183908 0.000000 -0.137196
# 5 0.000444 0.004811 -0.005450 0.000000 0.074864 0.000000
# 6 0.000000 0.000000 0.000000 -0.137196 0.000000 0.171645
#
#
# Mechanical properties :
#
#
# Convention : Reuss Voigt Hill
#
# Bulk Modulus (GPa) = 56.35770 57.90181 57.12976
# Shear Modulus (GPa) = 10.11329 21.39916 15.75623
#
# Velocity S-wave (km/s) = 2.17976 3.17075 2.72075
# Velocity P-wave (km/s) = 5.72825 6.37244 6.05891
#
# Compressibility (1/GPa) = 0.01774380
#
# Stress axis : x y z
#
# Youngs Moduli (GPa) = 86.38881 82.11757 70.65824
#
# Poissons Ratio (x) = 0.30267 0.28966
# Poissons Ratio (y) = 0.31842 0.16221
# Poissons Ratio (z) = 0.35415 0.18852
#
# Static dielectric constant tensor:
#      x y z
#    x 4.130520 0.000000 0.085380 
#    y 0.000000 3.756950 0.000000 
#    z 0.085380 0.000000 3.723970 
# 
# 
# High freq. dielectric constant tensor:
#      x y z
#    x 1.831770 0.000000 0.017960 
#    y 0.000000 1.841340 0.000000 
#    z 0.017960 0.000000 1.815280 
# 
# From -- ./inp_files/70338.got.cif
#   From: 2010.06.25/outbox.cif.g09.slc.cpg/sg10_36_cif.got.tgz:70338.got - 2010.06.27 22:07:45.
