data_PCOD8057379
_publ_section_title
;
Structure prediction by ZEFSAII (Michael W. Deem and Ramdas Pophale) SiO2 
 PCOD8057379
Probable space group: P 2/M
;
_chemical_formula_sum "Si O2"
_cell_formula_units_Z 20
_cell_length_a 9.795698
_cell_length_b 14.449736
_cell_length_c 15.013937
_cell_angle_alpha 90.000000
_cell_angle_beta 28.426609
_cell_angle_gamma 90.000000
_cell_volume 1011.641547
_symmetry_space_group_name_H-M "P 2/M"
_symmetry_group_IT_number 10
_symmetry_cell_setting 'monoclinic'
loop_
_space_group_symop_operation_xyz
x,y,z
-x,y,-z
-x,-y,-z
x,-y,z
loop_
_atom_site_type_symbol
_atom_site_label
_atom_site_fract_x
_atom_site_fract_y
_atom_site_fract_z
Si Si1 0.214083 0.896626 0.615370
Si Si2 0.453515 0.719018 0.215373
Si Si3 0.214167 0.394916 0.105101
Si Si4 0.105449 0.281806 0.576622
Si Si5 0.386108 0.103166 0.968859
O O1 0.500000 0.860954 0.500000
O O2 0.127679 0.826691 0.586699
O O3 0.260460 0.000000 0.548683
O O4 0.958200 0.898849 0.833838
O O5 0.393762 0.695152 0.353894
O O6 0.518570 0.828001 0.164059
O O7 0.165760 0.696008 0.327989
O O8 0.716719 0.657129 0.027631
O O9 0.125043 0.500000 0.136366
O O10 0.939880 0.344772 0.309140
O O11 0.500000 0.389428 0.000000
O O12 0.510568 0.000000 0.879258
O O13 0.500000 0.139504 0.000000
#
# Coordination Sequence:
#
# PCOD8057379 Si02
#       5
#     4   4   4   4   4
#     4  10  20  34  52  75 106 141 173 209 255 304
#     4  10  18  30  51  80 104 131 172 215 255 299
#     4   9  17  31  50  75 107 135 164 210 263 306
#     4  10  19  31  51  77 105 135 172 210 255 307
#     4  10  17  30  52  74 102 137 172 209 253 304
#
# _framework density 19.769849000000001
#
# number of rings (size 3 to 8) (size 9 to 14) (size 15 to 20)
#    0.000    2.200    4.000    0.600    0.000    1.600 
#    0.000    7.000    0.000    4.200    0.000    1.400 
#    0.000    0.000    0.000    0.000    0.000    0.000 
#
# Total GULP energy -247836.988457 kJ/mol
# GULP energy per Si atom -12391.849423 kJ/mol
# Density = 1.972485 g / cm^3
# Si number density = 19.769849 Si / 1000 Ang^3
#
#
#
# Elastic Constant Matrix: (Units=GPa)
#
#
# Indices 1 2 3 4 5 6 
#
# 1 21.8592 22.7498 37.9667 0.0000 13.0088 0.0000
# 2 22.7498 137.1574 61.0697 0.0000 36.1757 0.0000
# 3 37.9667 61.0697 131.8572 0.0000 41.0628 0.0000
# 4 0.0000 0.0000 0.0000 20.2839 0.0000 1.0123
# 5 13.0088 36.1757 41.0628 0.0000 41.3969 0.0000
# 6 0.0000 0.0000 0.0000 1.0123 0.0000 4.0565
#
#
#
# Elastic Compliance Matrix: (Units=1/GPa)
#
#
# Indices 1 2 3 4 5 6 
#
# 1 0.093661 -0.004232 -0.024590 0.000000 -0.001342 0.000000
# 2 -0.004232 0.010335 -0.001692 0.000000 -0.006023 0.000000
# 3 -0.024590 -0.001692 0.018205 0.000000 -0.008852 0.000000
# 4 0.000000 0.000000 0.000000 0.049922 0.000000 -0.012457
# 5 -0.001342 -0.006023 -0.008852 0.000000 0.038621 0.000000
# 6 0.000000 0.000000 0.000000 -0.012457 0.000000 0.249626
#
#
# Mechanical properties :
#
#
# Convention : Reuss Voigt Hill
#
# Bulk Modulus (GPa) = 16.34773 59.38291 37.86532
# Shear Modulus (GPa) = 9.22867 24.41999 16.82433
#
# Velocity S-wave (km/s) = 2.16291 3.51837 2.92037
# Velocity P-wave (km/s) = 3.81111 6.82697 5.52866
#
# Compressibility (1/GPa) = 0.06117058
#
# Stress axis : x y z
#
# Youngs Moduli (GPa) = 10.67681 96.75916 54.93040
#
# Poissons Ratio (x) = 0.40951 1.35076
# Poissons Ratio (y) = 0.04519 0.09297
# Poissons Ratio (z) = 0.26255 0.16376
#
# Static dielectric constant tensor:
#      x y z
#    x 3.079630 0.000000 0.327860 
#    y 0.000000 3.657730 0.000000 
#    z 0.327860 0.000000 4.120520 
# 
# 
# High freq. dielectric constant tensor:
#      x y z
#    x 1.700060 0.000000 0.014020 
#    y 0.000000 1.770740 0.000000 
#    z 0.014020 0.000000 1.774220 
# 
# From -- ./inp_files/18677.got.cif
#   From: 2010.06.25/outbox.cif.g09.slc.cpg/sg10_10_cif.got.tgz:18677.got - 2010.06.27 22:07:45.
