data_PCOD8057046
_publ_section_title
;
Structure prediction by ZEFSAII (Michael W. Deem and Ramdas Pophale) SiO2 
 PCOD8057046
Probable space group: P 2/M
;
_chemical_formula_sum "Si O2"
_cell_formula_units_Z 28
_cell_length_a 12.500012
_cell_length_b 8.923248
_cell_length_c 20.411850
_cell_angle_alpha 90.000000
_cell_angle_beta 48.094506
_cell_angle_gamma 90.000000
_cell_volume 1694.467132
_symmetry_space_group_name_H-M "P 2/M"
_symmetry_group_IT_number 10
_symmetry_cell_setting 'monoclinic'
loop_
_space_group_symop_operation_xyz
x,y,z
-x,y,-z
-x,-y,-z
x,-y,z
loop_
_atom_site_type_symbol
_atom_site_label
_atom_site_fract_x
_atom_site_fract_y
_atom_site_fract_z
Si Si1 0.442573 0.822349 0.428769
Si Si2 0.382743 0.165119 0.104348
Si Si3 0.303260 0.325397 0.594006
Si Si4 0.884089 0.671442 0.212486
Si Si5 0.179992 0.176739 0.078594
Si Si6 0.594712 0.324695 0.256085
Si Si7 0.408400 0.675529 0.893170
O O1 0.578775 0.765642 0.413635
O O2 0.301012 0.747579 0.521732
O O3 0.465536 0.764561 0.345196
O O4 0.427725 0.000000 0.436027
O O5 0.239104 0.226407 0.126592
O O6 0.438744 0.274996 0.138176
O O7 0.356384 0.000000 0.145691
O O8 0.500000 0.153340 0.000000
O O9 0.345835 0.500000 0.573078
O O10 0.153914 0.306271 0.694654
O O11 0.927389 0.500000 0.180959
O O12 0.749611 0.718709 0.222443
O O13 0.015560 0.775974 0.138886
O O14 0.194954 0.000000 0.064725
O O15 0.272031 0.248957 0.982939
O O16 0.565354 0.500000 0.277954
O O17 0.591574 0.275622 0.182192
O O18 0.391694 0.500000 0.908746
#
# Coordination Sequence:
#
# PCOD8057046 Si02
#       7
#     4   4   4   4   4   4   4
#     4  10  17  25  42  66  88 114 150 187 218 259
#     4   8  16  31  47  64  87 113 143 184 232 268
#     4   9  16  28  44  61  87 120 148 182 226 262
#     4   9  18  31  46  64  89 122 155 182 213 263
#     4  10  20  32  46  65  92 121 147 184 229 266
#     4   9  19  33  45  63  93 124 150 181 225 267
#     4  10  19  31  49  68  87 116 154 190 220 261
#
# _framework density 16.524367999999999
#
# number of rings (size 3 to 8) (size 9 to 14) (size 15 to 20)
#    0.000    2.714    0.000    5.143    0.000    7.714 
#    0.000    2.857    0.000    0.000    0.000    1.000 
#    0.000    8.000    0.000    0.000    0.000    0.000 
#
# Total GULP energy -346982.114129 kJ/mol
# GULP energy per Si atom -12392.218362 kJ/mol
# Density = 1.648676 g / cm^3
# Si number density = 16.524368 Si / 1000 Ang^3
#
#
#
# Elastic Constant Matrix: (Units=GPa)
#
#
# Indices 1 2 3 4 5 6 
#
# 1 67.2810 32.1721 44.4028 0.0000 20.9191 0.0000
# 2 32.1721 75.7947 50.2049 0.0000 17.1104 0.0000
# 3 44.4028 50.2049 93.7696 0.0000 30.4444 0.0000
# 4 0.0000 0.0000 0.0000 17.3392 0.0000 1.7416
# 5 20.9191 17.1104 30.4444 0.0000 12.0415 0.0000
# 6 0.0000 0.0000 0.0000 1.7416 0.0000 21.8785
#
#
#
# Elastic Compliance Matrix: (Units=1/GPa)
#
#
# Indices 1 2 3 4 5 6 
#
# 1 0.038578 -0.004727 0.021446 0.000000 -0.114525 0.000000
# 2 -0.004727 0.021151 -0.011133 0.000000 0.006305 0.000000
# 3 0.021446 -0.011133 0.074972 0.000000 -0.210989 0.000000
# 4 0.000000 0.000000 0.000000 0.058138 0.000000 -0.004628
# 5 -0.114525 0.006305 -0.210989 0.000000 0.806485 0.000000
# 6 0.000000 0.000000 0.000000 -0.004628 0.000000 0.046075
#
#
# Mechanical properties :
#
#
# Convention : Reuss Voigt Hill
#
# Bulk Modulus (GPa) = 6.85529 54.48943 30.67236
# Shear Modulus (GPa) = 4.61744 17.58955 11.10349
#
# Velocity S-wave (km/s) = 1.67344 3.26615 2.59501
# Velocity P-wave (km/s) = 2.80917 6.87535 5.25176
#
# Compressibility (1/GPa) = 0.14587281
#
# Stress axis : x y z
#
# Youngs Moduli (GPa) = 25.92151 47.27922 13.33828
#
# Poissons Ratio (x) = 0.22348 -0.28605
# Poissons Ratio (y) = 0.12253 0.14850
# Poissons Ratio (z) = -0.55591 0.52637
#
# Static dielectric constant tensor:
#      x y z
#    x 3.094620 0.000000 0.152850 
#    y 0.000000 3.117470 0.000000 
#    z 0.152850 0.000000 3.458940 
# 
# 
# High freq. dielectric constant tensor:
#      x y z
#    x 1.596080 0.000000 0.012880 
#    y 0.000000 1.644490 0.000000 
#    z 0.012880 0.000000 1.631060 
# 
# From -- ./inp_files/83310.got.cif
#   From: 2010.06.25/outbox.cif.g09.slc.cpg/sg10_42_cif.got.tgz:83310.got - 2010.06.27 22:07:45.
