data_PCOD8057578
_publ_section_title
;
Structure prediction by ZEFSAII (Michael W. Deem and Ramdas Pophale) SiO2 
 PCOD8057578
Probable space group: P 2/M
;
_chemical_formula_sum "Si O2"
_cell_formula_units_Z 28
_cell_length_a 27.678763
_cell_length_b 9.315467
_cell_length_c 13.911662
_cell_angle_alpha 90.000000
_cell_angle_beta 149.695372
_cell_angle_gamma 90.000000
_cell_volume 1809.986359
_symmetry_space_group_name_H-M "P 2/M"
_symmetry_group_IT_number 10
_symmetry_cell_setting 'monoclinic'
loop_
_space_group_symop_operation_xyz
x,y,z
-x,y,-z
-x,-y,-z
x,-y,z
loop_
_atom_site_type_symbol
_atom_site_label
_atom_site_fract_x
_atom_site_fract_y
_atom_site_fract_z
Si Si1 0.422846 0.164378 0.095091
Si Si2 0.381799 0.837221 0.671937
Si Si3 0.110385 0.169344 0.079919
Si Si4 0.712354 0.168827 0.295705
Si Si5 0.480237 0.668103 0.573405
Si Si6 0.711862 0.331634 0.653613
Si Si7 0.898267 0.170125 0.714832
O O1 0.506999 0.176280 0.161325
O O2 0.444304 0.255914 0.226534
O O3 0.408661 0.000000 0.103476
O O4 0.329078 0.226724 0.877603
O O5 0.364265 0.796100 0.752379
O O6 0.321023 0.725975 0.505665
O O7 0.344914 0.000000 0.587536
O O8 0.188455 0.252482 0.148564
O O9 0.122960 0.218150 0.212416
O O10 0.124622 0.000000 0.090953
O O11 0.004183 0.218521 0.863037
O O12 0.816834 0.234297 0.503206
O O13 0.722290 0.000000 0.300740
O O14 0.500000 0.723059 0.500000
O O15 0.499092 0.500000 0.616246
O O16 0.370371 0.707053 0.410015
O O17 0.730269 0.500000 0.679810
O O18 0.893976 0.000000 0.706730
#
# Coordination Sequence:
#
# PCOD8057578 Si02
#       7
#     4   4   4   4   4   4   4
#     4   9  17  26  42  67  87 105 136 177 212 240
#     4   9  15  25  40  58  84 117 145 165 192 244
#     4   9  15  26  42  60  82 114 151 176 198 237
#     4   9  14  23  40  62  87 115 143 168 197 239
#     4   9  19  35  49  60  80 111 141 170 213 267
#     4  10  18  27  42  63  84 107 139 179 217 247
#     4   8  14  23  40  61  83 116 152 173 189 234
#
# _framework density 15.469728999999999
#
# number of rings (size 3 to 8) (size 9 to 14) (size 15 to 20)
#    0.000    3.000    1.429    1.714    0.000    2.571 
#    0.000    2.143    0.000    3.429    0.000    1.000 
#    0.000    8.000    0.000    0.000    0.000    0.000 
#
# Total GULP energy -346937.723504 kJ/mol
# GULP energy per Si atom -12390.632982 kJ/mol
# Density = 1.543452 g / cm^3
# Si number density = 15.469729 Si / 1000 Ang^3
#
#
#
# Elastic Constant Matrix: (Units=GPa)
#
#
# Indices 1 2 3 4 5 6 
#
# 1 76.0005 30.3373 62.6585 0.0000 -5.2897 0.0000
# 2 30.3373 37.8151 33.7808 0.0000 1.1135 0.0000
# 3 62.6585 33.7808 131.6022 0.0000 0.1168 0.0000
# 4 0.0000 0.0000 0.0000 9.9270 0.0000 1.9342
# 5 -5.2897 1.1135 0.1168 0.0000 18.3833 0.0000
# 6 0.0000 0.0000 0.0000 1.9342 0.0000 17.9882
#
#
#
# Elastic Compliance Matrix: (Units=1/GPa)
#
#
# Indices 1 2 3 4 5 6 
#
# 1 0.026799 -0.013426 -0.009321 0.000000 0.008584 0.000000
# 2 -0.013426 0.041114 -0.004155 0.000000 -0.006327 0.000000
# 3 -0.009321 -0.004155 0.013105 0.000000 -0.002514 0.000000
# 4 0.000000 0.000000 0.000000 0.102891 0.000000 -0.011063
# 5 0.008584 -0.006327 -0.002514 0.000000 0.057266 0.000000
# 6 0.000000 0.000000 0.000000 -0.011063 0.000000 0.056782
#
#
# Mechanical properties :
#
#
# Convention : Reuss Voigt Hill
#
# Bulk Modulus (GPa) = 36.74613 55.44122 46.09368
# Shear Modulus (GPa) = 13.85681 17.16911 15.51296
#
# Velocity S-wave (km/s) = 2.99613 3.33506 3.17013
# Velocity P-wave (km/s) = 5.98116 7.12366 6.57726
#
# Compressibility (1/GPa) = 0.02721375
#
# Stress axis : x y z
#
# Youngs Moduli (GPa) = 37.31463 24.32273 76.30406
#
# Poissons Ratio (x) = 0.32655 0.71123
# Poissons Ratio (y) = 0.50098 0.31708
# Poissons Ratio (z) = 0.34781 0.10107
#
# Static dielectric constant tensor:
#      x y z
#    x 2.779560 0.000000 0.208970 
#    y 0.000000 2.713260 0.000000 
#    z 0.208970 0.000000 3.395200 
# 
# 
# High freq. dielectric constant tensor:
#      x y z
#    x 1.556050 0.000000 0.015700 
#    y 0.000000 1.564490 0.000000 
#    z 0.015700 0.000000 1.596550 
# 
# From -- ./inp_files/65775.got.cif
#   From: 2010.06.25/outbox.cif.g09.slc.cpg/sg10_33_cif.got.tgz:65775.got - 2010.06.27 22:07:45.
