data_PCOD8057822
_publ_section_title
;
Structure prediction by ZEFSAII (Michael W. Deem and Ramdas Pophale) SiO2 
 PCOD8057822
Probable space group: P 2/M
;
_chemical_formula_sum "Si O2"
_cell_formula_units_Z 32
_cell_length_a 11.779315
_cell_length_b 14.327803
_cell_length_c 11.843150
_cell_angle_alpha 90.000000
_cell_angle_beta 78.157570
_cell_angle_gamma 90.000000
_cell_volume 1956.245764
_symmetry_space_group_name_H-M "P 2/M"
_symmetry_group_IT_number 10
_symmetry_cell_setting 'monoclinic'
loop_
_space_group_symop_operation_xyz
x,y,z
-x,y,-z
-x,-y,-z
x,-y,z
loop_
_atom_site_type_symbol
_atom_site_label
_atom_site_fract_x
_atom_site_fract_y
_atom_site_fract_z
Si Si1 0.294516 0.889826 0.345370
Si Si2 0.555937 0.109701 0.239447
Si Si3 0.054418 0.602270 0.166230
Si Si4 0.823395 0.602199 0.098749
Si Si5 0.721057 0.892026 0.400165
Si Si6 0.086309 0.891193 0.813121
Si Si7 0.850223 0.209016 0.810456
Si Si8 0.735477 0.791031 0.066085
O O1 0.421188 0.866132 0.271466
O O2 0.283744 0.847736 0.474057
O O3 0.199012 0.837444 0.291527
O O4 0.268937 0.000000 0.345508
O O5 0.619945 0.148127 0.339371
O O6 0.613314 0.159913 0.119433
O O7 0.579087 0.000000 0.221555
O O8 0.079196 0.500000 0.216140
O O9 0.110536 0.685114 0.228881
O O10 0.915828 0.617273 0.181367
O O11 0.108408 0.606998 0.031800
O O12 0.763197 0.500000 0.124604
O O13 0.729668 0.685371 0.117664
O O14 0.846444 0.874548 0.318843
O O15 0.693639 0.000000 0.422788
O O16 0.156136 0.844819 0.901131
O O17 0.959925 0.848007 0.832326
O O18 0.075582 0.000000 0.842640
O O19 0.752270 0.208255 0.927828
#
# Coordination Sequence:
#
# PCOD8057822 Si02
#       8
#     4   4   4   4   4   4   4   4
#     4  10  20  32  46  65  88 119 158 193 223 255
#     4   9  18  32  49  65  85 119 159 192 219 254
#     4   8  14  26  43  63  88 118 150 180 216 262
#     4   8  13  24  44  66  87 113 148 189 221 251
#     4   8  16  32  50  64  81 111 156 202 228 247
#     4  10  19  29  43  65  93 124 151 178 219 267
#     4  11  20  28  42  68  99 124 143 174 223 277
#     4  10  18  29  44  66  96 122 148 180 216 270
#
# _framework density 16.357863999999999
#
# number of rings (size 3 to 8) (size 9 to 14) (size 15 to 20)
#    0.000    2.750    1.250    3.000    0.000    5.000 
#    0.000    3.125    0.000    0.750    0.000    8.750 
#    0.000    5.000    0.000    0.000    0.000    0.000 
#
# Total GULP energy -396617.222752 kJ/mol
# GULP energy per Si atom -12394.288211 kJ/mol
# Density = 1.632063 g / cm^3
# Si number density = 16.357864 Si / 1000 Ang^3
#
#
#
# Elastic Constant Matrix: (Units=GPa)
#
#
# Indices 1 2 3 4 5 6 
#
# 1 30.9932 15.5709 3.1701 0.0000 -1.2479 0.0000
# 2 15.5709 81.4915 14.8555 0.0000 -1.2295 0.0000
# 3 3.1701 14.8555 34.4315 0.0000 -0.0875 0.0000
# 4 0.0000 0.0000 0.0000 3.6453 0.0000 6.0677
# 5 -1.2479 -1.2295 -0.0875 0.0000 15.8117 0.0000
# 6 0.0000 0.0000 0.0000 6.0677 0.0000 15.0103
#
#
#
# Elastic Compliance Matrix: (Units=1/GPa)
#
#
# Indices 1 2 3 4 5 6 
#
# 1 0.035779 -0.006732 -0.000384 0.000000 0.002298 0.000000
# 2 -0.006732 0.014601 -0.005679 0.000000 0.000573 0.000000
# 3 -0.000384 -0.005679 0.031528 0.000000 -0.000297 0.000000
# 4 0.000000 0.000000 0.000000 0.838580 0.000000 -0.338984
# 5 0.002298 0.000573 -0.000297 0.000000 0.063468 0.000000
# 6 0.000000 0.000000 0.000000 -0.338984 0.000000 0.203650
#
#
# Mechanical properties :
#
#
# Convention : Reuss Voigt Hill
#
# Bulk Modulus (GPa) = 17.75579 23.78992 20.77285
# Shear Modulus (GPa) = 4.05855 14.44812 9.25333
#
# Velocity S-wave (km/s) = 1.57686 2.97518 2.38099
# Velocity P-wave (km/s) = 3.76742 5.13588 4.50393
#
# Compressibility (1/GPa) = 0.05631966
#
# Stress axis : x y z
#
# Youngs Moduli (GPa) = 27.94943 68.48705 31.71811
#
# Poissons Ratio (x) = 0.46104 0.01218
# Poissons Ratio (y) = 0.18815 0.18011
# Poissons Ratio (z) = 0.01073 0.38890
#
# Static dielectric constant tensor:
#      x y z
#    x 2.912220 0.000000 -0.031590 
#    y 0.000000 3.313790 0.000000 
#    z -0.031590 0.000000 2.956240 
# 
# 
# High freq. dielectric constant tensor:
#      x y z
#    x 1.609290 0.000000 -0.003470 
#    y 0.000000 1.618130 0.000000 
#    z -0.003470 0.000000 1.605410 
# 
# From -- ./inp_files/47372.got.cif
#   From: 2010.06.25/outbox.cif.g09.slc.cpg/sg10_24_cif.got.tgz:47372.got - 2010.06.27 22:07:45.
