data_PCOD8057301
_publ_section_title
;
Structure prediction by ZEFSAII (Michael W. Deem and Ramdas Pophale) SiO2 
 PCOD8057301
Probable space group: P 2/M
;
_chemical_formula_sum "Si O2"
_cell_formula_units_Z 32
_cell_length_a 14.142833
_cell_length_b 8.468094
_cell_length_c 15.124616
_cell_angle_alpha 90.000000
_cell_angle_beta 88.891855
_cell_angle_gamma 90.000000
_cell_volume 1811.028180
_symmetry_space_group_name_H-M "P 2/M"
_symmetry_group_IT_number 10
_symmetry_cell_setting 'monoclinic'
loop_
_space_group_symop_operation_xyz
x,y,z
-x,y,-z
-x,-y,-z
x,-y,z
loop_
_atom_site_type_symbol
_atom_site_label
_atom_site_fract_x
_atom_site_fract_y
_atom_site_fract_z
Si Si1 0.819817 0.182470 0.831557
Si Si2 0.518376 0.687883 0.596592
Si Si3 0.316254 0.316378 0.023216
Si Si4 0.212903 0.685173 0.854420
Si Si5 0.545202 0.183122 0.859630
Si Si6 0.389847 0.685350 0.756523
Si Si7 0.318663 0.682188 0.285795
Si Si8 0.007137 0.686604 0.896445
O O1 0.762056 0.291789 0.899632
O O2 0.777821 0.219985 0.733433
O O3 0.929650 0.225647 0.838068
O O4 0.803522 0.000000 0.853970
O O5 0.500000 0.761352 0.500000
O O6 0.511160 0.500000 0.593600
O O7 0.436305 0.751804 0.665099
O O8 0.624009 0.738314 0.627011
O O9 0.340077 0.500000 0.012704
O O10 0.414616 0.223178 0.043056
O O11 0.270742 0.243608 0.935768
O O12 0.202004 0.500000 0.870949
O O13 0.276492 0.722207 0.765383
O O14 0.106381 0.752142 0.854151
O O15 0.437375 0.233944 0.842736
O O16 0.607260 0.292884 0.794290
O O17 0.560602 0.000000 0.838220
O O18 0.407618 0.500000 0.764075
O O19 0.290608 0.500000 0.294640
O O20 0.994388 0.500000 0.885195
O O21 0.000000 0.733658 0.000000
#
# Coordination Sequence:
#
# PCOD8057301 Si02
#       8
#     4   4   4   4   4   4   4   4
#     4  11  20  29  43  66  94 120 151 193 234 266
#     4   8  14  26  48  76  98 114 138 177 224 271
#     4  10  17  29  45  61  82 116 159 193 223 258
#     4   9  18  30  46  64  82 113 157 194 222 258
#     4  10  18  28  41  61  89 119 151 186 223 260
#     4   9  17  31  47  64  88 118 149 180 218 270
#     4   9  16  28  47  68  91 121 152 182 221 269
#     4  10  18  32  49  64  84 116 159 201 230 263
#
# _framework density 17.669519999999999
#
# number of rings (size 3 to 8) (size 9 to 14) (size 15 to 20)
#    0.000    2.500    1.250    5.250    0.000    0.750 
#    0.000    4.375    0.000    9.375    0.000    0.875 
#    0.000    7.000    0.000    0.000    0.000    0.000 
#
# Total GULP energy -396435.907593 kJ/mol
# GULP energy per Si atom -12388.622112 kJ/mol
# Density = 1.762930 g / cm^3
# Si number density = 17.669520 Si / 1000 Ang^3
#
#
#
# Elastic Constant Matrix: (Units=GPa)
#
#
# Indices 1 2 3 4 5 6 
#
# 1 135.5692 21.3544 53.0718 0.0000 13.8873 0.0000
# 2 21.3544 38.4768 13.1334 0.0000 5.3763 0.0000
# 3 53.0718 13.1334 74.0673 0.0000 17.2853 0.0000
# 4 0.0000 0.0000 0.0000 3.2326 0.0000 3.3471
# 5 13.8873 5.3763 17.2853 0.0000 22.8345 0.0000
# 6 0.0000 0.0000 0.0000 3.3471 0.0000 8.3570
#
#
#
# Elastic Compliance Matrix: (Units=1/GPa)
#
#
# Indices 1 2 3 4 5 6 
#
# 1 0.010688 -0.003504 -0.006938 0.000000 -0.000423 0.000000
# 2 -0.003504 0.029032 -0.001869 0.000000 -0.003289 0.000000
# 3 -0.006938 -0.001869 0.021518 0.000000 -0.011629 0.000000
# 4 0.000000 0.000000 0.000000 0.528533 0.000000 -0.211684
# 5 -0.000423 -0.003289 -0.011629 0.000000 0.053628 0.000000
# 6 0.000000 0.000000 0.000000 -0.211684 0.000000 0.204443
#
#
# Mechanical properties :
#
#
# Convention : Reuss Voigt Hill
#
# Bulk Modulus (GPa) = 27.31156 47.02582 37.16869
# Shear Modulus (GPa) = 5.65183 17.58839 11.62011
#
# Velocity S-wave (km/s) = 1.79041 3.15843 2.56722
# Velocity P-wave (km/s) = 4.44573 6.32240 5.46522
#
# Compressibility (1/GPa) = 0.03661453
#
# Stress axis : x y z
#
# Youngs Moduli (GPa) = 93.56580 34.44451 46.47285
#
# Poissons Ratio (x) = 0.12071 0.32243
# Poissons Ratio (y) = 0.32789 0.08687
# Poissons Ratio (z) = 0.64916 0.06439
#
# Static dielectric constant tensor:
#      x y z
#    x 3.591040 0.000000 0.342800 
#    y 0.000000 2.952150 0.000000 
#    z 0.342800 0.000000 3.376650 
# 
# 
# High freq. dielectric constant tensor:
#      x y z
#    x 1.681780 0.000000 0.021740 
#    y 0.000000 1.661160 0.000000 
#    z 0.021740 0.000000 1.639880 
# 
# From -- ./inp_files/66188.got.cif
#   From: 2010.06.25/outbox.cif.g09.slc.cpg/sg10_34_cif.got.tgz:66188.got - 2010.06.27 22:07:45.
