data_PCOD8057984
_publ_section_title
;
Structure prediction by ZEFSAII (Michael W. Deem and Ramdas Pophale) SiO2 
 PCOD8057984
Probable space group: P 2/M
;
_chemical_formula_sum "Si O2"
_cell_formula_units_Z 32
_cell_length_a 31.792656
_cell_length_b 9.369610
_cell_length_c 12.540864
_cell_angle_alpha 90.000000
_cell_angle_beta 152.579943
_cell_angle_gamma 90.000000
_cell_volume 1720.344263
_symmetry_space_group_name_H-M "P 2/M"
_symmetry_group_IT_number 10
_symmetry_cell_setting 'monoclinic'
loop_
_space_group_symop_operation_xyz
x,y,z
-x,y,-z
-x,-y,-z
x,-y,z
loop_
_atom_site_type_symbol
_atom_site_label
_atom_site_fract_x
_atom_site_fract_y
_atom_site_fract_z
Si Si1 0.709256 0.333062 0.778980
Si Si2 0.986696 0.167395 0.592810
Si Si3 0.514511 0.664981 0.286708
Si Si4 0.583770 0.151787 0.257118
Si Si5 0.171391 0.167148 0.116991
Si Si6 0.807421 0.667102 0.214889
Si Si7 0.309876 0.331879 0.845564
Si Si8 0.251115 0.834566 0.513233
O O1 0.725521 0.500000 0.792327
O O2 0.600455 0.305995 0.560121
O O3 0.744322 0.245451 0.754169
O O4 0.764598 0.281389 0.006788
O O5 0.900457 0.249309 0.446671
O O6 0.000000 0.208547 0.500000
O O7 0.970385 0.000000 0.571762
O O8 0.075119 0.223004 0.855698
O O9 0.496657 0.500000 0.231799
O O10 0.553406 0.723859 0.265362
O O11 0.414594 0.730069 0.090592
O O12 0.659114 0.212772 0.347502
O O13 0.617562 0.000000 0.387619
O O14 0.500000 0.104385 0.000000
O O15 0.171719 0.196239 0.246157
O O16 0.182347 0.000000 0.117506
O O17 0.829060 0.500000 0.261762
O O18 0.736215 0.707012 0.146569
O O19 0.308626 0.500000 0.821126
O O20 0.248894 0.259308 0.615294
O O21 0.250826 0.000000 0.547198
#
# Coordination Sequence:
#
# PCOD8057984 Si02
#       8
#     4   4   4   4   4   4   4   4
#     4  10  20  33  53  82 111 140 178 222 270 321
#     4  10  20  36  61  88 109 134 173 223 278 329
#     4  10  20  32  50  78 109 143 182 223 265 311
#     4  10  18  29  48  75 105 138 178 223 267 311
#     4  10  20  35  56  85 114 137 169 221 280 327
#     4  10  22  39  57  79 109 145 183 222 269 324
#     4  10  22  38  54  75 109 152 190 222 259 312
#     4  10  20  34  54  79 109 145 181 221 269 320
#
# _framework density 18.600926999999999
#
# number of rings (size 3 to 8) (size 9 to 14) (size 15 to 20)
#    0.000    2.000    3.750    0.000    0.000    3.000 
#    0.000    3.125    0.000    3.750    0.000    3.500 
#    0.000    0.000    0.000    0.000    0.000    0.000 
#
# Total GULP energy -396485.317784 kJ/mol
# GULP energy per Si atom -12390.166181 kJ/mol
# Density = 1.855859 g / cm^3
# Si number density = 18.600927 Si / 1000 Ang^3
#
#
#
# Elastic Constant Matrix: (Units=GPa)
#
#
# Indices 1 2 3 4 5 6 
#
# 1 63.1575 26.1391 26.5830 0.0000 -2.7480 0.0000
# 2 26.1391 29.7455 30.9581 0.0000 -0.2363 0.0000
# 3 26.5830 30.9581 112.5805 0.0000 0.7848 0.0000
# 4 0.0000 0.0000 0.0000 24.9844 0.0000 -1.6861
# 5 -2.7480 -0.2363 0.7848 0.0000 24.0303 0.0000
# 6 0.0000 0.0000 0.0000 -1.6861 0.0000 22.0807
#
#
#
# Elastic Compliance Matrix: (Units=1/GPa)
#
#
# Indices 1 2 3 4 5 6 
#
# 1 0.025053 -0.022161 0.000160 0.000000 0.002642 0.000000
# 2 -0.022161 0.066719 -0.013104 0.000000 -0.001450 0.000000
# 3 0.000160 -0.013104 0.012452 0.000000 -0.000517 0.000000
# 4 0.000000 0.000000 0.000000 0.040232 0.000000 0.003072
# 5 0.002642 -0.001450 -0.000517 0.000000 0.041919 0.000000
# 6 0.000000 0.000000 0.000000 0.003072 0.000000 0.045523
#
#
# Mechanical properties :
#
#
# Convention : Reuss Voigt Hill
#
# Bulk Modulus (GPa) = 29.39969 41.42710 35.41339
# Shear Modulus (GPa) = 15.95174 22.33932 19.14553
#
# Velocity S-wave (km/s) = 2.93162 3.46927 3.21172
# Velocity P-wave (km/s) = 5.22484 6.19417 5.73004
#
# Compressibility (1/GPa) = 0.03401396
#
# Stress axis : x y z
#
# Youngs Moduli (GPa) = 39.91582 14.98821 80.30949
#
# Poissons Ratio (x) = 0.33215 -0.01284
# Poissons Ratio (y) = 0.88456 1.05238
# Poissons Ratio (z) = -0.00638 0.19641
#
# Static dielectric constant tensor:
#      x y z
#    x 3.183870 0.000000 -0.035090 
#    y 0.000000 3.267610 0.000000 
#    z -0.035090 0.000000 3.853710 
# 
# 
# High freq. dielectric constant tensor:
#      x y z
#    x 1.695260 0.000000 -0.001380 
#    y 0.000000 1.713090 0.000000 
#    z -0.001380 0.000000 1.740120 
# 
# From -- ./inp_files/58234.got.cif
#   From: 2010.06.25/outbox.cif.g09.slc.cpg/sg10_30_cif.got.tgz:58234.got - 2010.06.27 22:07:45.
