data_PCOD8057790
_publ_section_title
;
Structure prediction by ZEFSAII (Michael W. Deem and Ramdas Pophale) SiO2 
 PCOD8057790
Probable space group: P 2/M
;
_chemical_formula_sum "Si O2"
_cell_formula_units_Z 28
_cell_length_a 13.774231
_cell_length_b 14.085301
_cell_length_c 9.553796
_cell_angle_alpha 90.000000
_cell_angle_beta 66.473009
_cell_angle_gamma 90.000000
_cell_volume 1699.488496
_symmetry_space_group_name_H-M "P 2/M"
_symmetry_group_IT_number 10
_symmetry_cell_setting 'monoclinic'
loop_
_space_group_symop_operation_xyz
x,y,z
-x,y,-z
-x,-y,-z
x,-y,z
loop_
_atom_site_type_symbol
_atom_site_label
_atom_site_fract_x
_atom_site_fract_y
_atom_site_fract_z
Si Si1 0.647778 0.896376 0.536353
Si Si2 0.694025 0.388440 0.346046
Si Si3 0.328626 0.295451 0.347897
Si Si4 0.116082 0.611907 0.952625
Si Si5 0.598821 0.103811 0.257621
Si Si6 0.573794 0.700477 0.176910
Si Si7 0.736689 0.388889 0.884140
O O1 0.703094 0.812484 0.592782
O O2 0.523367 0.892384 0.631769
O O3 0.668084 0.881475 0.358834
O O4 0.692338 0.000000 0.557471
O O5 0.680240 0.500000 0.332762
O O6 0.690864 0.363901 0.510205
O O7 0.597636 0.337880 0.319672
O O8 0.804697 0.352293 0.214476
O O9 0.448750 0.303357 0.224689
O O10 0.253714 0.329916 0.264959
O O11 0.105810 0.500000 0.945964
O O12 0.162647 0.638947 0.078240
O O13 0.000000 0.659192 0.000000
O O14 0.619039 0.190736 0.138923
O O15 0.626016 0.000000 0.174973
O O16 0.629138 0.636328 0.028552
O O17 0.734165 0.500000 0.850221
#
# Coordination Sequence:
#
# PCOD8057790 Si02
#       7
#     4   4   4   4   4   4   4
#     4   8  14  25  41  60  85 118 151 187 226 252
#     4  10  19  28  43  67  89 116 157 188 208 257
#     4  11  19  28  42  65  97 124 150 184 215 253
#     4   8  16  34  53  63  79 111 147 188 236 271
#     4   8  13  24  42  61  81 113 159 196 218 245
#     4  10  18  29  42  61  92 131 158 177 211 256
#     4  10  21  32  43  63  92 125 154 180 219 269
#
# _framework density 16.475546000000001
#
# number of rings (size 3 to 8) (size 9 to 14) (size 15 to 20)
#    0.000    2.714    1.429    3.429    0.000    3.429 
#    0.000    1.429    0.000    6.857    0.000    0.000 
#    0.000   21.714    0.000    0.000    0.000    0.000 
#
# Total GULP energy -347003.820959 kJ/mol
# GULP energy per Si atom -12392.993606 kJ/mol
# Density = 1.643805 g / cm^3
# Si number density = 16.475546 Si / 1000 Ang^3
#
#
#
# Elastic Constant Matrix: (Units=GPa)
#
#
# Indices 1 2 3 4 5 6 
#
# 1 65.3393 30.0730 22.2936 0.0000 10.9438 0.0000
# 2 30.0730 95.1788 18.9795 0.0000 10.1899 0.0000
# 3 22.2936 18.9795 39.8036 0.0000 20.7925 0.0000
# 4 0.0000 0.0000 0.0000 12.7979 0.0000 11.0049
# 5 10.9438 10.1899 20.7925 0.0000 20.5818 0.0000
# 6 0.0000 0.0000 0.0000 11.0049 0.0000 12.7582
#
#
#
# Elastic Compliance Matrix: (Units=1/GPa)
#
#
# Indices 1 2 3 4 5 6 
#
# 1 0.020660 -0.004669 -0.010193 0.000000 0.001624 0.000000
# 2 -0.004669 0.012667 -0.003061 0.000000 -0.000696 0.000000
# 3 -0.010193 -0.003061 0.060704 0.000000 -0.054390 0.000000
# 4 0.000000 0.000000 0.000000 0.302543 0.000000 -0.260966
# 5 0.001624 -0.000696 -0.054390 0.000000 0.103014 0.000000
# 6 0.000000 0.000000 0.000000 -0.260966 0.000000 0.303484
#
#
# Mechanical properties :
#
#
# Convention : Reuss Voigt Hill
#
# Bulk Modulus (GPa) = 17.18690 38.11263 27.64977
# Shear Modulus (GPa) = 5.82538 17.82595 11.82566
#
# Velocity S-wave (km/s) = 1.88240 3.29289 2.68203
# Velocity P-wave (km/s) = 3.89602 6.13519 5.13905
#
# Compressibility (1/GPa) = 0.05818383
#
# Stress axis : x y z
#
# Youngs Moduli (GPa) = 48.40380 78.94721 16.47326
#
# Poissons Ratio (x) = 0.36860 0.16792
# Poissons Ratio (y) = 0.22599 0.05043
# Poissons Ratio (z) = 0.49339 0.24168
#
# Static dielectric constant tensor:
#      x y z
#    x 2.968660 0.000000 0.092890 
#    y 0.000000 3.422280 0.000000 
#    z 0.092890 0.000000 2.939930 
# 
# 
# High freq. dielectric constant tensor:
#      x y z
#    x 1.590870 0.000000 0.022360 
#    y 0.000000 1.637500 0.000000 
#    z 0.022360 0.000000 1.611960 
# 
# From -- ./inp_files/28821.got.cif
#   From: 2010.06.25/outbox.cif.g09.slc.cpg/sg10_15_cif.got.tgz:28821.got - 2010.06.27 22:07:45.
