data_PCOD8057391
_publ_section_title
;
Structure prediction by ZEFSAII (Michael W. Deem and Ramdas Pophale) SiO2 
 PCOD8057391
Probable space group: P 2/M
;
_chemical_formula_sum "Si O2"
_cell_formula_units_Z 32
_cell_length_a 9.132645
_cell_length_b 13.675651
_cell_length_c 24.529291
_cell_angle_alpha 90.000000
_cell_angle_beta 30.932651
_cell_angle_gamma 90.000000
_cell_volume 1574.773781
_symmetry_space_group_name_H-M "P 2/M"
_symmetry_group_IT_number 10
_symmetry_cell_setting 'monoclinic'
loop_
_space_group_symop_operation_xyz
x,y,z
-x,y,-z
-x,-y,-z
x,-y,z
loop_
_atom_site_type_symbol
_atom_site_label
_atom_site_fract_x
_atom_site_fract_y
_atom_site_fract_z
Si Si1 0.225883 0.386910 0.121106
Si Si2 0.779018 0.392656 0.525908
Si Si3 0.342368 0.393001 0.753869
Si Si4 0.843714 0.213241 0.438515
Si Si5 0.370618 0.885754 0.653081
Si Si6 0.143900 0.213732 0.228636
Si Si7 0.563259 0.806786 0.706055
Si Si8 0.678424 0.113075 0.111243
O O1 0.240277 0.500000 0.136252
O O2 0.186641 0.318743 0.186728
O O3 0.986175 0.370757 0.151779
O O4 0.500000 0.353944 0.000000
O O5 0.882480 0.500000 0.473768
O O6 0.471443 0.396705 0.651794
O O7 0.762681 0.324102 0.479041
O O8 0.000000 0.349753 0.500000
O O9 0.386354 0.500000 0.768373
O O10 0.487296 0.307549 0.743671
O O11 0.569644 0.144657 0.537890
O O12 0.936920 0.218856 0.346587
O O13 0.103305 0.173251 0.392247
O O14 0.485197 0.828718 0.669061
O O15 0.036885 0.858441 0.752767
O O16 0.396239 0.000000 0.654645
O O17 0.454008 0.171524 0.145140
O O18 0.389600 0.874493 0.803162
O O19 0.655783 0.000000 0.102017
O O20 0.000000 0.152316 0.000000
#
# Coordination Sequence:
#
# PCOD8057391 Si02
#       8
#     4   4   4   4   4   4   4   4
#     4  10  22  41  65  92 123 160 202 253 312 367
#     4  10  17  30  54  83 116 155 195 233 282 348
#     4  10  19  34  60  89 120 155 199 251 298 353
#     4  11  22  36  55  88 128 159 193 247 307 364
#     4  12  24  39  61  88 120 163 215 257 298 364
#     4  11  24  40  63  90 122 161 203 249 307 374
#     4  11  21  38  62  89 120 159 212 251 300 368
#     4  10  24  44  63  86 120 160 201 260 325 360
#
# _framework density 20.320378999999999
#
# number of rings (size 3 to 8) (size 9 to 14) (size 15 to 20)
#    0.000    1.375    3.750    1.500    1.750    4.500 
#    0.000    1.875    0.000    7.500    0.000    0.000 
#    0.000    0.000    0.000    0.000    0.000    0.000 
#
# Total GULP energy -396705.667431 kJ/mol
# GULP energy per Si atom -12397.052107 kJ/mol
# Density = 2.027413 g / cm^3
# Si number density = 20.320379 Si / 1000 Ang^3
#
#
#
# Elastic Constant Matrix: (Units=GPa)
#
#
# Indices 1 2 3 4 5 6 
#
# 1 68.0304 21.3718 28.4365 0.0000 -12.1839 0.0000
# 2 21.3718 103.6467 19.9473 0.0000 -5.4676 0.0000
# 3 28.4365 19.9473 100.3416 0.0000 -22.5028 0.0000
# 4 0.0000 0.0000 0.0000 30.1099 0.0000 -0.8247
# 5 -12.1839 -5.4676 -22.5028 0.0000 32.4060 0.0000
# 6 0.0000 0.0000 0.0000 -0.8247 0.0000 25.6576
#
#
#
# Elastic Compliance Matrix: (Units=1/GPa)
#
#
# Indices 1 2 3 4 5 6 
#
# 1 0.017754 -0.002763 -0.003660 0.000000 0.003668 0.000000
# 2 -0.002763 0.010466 -0.001344 0.000000 -0.000206 0.000000
# 3 -0.003660 -0.001344 0.012923 0.000000 0.007371 0.000000
# 4 0.000000 0.000000 0.000000 0.033241 0.000000 0.001068
# 5 0.003668 -0.000206 0.007371 0.000000 0.037321 0.000000
# 6 0.000000 0.000000 0.000000 0.001068 0.000000 0.039009
#
#
# Mechanical properties :
#
#
# Convention : Reuss Voigt Hill
#
# Bulk Modulus (GPa) = 39.04705 45.72552 42.38629
# Shear Modulus (GPa) = 28.60681 31.11891 29.86286
#
# Velocity S-wave (km/s) = 3.75612 3.91757 3.83770
# Velocity P-wave (km/s) = 6.16998 6.55853 6.36722
#
# Compressibility (1/GPa) = 0.02561013
#
# Stress axis : x y z
#
# Youngs Moduli (GPa) = 56.32574 95.55095 77.37956
#
# Poissons Ratio (x) = 0.26401 0.28318
# Poissons Ratio (y) = 0.15563 0.10397
# Poissons Ratio (z) = 0.20613 0.12839
#
# Static dielectric constant tensor:
#      x y z
#    x 3.505700 0.000000 -0.243790 
#    y 0.000000 3.762620 0.000000 
#    z -0.243790 0.000000 3.820120 
# 
# 
# High freq. dielectric constant tensor:
#      x y z
#    x 1.776940 0.000000 -0.023410 
#    y 0.000000 1.798800 0.000000 
#    z -0.023410 0.000000 1.796820 
# 
# From -- ./inp_files/88256.got.cif
#   From: 2010.06.25/outbox.cif.g09.slc.cpg/sg10_45_cif.got.tgz:88256.got - 2010.06.27 22:07:45.
