data_PCOD8057370
_publ_section_title
;
Structure prediction by ZEFSAII (Michael W. Deem and Ramdas Pophale) SiO2 
 PCOD8057370
Probable space group: P 2/M
;
_chemical_formula_sum "Si O2"
_cell_formula_units_Z 28
_cell_length_a 14.414142
_cell_length_b 16.721991
_cell_length_c 13.713890
_cell_angle_alpha 90.000000
_cell_angle_beta 150.386091
_cell_angle_gamma 90.000000
_cell_volume 1633.423565
_symmetry_space_group_name_H-M "P 2/M"
_symmetry_group_IT_number 10
_symmetry_cell_setting 'monoclinic'
loop_
_space_group_symop_operation_xyz
x,y,z
-x,y,-z
-x,-y,-z
x,-y,z
loop_
_atom_site_type_symbol
_atom_site_label
_atom_site_fract_x
_atom_site_fract_y
_atom_site_fract_z
Si Si1 0.194889 0.089888 0.232958
Si Si2 0.927007 0.293912 0.536015
Si Si3 0.947941 0.329171 0.057157
Si Si4 0.790621 0.211220 0.594077
Si Si5 0.405086 0.227674 0.320137
Si Si6 0.582105 0.590947 0.180324
Si Si7 0.185664 0.410865 0.885806
O O1 0.162902 0.126355 0.312758
O O2 0.341671 0.141195 0.303774
O O3 0.272267 0.000000 0.314618
O O4 0.000000 0.090944 0.000000
O O5 0.878132 0.220978 0.565365
O O6 0.745763 0.349467 0.359829
O O7 0.000000 0.257813 0.500000
O O8 0.097243 0.347133 0.731530
O O9 0.900798 0.401941 0.085572
O O10 0.124746 0.279717 0.258393
O O11 0.768464 0.271932 0.886499
O O12 0.000000 0.365635 0.000000
O O13 0.564278 0.219348 0.382137
O O14 0.500000 0.273413 0.500000
O O15 0.660113 0.500000 0.253583
O O16 0.500000 0.612592 0.000000
O O17 0.409862 0.601756 0.098170
O O18 0.140995 0.500000 0.806219
#
# Coordination Sequence:
#
# PCOD8057370 Si02
#       7
#     4   4   4   4   4   4   4
#     4  10  18  32  55  83 110 131 159 198 243 292
#     4  11  21  34  53  74  97 129 173 214 253 300
#     4  11  18  33  49  69 102 132 168 203 244 297
#     4  10  20  32  50  75 102 133 165 201 248 297
#     4  10  17  30  51  74 100 136 160 194 247 290
#     4  10  19  33  51  72  98 127 164 218 273 299
#     4  10  22  34  50  71  96 132 169 213 260 299
#
# _framework density 17.141909999999999
#
# number of rings (size 3 to 8) (size 9 to 14) (size 15 to 20)
#    0.000    1.714    5.714    1.286    0.000    3.429 
#    0.000    0.000    0.000    0.857    0.000    0.000 
#    0.000    2.857    0.000    0.000    0.000    0.000 
#
# Total GULP energy -347035.815022 kJ/mol
# GULP energy per Si atom -12394.136251 kJ/mol
# Density = 1.710289 g / cm^3
# Si number density = 17.141910 Si / 1000 Ang^3
#
#
#
# Elastic Constant Matrix: (Units=GPa)
#
#
# Indices 1 2 3 4 5 6 
#
# 1 122.6739 30.5022 25.9951 0.0000 -1.0048 0.0000
# 2 30.5022 56.9624 22.2008 0.0000 5.1801 0.0000
# 3 25.9951 22.2008 66.7734 0.0000 10.5674 0.0000
# 4 0.0000 0.0000 0.0000 15.1913 0.0000 -0.6603
# 5 -1.0048 5.1801 10.5674 0.0000 24.9772 0.0000
# 6 0.0000 0.0000 0.0000 -0.6603 0.0000 11.0258
#
#
#
# Elastic Compliance Matrix: (Units=1/GPa)
#
#
# Indices 1 2 3 4 5 6 
#
# 1 0.009858 -0.004430 -0.002758 0.000000 0.002482 0.000000
# 2 -0.004430 0.022208 -0.005254 0.000000 -0.002561 0.000000
# 3 -0.002758 -0.005254 0.018908 0.000000 -0.007021 0.000000
# 4 0.000000 0.000000 0.000000 0.065999 0.000000 0.003953
# 5 0.002482 -0.002561 -0.007021 0.000000 0.043638 0.000000
# 6 0.000000 0.000000 0.000000 0.003953 0.000000 0.090933
#
#
# Mechanical properties :
#
#
# Convention : Reuss Voigt Hill
#
# Bulk Modulus (GPa) = 38.32762 44.86734 41.59748
# Shear Modulus (GPa) = 17.53632 21.41964 19.47798
#
# Velocity S-wave (km/s) = 3.20192 3.53873 3.37453
# Velocity P-wave (km/s) = 6.00644 6.55192 6.28510
#
# Compressibility (1/GPa) = 0.02609085
#
# Stress axis : x y z
#
# Youngs Moduli (GPa) = 101.44271 45.02888 52.88901
#
# Poissons Ratio (x) = 0.19946 0.14585
# Poissons Ratio (y) = 0.44934 0.27788
# Poissons Ratio (z) = 0.27975 0.23658
#
# Static dielectric constant tensor:
#      x y z
#    x 3.407130 0.000000 0.084290 
#    y 0.000000 3.010090 0.000000 
#    z 0.084290 0.000000 3.439320 
# 
# 
# High freq. dielectric constant tensor:
#      x y z
#    x 1.661300 0.000000 0.015090 
#    y 0.000000 1.620030 0.000000 
#    z 0.015090 0.000000 1.676730 
# 
# From -- ./inp_files/67647.got.cif
#   From: 2010.06.25/outbox.cif.g09.slc.cpg/sg10_34_cif.got.tgz:67647.got - 2010.06.27 22:07:45.
