data_PCOD8057225
_publ_section_title
;
Structure prediction by ZEFSAII (Michael W. Deem and Ramdas Pophale) SiO2 
 PCOD8057225
Probable space group: P 2/M
;
_chemical_formula_sum "Si O2"
_cell_formula_units_Z 32
_cell_length_a 15.061894
_cell_length_b 9.008735
_cell_length_c 14.005284
_cell_angle_alpha 90.000000
_cell_angle_beta 90.214659
_cell_angle_gamma 90.000000
_cell_volume 1900.344205
_symmetry_space_group_name_H-M "P 2/M"
_symmetry_group_IT_number 10
_symmetry_cell_setting 'monoclinic'
loop_
_space_group_symop_operation_xyz
x,y,z
-x,y,-z
-x,-y,-z
x,-y,z
loop_
_atom_site_type_symbol
_atom_site_label
_atom_site_fract_x
_atom_site_fract_y
_atom_site_fract_z
Si Si1 0.333932 0.175036 0.678572
Si Si2 0.472770 0.675886 0.814916
Si Si3 0.744474 0.673813 0.890278
Si Si4 0.097369 0.675408 0.979905
Si Si5 0.353078 0.673298 0.286983
Si Si6 0.203758 0.836482 0.831180
Si Si7 0.627114 0.166508 0.032223
Si Si8 0.604987 0.675094 0.505505
O O1 0.402339 0.275767 0.735912
O O2 0.234749 0.203224 0.722900
O O3 0.338233 0.231309 0.570196
O O4 0.357578 0.000000 0.685989
O O5 0.467589 0.500000 0.829290
O O6 0.566172 0.734515 0.775826
O O7 0.456772 0.754204 0.917422
O O8 0.737392 0.500000 0.910373
O O9 0.736711 0.707412 0.775670
O O10 0.836590 0.734547 0.935778
O O11 0.658460 0.745646 0.939126
O O12 0.093167 0.500000 0.979881
O O13 0.131355 0.724946 0.875393
O O14 0.000000 0.742644 0.000000
O O15 0.368423 0.500000 0.300108
O O16 0.354588 0.737450 0.394060
O O17 0.293383 0.832239 0.892014
O O18 0.160668 0.000000 0.834481
O O19 0.600411 0.000000 0.003293
O O20 0.500000 0.711005 0.500000
O O21 0.621252 0.500000 0.489962
#
# Coordination Sequence:
#
# PCOD8057225 Si02
#       8
#     4   4   4   4   4   4   4   4
#     4  10  19  30  44  66  93 119 152 194 233 264
#     4  10  17  28  44  61  83 117 158 192 221 258
#     4   9  17  31  47  62  86 120 149 177 220 272
#     4   9  17  29  48  74  96 112 138 178 222 269
#     4   9  18  30  44  62  84 115 157 192 219 260
#     4   8  16  29  44  64  91 119 146 176 214 267
#     4   9  17  29  42  61  89 117 150 188 222 259
#     4  10  18  31  47  64  86 117 159 201 228 258
#
# _framework density 16.839055999999999
#
# number of rings (size 3 to 8) (size 9 to 14) (size 15 to 20)
#    0.000    2.750    1.250    1.875    0.000    4.500 
#    0.000    4.375    0.000    0.000    0.000    0.875 
#    0.000    7.000    0.000    0.000    0.000    0.000 
#
# Total GULP energy -396506.616641 kJ/mol
# GULP energy per Si atom -12390.831770 kJ/mol
# Density = 1.680073 g / cm^3
# Si number density = 16.839056 Si / 1000 Ang^3
#
#
#
# Elastic Constant Matrix: (Units=GPa)
#
#
# Indices 1 2 3 4 5 6 
#
# 1 63.7941 12.1649 40.8399 0.0000 -11.2559 0.0000
# 2 12.1649 35.8205 21.7465 0.0000 -4.5483 0.0000
# 3 40.8399 21.7465 117.3917 0.0000 -6.1676 0.0000
# 4 0.0000 0.0000 0.0000 20.7428 0.0000 -6.5686
# 5 -11.2559 -4.5483 -6.1676 0.0000 18.5943 0.0000
# 6 0.0000 0.0000 0.0000 -6.5686 0.0000 10.7241
#
#
#
# Elastic Compliance Matrix: (Units=1/GPa)
#
#
# Indices 1 2 3 4 5 6 
#
# 1 0.022335 -0.002080 -0.006820 0.000000 0.010749 0.000000
# 2 -0.002080 0.032289 -0.004996 0.000000 0.004982 0.000000
# 3 -0.006820 -0.004996 0.011740 0.000000 -0.001456 0.000000
# 4 0.000000 0.000000 0.000000 0.059810 0.000000 0.036634
# 5 0.010749 0.004982 -0.001456 0.000000 0.061022 0.000000
# 6 0.000000 0.000000 0.000000 0.036634 0.000000 0.115686
#
#
# Mechanical properties :
#
#
# Convention : Reuss Voigt Hill
#
# Bulk Modulus (GPa) = 25.92559 40.72322 33.32440
# Shear Modulus (GPa) = 14.55467 19.49591 17.02529
#
# Velocity S-wave (km/s) = 2.94316 3.40631 3.18317
# Velocity P-wave (km/s) = 5.19414 6.30134 5.77434
#
# Compressibility (1/GPa) = 0.03857193
#
# Stress axis : x y z
#
# Youngs Moduli (GPa) = 44.77328 30.97024 85.17761
#
# Poissons Ratio (x) = 0.06441 0.58092
# Poissons Ratio (y) = 0.09312 0.42556
# Poissons Ratio (z) = 0.30536 0.15473
#
# Static dielectric constant tensor:
#      x y z
#    x 3.056800 0.000000 -0.104630 
#    y 0.000000 3.065070 0.000000 
#    z -0.104630 0.000000 3.429900 
# 
# 
# High freq. dielectric constant tensor:
#      x y z
#    x 1.608200 0.000000 -0.007270 
#    y 0.000000 1.640480 0.000000 
#    z -0.007270 0.000000 1.649830 
# 
# From -- ./inp_files/66124.got.cif
#   From: 2010.06.25/outbox.cif.g09.slc.cpg/sg10_34_cif.got.tgz:66124.got - 2010.06.27 22:07:45.
