data_PCOD8057937
_publ_section_title
;
Structure prediction by ZEFSAII (Michael W. Deem and Ramdas Pophale) SiO2 
 PCOD8057937
Probable space group: P 2/M
;
_chemical_formula_sum "Si O2"
_cell_formula_units_Z 32
_cell_length_a 14.889840
_cell_length_b 8.675621
_cell_length_c 29.038366
_cell_angle_alpha 90.000000
_cell_angle_beta 25.496719
_cell_angle_gamma 90.000000
_cell_volume 1614.711668
_symmetry_space_group_name_H-M "P 2/M"
_symmetry_group_IT_number 10
_symmetry_cell_setting 'monoclinic'
loop_
_space_group_symop_operation_xyz
x,y,z
-x,y,-z
-x,-y,-z
x,-y,z
loop_
_atom_site_type_symbol
_atom_site_label
_atom_site_fract_x
_atom_site_fract_y
_atom_site_fract_z
Si Si1 0.671799 0.176818 0.032671
Si Si2 0.088590 0.819599 0.162763
Si Si3 0.234061 0.322517 0.401466
Si Si4 0.324628 0.321769 0.131096
Si Si5 0.651454 0.181220 0.558324
Si Si6 0.921790 0.821428 0.683246
Si Si7 0.624101 0.816400 0.397346
Si Si8 0.418025 0.323368 0.219809
O O1 0.489091 0.213110 0.080705
O O2 0.644573 0.278919 0.092269
O O3 0.660697 0.000000 0.053006
O O4 0.884693 0.209875 0.905002
O O5 0.278412 0.725723 0.099677
O O6 0.864087 0.759864 0.284438
O O7 0.116813 0.000000 0.160627
O O8 0.199403 0.500000 0.429118
O O9 0.360576 0.248486 0.384914
O O10 0.395801 0.297603 0.284468
O O11 0.000000 0.251741 0.500000
O O12 0.390363 0.500000 0.103416
O O13 0.107678 0.284804 0.258051
O O14 0.868651 0.235587 0.436972
O O15 0.477544 0.244563 0.603317
O O16 0.632856 0.000000 0.571853
O O17 0.740439 0.794368 0.730322
O O18 0.933789 0.000000 0.692312
O O19 0.500000 0.752603 0.500000
O O20 0.613822 0.000000 0.403207
O O21 0.365764 0.500000 0.231107
#
# Coordination Sequence:
#
# PCOD8057937 Si02
#       8
#     4   4   4   4   4   4   4   4
#     4  10  20  33  51  75 102 134 172 215 263 312
#     4  10  20  35  54  73  99 135 174 217 264 312
#     4  10  20  34  52  76 110 145 172 208 265 321
#     4  11  21  31  48  74 104 137 173 214 260 310
#     4  10  20  32  53  81 105 137 179 220 259 306
#     4  10  18  29  47  73 105 137 169 208 256 308
#     4   9  18  35  57  79 105 137 175 217 261 307
#     4  10  19  32  50  73 103 139 170 202 255 314
#
# _framework density 19.817779999999999
#
# number of rings (size 3 to 8) (size 9 to 14) (size 15 to 20)
#    0.000    2.000    1.250    4.875    0.000    6.250 
#    0.000    0.625    0.000    2.250    0.000    5.250 
#    0.000    0.000    0.000    0.000    0.000    0.000 
#
# Total GULP energy -396493.296563 kJ/mol
# GULP energy per Si atom -12390.415518 kJ/mol
# Density = 1.977267 g / cm^3
# Si number density = 19.817780 Si / 1000 Ang^3
#
#
#
# Elastic Constant Matrix: (Units=GPa)
#
#
# Indices 1 2 3 4 5 6 
#
# 1 83.9934 5.4214 16.9113 0.0000 19.1869 0.0000
# 2 5.4214 34.2253 13.0623 0.0000 10.6979 0.0000
# 3 16.9113 13.0623 92.5687 0.0000 23.5822 0.0000
# 4 0.0000 0.0000 0.0000 20.1778 0.0000 10.7097
# 5 19.1869 10.6979 23.5822 0.0000 30.5151 0.0000
# 6 0.0000 0.0000 0.0000 10.7097 0.0000 18.8314
#
#
#
# Elastic Compliance Matrix: (Units=1/GPa)
#
#
# Indices 1 2 3 4 5 6 
#
# 1 0.013927 0.000665 -0.000433 0.000000 -0.008655 0.000000
# 2 0.000665 0.033182 -0.002159 0.000000 -0.010383 0.000000
# 3 -0.000433 -0.002159 0.013602 0.000000 -0.009483 0.000000
# 4 0.000000 0.000000 0.000000 0.070987 0.000000 -0.040371
# 5 -0.008655 -0.010383 -0.009483 0.000000 0.049181 0.000000
# 6 0.000000 0.000000 0.000000 -0.040371 0.000000 0.076062
#
#
# Mechanical properties :
#
#
# Convention : Reuss Voigt Hill
#
# Bulk Modulus (GPa) = 17.58803 31.28639 24.43721
# Shear Modulus (GPa) = 17.87315 25.59767 21.73541
#
# Velocity S-wave (km/s) = 3.00638 3.59785 3.31533
# Velocity P-wave (km/s) = 4.57660 5.75158 5.19740
#
# Compressibility (1/GPa) = 0.05685685
#
# Stress axis : x y z
#
# Youngs Moduli (GPa) = 71.80225 30.13673 73.51698
#
# Poissons Ratio (x) = -0.02003 0.03185
# Poissons Ratio (y) = -0.04772 0.15870
# Poissons Ratio (z) = 0.03110 0.06506
#
# Static dielectric constant tensor:
#      x y z
#    x 3.438700 0.000000 0.338860 
#    y 0.000000 3.340970 0.000000 
#    z 0.338860 0.000000 4.238870 
# 
# 
# High freq. dielectric constant tensor:
#      x y z
#    x 1.736730 0.000000 0.031850 
#    y 0.000000 1.751080 0.000000 
#    z 0.031850 0.000000 1.785940 
# 
# From -- ./inp_files/93105.got.cif
#   From: 2010.06.25/outbox.cif.g09.slc.cpg/sg10_47_cif.got.tgz:93105.got - 2010.06.27 22:07:45.
