data_PCOD8057495
_publ_section_title
;
Structure prediction by ZEFSAII (Michael W. Deem and Ramdas Pophale) SiO2 
 PCOD8057495
Probable space group: P 2/M
;
_chemical_formula_sum "Si O2"
_cell_formula_units_Z 32
_cell_length_a 12.344164
_cell_length_b 13.068273
_cell_length_c 11.481663
_cell_angle_alpha 90.000000
_cell_angle_beta 109.051104
_cell_angle_gamma 90.000000
_cell_volume 1750.738047
_symmetry_space_group_name_H-M "P 2/M"
_symmetry_group_IT_number 10
_symmetry_cell_setting 'monoclinic'
loop_
_space_group_symop_operation_xyz
x,y,z
-x,y,-z
-x,-y,-z
x,-y,z
loop_
_atom_site_type_symbol
_atom_site_label
_atom_site_fract_x
_atom_site_fract_y
_atom_site_fract_z
Si Si1 0.038463 0.118967 0.705258
Si Si2 0.264418 0.120384 0.668468
Si Si3 0.777195 0.881251 0.601044
Si Si4 0.845718 0.117024 0.028910
Si Si5 0.982057 0.611497 0.130447
Si Si6 0.812622 0.259337 0.812226
Si Si7 0.730234 0.620332 0.992122
Si Si8 0.626970 0.801412 0.072410
O O1 0.133518 0.158232 0.646516
O O2 0.910464 0.142409 0.620313
O O3 0.060556 0.000000 0.724569
O O4 0.066154 0.162920 0.843986
O O5 0.292159 0.142520 0.542073
O O6 0.350312 0.184441 0.781178
O O7 0.279918 0.000000 0.700096
O O8 0.737619 0.803607 0.689897
O O9 0.759700 0.000000 0.632798
O O10 0.869145 0.177640 0.919202
O O11 0.868783 0.000000 0.006405
O O12 0.715782 0.130554 0.029554
O O13 0.997186 0.500000 0.194831
O O14 0.081463 0.684383 0.217521
O O15 0.850366 0.647458 0.099718
O O16 0.000000 0.601097 0.000000
O O17 0.734159 0.338789 0.858774
O O18 0.701907 0.500000 0.981085
O O19 0.636785 0.682313 0.034726
O O20 0.500000 0.840799 0.000000
#
# Coordination Sequence:
#
# PCOD8057495 Si02
#       8
#     4   4   4   4   4   4   4   4
#     4   8  15  26  39  59  91 132 167 190 219 261
#     4   9  18  32  46  66 100 134 165 196 231 280
#     4  10  19  27  41  68 104 142 167 186 218 276
#     4   9  18  29  42  68 104 130 157 201 238 272
#     4   8  15  27  43  65  93 126 156 187 235 290
#     4  10  18  25  46  72 101 132 165 188 226 286
#     4   9  19  34  51  72  98 120 151 208 263 300
#     4  10  20  33  55  76  87 115 165 214 257 293
#
# _framework density 18.278006000000001
#
# number of rings (size 3 to 8) (size 9 to 14) (size 15 to 20)
#    0.000    2.875    0.000    3.000    8.750    2.750 
#    0.000    1.875    0.000    4.500    0.000   10.500 
#    0.000    0.000    0.000    0.000    0.000    0.000 
#
# Total GULP energy -396448.932364 kJ/mol
# GULP energy per Si atom -12389.029136 kJ/mol
# Density = 1.823640 g / cm^3
# Si number density = 18.278006 Si / 1000 Ang^3
#
#
#
# Elastic Constant Matrix: (Units=GPa)
#
#
# Indices 1 2 3 4 5 6 
#
# 1 41.5202 8.4412 23.3649 0.0000 8.3795 0.0000
# 2 8.4412 74.7710 42.1668 0.0000 -6.7394 0.0000
# 3 23.3649 42.1668 102.3975 0.0000 -5.9095 0.0000
# 4 0.0000 0.0000 0.0000 15.8027 0.0000 -4.0318
# 5 8.3795 -6.7394 -5.9095 0.0000 16.9885 0.0000
# 6 0.0000 0.0000 0.0000 -4.0318 0.0000 14.5376
#
#
#
# Elastic Compliance Matrix: (Units=1/GPa)
#
#
# Indices 1 2 3 4 5 6 
#
# 1 0.032816 -0.000779 -0.008286 0.000000 -0.019378 0.000000
# 2 -0.000779 0.017783 -0.006853 0.000000 0.005055 0.000000
# 3 -0.008286 -0.006853 0.014856 0.000000 0.006536 0.000000
# 4 0.000000 0.000000 0.000000 0.068099 0.000000 0.018886
# 5 -0.019378 0.005055 0.006536 0.000000 0.072700 0.000000
# 6 0.000000 0.000000 0.000000 0.018886 0.000000 0.074025
#
#
# Mechanical properties :
#
#
# Convention : Reuss Voigt Hill
#
# Bulk Modulus (GPa) = 29.74476 40.73716 35.24096
# Shear Modulus (GPa) = 15.46453 19.11348 17.28901
#
# Velocity S-wave (km/s) = 2.91189 3.23725 3.07887
# Velocity P-wave (km/s) = 5.25493 6.02569 5.65346
#
# Compressibility (1/GPa) = 0.03361936
#
# Stress axis : x y z
#
# Youngs Moduli (GPa) = 30.47262 56.23463 67.31357
#
# Poissons Ratio (x) = 0.04379 0.55773
# Poissons Ratio (y) = 0.02373 0.46133
# Poissons Ratio (z) = 0.25248 0.38540
#
# Static dielectric constant tensor:
#      x y z
#    x 3.056060 0.000000 -0.101870 
#    y 0.000000 3.480030 0.000000 
#    z -0.101870 0.000000 3.215750 
# 
# 
# High freq. dielectric constant tensor:
#      x y z
#    x 1.672460 0.000000 -0.009760 
#    y 0.000000 1.702970 0.000000 
#    z -0.009760 0.000000 1.677060 
# 
# From -- ./inp_files/47403.got.cif
#   From: 2010.06.25/outbox.cif.g09.slc.cpg/sg10_24_cif.got.tgz:47403.got - 2010.06.27 22:07:45.
