data_PCOD8057854
_publ_section_title
;
Structure prediction by ZEFSAII (Michael W. Deem and Ramdas Pophale) SiO2 
 PCOD8057854
Probable space group: P 2/M
;
_chemical_formula_sum "Si O2"
_cell_formula_units_Z 32
_cell_length_a 24.220154
_cell_length_b 9.119925
_cell_length_c 17.824989
_cell_angle_alpha 90.000000
_cell_angle_beta 28.262261
_cell_angle_gamma 90.000000
_cell_volume 1864.339098
_symmetry_space_group_name_H-M "P 2/M"
_symmetry_group_IT_number 10
_symmetry_cell_setting 'monoclinic'
loop_
_space_group_symop_operation_xyz
x,y,z
-x,y,-z
-x,-y,-z
x,-y,z
loop_
_atom_site_type_symbol
_atom_site_label
_atom_site_fract_x
_atom_site_fract_y
_atom_site_fract_z
Si Si1 0.376631 0.172883 0.986791
Si Si2 0.822421 0.828300 0.885433
Si Si3 0.902990 0.826184 0.948153
Si Si4 0.163166 0.176154 0.653943
Si Si5 0.367442 0.171228 0.305535
Si Si6 0.024458 0.672023 0.555932
Si Si7 0.739410 0.828993 0.722467
Si Si8 0.862819 0.160055 0.153978
O O1 0.302130 0.213396 0.002022
O O2 0.314469 0.235733 0.136067
O O3 0.387613 0.000000 0.985016
O O4 0.506734 0.239737 0.822453
O O5 0.822390 0.785491 0.973473
O O6 0.921137 0.734634 0.728675
O O7 0.849998 0.000000 0.840703
O O8 0.036081 0.769025 0.776835
O O9 0.908879 0.000000 0.952723
O O10 0.844612 0.758394 0.094755
O O11 0.263441 0.242119 0.479727
O O12 0.186440 0.237968 0.711373
O O13 0.164598 0.000000 0.652901
O O14 0.350510 0.199702 0.237436
O O15 0.366916 0.000000 0.323840
O O16 0.032897 0.500000 0.558322
O O17 0.143910 0.744716 0.439117
O O18 0.000000 0.715405 0.500000
O O19 0.770055 0.000000 0.693919
O O20 0.803181 0.000000 0.220977
O O21 0.000000 0.141686 0.000000
#
# Coordination Sequence:
#
# PCOD8057854 Si02
#       8
#     4   4   4   4   4   4   4   4
#     4   9  17  27  40  60  84 112 145 183 218 245
#     4  10  18  29  46  65  86 113 146 178 210 253
#     4   8  13  21  36  60  83 105 138 176 210 248
#     4   8  12  19  32  53  83 114 138 167 213 259
#     4   9  16  25  40  63  87 111 145 185 216 245
#     4  11  22  33  45  63  89 115 138 172 218 261
#     4  10  18  30  48  65  83 110 147 183 214 252
#     4   7  10  17  30  50  80 112 136 163 206 256
#
# _framework density 17.164259999999999
#
# number of rings (size 3 to 8) (size 9 to 14) (size 15 to 20)
#    0.000    3.000    1.250    3.000    0.000    4.000 
#    0.000    0.000    0.000    3.000    0.000    5.250 
#    0.000   12.500    0.000    1.125    0.000    1.375 
#
# Total GULP energy -396437.801085 kJ/mol
# GULP energy per Si atom -12388.681284 kJ/mol
# Density = 1.712519 g / cm^3
# Si number density = 17.164260 Si / 1000 Ang^3
#
#
#
# Elastic Constant Matrix: (Units=GPa)
#
#
# Indices 1 2 3 4 5 6 
#
# 1 144.1837 15.9134 58.9494 0.0000 8.1500 0.0000
# 2 15.9134 10.5779 7.6124 0.0000 -0.2571 0.0000
# 3 58.9494 7.6124 71.3418 0.0000 -1.1972 0.0000
# 4 0.0000 0.0000 0.0000 0.4922 0.0000 0.9214
# 5 8.1500 -0.2571 -1.1972 0.0000 31.5309 0.0000
# 6 0.0000 0.0000 0.0000 0.9214 0.0000 3.9999
#
#
#
# Elastic Compliance Matrix: (Units=1/GPa)
#
#
# Indices 1 2 3 4 5 6 
#
# 1 0.012010 -0.011881 -0.008715 0.000000 -0.003532 0.000000
# 2 -0.011881 0.114160 -0.002298 0.000000 0.003915 0.000000
# 3 -0.008715 -0.002298 0.021515 0.000000 0.003051 0.000000
# 4 0.000000 0.000000 0.000000 3.572525 0.000000 -0.822975
# 5 -0.003532 0.003915 0.003051 0.000000 0.032776 0.000000
# 6 0.000000 0.000000 0.000000 -0.822975 0.000000 0.439591
#
#
# Mechanical properties :
#
#
# Convention : Reuss Voigt Hill
#
# Bulk Modulus (GPa) = 9.81399 43.45042 26.63220
# Shear Modulus (GPa) = 1.17032 16.77981 8.97506
#
# Velocity S-wave (km/s) = 0.82663 3.13005 2.28917
# Velocity P-wave (km/s) = 2.57705 6.19939 4.74729
#
# Compressibility (1/GPa) = 0.10189539
#
# Stress axis : x y z
#
# Youngs Moduli (GPa) = 83.26573 8.75965 46.47992
#
# Poissons Ratio (x) = 0.10408 0.40508
# Poissons Ratio (y) = 0.98932 0.10681
# Poissons Ratio (z) = 0.72567 0.02013
#
# Static dielectric constant tensor:
#      x y z
#    x 3.681520 0.000000 0.231750 
#    y 0.000000 2.549980 0.000000 
#    z 0.231750 0.000000 3.401930 
# 
# 
# High freq. dielectric constant tensor:
#      x y z
#    x 1.673360 0.000000 0.014080 
#    y 0.000000 1.586960 0.000000 
#    z 0.014080 0.000000 1.649020 
# 
# From -- ./inp_files/79914.got.cif
#   From: 2010.06.25/outbox.cif.g09.slc.cpg/sg10_40_cif.got.tgz:79914.got - 2010.06.27 22:07:45.
