data_PCOD8057095
_publ_section_title
;
Structure prediction by ZEFSAII (Michael W. Deem and Ramdas Pophale) SiO2 
 PCOD8057095
Probable space group: P 2/M
;
_chemical_formula_sum "Si O2"
_cell_formula_units_Z 32
_cell_length_a 23.394708
_cell_length_b 9.180327
_cell_length_c 19.013231
_cell_angle_alpha 90.000000
_cell_angle_beta 28.834984
_cell_angle_gamma 90.000000
_cell_volume 1969.421802
_symmetry_space_group_name_H-M "P 2/M"
_symmetry_group_IT_number 10
_symmetry_cell_setting 'monoclinic'
loop_
_space_group_symop_operation_xyz
x,y,z
-x,y,-z
-x,-y,-z
x,-y,z
loop_
_atom_site_type_symbol
_atom_site_label
_atom_site_fract_x
_atom_site_fract_y
_atom_site_fract_z
Si Si1 0.082342 0.828388 0.314744
Si Si2 0.487690 0.329891 0.806174
Si Si3 0.363068 0.836457 0.626348
Si Si4 0.421596 0.339121 0.436179
Si Si5 0.744022 0.826835 0.992276
Si Si6 0.594748 0.329443 0.840588
Si Si7 0.304158 0.335960 0.819712
Si Si8 0.828938 0.827448 0.632771
O O1 0.144634 0.778551 0.175633
O O2 0.154593 0.770057 0.304870
O O3 0.945620 0.777354 0.463210
O O4 0.084359 0.000000 0.320069
O O5 0.449765 0.500000 0.843469
O O6 0.583169 0.295749 0.641141
O O7 0.546927 0.288209 0.815486
O O8 0.372995 0.230294 0.920272
O O9 0.500000 0.833186 0.500000
O O10 0.347727 0.771817 0.564269
O O11 0.285681 0.742606 0.764583
O O12 0.313395 0.000000 0.679612
O O13 0.368247 0.500000 0.506013
O O14 0.558383 0.338194 0.310184
O O15 0.733984 0.000000 0.012479
O O16 0.764671 0.753638 0.045912
O O17 0.617562 0.500000 0.824260
O O18 0.717536 0.248380 0.717975
O O19 0.500000 0.274263 0.000000
O O20 0.253406 0.500000 0.870020
O O21 0.809979 0.000000 0.649821
#
# Coordination Sequence:
#
# PCOD8057095 Si02
#       8
#     4   4   4   4   4   4   4   4
#     4   8  16  30  47  65  86 111 139 179 223 256
#     4   9  18  30  41  57  86 119 145 173 214 259
#     4   9  15  22  34  53  76 103 137 176 210 240
#     4   8  14  24  36  49  71 108 144 169 202 250
#     4  10  17  26  42  63  85 110 144 181 215 250
#     4  10  20  32  45  64  91 117 142 178 219 252
#     4   9  16  25  36  53  80 112 141 168 205 254
#     4   9  17  32  50  65  83 111 147 179 213 259
#
# _framework density 16.248422000000001
#
# number of rings (size 3 to 8) (size 9 to 14) (size 15 to 20)
#    0.000    3.000    0.000    3.375    0.000    5.250 
#    0.000    3.125    0.000    0.000    0.000    0.000 
#    0.000    1.000    0.000   11.500    0.000    5.875 
#
# Total GULP energy -396650.073655 kJ/mol
# GULP energy per Si atom -12395.314802 kJ/mol
# Density = 1.621144 g / cm^3
# Si number density = 16.248422 Si / 1000 Ang^3
#
#
#
# Elastic Constant Matrix: (Units=GPa)
#
#
# Indices 1 2 3 4 5 6 
#
# 1 74.8201 39.1169 60.6242 0.0000 25.9312 0.0000
# 2 39.1169 85.6051 55.6874 0.0000 16.5419 0.0000
# 3 60.6242 55.6874 111.8735 0.0000 28.9235 0.0000
# 4 0.0000 0.0000 0.0000 18.1934 0.0000 8.2295
# 5 25.9312 16.5419 28.9235 0.0000 31.3553 0.0000
# 6 0.0000 0.0000 0.0000 8.2295 0.0000 19.2441
#
#
#
# Elastic Compliance Matrix: (Units=1/GPa)
#
#
# Indices 1 2 3 4 5 6 
#
# 1 0.027437 -0.003813 -0.010011 0.000000 -0.011444 0.000000
# 2 -0.003813 0.017863 -0.006834 0.000000 0.000034 0.000000
# 3 -0.010011 -0.006834 0.019294 0.000000 -0.005913 0.000000
# 4 0.000000 0.000000 0.000000 0.068147 0.000000 -0.029142
# 5 -0.011444 0.000034 -0.005913 0.000000 0.046794 0.000000
# 6 0.000000 0.000000 0.000000 -0.029142 0.000000 0.064426
#
#
# Mechanical properties :
#
#
# Convention : Reuss Voigt Hill
#
# Bulk Modulus (GPa) = 42.96019 64.79509 53.87764
# Shear Modulus (GPa) = 17.06263 21.54990 19.30626
#
# Velocity S-wave (km/s) = 3.24406 3.64576 3.45076
# Velocity P-wave (km/s) = 6.36623 7.59516 7.00768
#
# Compressibility (1/GPa) = 0.02327736
#
# Stress axis : x y z
#
# Youngs Moduli (GPa) = 36.44676 55.98108 51.82887
#
# Poissons Ratio (x) = 0.21348 0.51887
# Poissons Ratio (y) = 0.13899 0.35420
# Poissons Ratio (z) = 0.36488 0.38257
#
# Static dielectric constant tensor:
#      x y z
#    x 2.909120 0.000000 0.432430 
#    y 0.000000 3.064550 0.000000 
#    z 0.432430 0.000000 3.216030 
# 
# 
# High freq. dielectric constant tensor:
#      x y z
#    x 1.592730 0.000000 0.040750 
#    y 0.000000 1.622960 0.000000 
#    z 0.040750 0.000000 1.610670 
# 
# From -- ./inp_files/54843.got.cif
#   From: 2010.06.25/outbox.cif.g09.slc.cpg/sg10_28_cif.got.tgz:54843.got - 2010.06.27 22:07:45.
