data_PCOD8057781
_publ_section_title
;
Structure prediction by ZEFSAII (Michael W. Deem and Ramdas Pophale) SiO2 
 PCOD8057781
Probable space group: P 2/M
;
_chemical_formula_sum "Si O2"
_cell_formula_units_Z 24
_cell_length_a 12.600994
_cell_length_b 8.938801
_cell_length_c 13.837429
_cell_angle_alpha 90.000000
_cell_angle_beta 127.800584
_cell_angle_gamma 90.000000
_cell_volume 1231.539497
_symmetry_space_group_name_H-M "P 2/M"
_symmetry_group_IT_number 10
_symmetry_cell_setting 'monoclinic'
loop_
_space_group_symop_operation_xyz
x,y,z
-x,y,-z
-x,-y,-z
x,-y,z
loop_
_atom_site_type_symbol
_atom_site_label
_atom_site_fract_x
_atom_site_fract_y
_atom_site_fract_z
Si Si1 0.120217 0.176619 0.687691
Si Si2 0.180983 0.174294 0.928058
Si Si3 0.449332 0.177741 0.575536
Si Si4 0.825218 0.177681 0.491479
Si Si5 0.936117 0.662882 0.860880
Si Si6 0.675744 0.323216 0.817476
O O1 0.192100 0.233984 0.629870
O O2 0.967219 0.240951 0.610377
O O3 0.103545 0.000000 0.672840
O O4 0.209319 0.218311 0.831669
O O5 0.279568 0.266788 0.051624
O O6 0.202272 0.000000 0.961060
O O7 0.022959 0.213364 0.853704
O O8 0.500000 0.237947 0.500000
O O9 0.297425 0.236209 0.510393
O O10 0.538007 0.245260 0.711242
O O11 0.460437 0.000000 0.586816
O O12 0.822050 0.000000 0.491568
O O13 0.936908 0.500000 0.808024
O O14 0.784537 0.721052 0.795283
O O15 0.000000 0.636448 0.000000
O O16 0.657552 0.500000 0.813871
#
# Coordination Sequence:
#
# PCOD8057781 Si02
#       6
#     4   4   4   4   4   4
#     4   8  15  28  51  78 104 135 166 202 258 314
#     4  10  18  28  51  82 103 126 171 222 259 293
#     4  10  21  34  54  80 105 131 168 218 260 295
#     4   8  15  31  50  74 108 137 163 204 258 312
#     4   8  16  30  45  65  98 138 169 197 246 305
#     4  10  21  36  50  68 104 146 175 201 250 318
#
# _framework density 19.487804000000001
#
# number of rings (size 3 to 8) (size 9 to 14) (size 15 to 20)
#    0.000    3.000    0.000    3.000    2.333    4.000 
#    0.000    0.833    0.000    7.000    0.000    5.833 
#    0.000    0.000    0.000    0.000    0.000    0.000 
#
# Total GULP energy -297352.857986 kJ/mol
# GULP energy per Si atom -12389.702416 kJ/mol
# Density = 1.944345 g / cm^3
# Si number density = 19.487804 Si / 1000 Ang^3
#
#
#
# Elastic Constant Matrix: (Units=GPa)
#
#
# Indices 1 2 3 4 5 6 
#
# 1 109.4045 12.9788 45.1388 0.0000 -5.9658 0.0000
# 2 12.9788 33.9175 18.6493 0.0000 -3.1939 0.0000
# 3 45.1388 18.6493 99.5392 0.0000 -11.7584 0.0000
# 4 0.0000 0.0000 0.0000 33.7685 0.0000 22.8304
# 5 -5.9658 -3.1939 -11.7584 0.0000 25.8446 0.0000
# 6 0.0000 0.0000 0.0000 22.8304 0.0000 21.9578
#
#
#
# Elastic Compliance Matrix: (Units=1/GPa)
#
#
# Indices 1 2 3 4 5 6 
#
# 1 0.011331 -0.001677 -0.004798 0.000000 0.000226 0.000000
# 2 -0.001677 0.033161 -0.005299 0.000000 0.001300 0.000000
# 3 -0.004798 -0.005299 0.013745 0.000000 0.004491 0.000000
# 4 0.000000 0.000000 0.000000 0.099691 0.000000 -0.103652
# 5 0.000226 0.001300 0.004491 0.000000 0.040949 0.000000
# 6 0.000000 0.000000 0.000000 -0.103652 0.000000 0.153313
#
#
# Mechanical properties :
#
#
# Convention : Reuss Voigt Hill
#
# Bulk Modulus (GPa) = 28.82621 44.04390 36.43506
# Shear Modulus (GPa) = 12.90988 27.38715 20.14852
#
# Velocity S-wave (km/s) = 2.57662 3.75286 3.21893
# Velocity P-wave (km/s) = 4.86580 6.43650 5.70546
#
# Compressibility (1/GPa) = 0.03469065
#
# Stress axis : x y z
#
# Youngs Moduli (GPa) = 88.25336 30.15596 72.75250
#
# Poissons Ratio (x) = 0.05056 0.34903
# Poissons Ratio (y) = 0.14798 0.38551
# Poissons Ratio (z) = 0.42340 0.15980
#
# Static dielectric constant tensor:
#      x y z
#    x 3.920370 0.000000 -0.121330 
#    y 0.000000 3.176340 0.000000 
#    z -0.121330 0.000000 3.589480 
# 
# 
# High freq. dielectric constant tensor:
#      x y z
#    x 1.742820 0.000000 -0.005850 
#    y 0.000000 1.722610 0.000000 
#    z -0.005850 0.000000 1.758620 
# 
# From -- ./inp_files/46230.got.cif
#   From: 2010.06.25/outbox.cif.g09.slc.cpg/sg10_24_cif.got.tgz:46230.got - 2010.06.27 22:07:45.
