data_PCOD8057876
_publ_section_title
;
Structure prediction by ZEFSAII (Michael W. Deem and Ramdas Pophale) SiO2 
 PCOD8057876
Probable space group: P 2/M
;
_chemical_formula_sum "Si O2"
_cell_formula_units_Z 32
_cell_length_a 9.095142
_cell_length_b 14.385470
_cell_length_c 27.695628
_cell_angle_alpha 90.000000
_cell_angle_beta 152.107538
_cell_angle_gamma 90.000000
_cell_volume 1695.186729
_symmetry_space_group_name_H-M "P 2/M"
_symmetry_group_IT_number 10
_symmetry_cell_setting 'monoclinic'
loop_
_space_group_symop_operation_xyz
x,y,z
-x,y,-z
-x,-y,-z
x,-y,z
loop_
_atom_site_type_symbol
_atom_site_label
_atom_site_fract_x
_atom_site_fract_y
_atom_site_fract_z
Si Si1 0.126392 0.895215 0.894347
Si Si2 0.829330 0.398202 0.752650
Si Si3 0.681526 0.767545 0.596093
Si Si4 0.242071 0.391881 0.156494
Si Si5 0.123729 0.778600 0.985147
Si Si6 0.135065 0.217585 0.804773
Si Si7 0.958986 0.603973 0.351763
Si Si8 0.239459 0.340332 0.530264
O O1 0.003786 0.844122 0.810711
O O2 0.994939 0.000000 0.857384
O O3 0.500000 0.894246 0.000000
O O4 0.999532 0.842532 0.905123
O O5 0.989601 0.500000 0.795539
O O6 0.796358 0.368179 0.798513
O O7 0.486927 0.406445 0.629185
O O8 0.045973 0.325111 0.787352
O O9 0.500000 0.823247 0.500000
O O10 0.419297 0.747802 0.560175
O O11 0.965936 0.820262 0.706253
O O12 0.818003 0.671605 0.613726
O O13 0.165472 0.500000 0.123634
O O14 0.594074 0.366394 0.241344
O O15 0.997076 0.327113 0.056468
O O16 0.496510 0.785306 0.094929
O O17 0.000000 0.819026 0.000000
O O18 0.006634 0.500000 0.344986
O O19 0.054111 0.603007 0.435576
O O20 0.000000 0.299469 0.500000
#
# Coordination Sequence:
#
# PCOD8057876 Si02
#       8
#     4   4   4   4   4   4   4   4
#     4   9  19  37  60  82 103 130 169 215 265 315
#     4  10  19  30  48  74 102 138 183 222 254 298
#     4   9  20  33  49  74 104 138 176 217 265 316
#     4  10  20  32  48  72 105 144 182 215 251 302
#     4  11  22  36  55  80 109 140 173 215 260 309
#     4  10  20  37  56  77 106 141 175 215 258 309
#     4  10  19  31  45  66 104 145 182 224 266 303
#     4  10  18  29  46  69  96 135 187 234 266 296
#
# _framework density 18.876975999999999
#
# number of rings (size 3 to 8) (size 9 to 14) (size 15 to 20)
#    0.000    2.125    2.500    1.125    0.000    5.750 
#    0.000    1.250    0.000    0.375    0.000    0.000 
#    0.000   52.000    0.000    0.000    0.000    0.750 
#
# Total GULP energy -396629.991304 kJ/mol
# GULP energy per Si atom -12394.687228 kJ/mol
# Density = 1.883401 g / cm^3
# Si number density = 18.876976 Si / 1000 Ang^3
#
#
#
# Elastic Constant Matrix: (Units=GPa)
#
#
# Indices 1 2 3 4 5 6 
#
# 1 114.2445 30.9712 41.8124 0.0000 -9.6743 0.0000
# 2 30.9712 68.0591 33.6234 0.0000 -7.6350 0.0000
# 3 41.8124 33.6234 108.0316 0.0000 -19.6926 0.0000
# 4 0.0000 0.0000 0.0000 10.4441 0.0000 -0.4314
# 5 -9.6743 -7.6350 -19.6926 0.0000 33.7230 0.0000
# 6 0.0000 0.0000 0.0000 -0.4314 0.0000 11.0362
#
#
#
# Elastic Compliance Matrix: (Units=1/GPa)
#
#
# Indices 1 2 3 4 5 6 
#
# 1 0.010825 -0.003360 -0.003040 0.000000 0.000569 0.000000
# 2 -0.003360 0.018429 -0.004309 0.000000 0.000692 0.000000
# 3 -0.003040 -0.004309 0.012800 0.000000 0.005627 0.000000
# 4 0.000000 0.000000 0.000000 0.095903 0.000000 0.003749
# 5 0.000569 0.000692 0.005627 0.000000 0.033259 0.000000
# 6 0.000000 0.000000 0.000000 0.003749 0.000000 0.090758
#
#
# Mechanical properties :
#
#
# Convention : Reuss Voigt Hill
#
# Bulk Modulus (GPa) = 48.46130 55.90546 52.18338
# Shear Modulus (GPa) = 17.22533 23.30254 20.26394
#
# Velocity S-wave (km/s) = 3.02405 3.51727 3.27995
# Velocity P-wave (km/s) = 6.15801 6.79521 6.48444
#
# Compressibility (1/GPa) = 0.02063502
#
# Stress axis : x y z
#
# Youngs Moduli (GPa) = 92.37913 54.26336 78.12525
#
# Poissons Ratio (x) = 0.18234 0.23750
# Poissons Ratio (y) = 0.31042 0.33664
# Poissons Ratio (z) = 0.28084 0.23382
#
# Static dielectric constant tensor:
#      x y z
#    x 3.569010 0.000000 -0.244910 
#    y 0.000000 3.077880 0.000000 
#    z -0.244910 0.000000 3.691430 
# 
# 
# High freq. dielectric constant tensor:
#      x y z
#    x 1.743030 0.000000 -0.013480 
#    y 0.000000 1.679550 0.000000 
#    z -0.013480 0.000000 1.737480 
# 
# From -- ./inp_files/92390.got.cif
#   From: 2010.06.25/outbox.cif.g09.slc.cpg/sg10_47_cif.got.tgz:92390.got - 2010.06.27 22:07:45.
