data_PCOD8057831
_publ_section_title
;
Structure prediction by ZEFSAII (Michael W. Deem and Ramdas Pophale) SiO2 
 PCOD8057831
Probable space group: P 2/M
;
_chemical_formula_sum "Si O2"
_cell_formula_units_Z 28
_cell_length_a 26.897018
_cell_length_b 9.526875
_cell_length_c 20.315792
_cell_angle_alpha 90.000000
_cell_angle_beta 17.612118
_cell_angle_gamma 90.000000
_cell_volume 1575.129814
_symmetry_space_group_name_H-M "P 2/M"
_symmetry_group_IT_number 10
_symmetry_cell_setting 'monoclinic'
loop_
_space_group_symop_operation_xyz
x,y,z
-x,y,-z
-x,-y,-z
x,-y,z
loop_
_atom_site_type_symbol
_atom_site_label
_atom_site_fract_x
_atom_site_fract_y
_atom_site_fract_z
Si Si1 0.493032 0.338673 0.932675
Si Si2 0.623688 0.831560 0.288774
Si Si3 0.878565 0.339432 0.598025
Si Si4 0.045175 0.843789 0.288223
Si Si5 0.661196 0.168753 0.607918
Si Si6 0.408652 0.166667 0.816872
Si Si7 0.018497 0.155853 0.167592
O O1 0.553192 0.500000 0.849657
O O2 0.604361 0.237935 0.747948
O O3 0.500000 0.291798 0.000000
O O4 0.306454 0.321452 0.143384
O O5 0.500000 0.772999 0.500000
O O6 0.560832 0.779018 0.296430
O O7 0.631994 0.000000 0.278574
O O8 0.808215 0.770173 0.071108
O O9 0.920006 0.500000 0.529687
O O10 0.000000 0.278307 0.500000
O O11 0.909169 0.254049 0.492850
O O12 0.004925 0.848008 0.262778
O O13 0.031407 0.000000 0.335606
O O14 0.229283 0.782781 0.067811
O O15 0.548395 0.223264 0.689947
O O16 0.847644 0.223037 0.356686
O O17 0.654859 0.000000 0.624355
O O18 0.410240 0.000000 0.813872
O O19 0.025564 0.000000 0.129221
#
# Coordination Sequence:
#
# PCOD8057831 Si02
#       7
#     4   4   4   4   4   4   4
#     4  10  21  34  45  60  86 117 147 182 221 260
#     4   8  13  24  42  63  91 123 144 162 205 266
#     4  10  20  31  42  59  83 108 138 181 223 252
#     4   9  16  28  44  59  79 109 144 177 209 254
#     4  10  18  29  45  64  88 114 143 183 221 252
#     4   8  15  26  41  63  88 114 144 178 214 251
#     4   8  15  26  41  62  85 110 141 175 208 245
#
# _framework density 17.776312999999998
#
# number of rings (size 3 to 8) (size 9 to 14) (size 15 to 20)
#    0.000    3.000    0.000    3.429    0.000    1.143 
#    0.000    0.714    0.000    4.286    0.000    0.000 
#    0.000   21.714    0.000    0.000    0.000    0.000 
#
# Total GULP energy -346950.809504 kJ/mol
# GULP energy per Si atom -12391.100339 kJ/mol
# Density = 1.773585 g / cm^3
# Si number density = 17.776313 Si / 1000 Ang^3
#
#
#
# Elastic Constant Matrix: (Units=GPa)
#
#
# Indices 1 2 3 4 5 6 
#
# 1 69.6540 11.3881 42.3856 0.0000 -12.3607 0.0000
# 2 11.3881 26.5149 22.1774 0.0000 6.1424 0.0000
# 3 42.3856 22.1774 110.6147 0.0000 -3.7149 0.0000
# 4 0.0000 0.0000 0.0000 5.0235 0.0000 -6.0340
# 5 -12.3607 6.1424 -3.7149 0.0000 35.2295 0.0000
# 6 0.0000 0.0000 0.0000 -6.0340 0.0000 7.2523
#
#
#
# Elastic Compliance Matrix: (Units=1/GPa)
#
#
# Indices 1 2 3 4 5 6 
#
# 1 0.020500 -0.004983 -0.006609 0.000000 0.007365 0.000000
# 2 -0.004983 0.049480 -0.008389 0.000000 -0.011260 0.000000
# 3 -0.006609 -0.008389 0.013273 0.000000 0.000544 0.000000
# 4 0.000000 0.000000 0.000000313.325347 0.000000260.689880
# 5 0.007365 -0.011260 0.000544 0.000000 0.032990 0.000000
# 6 0.000000 0.000000 0.000000260.689880 0.000000217.034523
#
#
# Mechanical properties :
#
#
# Convention : Reuss Voigt Hill
#
# Bulk Modulus (GPa) = 23.09949 39.85399 31.47674
# Shear Modulus (GPa) = 0.00942 18.22324 9.11633
#
# Velocity S-wave (km/s) = 0.07289 3.20526 2.26704
# Velocity P-wave (km/s) = 3.60969 6.01387 4.95966
#
# Compressibility (1/GPa) = 0.04329100
#
# Stress axis : x y z
#
# Youngs Moduli (GPa) = 48.78093 20.21012 75.34120
#
# Poissons Ratio (x) = 0.10071 0.49791
# Poissons Ratio (y) = 0.24308 0.63205
# Poissons Ratio (z) = 0.32238 0.16955
#
# Static dielectric constant tensor:
#      x y z
#    x 3.397590 0.000000 -0.267150 
#    y 0.000000 2.825790 0.000000 
#    z -0.267150 0.000000 3.544900 
# 
# 
# High freq. dielectric constant tensor:
#      x y z
#    x 1.682360 0.000000 -0.019510 
#    y 0.000000 1.630750 0.000000 
#    z -0.019510 0.000000 1.693510 
# 
# From -- ./inp_files/67150.got.cif
#   From: 2010.06.25/outbox.cif.g09.slc.cpg/sg10_34_cif.got.tgz:67150.got - 2010.06.27 22:07:45.
