data_PCOD8057001
_publ_section_title
;
Structure prediction by ZEFSAII (Michael W. Deem and Ramdas Pophale) SiO2 
 PCOD8057001
Probable space group: P 2/M
;
_chemical_formula_sum "Si O2"
_cell_formula_units_Z 32
_cell_length_a 14.311412
_cell_length_b 8.963941
_cell_length_c 23.453178
_cell_angle_alpha 90.000000
_cell_angle_beta 135.166607
_cell_angle_gamma 90.000000
_cell_volume 2121.297779
_symmetry_space_group_name_H-M "P 2/M"
_symmetry_group_IT_number 10
_symmetry_cell_setting 'monoclinic'
loop_
_space_group_symop_operation_xyz
x,y,z
-x,y,-z
-x,-y,-z
x,-y,z
loop_
_atom_site_type_symbol
_atom_site_label
_atom_site_fract_x
_atom_site_fract_y
_atom_site_fract_z
Si Si1 0.556776 0.321090 0.795008
Si Si2 0.973383 0.668349 0.421636
Si Si3 0.321117 0.175296 0.262246
Si Si4 0.712857 0.173745 0.327412
Si Si5 0.073548 0.669113 0.119662
Si Si6 0.814040 0.333112 0.958343
Si Si7 0.517495 0.176039 0.444634
Si Si8 0.766102 0.174145 0.482056
O O1 0.554599 0.500000 0.790604
O O2 0.595403 0.258054 0.750058
O O3 0.415317 0.257966 0.752938
O O4 0.665287 0.264740 0.889819
O O5 0.954224 0.500000 0.391590
O O6 0.841239 0.761779 0.350519
O O7 0.000000 0.674039 0.500000
O O8 0.098437 0.740847 0.443549
O O9 0.167938 0.229283 0.199964
O O10 0.388632 0.216150 0.351573
O O11 0.326453 0.000000 0.251665
O O12 0.721291 0.205843 0.398198
O O13 0.701178 0.000000 0.308723
O O14 0.069187 0.500000 0.142123
O O15 0.134656 0.666506 0.083675
O O16 0.923998 0.741584 0.048408
O O17 0.803310 0.500000 0.976893
O O18 0.500000 0.246656 0.500000
O O19 0.651196 0.238630 0.473234
O O20 0.534011 0.000000 0.456040
O O21 0.792266 0.000000 0.502560
#
# Coordination Sequence:
#
# PCOD8057001 Si02
#       8
#     4   4   4   4   4   4   4   4
#     4  10  17  25  38  54  75 104 131 158 190 228
#     4   9  17  27  39  57  76  98 126 157 192 235
#     4  10  17  26  38  55  73  95 129 167 201 231
#     4  10  17  26  39  58  79 101 128 162 193 227
#     4   8  13  24  38  50  67  95 127 157 188 227
#     4   7  12  22  35  50  69  96 129 154 180 224
#     4   9  17  29  43  57  75 102 135 167 201 239
#     4   9  16  28  42  55  72  98 129 164 199 230
#
# _framework density 15.085105
#
# number of rings (size 3 to 8) (size 9 to 14) (size 15 to 20)
#    0.000    3.000    1.250    3.000    0.000    2.000 
#    0.000    5.625    0.000    3.375    0.000    0.000 
#    0.000    0.000    0.000    1.125    0.000   23.500 
#
# Total GULP energy -396430.400101 kJ/mol
# GULP energy per Si atom -12388.450003 kJ/mol
# Density = 1.505077 g / cm^3
# Si number density = 15.085105 Si / 1000 Ang^3
#
#
#
# Elastic Constant Matrix: (Units=GPa)
#
#
# Indices 1 2 3 4 5 6 
#
# 1 56.5470 24.7688 52.0630 0.0000 18.5835 0.0000
# 2 24.7688 63.0916 45.0562 0.0000 16.0524 0.0000
# 3 52.0630 45.0562 125.7286 0.0000 36.0536 0.0000
# 4 0.0000 0.0000 0.0000 22.7227 0.0000 9.1648
# 5 18.5835 16.0524 36.0536 0.0000 24.1412 0.0000
# 6 0.0000 0.0000 0.0000 9.1648 0.0000 11.0922
#
#
#
# Elastic Compliance Matrix: (Units=1/GPa)
#
#
# Indices 1 2 3 4 5 6 
#
# 1 0.029925 -0.003419 -0.009117 0.000000 -0.007146 0.000000
# 2 -0.003419 0.022019 -0.005302 0.000000 -0.004092 0.000000
# 3 -0.009117 -0.005302 0.018549 0.000000 -0.017159 0.000000
# 4 0.000000 0.000000 0.000000 0.066005 0.000000 -0.054536
# 5 -0.007146 -0.004092 -0.017159 0.000000 0.075271 0.000000
# 6 0.000000 0.000000 0.000000 -0.054536 0.000000 0.135213
#
#
# Mechanical properties :
#
#
# Convention : Reuss Voigt Hill
#
# Bulk Modulus (GPa) = 28.72088 54.34927 41.53507
# Shear Modulus (GPa) = 12.68190 19.82318 16.25254
#
# Velocity S-wave (km/s) = 2.90261 3.62897 3.28592
# Velocity P-wave (km/s) = 5.50582 7.32570 6.47997
#
# Compressibility (1/GPa) = 0.03481788
#
# Stress axis : x y z
#
# Youngs Moduli (GPa) = 33.41737 45.41431 53.91030
#
# Poissons Ratio (x) = 0.15526 0.49150
# Poissons Ratio (y) = 0.11425 0.28583
# Poissons Ratio (z) = 0.30467 0.24078
#
# Static dielectric constant tensor:
#      x y z
#    x 2.658300 0.000000 0.415550 
#    y 0.000000 2.829670 0.000000 
#    z 0.415550 0.000000 3.289630 
# 
# 
# High freq. dielectric constant tensor:
#      x y z
#    x 1.520290 0.000000 0.044460 
#    y 0.000000 1.566890 0.000000 
#    z 0.044460 0.000000 1.577300 
# 
# From -- ./inp_files/72042.got.cif
#   From: 2010.06.25/outbox.cif.g09.slc.cpg/sg10_37_cif.got.tgz:72042.got - 2010.06.27 22:07:45.
