data_PCOD8057532
_publ_section_title
;
Structure prediction by ZEFSAII (Michael W. Deem and Ramdas Pophale) SiO2 
 PCOD8057532
Probable space group: P 2/M
;
_chemical_formula_sum "Si O2"
_cell_formula_units_Z 28
_cell_length_a 21.321823
_cell_length_b 17.337300
_cell_length_c 12.995132
_cell_angle_alpha 90.000000
_cell_angle_beta 160.600975
_cell_angle_gamma 90.000000
_cell_volume 1595.564328
_symmetry_space_group_name_H-M "P 2/M"
_symmetry_group_IT_number 10
_symmetry_cell_setting 'monoclinic'
loop_
_space_group_symop_operation_xyz
x,y,z
-x,y,-z
-x,-y,-z
x,-y,z
loop_
_atom_site_type_symbol
_atom_site_label
_atom_site_fract_x
_atom_site_fract_y
_atom_site_fract_z
Si Si1 0.311534 0.837663 0.650370
Si Si2 0.637478 0.834439 0.512722
Si Si3 0.165097 0.000000 0.402437
Si Si4 0.244172 0.000000 0.284517
Si Si5 0.475128 0.417952 0.339640
Si Si6 0.648627 0.261842 0.822521
Si Si7 0.057359 0.254755 0.883019
Si Si8 0.100547 0.586859 0.047832
O O1 0.339430 0.830135 0.572657
O O2 0.258210 0.925185 0.598473
O O3 0.148279 0.781385 0.436081
O O4 0.500000 0.812526 0.000000
O O5 0.430205 0.802473 0.221529
O O6 0.640013 0.922035 0.559900
O O7 0.810160 0.784780 0.825874
O O8 0.191044 0.000000 0.321121
O O9 0.940350 0.000000 0.073835
O O10 0.500000 0.422424 0.500000
O O11 0.386395 0.500000 0.164914
O O12 0.342076 0.345195 0.105415
O O13 0.674617 0.405893 0.590983
O O14 0.500000 0.269944 0.500000
O O15 0.851912 0.240424 0.089942
O O16 0.035429 0.346655 0.867874
O O17 0.048823 0.500000 0.927479
O O18 0.000000 0.603201 0.000000
#
# Coordination Sequence:
#
# PCOD8057532 Si02
#       8
#     4   4   2   2   4   4   4   4
#     4  11  22  34  52  74  98 132 171 207 245 292
#     4  10  18  33  52  74 102 128 163 201 251 300
#     4   9  17  32  51  75 100 124 166 203 247 291
#     4   9  16  28  52  78  98 130 155 199 254 302
#     4   9  14  24  41  66 103 131 154 195 251 299
#     4   9  17  29  45  73 102 130 160 201 248 296
#     4  11  19  32  51  74 103 131 165 210 248 293
#     4  10  18  26  42  73 106 133 160 200 254 299
#
# _framework density 17.548651
#
# number of rings (size 3 to 8) (size 9 to 14) (size 15 to 20)
#    0.000    2.143    5.714    1.500    0.000    0.000 
#    0.000    4.643    0.000    0.429    0.000    4.000 
#    0.000    2.286    0.000    0.000    0.000    0.000 
#
# Total GULP energy -346978.025392 kJ/mol
# GULP energy per Si atom -12392.072335 kJ/mol
# Density = 1.750871 g / cm^3
# Si number density = 17.548651 Si / 1000 Ang^3
#
#
#
# Elastic Constant Matrix: (Units=GPa)
#
#
# Indices 1 2 3 4 5 6 
#
# 1 92.6401 48.8376 37.6873 0.0000 35.2347 0.0000
# 2 48.8376 155.0344 42.8786 0.0000 20.8704 0.0000
# 3 37.6873 42.8786 71.7135 0.0000 16.0116 0.0000
# 4 0.0000 0.0000 0.0000 5.7430 0.0000 6.7749
# 5 35.2347 20.8704 16.0116 0.0000 17.4889 0.0000
# 6 0.0000 0.0000 0.0000 6.7749 0.0000 24.5578
#
#
#
# Elastic Compliance Matrix: (Units=1/GPa)
#
#
# Indices 1 2 3 4 5 6 
#
# 1 0.047696 -0.001797 -0.003790 0.000000 -0.090480 0.000000
# 2 -0.001797 0.008385 -0.003323 0.000000 -0.003345 0.000000
# 3 -0.003790 -0.003323 0.019272 0.000000 -0.006044 0.000000
# 4 0.000000 0.000000 0.000000 0.258132 0.000000 -0.071212
# 5 -0.090480 -0.003345 -0.006044 0.000000 0.248994 0.000000
# 6 0.000000 0.000000 0.000000 -0.071212 0.000000 0.060366
#
#
# Mechanical properties :
#
#
# Convention : Reuss Voigt Hill
#
# Bulk Modulus (GPa) = 17.38051 64.24390 40.81220
# Shear Modulus (GPa) = 7.35464 22.22358 14.78911
#
# Velocity S-wave (km/s) = 2.04941 3.56251 2.90616
# Velocity P-wave (km/s) = 3.94028 7.32192 5.87947
#
# Compressibility (1/GPa) = 0.05753572
#
# Stress axis : x y z
#
# Youngs Moduli (GPa) = 20.96591 119.25451 51.88830
#
# Poissons Ratio (x) = 0.21424 0.19665
# Poissons Ratio (y) = 0.03767 0.17241
# Poissons Ratio (z) = 0.07946 0.39625
#
# Static dielectric constant tensor:
#      x y z
#    x 3.319460 0.000000 0.374770 
#    y 0.000000 3.897950 0.000000 
#    z 0.374770 0.000000 2.764050 
# 
# 
# High freq. dielectric constant tensor:
#      x y z
#    x 1.670630 0.000000 0.036760 
#    y 0.000000 1.705330 0.000000 
#    z 0.036760 0.000000 1.610620 
# 
# From -- ./inp_files/56129.got.cif
#   From: 2010.06.25/outbox.cif.g09.slc.cpg/sg10_29_cif.got.tgz:56129.got - 2010.06.27 22:07:45.
