data_PCOD8057427
_publ_section_title
;
Structure prediction by ZEFSAII (Michael W. Deem and Ramdas Pophale) SiO2 
 PCOD8057427
Probable space group: P 2/M
;
_chemical_formula_sum "Si O2"
_cell_formula_units_Z 32
_cell_length_a 15.475570
_cell_length_b 22.900152
_cell_length_c 8.765355
_cell_angle_alpha 90.000000
_cell_angle_beta 148.756037
_cell_angle_gamma 90.000000
_cell_volume 1611.226853
_symmetry_space_group_name_H-M "P 2/M"
_symmetry_group_IT_number 10
_symmetry_cell_setting 'monoclinic'
loop_
_space_group_symop_operation_xyz
x,y,z
-x,y,-z
-x,-y,-z
x,-y,z
loop_
_atom_site_type_symbol
_atom_site_label
_atom_site_fract_x
_atom_site_fract_y
_atom_site_fract_z
Si Si1 0.515484 0.371641 0.702100
Si Si2 0.624107 0.754067 0.975078
Si Si3 0.827818 0.360396 0.665233
Si Si4 0.678751 0.434054 0.193540
Si Si5 0.172967 0.117062 0.220261
Si Si6 0.741436 0.230735 0.480858
Si Si7 0.671726 0.855109 0.847299
Si Si8 0.491847 0.067561 0.160312
O O1 0.500000 0.373732 0.500000
O O2 0.328480 0.383936 0.475275
O O3 0.596908 0.312238 0.886937
O O4 0.645488 0.419693 0.964340
O O5 0.742197 0.762364 0.299428
O O6 0.443803 0.781322 0.736704
O O7 0.709235 0.790121 0.966523
O O8 0.811100 0.389504 0.471187
O O9 0.823258 0.290365 0.663483
O O10 0.000000 0.381946 0.000000
O O11 0.745038 0.500000 0.311004
O O12 0.500000 0.423863 0.000000
O O13 0.159252 0.175804 0.302930
O O14 0.182176 0.129197 0.051382
O O15 0.325932 0.075495 0.493002
O O16 0.000000 0.084023 0.000000
O O17 0.500000 0.854082 0.500000
O O18 0.652676 0.899532 0.961638
O O19 0.442166 0.000000 0.087205
O O20 0.500000 0.092249 0.000000
#
# Coordination Sequence:
#
# PCOD8057427 Si02
#       8
#     4   4   4   4   4   4   4   4
#     4  10  20  33  56  83 109 146 189 239 284 345
#     4  10  17  31  56  80 106 142 194 230 276 338
#     4  10  20  35  55  80 111 148 187 233 289 347
#     4   9  18  36  57  81 109 146 197 238 278 343
#     4  11  23  36  55  85 120 148 184 237 298 342
#     4  10  18  32  54  78 112 145 183 231 285 340
#     4  10  19  33  56  84 111 148 189 237 280 339
#     4  10  21  40  63  84 110 153 201 236 275 337
#
# _framework density 19.86064
#
# number of rings (size 3 to 8) (size 9 to 14) (size 15 to 20)
#    0.000    2.000    3.750    1.500    1.750    3.000 
#    0.000    3.125    0.000    2.250    0.000    0.000 
#    0.000    0.000    0.000    0.000    0.000    0.000 
#
# Total GULP energy -396607.467025 kJ/mol
# GULP energy per Si atom -12393.983345 kJ/mol
# Density = 1.981544 g / cm^3
# Si number density = 19.860640 Si / 1000 Ang^3
#
#
#
# Elastic Constant Matrix: (Units=GPa)
#
#
# Indices 1 2 3 4 5 6 
#
# 1 117.0864 16.7374 41.8004 0.0000 -18.8977 0.0000
# 2 16.7374 57.9634 19.1760 0.0000 -5.5971 0.0000
# 3 41.8004 19.1760 75.7976 0.0000 -11.0090 0.0000
# 4 0.0000 0.0000 0.0000 20.4042 0.0000 -8.2879
# 5 -18.8977 -5.5971 -11.0090 0.0000 32.7096 0.0000
# 6 0.0000 0.0000 0.0000 -8.2879 0.0000 13.6068
#
#
#
# Elastic Compliance Matrix: (Units=1/GPa)
#
#
# Indices 1 2 3 4 5 6 
#
# 1 0.011329 -0.001072 -0.005312 0.000000 0.004574 0.000000
# 2 -0.001072 0.019020 -0.004035 0.000000 0.001277 0.000000
# 3 -0.005312 -0.004035 0.017450 0.000000 0.002114 0.000000
# 4 0.000000 0.000000 0.000000 0.065121 0.000000 0.039666
# 5 0.004574 0.001277 0.002114 0.000000 0.034144 0.000000
# 6 0.000000 0.000000 0.000000 0.039666 0.000000 0.097653
#
#
# Mechanical properties :
#
#
# Convention : Reuss Voigt Hill
#
# Bulk Modulus (GPa) = 37.09126 45.14166 41.11646
# Shear Modulus (GPa) = 18.21207 24.88634 21.54921
#
# Velocity S-wave (km/s) = 3.03147 3.54368 3.29754
# Velocity P-wave (km/s) = 5.56502 6.28666 5.93682
#
# Compressibility (1/GPa) = 0.02696053
#
# Stress axis : x y z
#
# Youngs Moduli (GPa) = 88.27288 52.57582 57.30588
#
# Poissons Ratio (x) = 0.05637 0.30440
# Poissons Ratio (y) = 0.09465 0.23124
# Poissons Ratio (z) = 0.46889 0.21215
#
# Static dielectric constant tensor:
#      x y z
#    x 3.772680 0.000000 -0.281940 
#    y 0.000000 3.504290 0.000000 
#    z -0.281940 0.000000 3.444440 
# 
# 
# High freq. dielectric constant tensor:
#      x y z
#    x 1.760180 0.000000 -0.027630 
#    y 0.000000 1.768600 0.000000 
#    z -0.027630 0.000000 1.757580 
# 
# From -- ./inp_files/30631.got.cif
#   From: 2010.06.25/outbox.cif.g09.slc.cpg/sg10_16_cif.got.tgz:30631.got - 2010.06.27 22:07:45.
