data_PCOD8057747
_publ_section_title
;
Structure prediction by ZEFSAII (Michael W. Deem and Ramdas Pophale) SiO2 
 PCOD8057747
Probable space group: P 2/M
;
_chemical_formula_sum "Si O2"
_cell_formula_units_Z 28
_cell_length_a 10.081974
_cell_length_b 9.421011
_cell_length_c 26.256502
_cell_angle_alpha 90.000000
_cell_angle_beta 140.690737
_cell_angle_gamma 90.000000
_cell_volume 1579.903873
_symmetry_space_group_name_H-M "P 2/M"
_symmetry_group_IT_number 10
_symmetry_cell_setting 'monoclinic'
loop_
_space_group_symop_operation_xyz
x,y,z
-x,y,-z
-x,-y,-z
x,-y,z
loop_
_atom_site_type_symbol
_atom_site_label
_atom_site_fract_x
_atom_site_fract_y
_atom_site_fract_z
Si Si1 0.870450 0.338348 0.829116
Si Si2 0.807039 0.835452 0.909790
Si Si3 0.816025 0.165901 0.335887
Si Si4 0.638249 0.163273 0.176040
Si Si5 0.820789 0.843420 0.489085
Si Si6 0.563351 0.662780 0.343479
Si Si7 0.698284 0.667757 0.092317
O O1 0.896504 0.500000 0.855221
O O2 0.796281 0.246776 0.854237
O O3 0.688720 0.326171 0.732475
O O4 0.089909 0.281598 0.872511
O O5 0.600670 0.805602 0.880785
O O6 0.833067 0.000000 0.904067
O O7 0.000000 0.777791 0.000000
O O8 0.785501 0.203577 0.267646
O O9 0.657846 0.257813 0.322694
O O10 0.059115 0.198625 0.422817
O O11 0.762360 0.000000 0.330022
O O12 0.699110 0.261462 0.147475
O O13 0.669790 0.000000 0.169600
O O14 0.641371 0.732253 0.419879
O O15 0.000000 0.844227 0.500000
O O16 0.718785 0.000000 0.463529
O O17 0.638582 0.500000 0.364367
O O18 0.693994 0.500000 0.099232
O O19 0.500000 0.718881 0.000000
#
# Coordination Sequence:
#
# PCOD8057747 Si02
#       7
#     4   4   4   4   4   4   4
#     4  10  21  35  51  74 103 135 171 210 252 305
#     4  10  20  33  52  78 103 128 163 211 262 307
#     4   9  17  31  49  72 103 135 165 202 251 303
#     4  10  20  34  53  77 104 131 167 213 255 302
#     4   8  15  27  45  69 100 135 165 198 247 301
#     4  10  18  28  46  74 104 131 166 208 249 296
#     4  10  22  39  55  72  99 137 177 213 253 304
#
# _framework density 17.722595999999999
#
# number of rings (size 3 to 8) (size 9 to 14) (size 15 to 20)
#    0.000    2.429    1.429    2.143    0.000    5.429 
#    0.000    0.000    0.000    0.857    0.000    6.000 
#    0.000    0.000    0.000    0.000    0.000    0.000 
#
# Total GULP energy -347154.782493 kJ/mol
# GULP energy per Si atom -12398.385089 kJ/mol
# Density = 1.768226 g / cm^3
# Si number density = 17.722596 Si / 1000 Ang^3
#
#
#
# Elastic Constant Matrix: (Units=GPa)
#
#
# Indices 1 2 3 4 5 6 
#
# 1 38.1551 25.1736 19.9547 0.0000 -4.0448 0.0000
# 2 25.1736 63.5145 37.5605 0.0000 -1.8249 0.0000
# 3 19.9547 37.5605 112.6938 0.0000 -8.5838 0.0000
# 4 0.0000 0.0000 0.0000 33.3098 0.0000 -9.4062
# 5 -4.0448 -1.8249 -8.5838 0.0000 24.8981 0.0000
# 6 0.0000 0.0000 0.0000 -9.4062 0.0000 27.7825
#
#
#
# Elastic Compliance Matrix: (Units=1/GPa)
#
#
# Indices 1 2 3 4 5 6 
#
# 1 0.036302 -0.013274 -0.001673 0.000000 0.004348 0.000000
# 2 -0.013274 0.024480 -0.005994 0.000000 -0.002429 0.000000
# 3 -0.001673 -0.005994 0.011413 0.000000 0.003224 0.000000
# 4 0.000000 0.000000 0.000000 0.033195 0.000000 0.011239
# 5 0.004348 -0.002429 0.003224 0.000000 0.041803 0.000000
# 6 0.000000 0.000000 0.000000 0.011239 0.000000 0.039799
#
#
# Mechanical properties :
#
#
# Convention : Reuss Voigt Hill
#
# Bulk Modulus (GPa) = 32.98737 42.19345 37.59041
# Shear Modulus (GPa) = 20.92233 25.97638 23.44936
#
# Velocity S-wave (km/s) = 3.43963 3.83263 3.64144
# Velocity P-wave (km/s) = 5.86757 6.59126 6.23992
#
# Compressibility (1/GPa) = 0.03031463
#
# Stress axis : x y z
#
# Youngs Moduli (GPa) = 27.54633 40.84914 87.61929
#
# Poissons Ratio (x) = 0.54224 0.14656
# Poissons Ratio (y) = 0.36566 0.52517
# Poissons Ratio (z) = 0.04608 0.24484
#
# Static dielectric constant tensor:
#      x y z
#    x 2.897260 0.000000 -0.026500 
#    y 0.000000 3.279770 0.000000 
#    z -0.026500 0.000000 3.856490 
# 
# 
# High freq. dielectric constant tensor:
#      x y z
#    x 1.642110 0.000000 -0.005010 
#    y 0.000000 1.684270 0.000000 
#    z -0.005010 0.000000 1.708040 
# 
# From -- ./inp_files/92086.got.cif
#   From: 2010.06.25/outbox.cif.g09.slc.cpg/sg10_47_cif.got.tgz:92086.got - 2010.06.27 22:07:45.
