data_PCOD8057097
_publ_section_title
;
Structure prediction by ZEFSAII (Michael W. Deem and Ramdas Pophale) SiO2 
 PCOD8057097
Probable space group: P 2/M
;
_chemical_formula_sum "Si O2"
_cell_formula_units_Z 24
_cell_length_a 14.414295
_cell_length_b 8.924573
_cell_length_c 21.996319
_cell_angle_alpha 90.000000
_cell_angle_beta 31.483243
_cell_angle_gamma 90.000000
_cell_volume 1477.776052
_symmetry_space_group_name_H-M "P 2/M"
_symmetry_group_IT_number 10
_symmetry_cell_setting 'monoclinic'
loop_
_space_group_symop_operation_xyz
x,y,z
-x,y,-z
-x,-y,-z
x,-y,z
loop_
_atom_site_type_symbol
_atom_site_label
_atom_site_fract_x
_atom_site_fract_y
_atom_site_fract_z
Si Si1 0.090927 0.325437 0.237281
Si Si2 0.650117 0.177702 0.342081
Si Si3 0.240574 0.823374 0.035343
Si Si4 0.019965 0.177390 0.921623
Si Si5 0.697504 0.324527 0.445050
Si Si6 0.569369 0.333668 0.892634
O O1 0.123216 0.500000 0.203716
O O2 0.133098 0.233982 0.153298
O O3 0.224322 0.278495 0.218137
O O4 0.887828 0.295756 0.370896
O O5 0.789159 0.223912 0.212309
O O6 0.707090 0.259260 0.371939
O O7 0.454927 0.237930 0.431667
O O8 0.645564 0.000000 0.355492
O O9 0.140021 0.762645 0.031516
O O10 0.237456 0.000000 0.039429
O O11 0.446400 0.770850 0.919341
O O12 0.006825 0.000000 0.932788
O O13 0.000000 0.248500 0.000000
O O14 0.652416 0.500000 0.467284
O O15 0.558560 0.500000 0.870914
O O16 0.500000 0.330737 0.000000
#
# Coordination Sequence:
#
# PCOD8057097 Si02
#       6
#     4   4   4   4   4   4
#     4   9  17  28  42  60  87 120 143 164 211 268
#     4  10  18  29  44  63  86 114 147 180 215 257
#     4  10  17  26  42  63  85 111 144 183 215 247
#     4   9  18  31  45  62  87 119 150 179 217 259
#     4  10  18  28  44  64  89 117 142 174 216 261
#     4   8  15  27  40  57  84 116 142 167 210 266
#
# _framework density 16.240621000000001
#
# number of rings (size 3 to 8) (size 9 to 14) (size 15 to 20)
#    0.000    2.667    1.667    3.500    0.000    3.667 
#    0.000    0.000    0.000    8.000    0.000    1.167 
#    0.000    9.333    0.000    0.000    0.000    0.000 
#
# Total GULP energy -297403.719586 kJ/mol
# GULP energy per Si atom -12391.821649 kJ/mol
# Density = 1.620366 g / cm^3
# Si number density = 16.240621 Si / 1000 Ang^3
#
#
#
# Elastic Constant Matrix: (Units=GPa)
#
#
# Indices 1 2 3 4 5 6 
#
# 1 102.6263 31.8052 67.2380 0.0000 -26.0876 0.0000
# 2 31.8052 54.9196 27.5690 0.0000 -7.6030 0.0000
# 3 67.2380 27.5690 107.3345 0.0000 -24.3652 0.0000
# 4 0.0000 0.0000 0.0000 12.7827 0.0000 -13.3116
# 5 -26.0876 -7.6030 -24.3652 0.0000 34.6471 0.0000
# 6 0.0000 0.0000 0.0000 -13.3116 0.0000 14.6443
#
#
#
# Elastic Compliance Matrix: (Units=1/GPa)
#
#
# Indices 1 2 3 4 5 6 
#
# 1 0.019099 -0.005611 -0.008970 0.000000 0.006841 0.000000
# 2 -0.005611 0.022579 -0.002522 0.000000 -0.001043 0.000000
# 3 -0.008970 -0.002522 0.016570 0.000000 0.004345 0.000000
# 4 0.000000 0.000000 0.000000 1.465208 0.000000 1.331869
# 5 0.006841 -0.001043 0.004345 0.000000 0.036840 0.000000
# 6 0.000000 0.000000 0.000000 1.331869 0.000000 1.278951
#
#
# Mechanical properties :
#
#
# Convention : Reuss Voigt Hill
#
# Bulk Modulus (GPa) = 41.59168 57.56721 49.57945
# Shear Modulus (GPa) = 1.73523 21.63271 11.68397
#
# Velocity S-wave (km/s) = 1.03478 3.65363 2.68513
# Velocity P-wave (km/s) = 5.20509 7.30220 6.34094
#
# Compressibility (1/GPa) = 0.02404327
#
# Stress axis : x y z
#
# Youngs Moduli (GPa) = 52.35897 44.28884 60.35026
#
# Poissons Ratio (x) = 0.24849 0.54135
# Poissons Ratio (y) = 0.29376 0.15218
# Poissons Ratio (z) = 0.46967 0.11168
#
# Static dielectric constant tensor:
#      x y z
#    x 3.247530 0.000000 -0.513750 
#    y 0.000000 3.018390 0.000000 
#    z -0.513750 0.000000 3.271050 
# 
# 
# High freq. dielectric constant tensor:
#      x y z
#    x 1.599820 0.000000 -0.046550 
#    y 0.000000 1.620330 0.000000 
#    z -0.046550 0.000000 1.607040 
# 
# From -- ./inp_files/56322.got.cif
#   From: 2010.06.25/outbox.cif.g09.slc.cpg/sg10_29_cif.got.tgz:56322.got - 2010.06.27 22:07:45.
