data_PCOD8057752
_publ_section_title
;
Structure prediction by ZEFSAII (Michael W. Deem and Ramdas Pophale) SiO2 
 PCOD8057752
Probable space group: P 2/M
;
_chemical_formula_sum "Si O2"
_cell_formula_units_Z 32
_cell_length_a 14.278740
_cell_length_b 9.164600
_cell_length_c 15.947558
_cell_angle_alpha 90.000000
_cell_angle_beta 116.594787
_cell_angle_gamma 90.000000
_cell_volume 1866.078091
_symmetry_space_group_name_H-M "P 2/M"
_symmetry_group_IT_number 10
_symmetry_cell_setting 'monoclinic'
loop_
_space_group_symop_operation_xyz
x,y,z
-x,y,-z
-x,-y,-z
x,-y,z
loop_
_atom_site_type_symbol
_atom_site_label
_atom_site_fract_x
_atom_site_fract_y
_atom_site_fract_z
Si Si1 0.832783 0.832857 0.450221
Si Si2 0.288706 0.670811 0.361614
Si Si3 0.382562 0.832857 0.549779
Si Si4 0.343139 0.173230 0.895460
Si Si5 0.072908 0.329189 0.361614
Si Si6 0.867167 0.828014 0.272259
Si Si7 0.447679 0.826770 0.104540
Si Si8 0.594908 0.828014 0.727741
O O1 0.711336 0.808063 0.422671
O O2 0.906749 0.734454 0.537698
O O3 0.848355 0.786151 0.361099
O O4 0.866297 0.000000 0.478949
O O5 0.308410 0.500000 0.362480
O O6 0.369051 0.734454 0.462302
O O7 0.169899 0.707761 0.339797
O O8 0.310092 0.746317 0.280766
O O9 0.487257 0.786151 0.638901
O O10 0.387348 0.000000 0.521050
O O11 0.231257 0.233841 0.820158
O O12 0.436960 0.233591 0.873920
O O13 0.342528 0.000000 0.887905
O O14 0.364072 0.221727 0.000000
O O15 0.054071 0.500000 0.362480
O O16 0.970674 0.253683 0.280767
O O17 0.881602 0.000000 0.265330
O O18 0.411100 0.766159 0.179843
O O19 0.454624 0.000000 0.112095
O O20 0.616272 0.000000 0.734671
#
# Coordination Sequence:
#
# PCOD8057752 Si02
#       8
#     4   4   4   4   4   4   4   4
#     4   9  17  29  45  67  95 122 148 181 221 266
#     4  10  21  34  45  60  87 123 159 192 226 264
#     4   9  17  29  45  67  95 122 148 181 221 266
#     4   8  14  26  46  73 101 122 141 173 220 271
#     4  10  21  34  45  60  87 123 159 192 226 264
#     4  10  18  28  47  72  93 117 151 186 221 264
#     4   8  14  26  46  73 101 122 141 173 220 271
#     4  10  18  28  47  72  93 117 151 186 221 264
#
# _framework density 17.148264000000001
#
# number of rings (size 3 to 8) (size 9 to 14) (size 15 to 20)
#    0.000    2.750    0.000    3.000    0.000    8.500 
#    0.000    0.000    0.000    3.750    0.000    7.000 
#    0.000    0.000    0.000    0.000    0.000    0.000 
#
# Total GULP energy -396775.233212 kJ/mol
# GULP energy per Si atom -12399.226038 kJ/mol
# Density = 1.710923 g / cm^3
# Si number density = 17.148264 Si / 1000 Ang^3
#
#
#
# Elastic Constant Matrix: (Units=GPa)
#
#
# Indices 1 2 3 4 5 6 
#
# 1 103.3393 43.0706 84.9962 0.0000 0.0000 0.0000
# 2 43.0706 46.2028 43.5728 0.0000 0.0000 0.0000
# 3 84.9962 43.5728 125.2187 0.0000 0.0001 0.0000
# 4 0.0000 0.0000 0.0000 0.1962 0.0000 0.0000
# 5 0.0000 0.0000 0.0001 0.0000 33.6019 0.0000
# 6 0.0000 0.0000 0.0000 0.0000 0.0000 21.8058
#
#
#
# Elastic Compliance Matrix: (Units=1/GPa)
#
#
# Indices 1 2 3 4 5 6 
#
# 1 0.025139 -0.010929 -0.013261 0.000000 0.000000 0.000000
# 2 -0.010929 0.036967 -0.005445 0.000000 0.000000 0.000000
# 3 -0.013261 -0.005445 0.018882 0.000000 0.000000 0.000000
# 4 0.000000 0.000000 0.000000 5.096580 0.000000 0.000001
# 5 0.000000 0.000000 0.000000 0.000000 0.029760 0.000000
# 6 0.000000 0.000000 0.000000 0.000001 0.000000 0.045859
#
#
# Mechanical properties :
#
#
# Convention : Reuss Voigt Hill
#
# Bulk Modulus (GPa) = 46.04454 68.67109 57.35782
# Shear Modulus (GPa) = 0.93990 17.99551 9.46771
#
# Velocity S-wave (km/s) = 0.74114 3.24297 2.35225
# Velocity P-wave (km/s) = 5.25752 7.35900 6.39517
#
# Compressibility (1/GPa) = 0.02171810
#
# Stress axis : x y z
#
# Youngs Moduli (GPa) = 39.77907 27.05129 52.95996
#
# Poissons Ratio (x) = 0.29563 0.70230
# Poissons Ratio (y) = 0.43473 0.28839
# Poissons Ratio (z) = 0.52751 0.14730
#
# Static dielectric constant tensor:
#      x y z
#    x 3.373160 0.000000 0.000000 
#    y 0.000000 2.909120 0.000000 
#    z 0.000000 0.000000 3.268730 
# 
# 
# High freq. dielectric constant tensor:
#      x y z
#    x 1.667030 0.000000 0.000000 
#    y 0.000000 1.630480 0.000000 
#    z 0.000000 0.000000 1.646020 
# 
# From -- ./inp_files/66511.got.cif
#   From: 2010.06.25/outbox.cif.g09.slc.cpg/sg10_34_cif.got.tgz:66511.got - 2010.06.27 22:07:45.
