data_PCOD8057354
_publ_section_title
;
Structure prediction by ZEFSAII (Michael W. Deem and Ramdas Pophale) SiO2 
 PCOD8057354
Probable space group: P 2/M
;
_chemical_formula_sum "Si O2"
_cell_formula_units_Z 24
_cell_length_a 13.658554
_cell_length_b 7.693631
_cell_length_c 21.598204
_cell_angle_alpha 90.000000
_cell_angle_beta 143.392960
_cell_angle_gamma 90.000000
_cell_volume 1353.429537
_symmetry_space_group_name_H-M "P 2/M"
_symmetry_group_IT_number 10
_symmetry_cell_setting 'monoclinic'
loop_
_space_group_symop_operation_xyz
x,y,z
-x,y,-z
-x,-y,-z
x,-y,z
loop_
_atom_site_type_symbol
_atom_site_label
_atom_site_fract_x
_atom_site_fract_y
_atom_site_fract_z
Si Si1 0.003529 0.304132 0.234350
Si Si2 0.372491 0.305167 0.245724
Si Si3 0.771379 0.000000 0.624684
Si Si4 0.965963 0.205700 0.883251
Si Si5 0.635868 0.294666 0.022213
Si Si6 0.465927 0.000000 0.380745
Si Si7 0.675006 0.199407 0.906362
O O1 0.016871 0.500000 0.268945
O O2 0.071895 0.306139 0.199459
O O3 0.815365 0.234530 0.137023
O O4 0.116364 0.170489 0.330046
O O5 0.406308 0.500000 0.287245
O O6 0.179492 0.256003 0.144376
O O7 0.465519 0.171904 0.338025
O O8 0.426365 0.292934 0.200582
O O9 0.633911 0.000000 0.503001
O O10 0.690202 0.000000 0.652207
O O11 0.972885 0.000000 0.874175
O O12 0.139062 0.272828 0.997348
O O13 0.629742 0.500000 0.017198
O O14 0.500000 0.217974 0.000000
O O15 0.592278 0.226447 0.931434
O O16 0.675646 0.000000 0.888421
#
# Coordination Sequence:
#
# PCOD8057354 Si02
#       7
#     4   4   2   4   4   2   4
#     4  10  18  32  54  76 103 139 174 207 253 309
#     4  12  21  33  51  72 101 139 177 210 257 306
#     4  11  22  38  54  71 102 137 178 224 266 299
#     4  10  17  30  48  72 105 138 172 207 245 299
#     4   9  19  34  52  81 114 138 167 207 251 307
#     4  11  24  38  50  72 104 136 177 230 264 294
#     4  10  20  31  49  74 106 141 172 206 248 308
#
# _framework density 17.73273
#
# number of rings (size 3 to 8) (size 9 to 14) (size 15 to 20)
#    0.000    1.667    4.167    1.500    1.167    5.000 
#    0.000    1.667    0.000    0.000    0.000    2.333 
#    0.000    5.333    0.000    0.000    0.000    0.000 
#
# Total GULP energy -297501.176460 kJ/mol
# GULP energy per Si atom -12395.882352 kJ/mol
# Density = 1.769237 g / cm^3
# Si number density = 17.732730 Si / 1000 Ang^3
#
#
#
# Elastic Constant Matrix: (Units=GPa)
#
#
# Indices 1 2 3 4 5 6 
#
# 1 83.7846 21.6485 44.8014 0.0000 -3.2863 0.0000
# 2 21.6485 101.3846 43.0228 0.0000 -4.8640 0.0000
# 3 44.8014 43.0228 90.0523 0.0000 -10.4369 0.0000
# 4 0.0000 0.0000 0.0000 17.0177 0.0000 -1.0740
# 5 -3.2863 -4.8640 -10.4369 0.0000 19.1742 0.0000
# 6 0.0000 0.0000 0.0000 -1.0740 0.0000 17.6395
#
#
#
# Elastic Compliance Matrix: (Units=1/GPa)
#
#
# Indices 1 2 3 4 5 6 
#
# 1 0.016315 -0.000047 -0.008295 0.000000 -0.001731 0.000000
# 2 -0.000047 0.012372 -0.005897 0.000000 -0.000079 0.000000
# 3 -0.008295 -0.005897 0.018903 0.000000 0.007372 0.000000
# 4 0.000000 0.000000 0.000000 0.058989 0.000000 0.003591
# 5 -0.001731 -0.000079 0.007372 0.000000 0.055849 0.000000
# 6 0.000000 0.000000 0.000000 0.003591 0.000000 0.056910
#
#
# Mechanical properties :
#
#
# Convention : Reuss Voigt Hill
#
# Bulk Modulus (GPa) = 52.32025 54.90743 53.61384
# Shear Modulus (GPa) = 19.67065 21.81620 20.74343
#
# Velocity S-wave (km/s) = 3.33421 3.51134 3.42392
# Velocity P-wave (km/s) = 6.66270 6.88988 6.77724
#
# Compressibility (1/GPa) = 0.01911306
#
# Stress axis : x y z
#
# Youngs Moduli (GPa) = 61.29280 80.82860 52.90164
#
# Poissons Ratio (x) = 0.00378 0.43882
# Poissons Ratio (y) = 0.00286 0.31194
# Poissons Ratio (z) = 0.50843 0.47662
#
# Static dielectric constant tensor:
#      x y z
#    x 3.267600 0.000000 0.013770 
#    y 0.000000 3.326780 0.000000 
#    z 0.013770 0.000000 3.045780 
# 
# 
# High freq. dielectric constant tensor:
#      x y z
#    x 1.659570 0.000000 -0.012720 
#    y 0.000000 1.697770 0.000000 
#    z -0.012720 0.000000 1.651110 
# 
# From -- ./inp_files/83456.got.cif
#   From: 2010.06.25/outbox.cif.g09.slc.cpg/sg10_42_cif.got.tgz:83456.got - 2010.06.27 22:07:45.
