data_PCOD8057967
_publ_section_title
;
Structure prediction by ZEFSAII (Michael W. Deem and Ramdas Pophale) SiO2 
 PCOD8057967
Probable space group: P 2/M
;
_chemical_formula_sum "Si O2"
_cell_formula_units_Z 32
_cell_length_a 23.529595
_cell_length_b 9.128979
_cell_length_c 12.355557
_cell_angle_alpha 90.000000
_cell_angle_beta 46.070115
_cell_angle_gamma 90.000000
_cell_volume 1911.374018
_symmetry_space_group_name_H-M "P 2/M"
_symmetry_group_IT_number 10
_symmetry_cell_setting 'monoclinic'
loop_
_space_group_symop_operation_xyz
x,y,z
-x,y,-z
-x,-y,-z
x,-y,z
loop_
_atom_site_type_symbol
_atom_site_label
_atom_site_fract_x
_atom_site_fract_y
_atom_site_fract_z
Si Si1 0.080622 0.668922 0.448806
Si Si2 0.652641 0.171330 0.163629
Si Si3 0.826367 0.167087 0.252057
Si Si4 0.502231 0.334533 0.625787
Si Si5 0.345366 0.168842 0.588374
Si Si6 0.803102 0.668471 0.898701
Si Si7 0.071478 0.168708 0.679278
Si Si8 0.086377 0.326924 0.050380
O O1 0.070397 0.500000 0.496916
O O2 0.153162 0.691393 0.272312
O O3 0.098663 0.764065 0.530069
O O4 0.000000 0.724313 0.500000
O O5 0.571887 0.245585 0.228882
O O6 0.668644 0.209488 0.267737
O O7 0.645747 0.000000 0.151496
O O8 0.724623 0.234722 0.998963
O O9 0.733949 0.207536 0.371739
O O10 0.855001 0.186230 0.336798
O O11 0.838906 0.000000 0.194453
O O12 0.874541 0.275767 0.112252
O O13 0.500000 0.326868 0.500000
O O14 0.498142 0.500000 0.674324
O O15 0.584057 0.262732 0.557398
O O16 0.369616 0.000000 0.545577
O O17 0.779294 0.500000 0.948560
O O18 0.859926 0.722144 0.919830
O O19 0.997905 0.252336 0.827314
O O20 0.048197 0.000000 0.693706
O O21 0.074074 0.500000 0.064258
#
# Coordination Sequence:
#
# PCOD8057967 Si02
#       8
#     4   4   4   4   4   4   4   4
#     4  10  20  38  56  71  96 130 169 214 260 300
#     4  10  18  29  48  72  99 131 166 201 241 298
#     4  10  21  36  50  72 105 137 168 208 252 295
#     4   9  17  28  44  68 100 132 162 199 241 289
#     4   9  17  30  47  68  98 134 166 196 240 294
#     4  10  20  33  51  73  99 131 165 209 256 295
#     4  11  23  36  52  73 100 133 172 214 254 298
#     4  11  21  34  52  73 100 134 172 209 251 301
#
# _framework density 16.741883999999999
#
# number of rings (size 3 to 8) (size 9 to 14) (size 15 to 20)
#    0.000    2.000    2.500    1.875    0.000    6.250 
#    0.000    0.000    0.000    0.000    0.000    0.875 
#    0.000    7.000    0.000    0.000    0.000    0.000 
#
# Total GULP energy -396917.474791 kJ/mol
# GULP energy per Si atom -12403.671087 kJ/mol
# Density = 1.670378 g / cm^3
# Si number density = 16.741884 Si / 1000 Ang^3
#
#
#
# Elastic Constant Matrix: (Units=GPa)
#
#
# Indices 1 2 3 4 5 6 
#
# 1 88.3037 50.0622 63.1638 0.0000 -12.3675 0.0000
# 2 50.0622 93.5016 54.6335 0.0000 -12.1180 0.0000
# 3 63.1638 54.6335 72.9635 0.0000 -20.0250 0.0000
# 4 0.0000 0.0000 0.0000 31.1047 0.0000 -5.5591
# 5 -12.3675 -12.1180 -20.0250 0.0000 31.4382 0.0000
# 6 0.0000 0.0000 0.0000 -5.5591 0.0000 22.9351
#
#
#
# Elastic Compliance Matrix: (Units=1/GPa)
#
#
# Indices 1 2 3 4 5 6 
#
# 1 0.030695 -0.001301 -0.027172 0.000000 -0.005734 0.000000
# 2 -0.001301 0.019185 -0.013754 0.000000 -0.001878 0.000000
# 3 -0.027172 -0.013754 0.052277 0.000000 0.017308 0.000000
# 4 0.000000 0.000000 0.000000 0.033605 0.000000 0.008145
# 5 -0.005734 -0.001878 0.017308 0.000000 0.039853 0.000000
# 6 0.000000 0.000000 0.000000 0.008145 0.000000 0.045576
#
#
# Mechanical properties :
#
#
# Convention : Reuss Voigt Hill
#
# Bulk Modulus (GPa) = 56.48937 65.60975 61.04956
# Shear Modulus (GPa) = 16.04887 22.88955 19.46921
#
# Velocity S-wave (km/s) = 3.09950 3.70158 3.41384
# Velocity P-wave (km/s) = 6.82816 7.58571 7.21688
#
# Compressibility (1/GPa) = 0.01770245
#
# Stress axis : x y z
#
# Youngs Moduli (GPa) = 32.57816 52.12400 19.12871
#
# Poissons Ratio (x) = 0.06782 0.51977
# Poissons Ratio (y) = 0.04239 0.26310
# Poissons Ratio (z) = 0.88522 0.71694
#
# Static dielectric constant tensor:
#      x y z
#    x 3.072430 0.000000 -0.184320 
#    y 0.000000 3.232480 0.000000 
#    z -0.184320 0.000000 2.985030 
# 
# 
# High freq. dielectric constant tensor:
#      x y z
#    x 1.627200 0.000000 -0.023190 
#    y 0.000000 1.654890 0.000000 
#    z -0.023190 0.000000 1.628320 
# 
# From -- ./inp_files/54870.got.cif
#   From: 2010.06.25/outbox.cif.g09.slc.cpg/sg10_28_cif.got.tgz:54870.got - 2010.06.27 22:07:45.
