data_PCOD8057895
_publ_section_title
;
Structure prediction by ZEFSAII (Michael W. Deem and Ramdas Pophale) SiO2 
 PCOD8057895
Probable space group: P 2/M
;
_chemical_formula_sum "Si O2"
_cell_formula_units_Z 20
_cell_length_a 5.235624
_cell_length_b 7.384021
_cell_length_c 25.457012
_cell_angle_alpha 90.000000
_cell_angle_beta 78.149919
_cell_angle_gamma 90.000000
_cell_volume 963.192701
_symmetry_space_group_name_H-M "P 2/M"
_symmetry_group_IT_number 10
_symmetry_cell_setting 'monoclinic'
loop_
_space_group_symop_operation_xyz
x,y,z
-x,y,-z
-x,-y,-z
x,-y,z
loop_
_atom_site_type_symbol
_atom_site_label
_atom_site_fract_x
_atom_site_fract_y
_atom_site_fract_z
Si Si1 0.037270 0.214843 0.714536
Si Si2 0.272518 0.298610 0.977598
Si Si3 0.719698 0.784107 0.530408
Si Si4 0.031102 0.500000 0.194832
Si Si5 0.399431 0.500000 0.875134
Si Si6 0.399911 0.786282 0.349287
O O1 0.976504 0.317129 0.770881
O O2 0.318520 0.280886 0.682056
O O3 0.823055 0.278203 0.681259
O O4 0.027533 0.000000 0.725454
O O5 0.245673 0.500000 0.005137
O O6 0.337821 0.319541 0.912702
O O7 0.500000 0.193711 0.000000
O O8 0.000000 0.194086 0.000000
O O9 0.500000 0.710579 0.500000
O O10 0.659356 0.705005 0.590752
O O11 0.000000 0.710306 0.500000
O O12 0.719421 0.000000 0.531142
O O13 0.778745 0.500000 0.168492
O O14 0.296429 0.500000 0.151004
O O15 0.400154 0.000000 0.353358
#
# Coordination Sequence:
#
# PCOD8057895 Si02
#       6
#     4   4   4   2   2   4
#     4  10  21  36  51  70  98 132 169 202 239 292
#     4   8  13  24  42  66 102 132 155 196 241 288
#     4   9  15  23  40  69  96 115 147 195 242 291
#     4  12  22  33  52  76 100 131 168 210 248 274
#     4  10  18  29  46  76 108 127 164 212 244 286
#     4   9  17  31  49  68  96 130 160 198 245 294
#
# _framework density 20.764275000000001
#
# number of rings (size 3 to 8) (size 9 to 14) (size 15 to 20)
#    0.600    2.000    0.000    3.600    0.000    4.800 
#    0.000    0.000    0.000    0.000    0.000   14.000 
#    0.000   64.000    0.000    0.000    0.000    0.000 
#
# Total GULP energy -247879.050826 kJ/mol
# GULP energy per Si atom -12393.952541 kJ/mol
# Density = 2.071701 g / cm^3
# Si number density = 20.764275 Si / 1000 Ang^3
#
#
#
# Elastic Constant Matrix: (Units=GPa)
#
#
# Indices 1 2 3 4 5 6 
#
# 1 191.2068 9.8701 60.4776 0.0000 -1.6738 0.0000
# 2 9.8701 43.3900 19.8586 0.0000 1.3368 0.0000
# 3 60.4776 19.8586 136.2272 0.0000 -1.4146 0.0000
# 4 0.0000 0.0000 0.0000 -12.6030 0.0000 -1.1983
# 5 -1.6738 1.3368 -1.4146 0.0000 52.4120 0.0000
# 6 0.0000 0.0000 0.0000 -1.1983 0.0000 -9.0877
#
#
#
# Elastic Compliance Matrix: (Units=1/GPa)
#
#
# Indices 1 2 3 4 5 6 
#
# 1 0.006086 -0.000163 -0.002677 0.000000 0.000126 0.000000
# 2 -0.000163 0.024726 -0.003540 0.000000 -0.000731 0.000000
# 3 -0.002677 -0.003540 0.009048 0.000000 0.000249 0.000000
# 4 0.000000 0.000000 0.000000 -0.080354 0.000000 0.010596
# 5 0.000126 -0.000731 0.000249 0.000000 0.019109 0.000000
# 6 0.000000 0.000000 0.000000 0.010596 0.000000 -0.111436
#
#
# Mechanical properties :
#
#
# Convention : Reuss Voigt Hill
#
# Bulk Modulus (GPa) = 36.89922 61.24851 49.07387
# Shear Modulus (GPa) = -45.03379 24.85211 -10.09084
#
# Velocity S-wave (km/s) = -4.66210 3.46333 -2.20687
# Velocity P-wave (km/s) = 3.34233 6.74937 4.14625
#
# Compressibility (1/GPa) = 0.02710084
#
# Stress axis : x y z
#
# Youngs Moduli (GPa) = 164.30801 40.44254 110.52633
#
# Poissons Ratio (x) = 0.00660 0.29586
# Poissons Ratio (y) = 0.02682 0.39122
# Poissons Ratio (z) = 0.43982 0.14315
#
# Static dielectric constant tensor:
#      x y z
#    x 4.336420 0.000000 -0.016420 
#    y 0.000000 3.078690 0.000000 
#    z -0.016420 0.000000 3.716710 
# 
# 
# High freq. dielectric constant tensor:
#      x y z
#    x 1.839210 0.000000 -0.001180 
#    y 0.000000 1.762950 0.000000 
#    z -0.001180 0.000000 1.809900 
# 
# From -- ./inp_files/80899.got.cif
#   From: 2010.06.25/outbox.cif.g09.slc.cpg/sg10_41_cif.got.tgz:80899.got - 2010.06.27 22:07:45.
