data_PCOD8057743
_publ_section_title
;
Structure prediction by ZEFSAII (Michael W. Deem and Ramdas Pophale) SiO2 
 PCOD8057743
Probable space group: P 2/M
;
_chemical_formula_sum "Si O2"
_cell_formula_units_Z 32
_cell_length_a 23.794162
_cell_length_b 9.124633
_cell_length_c 17.464989
_cell_angle_alpha 90.000000
_cell_angle_beta 30.402494
_cell_angle_gamma 90.000000
_cell_volume 1918.959688
_symmetry_space_group_name_H-M "P 2/M"
_symmetry_group_IT_number 10
_symmetry_cell_setting 'monoclinic'
loop_
_space_group_symop_operation_xyz
x,y,z
-x,y,-z
-x,-y,-z
x,-y,z
loop_
_atom_site_type_symbol
_atom_site_label
_atom_site_fract_x
_atom_site_fract_y
_atom_site_fract_z
Si Si1 0.022661 0.172101 0.061030
Si Si2 0.752045 0.669931 0.162096
Si Si3 0.404186 0.171238 0.766873
Si Si4 0.370008 0.162163 0.135045
Si Si5 0.627346 0.668691 0.465627
Si Si6 0.447417 0.170446 0.887549
Si Si7 0.664311 0.332579 0.680642
Si Si8 0.184545 0.332141 0.636406
O O1 0.920778 0.227590 0.231943
O O2 0.037830 0.000000 0.055126
O O3 0.131934 0.253015 0.959901
O O4 0.000000 0.213649 0.000000
O O5 0.773791 0.500000 0.119689
O O6 0.696209 0.743260 0.154216
O O7 0.671215 0.691490 0.328756
O O8 0.521681 0.228661 0.598885
O O9 0.390511 0.201716 0.873343
O O10 0.396345 0.000000 0.756594
O O11 0.307496 0.266300 0.268800
O O12 0.318812 0.000000 0.204314
O O13 0.500000 0.161827 0.000000
O O14 0.361187 0.217116 0.056867
O O15 0.593117 0.500000 0.520900
O O16 0.720986 0.719488 0.415303
O O17 0.562494 0.256584 0.757198
O O18 0.477929 0.000000 0.862162
O O19 0.630831 0.500000 0.731715
O O20 0.772596 0.315379 0.500655
O O21 0.151107 0.500000 0.693927
#
# Coordination Sequence:
#
# PCOD8057743 Si02
#       8
#     4   4   4   4   4   4   4   4
#     4  11  23  37  55  77  99 125 167 218 258 293
#     4  11  23  38  55  71  97 136 174 209 252 304
#     4  11  22  34  51  75 104 134 171 214 251 291
#     4   8  15  28  44  64  96 134 166 194 239 301
#     4  10  20  35  52  72 100 137 173 203 246 304
#     4   9  18  31  46  67  99 138 167 196 245 301
#     4  10  18  28  46  73 101 128 165 208 244 288
#     4  10  20  34  52  74 102 136 170 204 249 303
#
# _framework density 16.675701
#
# number of rings (size 3 to 8) (size 9 to 14) (size 15 to 20)
#    0.000    2.000    2.500    2.625    0.000    7.250 
#    0.000    0.000    0.000    0.000    0.000    0.875 
#    0.000    7.000    0.000    0.000    0.000    0.000 
#
# Total GULP energy -396824.277076 kJ/mol
# GULP energy per Si atom -12400.758659 kJ/mol
# Density = 1.663775 g / cm^3
# Si number density = 16.675701 Si / 1000 Ang^3
#
#
#
# Elastic Constant Matrix: (Units=GPa)
#
#
# Indices 1 2 3 4 5 6 
#
# 1 109.9349 62.7241 62.2358 0.0000 4.6359 0.0000
# 2 62.7241 99.0316 59.1005 0.0000 1.1071 0.0000
# 3 62.2358 59.1005 72.7627 0.0000 4.6740 0.0000
# 4 0.0000 0.0000 0.0000 58.6023 0.0000 -11.6655
# 5 4.6359 1.1071 4.6740 0.0000 27.0034 0.0000
# 6 0.0000 0.0000 0.0000 -11.6655 0.0000 32.1045
#
#
#
# Elastic Compliance Matrix: (Units=1/GPa)
#
#
# Indices 1 2 3 4 5 6 
#
# 1 0.018609 -0.004487 -0.012215 0.000000 -0.000897 0.000000
# 2 -0.004487 0.020783 -0.013185 0.000000 0.002200 0.000000
# 3 -0.012215 -0.013185 0.035121 0.000000 -0.003442 0.000000
# 4 0.000000 0.000000 0.000000 0.018395 0.000000 0.006684
# 5 -0.000897 0.002200 -0.003442 0.000000 0.037692 0.000000
# 6 0.000000 0.000000 0.000000 0.006684 0.000000 0.033577
#
#
# Mechanical properties :
#
#
# Convention : Reuss Voigt Hill
#
# Bulk Modulus (GPa) = 67.83857 72.20556 70.02206
# Shear Modulus (GPa) = 21.84707 30.05329 25.95018
#
# Velocity S-wave (km/s) = 3.62348 4.24986 3.94911
# Velocity P-wave (km/s) = 7.63384 8.21436 7.92941
#
# Compressibility (1/GPa) = 0.01474088
#
# Stress axis : x y z
#
# Youngs Moduli (GPa) = 53.73698 48.11509 28.47292
#
# Poissons Ratio (x) = 0.21589 0.34779
# Poissons Ratio (y) = 0.24111 0.37541
# Poissons Ratio (z) = 0.65639 0.63438
#
# Static dielectric constant tensor:
#      x y z
#    x 3.295000 0.000000 0.333380 
#    y 0.000000 3.237190 0.000000 
#    z 0.333380 0.000000 3.048250 
# 
# 
# High freq. dielectric constant tensor:
#      x y z
#    x 1.632040 0.000000 0.024140 
#    y 0.000000 1.652500 0.000000 
#    z 0.024140 0.000000 1.622670 
# 
# From -- ./inp_files/79934.got.cif
#   From: 2010.06.25/outbox.cif.g09.slc.cpg/sg10_40_cif.got.tgz:79934.got - 2010.06.27 22:07:45.
