data_PCOD8057580
_publ_section_title
;
Structure prediction by ZEFSAII (Michael W. Deem and Ramdas Pophale) SiO2 
 PCOD8057580
Probable space group: P 2/M
;
_chemical_formula_sum "Si O2"
_cell_formula_units_Z 28
_cell_length_a 21.130340
_cell_length_b 9.192240
_cell_length_c 13.897662
_cell_angle_alpha 90.000000
_cell_angle_beta 139.013084
_cell_angle_gamma 90.000000
_cell_volume 1770.510016
_symmetry_space_group_name_H-M "P 2/M"
_symmetry_group_IT_number 10
_symmetry_cell_setting 'monoclinic'
loop_
_space_group_symop_operation_xyz
x,y,z
-x,y,-z
-x,-y,-z
x,-y,z
loop_
_atom_site_type_symbol
_atom_site_label
_atom_site_fract_x
_atom_site_fract_y
_atom_site_fract_z
Si Si1 0.103517 0.660425 0.569326
Si Si2 0.719340 0.827766 0.693124
Si Si3 0.164626 0.669027 0.839088
Si Si4 0.515929 0.160470 0.404882
Si Si5 0.666616 0.669155 0.825551
Si Si6 0.919087 0.827338 0.835122
Si Si7 0.976328 0.827573 0.689878
O O1 0.131516 0.500000 0.562524
O O2 0.175988 0.710096 0.738472
O O3 0.101570 0.772158 0.478278
O O4 0.000000 0.655716 0.500000
O O5 0.627360 0.789213 0.519138
O O6 0.713333 0.749189 0.788519
O O7 0.814362 0.770750 0.747993
O O8 0.722342 0.000000 0.717119
O O9 0.134091 0.500000 0.813689
O O10 0.082491 0.764083 0.795572
O O11 0.266639 0.700003 0.005846
O O12 0.500000 0.154665 0.500000
O O13 0.440108 0.271366 0.270335
O O14 0.499294 0.000000 0.341014
O O15 0.658091 0.500000 0.791280
O O16 0.939935 0.772277 0.751619
O O17 0.921451 0.000000 0.840885
O O18 0.000000 0.763421 0.000000
O O19 0.982316 0.000000 0.690134
#
# Coordination Sequence:
#
# PCOD8057580 Si02
#       7
#     4   4   4   4   4   4   4
#     4   8  15  29  44  56  79 113 139 162 204 257
#     4   9  17  30  44  58  83 117 144 164 197 250
#     4   9  18  30  42  59  85 115 138 161 207 259
#     4   8  15  27  42  59  80 109 140 166 202 252
#     4  10  18  27  42  64  86 106 135 176 211 239
#     4   9  17  28  42  61  85 113 141 167 198 236
#     4  10  18  27  43  65  84 106 141 178 202 229
#
# _framework density 15.814652000000001
#
# number of rings (size 3 to 8) (size 9 to 14) (size 15 to 20)
#    0.000    3.000    0.000    3.429    0.000    7.429 
#    0.000    1.429    0.000    3.857    0.000    1.000 
#    0.000    8.000    0.000    0.000    0.000    0.000 
#
# Total GULP energy -347026.818588 kJ/mol
# GULP energy per Si atom -12393.814950 kJ/mol
# Density = 1.577866 g / cm^3
# Si number density = 15.814652 Si / 1000 Ang^3
#
#
#
# Elastic Constant Matrix: (Units=GPa)
#
#
# Indices 1 2 3 4 5 6 
#
# 1 80.6731 30.8756 62.7265 0.0000 8.4635 0.0000
# 2 30.8756 60.6623 52.5072 0.0000 1.2219 0.0000
# 3 62.7265 52.5072 139.9219 0.0000 3.3887 0.0000
# 4 0.0000 0.0000 0.0000 25.9004 0.0000 -1.0598
# 5 8.4635 1.2219 3.3887 0.0000 25.1312 0.0000
# 6 0.0000 0.0000 0.0000 -1.0598 0.0000 6.3423
#
#
#
# Elastic Compliance Matrix: (Units=1/GPa)
#
#
# Indices 1 2 3 4 5 6 
#
# 1 0.020280 -0.003640 -0.007589 0.000000 -0.005630 0.000000
# 2 -0.003640 0.025068 -0.007801 0.000000 0.001059 0.000000
# 3 -0.007589 -0.007801 0.013449 0.000000 0.001122 0.000000
# 4 0.000000 0.000000 0.000000 0.038875 0.000000 0.006496
# 5 -0.005630 0.001059 0.001122 0.000000 0.041484 0.000000
# 6 0.000000 0.000000 0.000000 0.006496 0.000000 0.158757
#
#
# Mechanical properties :
#
#
# Convention : Reuss Voigt Hill
#
# Bulk Modulus (GPa) = 48.22154 63.71956 55.97055
# Shear Modulus (GPa) = 14.58203 20.48465 17.53334
#
# Velocity S-wave (km/s) = 3.03983 3.60293 3.33329
# Velocity P-wave (km/s) = 6.54818 7.59520 7.09104
#
# Compressibility (1/GPa) = 0.02073762
#
# Stress axis : x y z
#
# Youngs Moduli (GPa) = 49.30866 39.89110 74.35237
#
# Poissons Ratio (x) = 0.14519 0.56430
# Poissons Ratio (y) = 0.17947 0.58003
# Poissons Ratio (z) = 0.37423 0.31120
#
# Static dielectric constant tensor:
#      x y z
#    x 2.957700 0.000000 0.118000 
#    y 0.000000 2.943040 0.000000 
#    z 0.118000 0.000000 3.416810 
# 
# 
# High freq. dielectric constant tensor:
#      x y z
#    x 1.568580 0.000000 0.008960 
#    y 0.000000 1.599360 0.000000 
#    z 0.008960 0.000000 1.611930 
# 
# From -- ./inp_files/55000.got.cif
#   From: 2010.06.25/outbox.cif.g09.slc.cpg/sg10_28_cif.got.tgz:55000.got - 2010.06.27 22:07:45.
