data_PCOD8057350
_publ_section_title
;
Structure prediction by ZEFSAII (Michael W. Deem and Ramdas Pophale) SiO2 
 PCOD8057350
Probable space group: P 2/M
;
_chemical_formula_sum "Si O2"
_cell_formula_units_Z 28
_cell_length_a 28.952982
_cell_length_b 8.560446
_cell_length_c 14.414276
_cell_angle_alpha 90.000000
_cell_angle_beta 152.237128
_cell_angle_gamma 90.000000
_cell_volume 1664.157541
_symmetry_space_group_name_H-M "P 2/M"
_symmetry_group_IT_number 10
_symmetry_cell_setting 'monoclinic'
loop_
_space_group_symop_operation_xyz
x,y,z
-x,y,-z
-x,-y,-z
x,-y,z
loop_
_atom_site_type_symbol
_atom_site_label
_atom_site_fract_x
_atom_site_fract_y
_atom_site_fract_z
Si Si1 0.425742 0.317539 0.747378
Si Si2 0.366856 0.185582 0.826346
Si Si3 0.266924 0.681525 0.110682
Si Si4 0.412757 0.823880 0.231200
Si Si5 0.253784 0.176197 0.795899
Si Si6 0.112741 0.813577 0.699688
Si Si7 0.624335 0.817170 0.533566
O O1 0.449786 0.500000 0.792869
O O2 0.353241 0.272070 0.703987
O O3 0.370783 0.273588 0.554816
O O4 0.527116 0.222360 0.939168
O O5 0.279285 0.248904 0.740103
O O6 0.359355 0.000000 0.800026
O O7 0.251654 0.500000 0.100134
O O8 0.362336 0.709663 0.215329
O O9 0.283063 0.763921 0.238905
O O10 0.167625 0.751084 0.888414
O O11 0.524921 0.770670 0.412912
O O12 0.407975 0.000000 0.263649
O O13 0.356616 0.816039 0.034128
O O14 0.166294 0.256315 0.701658
O O15 0.219563 0.000000 0.718387
O O16 0.000000 0.754907 0.500000
O O17 0.121367 0.000000 0.716170
O O18 0.628634 0.000000 0.520271
#
# Coordination Sequence:
#
# PCOD8057350 Si02
#       7
#     4   4   4   4   4   4   4
#     4  11  21  30  42  66  98 128 164 206 243 275
#     4  10  17  30  47  65  92 131 171 198 233 282
#     4  11  22  32  45  70 100 126 155 196 244 291
#     4   9  17  31  47  65  91 128 168 199 227 274
#     4   8  14  27  48  72  93 120 161 202 235 273
#     4   9  18  35  56  75  95 123 161 201 239 284
#     4  11  20  33  49  65  90 131 171 199 232 281
#
# _framework density 16.825330000000001
#
# number of rings (size 3 to 8) (size 9 to 14) (size 15 to 20)
#    0.000    2.143    1.429    5.571    0.000    3.143 
#    0.000    0.714    0.000    0.000    0.000    1.000 
#    0.000    8.000    0.000    0.000    0.000    0.000 
#
# Total GULP energy -347059.515104 kJ/mol
# GULP energy per Si atom -12394.982682 kJ/mol
# Density = 1.678703 g / cm^3
# Si number density = 16.825330 Si / 1000 Ang^3
#
#
#
# Elastic Constant Matrix: (Units=GPa)
#
#
# Indices 1 2 3 4 5 6 
#
# 1 83.3773 17.5772 57.0479 0.0000 -8.7103 0.0000
# 2 17.5772 51.8751 19.3813 0.0000 -4.5594 0.0000
# 3 57.0479 19.3813 90.3346 0.0000 -3.5064 0.0000
# 4 0.0000 0.0000 0.0000 14.9209 0.0000 -6.3757
# 5 -8.7103 -4.5594 -3.5064 0.0000 23.5442 0.0000
# 6 0.0000 0.0000 0.0000 -6.3757 0.0000 11.4478
#
#
#
# Elastic Compliance Matrix: (Units=1/GPa)
#
#
# Indices 1 2 3 4 5 6 
#
# 1 0.022144 -0.002013 -0.013327 0.000000 0.005818 0.000000
# 2 -0.002013 0.021415 -0.003210 0.000000 0.002924 0.000000
# 3 -0.013327 -0.003210 0.020075 0.000000 -0.002562 0.000000
# 4 0.000000 0.000000 0.000000 0.087951 0.000000 0.048983
# 5 0.005818 0.002924 -0.002562 0.000000 0.044810 0.000000
# 6 0.000000 0.000000 0.000000 0.048983 0.000000 0.114633
#
#
# Mechanical properties :
#
#
# Convention : Reuss Voigt Hill
#
# Bulk Modulus (GPa) = 37.68518 45.95554 41.82036
# Shear Modulus (GPa) = 14.00665 18.75463 16.38064
#
# Velocity S-wave (km/s) = 2.88839 3.34228 3.12359
# Velocity P-wave (km/s) = 5.79398 6.50131 6.15781
#
# Compressibility (1/GPa) = 0.02653563
#
# Stress axis : x y z
#
# Youngs Moduli (GPa) = 45.15879 46.69531 49.81258
#
# Poissons Ratio (x) = 0.09399 0.66384
# Poissons Ratio (y) = 0.09090 0.15990
# Poissons Ratio (z) = 0.60182 0.14989
#
# Static dielectric constant tensor:
#      x y z
#    x 3.387320 0.000000 -0.118890 
#    y 0.000000 2.987810 0.000000 
#    z -0.118890 0.000000 2.946760 
# 
# 
# High freq. dielectric constant tensor:
#      x y z
#    x 1.645950 0.000000 -0.020950 
#    y 0.000000 1.639010 0.000000 
#    z -0.020950 0.000000 1.610190 
# 
# From -- ./inp_files/72474.got.cif
#   From: 2010.06.25/outbox.cif.g09.slc.cpg/sg10_37_cif.got.tgz:72474.got - 2010.06.27 22:07:45.
