data_PCOD8057079
_publ_section_title
;
Structure prediction by ZEFSAII (Michael W. Deem and Ramdas Pophale) SiO2 
 PCOD8057079
Probable space group: P 2/M
;
_chemical_formula_sum "Si O2"
_cell_formula_units_Z 28
_cell_length_a 14.320711
_cell_length_b 7.971045
_cell_length_c 22.639876
_cell_angle_alpha 90.000000
_cell_angle_beta 138.160152
_cell_angle_gamma 90.000000
_cell_volume 1723.902805
_symmetry_space_group_name_H-M "P 2/M"
_symmetry_group_IT_number 10
_symmetry_cell_setting 'monoclinic'
loop_
_space_group_symop_operation_xyz
x,y,z
-x,y,-z
-x,-y,-z
x,-y,z
loop_
_atom_site_type_symbol
_atom_site_label
_atom_site_fract_x
_atom_site_fract_y
_atom_site_fract_z
Si Si1 0.551398 0.307980 0.588395
Si Si2 0.268802 0.192030 0.481974
Si Si3 0.168079 0.808194 0.309161
Si Si4 0.597963 0.000000 0.133227
Si Si5 0.974110 0.695833 0.553606
Si Si6 0.777046 0.308228 0.241322
Si Si7 0.299506 0.000000 0.951994
Si Si8 0.873752 0.687513 0.154208
O O1 0.500000 0.248801 0.500000
O O2 0.593660 0.500000 0.610757
O O3 0.420660 0.271635 0.570494
O O4 0.695876 0.208231 0.669682
O O5 0.204312 0.270265 0.391077
O O6 0.163773 0.214766 0.486637
O O7 0.297877 0.000000 0.482894
O O8 0.039138 0.706442 0.220411
O O9 0.119683 0.000000 0.291884
O O10 0.653337 0.828649 0.190141
O O11 0.644716 0.000000 0.087850
O O12 0.429675 0.000000 0.058601
O O13 0.942103 0.500000 0.538426
O O14 0.000000 0.764350 0.500000
O O15 0.108693 0.739255 0.656011
O O16 0.720622 0.500000 0.223289
O O17 0.849396 0.287832 0.212237
O O18 0.210702 0.829899 0.921747
O O19 0.826257 0.500000 0.111676
#
# Coordination Sequence:
#
# PCOD8057079 Si02
#       8
#     4   4   4   2   4   4   2   4
#     4   9  17  27  39  57  81 110 148 182 213 256
#     4  10  19  28  42  59  82 113 147 188 223 255
#     4  10  17  26  41  60  86 115 148 183 215 256
#     4   9  18  30  47  58  83 109 143 179 226 265
#     4  10  20  32  45  62  85 114 151 193 228 256
#     4   9  18  30  45  62  82 113 149 183 221 263
#     4   9  18  30  40  64  84 108 139 184 218 264
#     4  10  17  26  43  62  85 116 146 177 218 260
#
# _framework density 16.242215999999999
#
# number of rings (size 3 to 8) (size 9 to 14) (size 15 to 20)
#    0.000    2.429    2.143    1.286    1.000    3.714 
#    0.000    2.857    0.000    0.000    0.000    0.000 
#    0.000    0.000    0.000    2.571    0.000   15.714 
#
# Total GULP energy -347068.538282 kJ/mol
# GULP energy per Si atom -12395.304939 kJ/mol
# Density = 1.620525 g / cm^3
# Si number density = 16.242216 Si / 1000 Ang^3
#
#
#
# Elastic Constant Matrix: (Units=GPa)
#
#
# Indices 1 2 3 4 5 6 
#
# 1 66.4691 28.1881 41.4488 0.0000 21.1902 0.0000
# 2 28.1881 93.9226 41.6499 0.0000 19.3461 0.0000
# 3 41.4488 41.6499 69.7160 0.0000 27.1293 0.0000
# 4 0.0000 0.0000 0.0000 19.5803 0.0000 7.8414
# 5 21.1902 19.3461 27.1293 0.0000 24.9397 0.0000
# 6 0.0000 0.0000 0.0000 7.8414 0.0000 18.9149
#
#
#
# Elastic Compliance Matrix: (Units=1/GPa)
#
#
# Indices 1 2 3 4 5 6 
#
# 1 0.025021 -0.000850 -0.011014 0.000000 -0.008619 0.000000
# 2 -0.000850 0.014658 -0.007124 0.000000 -0.002900 0.000000
# 3 -0.011014 -0.007124 0.033564 0.000000 -0.021626 0.000000
# 4 0.000000 0.000000 0.000000 0.061239 0.000000 -0.025387
# 5 -0.008619 -0.002900 -0.021626 0.000000 0.073194 0.000000
# 6 0.000000 0.000000 0.000000 -0.025387 0.000000 0.063393
#
#
# Mechanical properties :
#
#
# Convention : Reuss Voigt Hill
#
# Bulk Modulus (GPa) = 28.35465 50.29791 39.32628
# Shear Modulus (GPa) = 15.58603 20.60837 18.09720
#
# Velocity S-wave (km/s) = 3.10110 3.56591 3.34160
# Velocity P-wave (km/s) = 5.50615 6.92740 6.25726
#
# Compressibility (1/GPa) = 0.03526758
#
# Stress axis : x y z
#
# Youngs Moduli (GPa) = 39.96668 68.22061 29.79394
#
# Poissons Ratio (x) = 0.05797 0.32816
# Poissons Ratio (y) = 0.03396 0.21224
# Poissons Ratio (z) = 0.44021 0.48598
#
# Static dielectric constant tensor:
#      x y z
#    x 2.859250 0.000000 0.333890 
#    y 0.000000 3.164940 0.000000 
#    z 0.333890 0.000000 2.891060 
# 
# 
# High freq. dielectric constant tensor:
#      x y z
#    x 1.585750 0.000000 0.045320 
#    y 0.000000 1.640890 0.000000 
#    z 0.045320 0.000000 1.582460 
# 
# From -- ./inp_files/54742.got.cif
#   From: 2010.06.25/outbox.cif.g09.slc.cpg/sg10_28_cif.got.tgz:54742.got - 2010.06.27 22:07:45.
