data_PCOD8057827
_publ_section_title
;
Structure prediction by ZEFSAII (Michael W. Deem and Ramdas Pophale) SiO2 
 PCOD8057827
Probable space group: P 2/M
;
_chemical_formula_sum "Si O2"
_cell_formula_units_Z 32
_cell_length_a 13.246154
_cell_length_b 12.373938
_cell_length_c 11.890070
_cell_angle_alpha 90.000000
_cell_angle_beta 71.322501
_cell_angle_gamma 90.000000
_cell_volume 1846.231859
_symmetry_space_group_name_H-M "P 2/M"
_symmetry_group_IT_number 10
_symmetry_cell_setting 'monoclinic'
loop_
_space_group_symop_operation_xyz
x,y,z
-x,y,-z
-x,-y,-z
x,-y,z
loop_
_atom_site_type_symbol
_atom_site_label
_atom_site_fract_x
_atom_site_fract_y
_atom_site_fract_z
Si Si1 0.521073 0.875020 0.666362
Si Si2 0.189322 0.248900 0.149012
Si Si3 0.405514 0.872609 0.121037
Si Si4 0.015107 0.877919 0.117669
Si Si5 0.029996 0.625752 0.362829
Si Si6 0.142160 0.271348 0.720136
Si Si7 0.872201 0.377339 0.045738
Si Si8 0.329791 0.872656 0.585834
O O1 0.546747 0.827591 0.779089
O O2 0.398639 0.855102 0.674937
O O3 0.601705 0.831148 0.543932
O O4 0.543946 0.000000 0.664020
O O5 0.308305 0.209453 0.132119
O O6 0.132614 0.139444 0.125017
O O7 0.128784 0.302719 0.278400
O O8 0.181159 0.332295 0.048731
O O9 0.370933 0.000000 0.135521
O O10 0.500000 0.854861 0.000000
O O11 0.936449 0.827917 0.234838
O O12 0.983088 0.000000 0.116471
O O13 0.000000 0.821803 0.000000
O O14 0.063841 0.500000 0.346858
O O15 0.000000 0.662774 0.500000
O O16 0.921531 0.639284 0.329156
O O17 0.178383 0.320322 0.826511
O O18 0.237248 0.215636 0.619048
O O19 0.836008 0.500000 0.064624
O O20 0.000000 0.366527 0.000000
O O21 0.294519 0.000000 0.589693
#
# Coordination Sequence:
#
# PCOD8057827 Si02
#       8
#     4   4   4   4   4   4   4   4
#     4   8  17  35  52  73 105 143 178 213 252 300
#     4  11  20  35  55  77 104 144 177 213 268 318
#     4  10  22  36  54  80 112 144 179 216 257 314
#     4  10  18  29  44  73 112 136 162 206 256 314
#     4  10  22  38  56  80 107 138 180 224 268 321
#     4  11  19  31  53  81 102 136 174 213 263 317
#     4  11  20  35  54  76 101 131 174 222 263 308
#     4   9  18  32  54  79 107 138 175 215 256 307
#
# _framework density 17.332601
#
# number of rings (size 3 to 8) (size 9 to 14) (size 15 to 20)
#    0.000    2.000    3.750    2.250    3.500    0.000 
#    0.000    0.000    0.000    3.750    0.000    7.000 
#    0.000    0.000    0.000    0.000    0.000    0.000 
#
# Total GULP energy -396460.111807 kJ/mol
# GULP energy per Si atom -12389.378494 kJ/mol
# Density = 1.729315 g / cm^3
# Si number density = 17.332601 Si / 1000 Ang^3
#
#
#
# Elastic Constant Matrix: (Units=GPa)
#
#
# Indices 1 2 3 4 5 6 
#
# 1 83.9703 26.7890 42.1960 0.0000 0.1455 0.0000
# 2 26.7890 68.7503 28.8637 0.0000 -3.5676 0.0000
# 3 42.1960 28.8637 102.9692 0.0000 10.8900 0.0000
# 4 0.0000 0.0000 0.0000 289.4447 0.0000 31.7610
# 5 0.1455 -3.5676 10.8900 0.0000 25.7230 0.0000
# 6 0.0000 0.0000 0.0000 31.7610 0.0000 26.7550
#
#
#
# Elastic Compliance Matrix: (Units=1/GPa)
#
#
# Indices 1 2 3 4 5 6 
#
# 1 0.015952 -0.003738 -0.005679 0.000000 0.001796 0.000000
# 2 -0.003738 0.017861 -0.003914 0.000000 0.004155 0.000000
# 3 -0.005679 -0.003914 0.013808 0.000000 -0.006357 0.000000
# 4 0.000000 0.000000 0.000000 0.003972 0.000000 -0.004716
# 5 0.001796 0.004155 -0.006357 0.000000 0.042133 0.000000
# 6 0.000000 0.000000 0.000000 -0.004716 0.000000 0.042974
#
#
# Mechanical properties :
#
#
# Convention : Reuss Voigt Hill
#
# Bulk Modulus (GPa) = 47.71392 50.15414 48.93403
# Shear Modulus (GPa) = 29.35118 78.90728 54.12923
#
# Velocity S-wave (km/s) = 4.11957 6.75457 5.59442
# Velocity P-wave (km/s) = 7.08632 9.47794 8.36802
#
# Compressibility (1/GPa) = 0.02095825
#
# Stress axis : x y z
#
# Youngs Moduli (GPa) = 62.68662 55.98768 72.41983
#
# Poissons Ratio (x) = 0.20931 0.41128
# Poissons Ratio (y) = 0.23435 0.28346
# Poissons Ratio (z) = 0.35600 0.21915
#
# Static dielectric constant tensor:
#      x y z
#    x 3.254590 0.000000 0.428580 
#    y 0.000000 3.127610 0.000000 
#    z 0.428580 0.000000 3.935780 
# 
# 
# High freq. dielectric constant tensor:
#      x y z
#    x 1.650990 0.000000 0.009830 
#    y 0.000000 1.655830 0.000000 
#    z 0.009830 0.000000 1.678140 
# 
# From -- ./inp_files/46965.got.cif
#   From: 2010.06.25/outbox.cif.g09.slc.cpg/sg10_24_cif.got.tgz:46965.got - 2010.06.27 22:07:45.
