data_PCOD8057483
_publ_section_title
;
Structure prediction by ZEFSAII (Michael W. Deem and Ramdas Pophale) SiO2 
 PCOD8057483
Probable space group: P 2/M
;
_chemical_formula_sum "Si O2"
_cell_formula_units_Z 26
_cell_length_a 24.276496
_cell_length_b 7.832326
_cell_length_c 15.729584
_cell_angle_alpha 90.000000
_cell_angle_beta 26.756025
_cell_angle_gamma 90.000000
_cell_volume 1346.455785
_symmetry_space_group_name_H-M "P 2/M"
_symmetry_group_IT_number 10
_symmetry_cell_setting 'monoclinic'
loop_
_space_group_symop_operation_xyz
x,y,z
-x,y,-z
-x,-y,-z
x,-y,z
loop_
_atom_site_type_symbol
_atom_site_label
_atom_site_fract_x
_atom_site_fract_y
_atom_site_fract_z
Si Si1 0.910810 0.688517 0.280314
Si Si2 0.134439 0.500000 0.496243
Si Si3 0.818187 0.694157 0.110118
Si Si4 0.119765 0.500000 0.221243
Si Si5 0.694762 0.500000 0.887267
Si Si6 0.554995 0.198360 0.163791
Si Si7 0.744973 0.810029 0.042192
Si Si8 0.716319 0.807658 0.423318
O O1 0.911107 0.500000 0.236392
O O2 0.876544 0.668142 0.427862
O O3 0.809552 0.802188 0.373546
O O4 0.044481 0.774082 0.082881
O O5 0.263603 0.500000 0.268600
O O6 0.027027 0.500000 0.573489
O O7 0.827383 0.500000 0.066250
O O8 0.763387 0.698088 0.279579
O O9 0.729978 0.793492 0.165150
O O10 0.181392 0.500000 0.228225
O O11 0.155515 0.671940 0.122449
O O12 0.618320 0.326731 0.009571
O O13 0.415176 0.259016 0.364305
O O14 0.566423 0.000000 0.117287
O O15 0.616407 0.223971 0.171915
O O16 0.791783 0.000000 0.954177
O O17 0.703415 0.000000 0.408492
#
# Coordination Sequence:
#
# PCOD8057483 Si02
#       8
#     4   2   4   2   2   4   4   4
#     4   9  20  37  55  78 117 143 183 235 282 321
#     4  10  19  39  59  89 112 143 187 235 287 342
#     4  11  20  35  56  83 118 147 191 235 277 336
#     4  10  17  38  54  91 117 144 181 231 284 342
#     4  10  21  35  70  83 108 156 185 223 297 346
#     4   9  22  40  56  84 118 145 192 241 274 328
#     4  10  18  34  58  82 117 154 182 228 285 332
#     4  11  23  37  54  80 113 155 196 232 274 332
#
# _framework density 19.309954999999999
#
# number of rings (size 3 to 8) (size 9 to 14) (size 15 to 20)
#    0.462    1.538    2.308    1.615    2.154    3.692 
#    0.000    6.154    0.000    5.538    0.000    0.000 
#    0.000    0.000    0.000    0.000    0.000    0.000 
#
# Total GULP energy -322268.739011 kJ/mol
# GULP energy per Si atom -12394.951500 kJ/mol
# Density = 1.926600 g / cm^3
# Si number density = 19.309955 Si / 1000 Ang^3
#
#
#
# Elastic Constant Matrix: (Units=GPa)
#
#
# Indices 1 2 3 4 5 6 
#
# 1 43.0478 17.9658 39.5644 0.0000 5.5519 0.0000
# 2 17.9658 78.9292 37.2907 0.0000 1.5505 0.0000
# 3 39.5644 37.2907 120.0996 0.0000 8.2024 0.0000
# 4 0.0000 0.0000 0.0000 14.1401 0.0000 -8.8647
# 5 5.5519 1.5505 8.2024 0.0000 29.7830 0.0000
# 6 0.0000 0.0000 0.0000 -8.8647 0.0000 19.7788
#
#
#
# Elastic Compliance Matrix: (Units=1/GPa)
#
#
# Indices 1 2 3 4 5 6 
#
# 1 0.034200 -0.002936 -0.010120 0.000000 -0.003435 0.000000
# 2 -0.002936 0.015107 -0.003778 0.000000 0.000801 0.000000
# 3 -0.010120 -0.003778 0.012935 0.000000 -0.001479 0.000000
# 4 0.000000 0.000000 0.000000 0.098357 0.000000 0.044083
# 5 -0.003435 0.000801 -0.001479 0.000000 0.034582 0.000000
# 6 0.000000 0.000000 0.000000 0.044083 0.000000 0.070317
#
#
# Mechanical properties :
#
#
# Convention : Reuss Voigt Hill
#
# Bulk Modulus (GPa) = 34.99836 47.96870 41.48353
# Shear Modulus (GPa) = 16.19748 22.55742 19.37745
#
# Velocity S-wave (km/s) = 2.89937 3.42157 3.17124
# Velocity P-wave (km/s) = 5.41963 6.36434 5.91089
#
# Compressibility (1/GPa) = 0.02857277
#
# Stress axis : x y z
#
# Youngs Moduli (GPa) = 29.24017 66.19374 77.31241
#
# Poissons Ratio (x) = 0.19432 0.78242
# Poissons Ratio (y) = 0.08584 0.29212
# Poissons Ratio (z) = 0.29592 0.25011
#
# Static dielectric constant tensor:
#      x y z
#    x 3.430530 0.000000 -0.176770 
#    y 0.000000 3.468110 0.000000 
#    z -0.176770 0.000000 3.282250 
# 
# 
# High freq. dielectric constant tensor:
#      x y z
#    x 1.748360 0.000000 -0.014950 
#    y 0.000000 1.745520 0.000000 
#    z -0.014950 0.000000 1.730220 
# 
# From -- ./inp_files/69934.got.cif
#   From: 2010.06.25/outbox.cif.g09.slc.cpg/sg10_35_cif.got.tgz:69934.got - 2010.06.27 22:07:45.
