data_PCOD8057342
_publ_section_title
;
Structure prediction by ZEFSAII (Michael W. Deem and Ramdas Pophale) SiO2 
 PCOD8057342
Probable space group: P 2/M
;
_chemical_formula_sum "Si O2"
_cell_formula_units_Z 32
_cell_length_a 28.385446
_cell_length_b 9.468617
_cell_length_c 11.895763
_cell_angle_alpha 90.000000
_cell_angle_beta 147.046817
_cell_angle_gamma 90.000000
_cell_volume 1739.147449
_symmetry_space_group_name_H-M "P 2/M"
_symmetry_group_IT_number 10
_symmetry_cell_setting 'monoclinic'
loop_
_space_group_symop_operation_xyz
x,y,z
-x,y,-z
-x,-y,-z
x,-y,z
loop_
_atom_site_type_symbol
_atom_site_label
_atom_site_fract_x
_atom_site_fract_y
_atom_site_fract_z
Si Si1 0.758868 0.665167 0.401638
Si Si2 0.104182 0.835062 0.464757
Si Si3 0.590791 0.337237 0.448409
Si Si4 0.834002 0.161541 0.167809
Si Si5 0.240644 0.666207 0.336044
Si Si6 0.402044 0.332205 0.065967
Si Si7 0.092488 0.838906 0.920921
Si Si8 0.333631 0.662760 0.165228
O O1 0.773206 0.500000 0.407269
O O2 0.837937 0.747824 0.505315
O O3 0.755182 0.701385 0.524679
O O4 0.667776 0.716438 0.165974
O O5 0.123520 0.786747 0.630966
O O6 0.004784 0.800244 0.237353
O O7 0.123960 0.000000 0.488337
O O8 0.591419 0.500000 0.414485
O O9 0.672187 0.268189 0.545935
O O10 0.497587 0.270521 0.226346
O O11 0.598174 0.318526 0.597489
O O12 0.902088 0.180859 0.202956
O O13 0.803729 0.000000 0.117726
O O14 0.751924 0.254667 0.971998
O O15 0.232771 0.500000 0.296356
O O16 0.156637 0.737791 0.115711
O O17 0.409599 0.500000 0.088183
O O18 0.373375 0.273780 0.130439
O O19 0.114803 0.000000 0.998113
O O20 0.307587 0.500000 0.096811
#
# Coordination Sequence:
#
# PCOD8057342 Si02
#       8
#     4   4   4   4   4   4   4   4
#     4  10  21  36  54  78 107 139 178 222 261 299
#     4  10  21  37  57  79 104 137 175 214 261 318
#     4   9  17  30  51  79 108 137 171 213 260 310
#     4  10  19  33  55  80 106 134 167 213 265 314
#     4  10  21  36  54  78 107 139 178 222 261 299
#     4   9  17  30  51  79 108 137 171 213 260 310
#     4  10  21  37  57  79 104 137 175 214 261 318
#     4  10  17  29  53  80 106 136 171 211 259 316
#
# _framework density 18.399819999999998
#
# number of rings (size 3 to 8) (size 9 to 14) (size 15 to 20)
#    0.000    2.250    2.500    0.750    0.000    5.000 
#    0.000    5.000    0.000    6.000    0.000    1.750 
#    0.000    0.000    0.000    0.000    0.000    0.000 
#
# Total GULP energy -396763.377933 kJ/mol
# GULP energy per Si atom -12398.855560 kJ/mol
# Density = 1.835794 g / cm^3
# Si number density = 18.399820 Si / 1000 Ang^3
#
#
#
# Elastic Constant Matrix: (Units=GPa)
#
#
# Indices 1 2 3 4 5 6 
#
# 1 111.1227 37.6716 75.6151 0.0000 1.0902 0.0000
# 2 37.6716 34.7577 35.6109 0.0000 3.8573 0.0000
# 3 75.6151 35.6109 116.6029 0.0000 13.2738 0.0000
# 4 0.0000 0.0000 0.0000 8.3388 0.0000 -8.2234
# 5 1.0902 3.8573 13.2738 0.0000 32.2544 0.0000
# 6 0.0000 0.0000 0.0000 -8.2234 0.0000 19.7580
#
#
#
# Elastic Compliance Matrix: (Units=1/GPa)
#
#
# Indices 1 2 3 4 5 6 
#
# 1 0.019452 -0.011836 -0.009533 0.000000 0.004681 0.000000
# 2 -0.011836 0.049076 -0.007019 0.000000 -0.002580 0.000000
# 3 -0.009533 -0.007019 0.017593 0.000000 -0.006079 0.000000
# 4 0.000000 0.000000 0.000000 0.203409 0.000000 0.084660
# 5 0.004681 -0.002580 -0.006079 0.000000 0.033655 0.000000
# 6 0.000000 0.000000 0.000000 0.084660 0.000000 0.085849
#
#
# Mechanical properties :
#
#
# Convention : Reuss Voigt Hill
#
# Bulk Modulus (GPa) = 34.07483 62.25315 48.16399
# Shear Modulus (GPa) = 10.51320 19.64262 15.07791
#
# Velocity S-wave (km/s) = 2.39294 3.27087 2.86573
# Velocity P-wave (km/s) = 5.11803 6.94059 6.09779
#
# Compressibility (1/GPa) = 0.02934718
#
# Stress axis : x y z
#
# Youngs Moduli (GPa) = 51.40814 20.37640 56.83947
#
# Poissons Ratio (x) = 0.24117 0.54183
# Poissons Ratio (y) = 0.60846 0.39895
# Poissons Ratio (z) = 0.49005 0.14302
#
# Static dielectric constant tensor:
#      x y z
#    x 3.506280 0.000000 0.098230 
#    y 0.000000 3.082620 0.000000 
#    z 0.098230 0.000000 3.503840 
# 
# 
# High freq. dielectric constant tensor:
#      x y z
#    x 1.720830 0.000000 0.003820 
#    y 0.000000 1.674670 0.000000 
#    z 0.003820 0.000000 1.721430 
# 
# From -- ./inp_files/42987.got.cif
#   From: 2010.06.25/outbox.cif.g09.slc.cpg/sg10_22_cif.got.tgz:42987.got - 2010.06.27 22:07:45.
