data_PCOD8057826
_publ_section_title
;
Structure prediction by ZEFSAII (Michael W. Deem and Ramdas Pophale) SiO2 
 PCOD8057826
Probable space group: P 2/M
;
_chemical_formula_sum "Si O2"
_cell_formula_units_Z 30
_cell_length_a 15.938002
_cell_length_b 23.046730
_cell_length_c 15.245442
_cell_angle_alpha 90.000000
_cell_angle_beta 161.717252
_cell_angle_gamma 90.000000
_cell_volume 1756.737287
_symmetry_space_group_name_H-M "P 2/M"
_symmetry_group_IT_number 10
_symmetry_cell_setting 'monoclinic'
loop_
_space_group_symop_operation_xyz
x,y,z
-x,y,-z
-x,-y,-z
x,-y,z
loop_
_atom_site_type_symbol
_atom_site_label
_atom_site_fract_x
_atom_site_fract_y
_atom_site_fract_z
Si Si1 0.254776 0.340729 0.695448
Si Si2 0.746711 0.000000 0.807778
Si Si3 0.248909 0.332256 0.191592
Si Si4 0.564292 0.565816 0.262098
Si Si5 0.875340 0.269759 0.594718
Si Si6 0.358474 0.770626 0.167366
Si Si7 0.033323 0.391314 0.823472
Si Si8 0.255019 0.125688 0.191843
O O1 0.320834 0.398089 0.705289
O O2 0.190337 0.284534 0.571391
O O3 0.000000 0.357370 0.500000
O O4 0.500000 0.322832 0.000000
O O5 0.500000 0.000000 0.500000
O O6 0.749607 0.061904 0.861590
O O7 0.000000 0.000000 0.000000
O O8 0.500000 0.351647 0.500000
O O9 0.343913 0.282250 0.220808
O O10 0.141560 0.388905 0.031092
O O11 0.000000 0.307551 0.000000
O O12 0.507887 0.500000 0.176873
O O13 0.787602 0.564409 0.562291
O O14 0.285244 0.595127 0.011829
O O15 0.651908 0.228740 0.416813
O O16 0.897303 0.329759 0.668610
O O17 0.155540 0.236522 0.884133
O O18 0.284839 0.829784 0.142439
O O19 0.500000 0.132460 0.500000
O O20 0.000000 0.137826 0.000000
#
# Coordination Sequence:
#
# PCOD8057826 Si02
#       8
#     4   2   4   4   4   4   4   4
#     4  11  21  35  54  75  98 120 143 177 226 289
#     4   8  16  28  42  60  94 140 178 208 242 278
#     4  11  19  29  47  69  90 116 154 199 238 269
#     4  11  22  37  56  73  91 119 151 182 221 277
#     4  10  20  34  49  69  96 126 152 181 235 291
#     4  11  19  30  47  70  98 126 161 201 233 274
#     4  10  20  36  51  68  94 123 151 184 234 288
#     4  10  18  29  44  68 100 138 179 212 240 267
#
# _framework density 17.077110999999999
#
# number of rings (size 3 to 8) (size 9 to 14) (size 15 to 20)
#    0.000    1.600    0.000   10.000    0.000    0.533 
#    0.000    0.000    0.000    8.000    0.000    0.000 
#    0.000    0.000    0.000   12.000    0.000    0.000 
#
# Total GULP energy -371773.096495 kJ/mol
# GULP energy per Si atom -12392.436550 kJ/mol
# Density = 1.703824 g / cm^3
# Si number density = 17.077111 Si / 1000 Ang^3
#
#
#
# Elastic Constant Matrix: (Units=GPa)
#
#
# Indices 1 2 3 4 5 6 
#
# 1 58.9231 33.3863 32.4733 0.0000 -4.2593 0.0000
# 2 33.3863 86.7963 23.1590 0.0000 -4.0158 0.0000
# 3 32.4733 23.1590 123.7527 0.0000 -1.8981 0.0000
# 4 0.0000 0.0000 0.0000 17.9102 0.0000 0.2734
# 5 -4.2593 -4.0158 -1.8981 0.0000 40.3238 0.0000
# 6 0.0000 0.0000 0.0000 0.2734 0.0000 23.4009
#
#
#
# Elastic Compliance Matrix: (Units=1/GPa)
#
#
# Indices 1 2 3 4 5 6 
#
# 1 0.024274 -0.007971 -0.004854 0.000000 0.001542 0.000000
# 2 -0.007971 0.014793 -0.000668 0.000000 0.000600 0.000000
# 3 -0.004854 -0.000668 0.009477 0.000000 -0.000133 0.000000
# 4 0.000000 0.000000 0.000000 0.055844 0.000000 -0.000653
# 5 0.001542 0.000600 -0.000133 0.000000 0.025016 0.000000
# 6 0.000000 0.000000 0.000000 -0.000653 0.000000 0.042741
#
#
# Mechanical properties :
#
#
# Convention : Reuss Voigt Hill
#
# Bulk Modulus (GPa) = 46.38350 49.72324 48.05337
# Shear Modulus (GPa) = 24.23456 28.35722 26.29589
#
# Velocity S-wave (km/s) = 3.77121 4.07939 3.92833
# Velocity P-wave (km/s) = 6.79580 7.16720 6.98397
#
# Compressibility (1/GPa) = 0.02155939
#
# Stress axis : x y z
#
# Youngs Moduli (GPa) = 41.19597 67.59959 105.51465
#
# Poissons Ratio (x) = 0.53880 0.51221
# Poissons Ratio (y) = 0.32835 0.07045
# Poissons Ratio (z) = 0.19998 0.04513
#
# Static dielectric constant tensor:
#      x y z
#    x 3.124820 0.000000 -0.139310 
#    y 0.000000 3.275590 0.000000 
#    z -0.139310 0.000000 3.641620 
# 
# 
# High freq. dielectric constant tensor:
#      x y z
#    x 1.632170 0.000000 0.009380 
#    y 0.000000 1.625380 0.000000 
#    z 0.009380 0.000000 1.693600 
# 
# From -- ./inp_files/67908.got.cif
#   From: 2010.06.25/outbox.cif.g09.slc.cpg/sg10_34_cif.got.tgz:67908.got - 2010.06.27 22:07:45.
