data_PCOD8057160
_publ_section_title
;
Structure prediction by ZEFSAII (Michael W. Deem and Ramdas Pophale) SiO2 
 PCOD8057160
Probable space group: P 2/M
;
_chemical_formula_sum "Si O2"
_cell_formula_units_Z 28
_cell_length_a 14.319111
_cell_length_b 9.004483
_cell_length_c 14.431022
_cell_angle_alpha 90.000000
_cell_angle_beta 104.698730
_cell_angle_gamma 90.000000
_cell_volume 1799.787212
_symmetry_space_group_name_H-M "P 2/M"
_symmetry_group_IT_number 10
_symmetry_cell_setting 'monoclinic'
loop_
_space_group_symop_operation_xyz
x,y,z
-x,y,-z
-x,-y,-z
x,-y,z
loop_
_atom_site_type_symbol
_atom_site_label
_atom_site_fract_x
_atom_site_fract_y
_atom_site_fract_z
Si Si1 0.400555 0.164217 0.030450
Si Si2 0.860510 0.173217 0.295830
Si Si3 0.959985 0.332537 0.593199
Si Si4 0.300994 0.324669 0.851640
Si Si5 0.434440 0.175985 0.565179
Si Si6 0.217307 0.826840 0.520032
Si Si7 0.531622 0.825197 0.220973
O O1 0.430278 0.211231 0.142976
O O2 0.353354 0.000000 0.017620
O O3 0.500000 0.161252 0.000000
O O4 0.326716 0.278575 0.964093
O O5 0.802090 0.255202 0.200056
O O6 0.807308 0.204925 0.379355
O O7 0.968720 0.238612 0.323493
O O8 0.866205 0.000000 0.274942
O O9 0.953152 0.500000 0.629286
O O10 0.853934 0.259824 0.567153
O O11 0.000000 0.328404 0.500000
O O12 0.295191 0.500000 0.843361
O O13 0.380657 0.265117 0.800829
O O14 0.500000 0.245746 0.500000
O O15 0.324902 0.234225 0.528356
O O16 0.479911 0.223287 0.675268
O O17 0.432814 0.000000 0.556772
O O18 0.206815 0.000000 0.495154
O O19 0.557329 0.000000 0.218001
#
# Coordination Sequence:
#
# PCOD8057160 Si02
#       7
#     4   4   4   4   4   4   4
#     4   8  15  26  40  55  77 108 141 171 204 250
#     4  10  17  27  42  59  82 111 142 170 203 251
#     4   9  17  27  39  58  82 107 137 171 208 248
#     4  11  19  25  38  60  85 110 139 172 209 250
#     4   9  16  27  45  66  84 107 146 187 212 237
#     4   9  16  27  42  58  79 110 143 173 208 246
#     4   9  16  29  43  57  79 111 144 175 212 248
#
# _framework density 15.557394
#
# number of rings (size 3 to 8) (size 9 to 14) (size 15 to 20)
#    0.000    2.714    1.429    3.000    0.000    4.857 
#    0.000    0.000    0.000    1.714    0.000    0.000 
#    0.000    1.143    0.000   13.429    0.000    2.571 
#
# Total GULP energy -347081.923471 kJ/mol
# GULP energy per Si atom -12395.782981 kJ/mol
# Density = 1.552198 g / cm^3
# Si number density = 15.557394 Si / 1000 Ang^3
#
#
#
# Elastic Constant Matrix: (Units=GPa)
#
#
# Indices 1 2 3 4 5 6 
#
# 1 72.7515 32.6429 57.1643 0.0000 19.0759 0.0000
# 2 32.6429 87.0894 50.2212 0.0000 21.4814 0.0000
# 3 57.1643 50.2212 114.8642 0.0000 27.6318 0.0000
# 4 0.0000 0.0000 0.0000 14.2187 0.0000 6.2054
# 5 19.0759 21.4814 27.6318 0.0000 25.7973 0.0000
# 6 0.0000 0.0000 0.0000 6.2054 0.0000 11.4455
#
#
#
# Elastic Compliance Matrix: (Units=1/GPa)
#
#
# Indices 1 2 3 4 5 6 
#
# 1 0.023583 -0.001962 -0.009533 0.000000 -0.005594 0.000000
# 2 -0.001962 0.016687 -0.004480 0.000000 -0.007646 0.000000
# 3 -0.009533 -0.004480 0.017264 0.000000 -0.007712 0.000000
# 4 0.000000 0.000000 0.000000 0.092129 0.000000 -0.049949
# 5 -0.005594 -0.007646 -0.007712 0.000000 0.057527 0.000000
# 6 0.000000 0.000000 0.000000 -0.049949 0.000000 0.114452
#
#
# Mechanical properties :
#
#
# Convention : Reuss Voigt Hill
#
# Bulk Modulus (GPa) = 39.08739 61.64020 50.36380
# Shear Modulus (GPa) = 13.80750 19.27074 16.53912
#
# Velocity S-wave (km/s) = 2.98236 3.52332 3.26406
# Velocity P-wave (km/s) = 6.08592 7.50059 6.82998
#
# Compressibility (1/GPa) = 0.02558370
#
# Stress axis : x y z
#
# Youngs Moduli (GPa) = 42.40316 59.92513 57.92303
#
# Poissons Ratio (x) = 0.11760 0.55218
# Poissons Ratio (y) = 0.08321 0.25951
# Poissons Ratio (z) = 0.40423 0.26848
#
# Static dielectric constant tensor:
#      x y z
#    x 2.780010 0.000000 0.293050 
#    y 0.000000 2.884240 0.000000 
#    z 0.293050 0.000000 3.219070 
# 
# 
# High freq. dielectric constant tensor:
#      x y z
#    x 1.551690 0.000000 0.041290 
#    y 0.000000 1.588590 0.000000 
#    z 0.041290 0.000000 1.586950 
# 
# From -- ./inp_files/65812.got.cif
#   From: 2010.06.25/outbox.cif.g09.slc.cpg/sg10_33_cif.got.tgz:65812.got - 2010.06.27 22:07:45.
