data_PCOD8057538
_publ_section_title
;
Structure prediction by ZEFSAII (Michael W. Deem and Ramdas Pophale) SiO2 
 PCOD8057538
Probable space group: P 2/M
;
_chemical_formula_sum "Si O2"
_cell_formula_units_Z 30
_cell_length_a 13.928600
_cell_length_b 9.592571
_cell_length_c 16.995127
_cell_angle_alpha 90.000000
_cell_angle_beta 129.144462
_cell_angle_gamma 90.000000
_cell_volume 1761.085709
_symmetry_space_group_name_H-M "P 2/M"
_symmetry_group_IT_number 10
_symmetry_cell_setting 'monoclinic'
loop_
_space_group_symop_operation_xyz
x,y,z
-x,y,-z
-x,-y,-z
x,-y,z
loop_
_atom_site_type_symbol
_atom_site_label
_atom_site_fract_x
_atom_site_fract_y
_atom_site_fract_z
Si Si1 0.552735 0.336097 0.149126
Si Si2 0.687419 0.335191 0.065495
Si Si3 0.207211 0.333032 0.319706
Si Si4 0.511150 0.841388 0.271725
Si Si5 0.748778 0.154481 0.804154
Si Si6 0.000000 0.756958 0.000000
Si Si7 0.057527 0.341849 0.861316
Si Si8 0.392469 0.160934 0.506184
O O1 0.548428 0.500000 0.164219
O O2 0.661998 0.299160 0.143828
O O3 0.578838 0.256589 0.243742
O O4 0.423706 0.279130 0.046407
O O5 0.688506 0.500000 0.054852
O O6 0.817262 0.265250 0.104147
O O7 0.223187 0.500000 0.329148
O O8 0.263249 0.273270 0.267757
O O9 0.275727 0.261382 0.428395
O O10 0.063165 0.284483 0.246900
O O11 0.362516 0.817209 0.192237
O O12 0.560828 0.800976 0.383264
O O13 0.544713 0.000000 0.268290
O O14 0.880617 0.150786 0.916598
O O15 0.728735 0.000000 0.755707
O O16 0.961233 0.664056 0.054455
O O17 0.072818 0.500000 0.844386
O O18 0.500000 0.195478 0.500000
O O19 0.351378 0.000000 0.478421
#
# Coordination Sequence:
#
# PCOD8057538 Si02
#       8
#     4   4   4   4   4   2   4   4
#     4   9  17  30  51  76  96 123 166 205 235 276
#     4   8  15  30  50  70  99 135 162 189 236 295
#     4  10  20  31  47  72  96 123 162 203 237 278
#     4  10  20  32  49  70  96 127 158 197 247 294
#     4  10  19  32  45  64  97 134 163 189 233 293
#     4  10  18  26  46  72  95 128 167 202 223 270
#     4   9  17  29  45  69 103 133 155 192 248 295
#     4  10  19  35  53  67  92 133 165 192 246 304
#
# _framework density 17.034946999999999
#
# number of rings (size 3 to 8) (size 9 to 14) (size 15 to 20)
#    0.000    2.533    1.333    2.400    0.000    1.867 
#    0.000    1.333    0.000    6.400    0.000    5.600 
#    0.000    0.000    0.000    0.000    0.000    0.000 
#
# Total GULP energy -371807.709384 kJ/mol
# GULP energy per Si atom -12393.590313 kJ/mol
# Density = 1.699617 g / cm^3
# Si number density = 17.034947 Si / 1000 Ang^3
#
#
#
# Elastic Constant Matrix: (Units=GPa)
#
#
# Indices 1 2 3 4 5 6 
#
# 1 114.6346 31.3190 55.3091 0.0000 -2.4930 0.0000
# 2 31.3190 55.8441 37.0549 0.0000 -3.4318 0.0000
# 3 55.3091 37.0549 99.9600 0.0000 -5.4253 0.0000
# 4 0.0000 0.0000 0.0000 25.8024 0.0000 -1.7874
# 5 -2.4930 -3.4318 -5.4253 0.0000 26.8919 0.0000
# 6 0.0000 0.0000 0.0000 -1.7874 0.0000 17.4492
#
#
#
# Elastic Compliance Matrix: (Units=1/GPa)
#
#
# Indices 1 2 3 4 5 6 
#
# 1 0.012312 -0.003176 -0.005657 0.000000 -0.000405 0.000000
# 2 -0.003176 0.024611 -0.007291 0.000000 0.001375 0.000000
# 3 -0.005657 -0.007291 0.015932 0.000000 0.001759 0.000000
# 4 0.000000 0.000000 0.000000 0.039033 0.000000 0.003998
# 5 -0.000405 0.001375 0.001759 0.000000 0.037679 0.000000
# 6 0.000000 0.000000 0.000000 0.003998 0.000000 0.057719
#
#
# Mechanical properties :
#
#
# Convention : Reuss Voigt Hill
#
# Bulk Modulus (GPa) = 48.52816 57.53385 53.03100
# Shear Modulus (GPa) = 22.08461 23.81241 22.94851
#
# Velocity S-wave (km/s) = 3.60450 3.74285 3.67433
# Velocity P-wave (km/s) = 6.77293 7.24747 7.01421
#
# Compressibility (1/GPa) = 0.02060659
#
# Stress axis : x y z
#
# Youngs Moduli (GPa) = 81.22438 40.63280 62.76577
#
# Poissons Ratio (x) = 0.12905 0.35505
# Poissons Ratio (y) = 0.25797 0.45763
# Poissons Ratio (z) = 0.45947 0.29626
#
# Static dielectric constant tensor:
#      x y z
#    x 3.369200 0.000000 0.243320 
#    y 0.000000 2.963360 0.000000 
#    z 0.243320 0.000000 3.250530 
# 
# 
# High freq. dielectric constant tensor:
#      x y z
#    x 1.645360 0.000000 0.007410 
#    y 0.000000 1.636590 0.000000 
#    z 0.007410 0.000000 1.651260 
# 
# From -- ./inp_files/77568.got.cif
#   From: 2010.06.25/outbox.cif.g09.slc.cpg/sg10_39_cif.got.tgz:77568.got - 2010.06.27 22:07:45.
