data_PCOD8057855
_publ_section_title
;
Structure prediction by ZEFSAII (Michael W. Deem and Ramdas Pophale) SiO2 
 PCOD8057855
Probable space group: P 2/M
;
_chemical_formula_sum "Si O2"
_cell_formula_units_Z 32
_cell_length_a 15.608994
_cell_length_b 18.914118
_cell_length_c 20.953739
_cell_angle_alpha 90.000000
_cell_angle_beta 17.382465
_cell_angle_gamma 90.000000
_cell_volume 1848.113413
_symmetry_space_group_name_H-M "P 2/M"
_symmetry_group_IT_number 10
_symmetry_cell_setting 'monoclinic'
loop_
_space_group_symop_operation_xyz
x,y,z
-x,y,-z
-x,-y,-z
x,-y,z
loop_
_atom_site_type_symbol
_atom_site_label
_atom_site_fract_x
_atom_site_fract_y
_atom_site_fract_z
Si Si1 0.979775 0.817277 0.150171
Si Si2 0.162754 0.668365 0.051924
Si Si3 0.963229 0.420922 0.669383
Si Si4 0.834965 0.579385 0.182932
Si Si5 0.267171 0.078803 0.857003
Si Si6 0.471523 0.580016 0.124728
Si Si7 0.683554 0.333078 0.496137
Si Si8 0.448287 0.817947 0.434403
O O1 0.182207 0.747430 0.008967
O O2 0.729276 0.805688 0.277186
O O3 0.831170 0.835095 0.323761
O O4 0.180913 0.881748 0.984083
O O5 0.042843 0.613919 0.086220
O O6 0.957120 0.674745 0.257883
O O7 0.463960 0.635668 0.863871
O O8 0.086544 0.500000 0.575125
O O9 0.822823 0.397043 0.701830
O O10 0.230865 0.370728 0.498010
O O11 0.726612 0.419331 0.892557
O O12 0.757981 0.500000 0.259661
O O13 0.543392 0.622822 0.383575
O O14 0.000000 0.579361 0.000000
O O15 0.519714 0.119351 0.639668
O O16 0.373963 0.000000 0.798795
O O17 0.000000 0.074439 0.000000
O O18 0.440540 0.500000 0.174045
O O19 0.576015 0.254463 0.588583
#
# Coordination Sequence:
#
# PCOD8057855 Si02
#       8
#     4   4   4   4   4   4   4   4
#     4   9  17  28  43  66  92 119 152 187 226 273
#     4  10  18  29  46  65  87 119 154 190 233 277
#     4   8  14  25  42  64  88 115 151 196 239 274
#     4  11  23  31  39  61  89 120 157 194 230 272
#     4   9  18  30  46  66  89 124 153 175 220 274
#     4   8  14  25  42  64  88 115 151 196 239 274
#     4  10  18  29  46  65  87 119 154 190 233 277
#     4   9  17  28  43  66  92 119 152 187 226 273
#
# _framework density 17.314955000000001
#
# number of rings (size 3 to 8) (size 9 to 14) (size 15 to 20)
#    0.000    2.750    1.250    1.875    1.750    2.500 
#    0.000    2.500    0.000    0.750    0.000    3.500 
#    0.000    2.000    0.000    9.750    0.000    0.250 
#
# Total GULP energy -396597.775721 kJ/mol
# GULP energy per Si atom -12393.680491 kJ/mol
# Density = 1.727555 g / cm^3
# Si number density = 17.314955 Si / 1000 Ang^3
#
#
#
# Elastic Constant Matrix: (Units=GPa)
#
#
# Indices 1 2 3 4 5 6 
#
# 1 74.6840 60.5595 28.7470 0.0000 -15.5944 0.0000
# 2 60.5595 159.8151 39.2060 0.0000 -1.1080 0.0000
# 3 28.7470 39.2060 27.8656 0.0000 1.0807 0.0000
# 4 0.0000 0.0000 0.0000 19.9853 0.0000 2.0003
# 5 -15.5944 -1.1080 1.0807 0.0000 19.5864 0.0000
# 6 0.0000 0.0000 0.0000 2.0003 0.0000 19.5344
#
#
#
# Elastic Compliance Matrix: (Units=1/GPa)
#
#
# Indices 1 2 3 4 5 6 
#
# 1 0.036125 -0.006188 -0.029726 0.000000 0.030052 0.000000
# 2 -0.006188 0.010648 -0.008448 0.000000 -0.003858 0.000000
# 3 -0.029726 -0.008448 0.079545 0.000000 -0.028535 0.000000
# 4 0.000000 0.000000 0.000000 0.050555 0.000000 -0.005177
# 5 0.030052 -0.003858 -0.028535 0.000000 0.076339 0.000000
# 6 0.000000 0.000000 0.000000 -0.005177 0.000000 0.051722
#
#
# Mechanical properties :
#
#
# Convention : Reuss Voigt Hill
#
# Bulk Modulus (GPa) = 26.60022 57.70998 42.15510
# Shear Modulus (GPa) = 12.30954 20.74470 16.52712
#
# Velocity S-wave (km/s) = 2.66920 3.46508 3.09285
# Velocity P-wave (km/s) = 4.98953 7.02930 6.09534
#
# Compressibility (1/GPa) = 0.03759368
#
# Stress axis : x y z
#
# Youngs Moduli (GPa) = 27.68193 93.91677 12.57143
#
# Poissons Ratio (x) = 0.58116 0.37370
# Poissons Ratio (y) = 0.17130 0.10620
# Poissons Ratio (z) = 0.82288 0.79338
#
# Static dielectric constant tensor:
#      x y z
#    x 3.293840 0.000000 -0.066530 
#    y 0.000000 3.478830 0.000000 
#    z -0.066530 0.000000 3.094600 
# 
# 
# High freq. dielectric constant tensor:
#      x y z
#    x 1.650810 0.000000 0.016900 
#    y 0.000000 1.656380 0.000000 
#    z 0.016900 0.000000 1.645830 
# 
# From -- ./inp_files/70879.got.cif
#   From: 2010.06.25/outbox.cif.g09.slc.cpg/sg10_36_cif.got.tgz:70879.got - 2010.06.27 22:07:45.
