data_PCOD8057996
_publ_section_title
;
Structure prediction by ZEFSAII (Michael W. Deem and Ramdas Pophale) SiO2 
 PCOD8057996
Probable space group: P 2/M
;
_chemical_formula_sum "Si O2"
_cell_formula_units_Z 32
_cell_length_a 21.226149
_cell_length_b 9.344385
_cell_length_c 19.945509
_cell_angle_alpha 90.000000
_cell_angle_beta 151.792516
_cell_angle_gamma 90.000000
_cell_volume 1869.912594
_symmetry_space_group_name_H-M "P 2/M"
_symmetry_group_IT_number 10
_symmetry_cell_setting 'monoclinic'
loop_
_space_group_symop_operation_xyz
x,y,z
-x,y,-z
-x,-y,-z
x,-y,z
loop_
_atom_site_type_symbol
_atom_site_label
_atom_site_fract_x
_atom_site_fract_y
_atom_site_fract_z
Si Si1 0.455793 0.838717 0.265267
Si Si2 0.140419 0.157824 0.953909
Si Si3 0.866353 0.166370 0.341273
Si Si4 0.531495 0.664661 0.849433
Si Si5 0.888651 0.667651 0.946980
Si Si6 0.792750 0.166294 0.124885
Si Si7 0.416599 0.333617 0.355758
Si Si8 0.381680 0.663030 0.842626
O O1 0.520524 0.750428 0.264648
O O2 0.487149 0.758547 0.364101
O O3 0.514245 0.000000 0.322374
O O4 0.298973 0.840930 0.107469
O O5 0.110719 0.201642 0.848532
O O6 0.083792 0.000000 0.916950
O O7 0.078131 0.266138 0.949061
O O8 0.873520 0.197231 0.268452
O O9 0.746895 0.243947 0.265774
O O10 0.000000 0.226579 0.500000
O O11 0.848003 0.000000 0.338949
O O12 0.561237 0.500000 0.857717
O O13 0.416963 0.674890 0.797493
O O14 0.664316 0.732997 0.004943
O O15 0.904431 0.500000 0.970574
O O16 0.739838 0.708706 0.781874
O O17 0.000000 0.726922 0.000000
O O18 0.746476 0.000000 0.076862
O O19 0.500000 0.297381 0.500000
O O20 0.427415 0.500000 0.346693
O O21 0.352037 0.500000 0.835892
O O22 0.500000 0.724216 0.000000
#
# Coordination Sequence:
#
# PCOD8057996 Si02
#       8
#     4   4   4   4   4   4   4   4
#     4   9  17  29  46  71 100 126 158 200 243 284
#     4   8  15  27  44  67  92 120 153 193 234 277
#     4  10  21  35  52  74 100 135 171 203 245 301
#     4  10  18  29  49  74 100 126 160 206 251 293
#     4   9  17  29  46  69  94 118 149 192 233 272
#     4   9  17  30  48  71  98 126 161 203 245 287
#     4   9  17  30  49  71  95 128 162 192 233 285
#     4  10  20  34  51  76 103 128 164 210 254 297
#
# _framework density 17.113098999999998
#
# number of rings (size 3 to 8) (size 9 to 14) (size 15 to 20)
#    0.000    2.750    1.250    1.500    0.000    5.000 
#    0.000    0.000    2.750    0.000    0.000    0.000 
#    0.000    0.000    0.000    0.000    0.000    0.000 
#
# Total GULP energy -396704.052294 kJ/mol
# GULP energy per Si atom -12397.001634 kJ/mol
# Density = 1.707415 g / cm^3
# Si number density = 17.113099 Si / 1000 Ang^3
#
#
#
# Elastic Constant Matrix: (Units=GPa)
#
#
# Indices 1 2 3 4 5 6 
#
# 1 131.5129 58.3145 55.4249 0.0000 -15.2504 0.0000
# 2 58.3145 77.3415 41.6434 0.0000 -8.6515 0.0000
# 3 55.4249 41.6434 83.5240 0.0000 -10.6604 0.0000
# 4 0.0000 0.0000 0.0000 17.5698 0.0000 -3.1153
# 5 -15.2504 -8.6515 -10.6604 0.0000 25.5568 0.0000
# 6 0.0000 0.0000 0.0000 -3.1153 0.0000 32.5539
#
#
#
# Elastic Compliance Matrix: (Units=1/GPa)
#
#
# Indices 1 2 3 4 5 6 
#
# 1 0.013088 -0.006892 -0.004805 0.000000 0.003472 0.000000
# 2 -0.006892 0.021449 -0.006040 0.000000 0.000629 0.000000
# 3 -0.004805 -0.006040 0.018533 0.000000 0.002818 0.000000
# 4 0.000000 0.000000 0.000000 0.057898 0.000000 0.005541
# 5 0.003472 0.000629 0.002818 0.000000 0.042589 0.000000
# 6 0.000000 0.000000 0.000000 0.005541 0.000000 0.031249
#
#
# Mechanical properties :
#
#
# Convention : Reuss Voigt Hill
#
# Bulk Modulus (GPa) = 56.83848 67.01599 61.92724
# Shear Modulus (GPa) = 22.10975 24.26915 23.18945
#
# Velocity S-wave (km/s) = 3.59831 3.76993 3.68512
# Velocity P-wave (km/s) = 7.10980 7.62860 7.37377
#
# Compressibility (1/GPa) = 0.01759371
#
# Stress axis : x y z
#
# Youngs Moduli (GPa) = 76.40782 46.62242 53.95922
#
# Poissons Ratio (x) = 0.32133 0.25929
# Poissons Ratio (y) = 0.52662 0.32593
# Poissons Ratio (z) = 0.36716 0.28161
#
# Static dielectric constant tensor:
#      x y z
#    x 3.426210 0.000000 -0.252950 
#    y 0.000000 3.295040 0.000000 
#    z -0.252950 0.000000 2.961760 
# 
# 
# High freq. dielectric constant tensor:
#      x y z
#    x 1.669010 0.000000 -0.021220 
#    y 0.000000 1.664160 0.000000 
#    z -0.021220 0.000000 1.617610 
# 
# From -- ./inp_files/86148.got.cif
#   From: 2010.06.25/outbox.cif.g09.slc.cpg/sg10_44_cif.got.tgz:86148.got - 2010.06.27 22:07:45.
