data_PCOD8057397
_publ_section_title
;
Structure prediction by ZEFSAII (Michael W. Deem and Ramdas Pophale) SiO2 
 PCOD8057397
Probable space group: P 2/M
;
_chemical_formula_sum "Si O2"
_cell_formula_units_Z 22
_cell_length_a 14.192964
_cell_length_b 13.209082
_cell_length_c 7.745315
_cell_angle_alpha 90.000000
_cell_angle_beta 130.959214
_cell_angle_gamma 90.000000
_cell_volume 1096.562108
_symmetry_space_group_name_H-M "P 2/M"
_symmetry_group_IT_number 10
_symmetry_cell_setting 'monoclinic'
loop_
_space_group_symop_operation_xyz
x,y,z
-x,y,-z
-x,-y,-z
x,-y,z
loop_
_atom_site_type_symbol
_atom_site_label
_atom_site_fract_x
_atom_site_fract_y
_atom_site_fract_z
Si Si1 0.120840 0.388142 0.252405
Si Si2 0.721012 0.386143 0.883679
Si Si3 0.130013 0.189757 0.444053
Si Si4 0.156548 0.193271 0.859757
Si Si5 0.302430 0.114102 0.355218
Si Si6 0.500000 0.265640 0.500000
O O1 0.096807 0.500000 0.301759
O O2 0.240077 0.389227 0.270341
O O3 0.148140 0.310263 0.438570
O O4 0.000000 0.351389 0.000000
O O5 0.720687 0.500000 0.962204
O O6 0.582962 0.336910 0.724668
O O7 0.819299 0.314777 0.102236
O O8 0.184724 0.159503 0.696771
O O9 0.198617 0.127344 0.377762
O O10 0.983941 0.164625 0.259447
O O11 0.246001 0.134039 0.097569
O O12 0.415331 0.192857 0.519863
O O13 0.353570 0.000000 0.424163
#
# Coordination Sequence:
#
# PCOD8057397 Si02
#       6
#     4   4   4   4   4   2
#     4  10  17  30  56  85 116 153 189 221 273 339
#     4  10  19  34  57  85 117 153 188 228 273 329
#     4  11  20  37  58  87 120 153 180 227 286 337
#     4  10  22  35  59  89 119 147 187 225 279 353
#     4  11  23  41  61  81 110 148 192 244 292 332
#     4  10  20  38  62  84 106 148 200 238 280 334
#
# _framework density 20.062702999999999
#
# number of rings (size 3 to 8) (size 9 to 14) (size 15 to 20)
#    0.000    1.636    5.455    1.091    0.000    2.909 
#    0.000    7.273    0.000    6.545    0.000    0.000 
#    0.000    0.000    0.000    0.000    0.000    0.000 
#
# Total GULP energy -272731.116979 kJ/mol
# GULP energy per Si atom -12396.868954 kJ/mol
# Density = 2.001704 g / cm^3
# Si number density = 20.062703 Si / 1000 Ang^3
#
#
#
# Elastic Constant Matrix: (Units=GPa)
#
#
# Indices 1 2 3 4 5 6 
#
# 1 74.5686 25.4229 45.6101 0.0000 3.9819 0.0000
# 2 25.4229 96.7051 13.5189 0.0000 4.2104 0.0000
# 3 45.6101 13.5189 63.6912 0.0000 -0.9827 0.0000
# 4 0.0000 0.0000 0.0000 16.2188 0.0000 6.1298
# 5 3.9819 4.2104 -0.9827 0.0000 29.5314 0.0000
# 6 0.0000 0.0000 0.0000 6.1298 0.0000 16.2993
#
#
#
# Elastic Compliance Matrix: (Units=1/GPa)
#
#
# Indices 1 2 3 4 5 6 
#
# 1 0.025816 -0.004167 -0.017657 0.000000 -0.003474 0.000000
# 2 -0.004167 0.011405 0.000547 0.000000 -0.001046 0.000000
# 3 -0.017657 0.000547 0.028279 0.000000 0.003244 0.000000
# 4 0.000000 0.000000 0.000000 0.071872 0.000000 -0.027029
# 5 -0.003474 -0.001046 0.003244 0.000000 0.034588 0.000000
# 6 0.000000 0.000000 0.000000 -0.027029 0.000000 0.071518
#
#
# Mechanical properties :
#
#
# Convention : Reuss Voigt Hill
#
# Bulk Modulus (GPa) = 43.57818 44.89653 44.23735
# Shear Modulus (GPa) = 17.02530 22.43743 19.73137
#
# Velocity S-wave (km/s) = 2.91624 3.34782 3.13946
# Velocity P-wave (km/s) = 5.75391 6.11315 5.93625
#
# Compressibility (1/GPa) = 0.02294727
#
# Stress axis : x y z
#
# Youngs Moduli (GPa) = 38.73493 87.67853 35.36226
#
# Poissons Ratio (x) = 0.36539 0.62438
# Poissons Ratio (y) = 0.16142 -0.01935
# Poissons Ratio (z) = 0.68393 -0.04799
#
# Static dielectric constant tensor:
#      x y z
#    x 3.646420 0.000000 0.142950 
#    y 0.000000 3.785770 0.000000 
#    z 0.142950 0.000000 3.365520 
# 
# 
# High freq. dielectric constant tensor:
#      x y z
#    x 1.774280 0.000000 0.014360 
#    y 0.000000 1.788740 0.000000 
#    z 0.014360 0.000000 1.750230 
# 
# From -- ./inp_files/28892.got.cif
#   From: 2010.06.25/outbox.cif.g09.slc.cpg/sg10_15_cif.got.tgz:28892.got - 2010.06.27 22:07:45.
