data_PCOD8057337
_publ_section_title
;
Structure prediction by ZEFSAII (Michael W. Deem and Ramdas Pophale) SiO2 
 PCOD8057337
Probable space group: P 2/M
;
_chemical_formula_sum "Si O2"
_cell_formula_units_Z 32
_cell_length_a 15.520234
_cell_length_b 10.109132
_cell_length_c 15.520234
_cell_angle_alpha 90.000000
_cell_angle_beta 134.934967
_cell_angle_gamma 90.000000
_cell_volume 1723.803594
_symmetry_space_group_name_H-M "P 2/M"
_symmetry_group_IT_number 10
_symmetry_cell_setting 'monoclinic'
loop_
_space_group_symop_operation_xyz
x,y,z
-x,y,-z
-x,-y,-z
x,-y,z
loop_
_atom_site_type_symbol
_atom_site_label
_atom_site_fract_x
_atom_site_fract_y
_atom_site_fract_z
Si Si1 0.428959 0.849442 0.538600
Si Si2 0.190699 0.347938 0.790492
Si Si3 0.290492 0.652062 0.690699
Si Si4 0.154234 0.148159 0.345766
Si Si5 0.052578 0.243555 0.447422
Si Si6 0.230137 0.652266 0.006359
Si Si7 0.038601 0.849442 0.928959
Si Si8 0.506358 0.652266 0.730136
O O1 0.500000 0.850656 0.500000
O O2 0.290546 0.789551 0.436744
O O3 0.509777 0.749269 0.651670
O O4 0.426252 0.000000 0.574454
O O5 0.225842 0.500000 0.821083
O O6 0.272683 0.280794 0.772683
O O7 0.220182 0.284996 0.903405
O O8 0.049453 0.335797 0.666428
O O9 0.321082 0.500000 0.725843
O O10 0.166427 0.664202 0.549453
O O11 0.403404 0.715004 0.720182
O O12 0.097355 0.146184 0.402646
O O13 0.063255 0.210449 0.209454
O O14 0.172648 0.000000 0.327351
O O15 0.000000 0.175566 0.500000
O O16 0.182259 0.500000 0.977661
O O17 0.151670 0.749269 0.009778
O O18 0.368147 0.659755 0.131853
O O19 0.074454 0.000000 0.926253
O O20 0.000000 0.850657 0.000000
O O21 0.477660 0.500000 0.682259
#
# Coordination Sequence:
#
# PCOD8057337 Si02
#       8
#     4   4   4   4   4   4   4   4
#     4  10  22  39  60  81 106 143 185 228 274 326
#     4   9  17  30  50  77 108 142 180 220 265 321
#     4   9  17  30  50  77 108 142 180 220 265 321
#     4  10  20  36  55  82 110 137 184 231 269 329
#     4  10  17  29  52  79 107 142 178 221 274 330
#     4  10  21  36  55  81 112 143 181 227 272 321
#     4  10  22  39  60  81 106 143 185 228 274 326
#     4  10  21  36  55  81 112 143 181 227 272 321
#
# _framework density 18.563600000000001
#
# number of rings (size 3 to 8) (size 9 to 14) (size 15 to 20)
#    0.000    2.250    2.500    0.375    1.750    3.250 
#    0.000    3.125    0.000    0.750    0.000    1.750 
#    0.000    0.000    0.000    0.000    0.000    0.000 
#
# Total GULP energy -396435.320032 kJ/mol
# GULP energy per Si atom -12388.603751 kJ/mol
# Density = 1.852135 g / cm^3
# Si number density = 18.563600 Si / 1000 Ang^3
#
#
#
# Elastic Constant Matrix: (Units=GPa)
#
#
# Indices 1 2 3 4 5 6 
#
# 1 109.9152 35.1399 46.7782 0.0000 -2.8092 0.0000
# 2 35.1399 57.1556 32.3082 0.0000 -1.1879 0.0000
# 3 46.7782 32.3082 95.1513 0.0000 -3.3846 0.0000
# 4 0.0000 0.0000 0.0000 23.2929 0.0000 0.5653
# 5 -2.8092 -1.1879 -3.3846 0.0000 27.9790 0.0000
# 6 0.0000 0.0000 0.0000 0.5653 0.0000 21.9455
#
#
#
# Elastic Compliance Matrix: (Units=1/GPa)
#
#
# Indices 1 2 3 4 5 6 
#
# 1 0.012683 -0.005288 -0.004422 0.000000 0.000514 0.000000
# 2 -0.005288 0.023856 -0.005507 0.000000 -0.000184 0.000000
# 3 -0.004422 -0.005507 0.014592 0.000000 0.001087 0.000000
# 4 0.000000 0.000000 0.000000 0.042958 0.000000 -0.001107
# 5 0.000514 -0.000184 0.001087 0.000000 0.035916 0.000000
# 6 0.000000 0.000000 0.000000 -0.001107 0.000000 0.045596
#
#
# Mechanical properties :
#
#
# Convention : Reuss Voigt Hill
#
# Bulk Modulus (GPa) = 48.31326 54.51942 51.41634
# Shear Modulus (GPa) = 23.48131 24.50986 23.99559
#
# Velocity S-wave (km/s) = 3.56042 3.63756 3.59920
# Velocity P-wave (km/s) = 6.55625 6.86114 6.71043
#
# Compressibility (1/GPa) = 0.02069825
#
# Stress axis : x y z
#
# Youngs Moduli (GPa) = 78.84349 41.91762 68.53069
#
# Poissons Ratio (x) = 0.22165 0.30302
# Poissons Ratio (y) = 0.41691 0.37742
# Poissons Ratio (z) = 0.34862 0.23085
#
# Static dielectric constant tensor:
#      x y z
#    x 3.686800 0.000000 -0.088540 
#    y 0.000000 3.164340 0.000000 
#    z -0.088540 0.000000 3.475770 
# 
# 
# High freq. dielectric constant tensor:
#      x y z
#    x 1.731380 0.000000 -0.003140 
#    y 0.000000 1.682640 0.000000 
#    z -0.003140 0.000000 1.723900 
# 
# From -- ./inp_files/67357.got.cif
#   From: 2010.06.25/outbox.cif.g09.slc.cpg/sg10_34_cif.got.tgz:67357.got - 2010.06.27 22:07:45.
