data_PCOD8057904
_publ_section_title
;
Structure prediction by ZEFSAII (Michael W. Deem and Ramdas Pophale) SiO2 
 PCOD8057904
Probable space group: P 2/M
;
_chemical_formula_sum "Si O2"
_cell_formula_units_Z 28
_cell_length_a 13.807972
_cell_length_b 9.000073
_cell_length_c 18.110456
_cell_angle_alpha 90.000000
_cell_angle_beta 131.283437
_cell_angle_gamma 90.000000
_cell_volume 1691.251648
_symmetry_space_group_name_H-M "P 2/M"
_symmetry_group_IT_number 10
_symmetry_cell_setting 'monoclinic'
loop_
_space_group_symop_operation_xyz
x,y,z
-x,y,-z
-x,-y,-z
x,-y,z
loop_
_atom_site_type_symbol
_atom_site_label
_atom_site_fract_x
_atom_site_fract_y
_atom_site_fract_z
Si Si1 0.133636 0.832632 0.610078
Si Si2 0.749771 0.826073 0.784941
Si Si3 0.134562 0.332429 0.025834
Si Si4 0.010339 0.325155 0.677297
Si Si5 0.487567 0.671925 0.408185
Si Si6 0.753065 0.672303 0.462969
Si Si7 0.011264 0.174818 0.834313
O O1 0.120342 0.735794 0.677537
O O2 0.241728 0.762558 0.611078
O O3 0.000000 0.828984 0.500000
O O4 0.174079 0.000000 0.651266
O O5 0.759196 0.744240 0.868585
O O6 0.621054 0.775538 0.680112
O O7 0.869747 0.783763 0.793115
O O8 0.745740 0.000000 0.798651
O O9 0.178802 0.500000 0.030176
O O10 0.120841 0.240930 0.943214
O O11 0.000000 0.330222 0.000000
O O12 0.027784 0.500000 0.695418
O O13 0.030345 0.247280 0.764951
O O14 0.868954 0.282827 0.575989
O O15 0.500000 0.710155 0.500000
O O16 0.450239 0.500000 0.377433
O O17 0.621320 0.713106 0.436928
O O18 0.763392 0.500000 0.447776
O O19 0.031649 0.000000 0.838849
#
# Coordination Sequence:
#
# PCOD8057904 Si02
#       7
#     4   4   4   4   4   4   4
#     4   9  17  29  45  65  90 119 151 189 234 280
#     4  10  20  32  46  66  94 126 157 191 231 274
#     4   9  17  30  48  67  88 118 155 191 229 275
#     4  10  18  29  47  69  93 121 154 191 232 277
#     4  10  20  33  48  67  93 126 163 197 226 263
#     4   9  18  31  46  65  91 124 160 195 228 267
#     4  10  19  30  45  68  97 123 150 189 235 278
#
# _framework density 16.555785
#
# number of rings (size 3 to 8) (size 9 to 14) (size 15 to 20)
#    0.000    2.429    0.000    3.000    0.000    7.714 
#    0.000    0.000    0.000    0.000    0.000    1.000 
#    0.000    8.000    0.000    0.000    0.000    0.000 
#
# Total GULP energy -347249.695035 kJ/mol
# GULP energy per Si atom -12401.774823 kJ/mol
# Density = 1.651810 g / cm^3
# Si number density = 16.555785 Si / 1000 Ang^3
#
#
#
# Elastic Constant Matrix: (Units=GPa)
#
#
# Indices 1 2 3 4 5 6 
#
# 1 99.1368 49.6878 48.3021 0.0000 -20.9720 0.0000
# 2 49.6878 92.2436 48.0445 0.0000 -18.7109 0.0000
# 3 48.3021 48.0445 90.1966 0.0000 -21.5819 0.0000
# 4 0.0000 0.0000 0.0000 30.5838 0.0000 -4.6963
# 5 -20.9720 -18.7109 -21.5819 0.0000 24.6934 0.0000
# 6 0.0000 0.0000 0.0000 -4.6963 0.0000 25.9683
#
#
#
# Elastic Compliance Matrix: (Units=1/GPa)
#
#
# Indices 1 2 3 4 5 6 
#
# 1 0.016083 -0.005148 -0.004471 0.000000 0.005851 0.000000
# 2 -0.005148 0.017276 -0.005512 0.000000 0.003901 0.000000
# 3 -0.004471 -0.005512 0.018346 0.000000 0.008061 0.000000
# 4 0.000000 0.000000 0.000000 0.033631 0.000000 0.006082
# 5 0.005851 0.003901 0.008061 0.000000 0.055467 0.000000
# 6 0.000000 0.000000 0.000000 0.006082 0.000000 0.039608
#
#
# Mechanical properties :
#
#
# Convention : Reuss Voigt Hill
#
# Bulk Modulus (GPa) = 46.63387 63.73844 55.18615
# Shear Modulus (GPa) = 22.95463 25.28528 24.11995
#
# Velocity S-wave (km/s) = 3.72762 3.91228 3.82106
# Velocity P-wave (km/s) = 6.83781 7.68054 7.27140
#
# Compressibility (1/GPa) = 0.02144364
#
# Stress axis : x y z
#
# Youngs Moduli (GPa) = 62.17616 57.88346 54.50813
#
# Poissons Ratio (x) = 0.29798 0.24369
# Poissons Ratio (y) = 0.32008 0.30046
# Poissons Ratio (z) = 0.27797 0.31906
#
# Static dielectric constant tensor:
#      x y z
#    x 3.024910 0.000000 -0.172230 
#    y 0.000000 3.243920 0.000000 
#    z -0.172230 0.000000 2.992610 
# 
# 
# High freq. dielectric constant tensor:
#      x y z
#    x 1.617030 0.000000 -0.022410 
#    y 0.000000 1.651880 0.000000 
#    z -0.022410 0.000000 1.618980 
# 
# From -- ./inp_files/49354.got.cif
#   From: 2010.06.25/outbox.cif.g09.slc.cpg/sg10_25_cif.got.tgz:49354.got - 2010.06.27 22:07:45.
