data_PCOD8057445
_publ_section_title
;
Structure prediction by ZEFSAII (Michael W. Deem and Ramdas Pophale) SiO2 
 PCOD8057445
Probable space group: P 2/M
;
_chemical_formula_sum "Si O2"
_cell_formula_units_Z 20
_cell_length_a 7.431410
_cell_length_b 13.027755
_cell_length_c 12.131332
_cell_angle_alpha 90.000000
_cell_angle_beta 123.378525
_cell_angle_gamma 90.000000
_cell_volume 980.762658
_symmetry_space_group_name_H-M "P 2/M"
_symmetry_group_IT_number 10
_symmetry_cell_setting 'monoclinic'
loop_
_space_group_symop_operation_xyz
x,y,z
-x,y,-z
-x,-y,-z
x,-y,z
loop_
_atom_site_type_symbol
_atom_site_label
_atom_site_fract_x
_atom_site_fract_y
_atom_site_fract_z
Si Si1 0.680761 0.765598 0.140310
Si Si2 0.026013 0.386980 0.193785
Si Si3 0.186060 0.681426 0.469991
Si Si4 0.027010 0.888656 0.380442
Si Si5 0.475391 0.618310 0.249920
O O1 0.800819 0.855567 0.247012
O O2 0.569519 0.686985 0.185670
O O3 0.845275 0.700016 0.119810
O O4 0.500000 0.815165 0.000000
O O5 0.931393 0.500000 0.133676
O O6 0.116594 0.394089 0.349195
O O7 0.220780 0.361638 0.175640
O O8 0.413864 0.648375 0.596346
O O9 0.000000 0.679950 0.500000
O O10 0.200412 0.797176 0.421826
O O11 0.000000 0.904751 0.500000
O O12 0.098557 0.000000 0.354234
O O13 0.526092 0.500000 0.240024
#
# Coordination Sequence:
#
# PCOD8057445 Si02
#       5
#     4   4   4   4   4
#     4  11  23  38  56  82 114 149 186 230 278 324
#     4  10  21  34  53  81 114 152 189 226 270 326
#     4  10  17  32  55  86 110 143 181 231 279 326
#     4   9  17  35  62  86 106 138 185 231 282 337
#     4  11  21  34  54  81 116 154 188 223 271 325
#
# _framework density 20.392292999999999
#
# number of rings (size 3 to 8) (size 9 to 14) (size 15 to 20)
#    0.000    1.800    6.000    1.800    0.000    5.200 
#    0.000    2.000    0.000   14.400    0.000    7.000 
#    0.000    0.000    0.000    0.000    0.000    0.000 
#
# Total GULP energy -247864.395750 kJ/mol
# GULP energy per Si atom -12393.219787 kJ/mol
# Density = 2.034588 g / cm^3
# Si number density = 20.392293 Si / 1000 Ang^3
#
#
#
# Elastic Constant Matrix: (Units=GPa)
#
#
# Indices 1 2 3 4 5 6 
#
# 1 53.9012 19.0159 -5.8264 0.0000 5.1758 0.0000
# 2 19.0159 95.8881 5.5923 0.0000 -0.1459 0.0000
# 3 -5.8264 5.5923 70.7757 0.0000 18.9925 0.0000
# 4 0.0000 0.0000 0.0000 14.3591 0.0000 8.1069
# 5 5.1758 -0.1459 18.9925 0.0000 24.5466 0.0000
# 6 0.0000 0.0000 0.0000 8.1069 0.0000 9.5038
#
#
#
# Elastic Compliance Matrix: (Units=1/GPa)
#
#
# Indices 1 2 3 4 5 6 
#
# 1 0.021336 -0.004488 0.004197 0.000000 -0.007773 0.000000
# 2 -0.004488 0.011436 -0.001950 0.000000 0.002523 0.000000
# 3 0.004197 -0.001950 0.018766 0.000000 -0.015416 0.000000
# 4 0.000000 0.000000 0.000000 0.134340 0.000000 -0.114595
# 5 -0.007773 0.002523 -0.015416 0.000000 0.054321 0.000000
# 6 0.000000 0.000000 0.000000 -0.114595 0.000000 0.202972
#
#
# Mechanical properties :
#
#
# Convention : Reuss Voigt Hill
#
# Bulk Modulus (GPa) = 21.25153 28.68094 24.96624
# Shear Modulus (GPa) = 10.79126 23.13413 16.96269
#
# Velocity S-wave (km/s) = 2.30289 3.37182 2.88726
# Velocity P-wave (km/s) = 4.18510 5.40870 4.83576
#
# Compressibility (1/GPa) = 0.04705542
#
# Stress axis : x y z
#
# Youngs Moduli (GPa) = 46.86974 87.44024 53.28904
#
# Poissons Ratio (x) = 0.39241 -0.22364
# Poissons Ratio (y) = 0.21034 0.10392
# Poissons Ratio (z) = -0.19670 0.17052
#
# Static dielectric constant tensor:
#      x y z
#    x 3.537400 0.000000 0.183030 
#    y 0.000000 3.989570 0.000000 
#    z 0.183030 0.000000 3.775000 
# 
# 
# High freq. dielectric constant tensor:
#      x y z
#    x 1.774370 0.000000 0.007730 
#    y 0.000000 1.784570 0.000000 
#    z 0.007730 0.000000 1.797510 
# 
# From -- ./inp_files/42322.got.cif
#   From: 2010.06.25/outbox.cif.g09.slc.cpg/sg10_22_cif.got.tgz:42322.got - 2010.06.27 22:07:45.
