data_PCOD8057311
_publ_section_title
;
Structure prediction by ZEFSAII (Michael W. Deem and Ramdas Pophale) SiO2 
 PCOD8057311
Probable space group: P 2/M
;
_chemical_formula_sum "Si O2"
_cell_formula_units_Z 32
_cell_length_a 11.788696
_cell_length_b 9.035684
_cell_length_c 21.473607
_cell_angle_alpha 90.000000
_cell_angle_beta 127.043171
_cell_angle_gamma 90.000000
_cell_volume 1825.717761
_symmetry_space_group_name_H-M "P 2/M"
_symmetry_group_IT_number 10
_symmetry_cell_setting 'monoclinic'
loop_
_space_group_symop_operation_xyz
x,y,z
-x,y,-z
-x,-y,-z
x,-y,z
loop_
_atom_site_type_symbol
_atom_site_label
_atom_site_fract_x
_atom_site_fract_y
_atom_site_fract_z
Si Si1 0.937688 0.333597 0.662686
Si Si2 0.160971 0.827594 0.033820
Si Si3 0.258493 0.663338 0.815397
Si Si4 0.956142 0.825112 0.416746
Si Si5 0.347228 0.174336 0.730340
Si Si6 0.141664 0.824217 0.244880
Si Si7 0.135456 0.325237 0.899935
Si Si8 0.351835 0.824917 0.209941
O O1 0.878722 0.500000 0.635190
O O2 0.841201 0.246215 0.680851
O O3 0.095813 0.334132 0.740641
O O4 0.934823 0.251377 0.595186
O O5 0.260480 0.764698 0.121639
O O6 0.188242 0.000000 0.028592
O O7 0.199018 0.732062 0.985639
O O8 0.000000 0.798808 0.000000
O O9 0.323345 0.500000 0.827928
O O10 0.350107 0.773658 0.803328
O O11 0.256208 0.708774 0.887432
O O12 0.794552 0.769213 0.351574
O O13 0.000000 0.775105 0.500000
O O14 0.968802 0.000000 0.411608
O O15 0.486539 0.236482 0.740814
O O16 0.350121 0.000000 0.732456
O O17 0.282264 0.777875 0.252535
O O18 0.007943 0.763083 0.162583
O O19 0.124595 0.000000 0.245424
O O20 0.101327 0.500000 0.890471
O O21 0.350837 0.000000 0.204619
#
# Coordination Sequence:
#
# PCOD8057311 Si02
#       8
#     4   4   4   4   4   4   4   4
#     4   9  17  29  46  72 100 123 155 195 232 274
#     4  10  18  31  47  65  90 122 159 200 240 279
#     4   8  16  30  45  63  91 121 151 191 232 275
#     4   9  17  30  51  78 101 122 153 191 231 277
#     4   9  17  31  50  70  93 121 154 191 230 279
#     4  10  17  29  48  68  93 125 159 196 237 276
#     4  10  19  30  45  68  94 120 157 203 243 279
#     4   9  18  31  47  68  93 122 157 195 237 281
#
# _framework density 17.527353999999999
#
# number of rings (size 3 to 8) (size 9 to 14) (size 15 to 20)
#    0.000    2.750    1.250    1.875    0.000    4.000 
#    0.000    2.500    0.000    4.500    0.000    5.250 
#    0.000    0.000    0.000    0.000    0.000    0.000 
#
# Total GULP energy -396664.515804 kJ/mol
# GULP energy per Si atom -12395.766119 kJ/mol
# Density = 1.748746 g / cm^3
# Si number density = 17.527354 Si / 1000 Ang^3
#
#
#
# Elastic Constant Matrix: (Units=GPa)
#
#
# Indices 1 2 3 4 5 6 
#
# 1 140.4938 45.7517 63.1501 0.0000 -23.8387 0.0000
# 2 45.7517 58.6036 32.8493 0.0000 -13.5485 0.0000
# 3 63.1501 32.8493 85.1549 0.0000 -26.4672 0.0000
# 4 0.0000 0.0000 0.0000 15.9994 0.0000 -6.5887
# 5 -23.8387 -13.5485 -26.4672 0.0000 31.6061 0.0000
# 6 0.0000 0.0000 0.0000 -6.5887 0.0000 14.1793
#
#
#
# Elastic Compliance Matrix: (Units=1/GPa)
#
#
# Indices 1 2 3 4 5 6 
#
# 1 0.011991 -0.005484 -0.006349 0.000000 0.001377 0.000000
# 2 -0.005484 0.024508 -0.004606 0.000000 0.002512 0.000000
# 3 -0.006349 -0.004606 0.021801 0.000000 0.011493 0.000000
# 4 0.000000 0.000000 0.000000 0.077293 0.000000 0.035916
# 5 0.001377 0.002512 0.011493 0.000000 0.043379 0.000000
# 6 0.000000 0.000000 0.000000 0.035916 0.000000 0.087214
#
#
# Mechanical properties :
#
#
# Convention : Reuss Voigt Hill
#
# Bulk Modulus (GPa) = 39.33829 63.08383 51.21106
# Shear Modulus (GPa) = 16.25812 21.85703 19.05758
#
# Velocity S-wave (km/s) = 3.04893 3.53515 3.30101
# Velocity P-wave (km/s) = 5.90655 7.26174 6.61892
#
# Compressibility (1/GPa) = 0.02542053
#
# Stress axis : x y z
#
# Youngs Moduli (GPa) = 83.39545 40.80269 45.86999
#
# Poissons Ratio (x) = 0.22378 0.29123
# Poissons Ratio (y) = 0.45737 0.21130
# Poissons Ratio (z) = 0.52948 0.18795
#
# Static dielectric constant tensor:
#      x y z
#    x 3.553780 0.000000 -0.204510 
#    y 0.000000 3.185480 0.000000 
#    z -0.204510 0.000000 3.135010 
# 
# 
# High freq. dielectric constant tensor:
#      x y z
#    x 1.676850 0.000000 -0.026930 
#    y 0.000000 1.668000 0.000000 
#    z -0.026930 0.000000 1.644830 
# 
# From -- ./inp_files/52714.got.cif
#   From: 2010.06.25/outbox.cif.g09.slc.cpg/sg10_27_cif.got.tgz:52714.got - 2010.06.27 22:07:45.
