data_PCOD8057710
_publ_section_title
;
Structure prediction by ZEFSAII (Michael W. Deem and Ramdas Pophale) SiO2 
 PCOD8057710
Probable space group: P 2/M
;
_chemical_formula_sum "Si O2"
_cell_formula_units_Z 32
_cell_length_a 11.532559
_cell_length_b 9.354248
_cell_length_c 19.866124
_cell_angle_alpha 90.000000
_cell_angle_beta 120.397018
_cell_angle_gamma 90.000000
_cell_volume 1848.531918
_symmetry_space_group_name_H-M "P 2/M"
_symmetry_group_IT_number 10
_symmetry_cell_setting 'monoclinic'
loop_
_space_group_symop_operation_xyz
x,y,z
-x,y,-z
-x,-y,-z
x,-y,z
loop_
_atom_site_type_symbol
_atom_site_label
_atom_site_fract_x
_atom_site_fract_y
_atom_site_fract_z
Si Si1 0.390091 0.165440 0.775768
Si Si2 0.423821 0.665779 0.543616
Si Si3 0.851168 0.334438 0.599572
Si Si4 0.901752 0.657578 0.172320
Si Si5 0.149872 0.833116 0.263962
Si Si6 0.392965 0.331551 0.913157
Si Si7 0.438429 0.837555 0.300226
Si Si8 0.858491 0.657555 0.318412
O O1 0.425092 0.247960 0.854213
O O2 0.515338 0.187585 0.762766
O O3 0.256871 0.227863 0.699556
O O4 0.363343 0.000000 0.784337
O O5 0.500000 0.725757 0.500000
O O6 0.457703 0.500000 0.562347
O O7 0.264426 0.694587 0.489205
O O8 0.473463 0.742169 0.624739
O O9 0.847549 0.500000 0.622531
O O10 0.824064 0.236706 0.656127
O O11 0.995984 0.299782 0.607172
O O12 0.938673 0.500000 0.155282
O O13 0.755683 0.707063 0.101458
O O14 0.886459 0.652737 0.247591
O O15 0.020688 0.766297 0.187463
O O16 0.280383 0.801316 0.256858
O O17 0.122523 0.000000 0.265998
O O18 0.401785 0.500000 0.899575
O O19 0.500000 0.282842 0.000000
O O20 0.463926 0.000000 0.330172
O O21 0.812460 0.500000 0.330344
#
# Coordination Sequence:
#
# PCOD8057710 Si02
#       8
#     4   4   4   4   4   4   4   4
#     4  10  20  34  50  71 100 129 163 199 232 281
#     4  10  19  31  49  71  93 122 166 212 248 287
#     4   9  17  30  46  68  95 119 154 208 255 286
#     4   8  15  28  47  72  99 122 150 193 237 276
#     4  10  18  28  45  68  94 127 165 198 235 282
#     4   9  18  34  56  80 103 125 151 189 238 287
#     4  10  22  35  46  66  99 135 164 199 244 286
#     4   8  15  29  48  67  92 125 158 197 246 290
#
# _framework density 17.311036000000001
#
# number of rings (size 3 to 8) (size 9 to 14) (size 15 to 20)
#    0.000    2.750    1.250    2.250    0.000    7.000 
#    0.000    0.625    0.000    4.500    0.000    5.250 
#    0.000    0.000    0.000    0.000    0.000    0.000 
#
# Total GULP energy -396652.966627 kJ/mol
# GULP energy per Si atom -12395.405207 kJ/mol
# Density = 1.727163 g / cm^3
# Si number density = 17.311036 Si / 1000 Ang^3
#
#
#
# Elastic Constant Matrix: (Units=GPa)
#
#
# Indices 1 2 3 4 5 6 
#
# 1 104.0578 58.6005 51.5900 0.0000 20.7515 0.0000
# 2 58.6005 89.7726 46.2712 0.0000 9.4982 0.0000
# 3 51.5900 46.2712 85.7396 0.0000 24.8460 0.0000
# 4 0.0000 0.0000 0.0000 13.2463 0.0000 1.7064
# 5 20.7515 9.4982 24.8460 0.0000 27.9183 0.0000
# 6 0.0000 0.0000 0.0000 1.7064 0.0000 22.9171
#
#
#
# Elastic Compliance Matrix: (Units=1/GPa)
#
#
# Indices 1 2 3 4 5 6 
#
# 1 0.018001 -0.008951 -0.004051 0.000000 -0.006730 0.000000
# 2 -0.008951 0.020060 -0.007264 0.000000 0.006293 0.000000
# 3 -0.004051 -0.007264 0.022142 0.000000 -0.014224 0.000000
# 4 0.000000 0.000000 0.000000 0.076224 0.000000 -0.005675
# 5 -0.006730 0.006293 -0.014224 0.000000 0.051339 0.000000
# 6 0.000000 0.000000 0.000000 -0.005675 0.000000 0.044058
#
#
# Mechanical properties :
#
#
# Convention : Reuss Voigt Hill
#
# Bulk Modulus (GPa) = 50.82988 65.83261 58.33125
# Shear Modulus (GPa) = 17.92683 21.02355 19.47519
#
# Velocity S-wave (km/s) = 3.22152 3.48869 3.35776
# Velocity P-wave (km/s) = 6.57754 7.37155 6.98584
#
# Compressibility (1/GPa) = 0.01967347
#
# Stress axis : x y z
#
# Youngs Moduli (GPa) = 55.55267 49.85042 45.16228
#
# Poissons Ratio (x) = 0.44619 0.18294
# Poissons Ratio (y) = 0.49723 0.32805
# Poissons Ratio (z) = 0.22503 0.36210
#
# Static dielectric constant tensor:
#      x y z
#    x 3.505610 0.000000 0.518390 
#    y 0.000000 3.257170 0.000000 
#    z 0.518390 0.000000 3.116260 
# 
# 
# High freq. dielectric constant tensor:
#      x y z
#    x 1.666180 0.000000 0.031680 
#    y 0.000000 1.668920 0.000000 
#    z 0.031680 0.000000 1.635210 
# 
# From -- ./inp_files/83386.got.cif
#   From: 2010.06.25/outbox.cif.g09.slc.cpg/sg10_42_cif.got.tgz:83386.got - 2010.06.27 22:07:45.
