data_PCOD8057744
_publ_section_title
;
Structure prediction by ZEFSAII (Michael W. Deem and Ramdas Pophale) SiO2 
 PCOD8057744
Probable space group: P 2/M
;
_chemical_formula_sum "Si O2"
_cell_formula_units_Z 32
_cell_length_a 21.735592
_cell_length_b 8.894105
_cell_length_c 26.684478
_cell_angle_alpha 90.000000
_cell_angle_beta 19.644241
_cell_angle_gamma 90.000000
_cell_volume 1734.214702
_symmetry_space_group_name_H-M "P 2/M"
_symmetry_group_IT_number 10
_symmetry_cell_setting 'monoclinic'
loop_
_space_group_symop_operation_xyz
x,y,z
-x,y,-z
-x,-y,-z
x,-y,z
loop_
_atom_site_type_symbol
_atom_site_label
_atom_site_fract_x
_atom_site_fract_y
_atom_site_fract_z
Si Si1 0.150326 0.324270 0.700817
Si Si2 0.940922 0.175329 0.395573
Si Si3 0.524308 0.822638 0.699375
Si Si4 0.101116 0.323179 0.471355
Si Si5 0.459567 0.675843 0.647149
Si Si6 0.849886 0.178100 0.863097
Si Si7 0.697902 0.169735 0.323490
Si Si8 0.517683 0.677693 0.165897
O O1 0.105636 0.500000 0.737012
O O2 0.335119 0.290376 0.528657
O O3 0.164966 0.262094 0.746118
O O4 0.985958 0.237434 0.800939
O O5 0.079880 0.226288 0.245675
O O6 0.737872 0.221718 0.534015
O O7 0.995389 0.257481 0.405145
O O8 0.952059 0.000000 0.397522
O O9 0.427246 0.752128 0.725544
O O10 0.432299 0.750512 0.818988
O O11 0.492848 0.000000 0.723969
O O12 0.077642 0.500000 0.491964
O O13 0.313434 0.275764 0.306179
O O14 0.000000 0.257108 0.500000
O O15 0.420750 0.500000 0.680632
O O16 0.312778 0.748061 0.721857
O O17 0.835290 0.000000 0.879348
O O18 0.652408 0.254088 0.021003
O O19 0.500000 0.169196 0.500000
O O20 0.770680 0.000000 0.260545
O O21 0.541972 0.500000 0.150875
#
# Coordination Sequence:
#
# PCOD8057744 Si02
#       8
#     4   4   4   4   4   4   4   4
#     4  10  19  30  47  72 103 138 176 219 270 316
#     4   9  19  33  53  80 107 137 176 217 257 307
#     4  10  18  32  52  75 103 137 177 221 268 314
#     4   9  19  37  60  83 108 139 175 214 257 308
#     4  10  18  28  46  73 103 134 175 224 270 315
#     4  11  21  35  53  77 109 142 177 217 264 317
#     4   9  17  28  43  66  99 137 176 220 269 317
#     4  10  21  36  54  79 108 138 175 217 263 313
#
# _framework density 18.452154
#
# number of rings (size 3 to 8) (size 9 to 14) (size 15 to 20)
#    0.000    2.250    1.250    2.250    0.000    4.750 
#    0.000    0.625    0.000    4.500    0.000    5.250 
#    0.000    0.000    0.000    0.000    0.000    0.000 
#
# Total GULP energy -396888.540229 kJ/mol
# GULP energy per Si atom -12402.766882 kJ/mol
# Density = 1.841016 g / cm^3
# Si number density = 18.452154 Si / 1000 Ang^3
#
#
#
# Elastic Constant Matrix: (Units=GPa)
#
#
# Indices 1 2 3 4 5 6 
#
# 1 154.4371 43.9125 44.1663 0.0000 6.0173 0.0000
# 2 43.9125 72.7029 26.8255 0.0000 7.9898 0.0000
# 3 44.1663 26.8255 67.2356 0.0000 16.6582 0.0000
# 4 0.0000 0.0000 0.0000 24.9970 0.0000 3.2224
# 5 6.0173 7.9898 16.6582 0.0000 20.1406 0.0000
# 6 0.0000 0.0000 0.0000 3.2224 0.0000 33.5507
#
#
#
# Elastic Compliance Matrix: (Units=1/GPa)
#
#
# Indices 1 2 3 4 5 6 
#
# 1 0.008898 -0.003839 -0.005071 0.000000 0.003059 0.000000
# 2 -0.003839 0.017815 -0.003923 0.000000 -0.002676 0.000000
# 3 -0.005071 -0.003923 0.023907 0.000000 -0.016702 0.000000
# 4 0.000000 0.000000 0.000000 0.040506 0.000000 -0.003890
# 5 0.003059 -0.002676 -0.016702 0.000000 0.063613 0.000000
# 6 0.000000 0.000000 0.000000 -0.003890 0.000000 0.030179
#
#
# Mechanical properties :
#
#
# Convention : Reuss Voigt Hill
#
# Bulk Modulus (GPa) = 40.07375 58.24269 49.15822
# Shear Modulus (GPa) = 22.84113 27.70241 25.27177
#
# Velocity S-wave (km/s) = 3.52214 3.87888 3.70480
# Velocity P-wave (km/s) = 6.18913 7.18983 6.70817
#
# Compressibility (1/GPa) = 0.02495399
#
# Stress axis : x y z
#
# Youngs Moduli (GPa) = 112.38706 56.13221 41.82807
#
# Poissons Ratio (x) = 0.21551 0.21211
# Poissons Ratio (y) = 0.43150 0.16409
# Poissons Ratio (z) = 0.56990 0.22020
#
# Static dielectric constant tensor:
#      x y z
#    x 3.520690 0.000000 0.056710 
#    y 0.000000 3.430660 0.000000 
#    z 0.056710 0.000000 3.180920 
# 
# 
# High freq. dielectric constant tensor:
#      x y z
#    x 1.718910 0.000000 0.005780 
#    y 0.000000 1.726670 0.000000 
#    z 0.005780 0.000000 1.681220 
# 
# From -- ./inp_files/93691.got.cif
#   From: 2010.06.25/outbox.cif.g09.slc.cpg/sg10_47_cif.got.tgz:93691.got - 2010.06.27 22:07:45.
