data_PCOD8057066
_publ_section_title
;
Structure prediction by ZEFSAII (Michael W. Deem and Ramdas Pophale) SiO2 
 PCOD8057066
Probable space group: P 2/M
;
_chemical_formula_sum "Si O2"
_cell_formula_units_Z 32
_cell_length_a 14.786947
_cell_length_b 12.911382
_cell_length_c 16.756013
_cell_angle_alpha 90.000000
_cell_angle_beta 41.372507
_cell_angle_gamma 90.000000
_cell_volume 2114.422444
_symmetry_space_group_name_H-M "P 2/M"
_symmetry_group_IT_number 10
_symmetry_cell_setting 'monoclinic'
loop_
_space_group_symop_operation_xyz
x,y,z
-x,y,-z
-x,-y,-z
x,-y,z
loop_
_atom_site_type_symbol
_atom_site_label
_atom_site_fract_x
_atom_site_fract_y
_atom_site_fract_z
Si Si1 0.068404 0.122673 0.710922
Si Si2 0.705191 0.881873 0.721802
Si Si3 0.378734 0.877584 0.766175
Si Si4 0.890402 0.876923 0.135915
Si Si5 0.597305 0.817022 0.074611
Si Si6 0.805604 0.786345 0.810241
Si Si7 0.624080 0.615673 0.979343
Si Si8 0.319429 0.122266 0.437861
O O1 0.070033 0.158694 0.801567
O O2 0.215197 0.152840 0.576347
O O3 0.958773 0.192134 0.737446
O O4 0.038368 0.000000 0.720889
O O5 0.544570 0.874465 0.847859
O O6 0.794496 0.817448 0.725216
O O7 0.731227 0.836698 0.615309
O O8 0.753504 0.000000 0.696360
O O9 0.260508 0.833099 0.786504
O O10 0.339680 0.846635 0.882143
O O11 0.528647 0.832652 0.642889
O O12 0.380069 0.000000 0.758641
O O13 0.888760 0.000000 0.132860
O O14 0.000000 0.832299 0.000000
O O15 0.702218 0.853298 0.935224
O O16 0.579354 0.691193 0.081958
O O17 0.761371 0.665078 0.847642
O O18 0.657348 0.500000 0.988209
O O19 0.500000 0.613558 0.000000
O O20 0.334059 0.000000 0.419619
#
# Coordination Sequence:
#
# PCOD8057066 Si02
#       8
#     4   4   4   4   4   4   4   4
#     4  10  19  29  40  59  89 118 155 182 201 251
#     4  10  17  26  39  60  91 117 145 174 205 251
#     4   9  16  27  43  61  89 119 147 181 212 248
#     4   9  17  27  40  61  87 120 146 177 220 247
#     4   9  16  27  41  66  84 110 144 167 223 260
#     4  10  18  27  40  64  83 117 145 168 226 254
#     4   9  17  31  45  63  88 110 140 179 220 271
#     4   8  17  29  39  55  83 123 155 182 205 231
#
# _framework density 15.134156000000001
#
# number of rings (size 3 to 8) (size 9 to 14) (size 15 to 20)
#    0.750    2.000    1.250    2.625    0.000    4.500 
#    0.000    4.375    0.000    0.000    0.000    7.000 
#    0.000    0.000    0.000    5.625    0.000    0.625 
#
# Total GULP energy -396478.119025 kJ/mol
# GULP energy per Si atom -12389.941220 kJ/mol
# Density = 1.509971 g / cm^3
# Si number density = 15.134156 Si / 1000 Ang^3
#
#
#
# Elastic Constant Matrix: (Units=GPa)
#
#
# Indices 1 2 3 4 5 6 
#
# 1 107.3819 14.9209 39.2581 0.0000 -6.9510 0.0000
# 2 14.9209 27.4306 7.1740 0.0000 -4.8235 0.0000
# 3 39.2581 7.1740 87.2214 0.0000 1.4710 0.0000
# 4 0.0000 0.0000 0.0000 3.5675 0.0000 -2.5460
# 5 -6.9510 -4.8235 1.4710 0.0000 18.3926 0.0000
# 6 0.0000 0.0000 0.0000 -2.5460 0.0000 7.4684
#
#
#
# Elastic Compliance Matrix: (Units=1/GPa)
#
#
# Indices 1 2 3 4 5 6 
#
# 1 0.012061 -0.004559 -0.005117 0.000000 0.003772 0.000000
# 2 -0.004559 0.040924 -0.001468 0.000000 0.009127 0.000000
# 3 -0.005117 -0.001468 0.013947 0.000000 -0.003434 0.000000
# 4 0.000000 0.000000 0.000000 0.370430 0.000000 0.126283
# 5 0.003772 0.009127 -0.003434 0.000000 0.058463 0.000000
# 6 0.000000 0.000000 0.000000 0.126283 0.000000 0.176948
#
#
# Mechanical properties :
#
#
# Convention : Reuss Voigt Hill
#
# Bulk Modulus (GPa) = 22.39949 38.30446 30.35198
# Shear Modulus (GPa) = 7.04281 16.59777 11.82029
#
# Velocity S-wave (km/s) = 2.15956 3.31525 2.79773
# Velocity P-wave (km/s) = 4.58814 6.32609 5.52587
#
# Compressibility (1/GPa) = 0.04464387
#
# Stress axis : x y z
#
# Youngs Moduli (GPa) = 82.91163 24.43530 71.70001
#
# Poissons Ratio (x) = 0.11140 0.36691
# Poissons Ratio (y) = 0.37800 0.10525
# Poissons Ratio (z) = 0.42428 0.03587
#
# Static dielectric constant tensor:
#      x y z
#    x 3.038960 0.000000 -0.003790 
#    y 0.000000 2.550780 0.000000 
#    z -0.003790 0.000000 2.986110 
# 
# 
# High freq. dielectric constant tensor:
#      x y z
#    x 1.586450 0.000000 -0.002150 
#    y 0.000000 1.513300 0.000000 
#    z -0.002150 0.000000 1.575010 
# 
# From -- ./inp_files/78221.got.cif
#   From: 2010.06.25/outbox.cif.g09.slc.cpg/sg10_40_cif.got.tgz:78221.got - 2010.06.27 22:07:45.
