data_PCOD8057170
_publ_section_title
;
Structure prediction by ZEFSAII (Michael W. Deem and Ramdas Pophale) SiO2 
 PCOD8057170
Probable space group: P 2/M
;
_chemical_formula_sum "Si O2"
_cell_formula_units_Z 32
_cell_length_a 23.247292
_cell_length_b 17.848844
_cell_length_c 8.611278
_cell_angle_alpha 90.000000
_cell_angle_beta 33.072748
_cell_angle_gamma 90.000000
_cell_volume 1949.875009
_symmetry_space_group_name_H-M "P 2/M"
_symmetry_group_IT_number 10
_symmetry_cell_setting 'monoclinic'
loop_
_space_group_symop_operation_xyz
x,y,z
-x,y,-z
-x,-y,-z
x,-y,z
loop_
_atom_site_type_symbol
_atom_site_label
_atom_site_fract_x
_atom_site_fract_y
_atom_site_fract_z
Si Si1 0.113795 0.417084 0.664439
Si Si2 0.884977 0.182171 0.447953
Si Si3 0.470825 0.916994 0.245024
Si Si4 0.733489 0.151142 0.369124
Si Si5 0.965881 0.681757 0.406483
Si Si6 0.699769 0.086717 0.777119
Si Si7 0.844773 0.280830 0.247461
Si Si8 0.053326 0.086652 0.213646
O O1 0.165441 0.500000 0.545371
O O2 0.097731 0.387750 0.524900
O O3 0.187741 0.359264 0.594906
O O4 0.000000 0.419486 0.000000
O O5 0.892036 0.243979 0.570647
O O6 0.774374 0.138221 0.715047
O O7 0.894921 0.225073 0.261455
O O8 0.980790 0.123313 0.244422
O O9 0.373324 0.859654 0.491012
O O10 0.437312 0.000000 0.379228
O O11 0.500000 0.921294 0.000000
O O12 0.577890 0.890578 0.090276
O O13 0.727810 0.098276 0.532990
O O14 0.744859 0.238821 0.394553
O O15 0.833150 0.126459 0.041185
O O16 0.000000 0.657652 0.500000
O O17 0.069402 0.703017 0.076403
O O18 0.719038 0.000000 0.774700
O O19 0.000000 0.099929 0.500000
O O20 0.067068 0.000000 0.142670
#
# Coordination Sequence:
#
# PCOD8057170 Si02
#       8
#     4   4   4   4   4   4   4   4
#     4   8  15  28  44  62  88 118 144 172 204 252
#     4  10  18  29  42  59  85 114 147 183 223 263
#     4   8  14  26  41  60  82 105 143 193 237 265
#     4  10  17  27  43  61  85 112 143 184 229 270
#     4  10  18  28  42  62  89 118 144 175 217 263
#     4   9  17  27  43  62  79 107 149 196 235 265
#     4   9  18  28  43  64  86 112 148 175 213 270
#     4  11  22  30  39  60  87 118 152 187 228 271
#
# _framework density 16.411308999999999
#
# number of rings (size 3 to 8) (size 9 to 14) (size 15 to 20)
#    0.000    2.625    1.250    3.750    1.750    0.250 
#    0.000    1.875    0.000    0.750    0.000    3.500 
#    0.000   24.500    0.000    0.000    0.000   60.000 
#
# Total GULP energy -396516.662615 kJ/mol
# GULP energy per Si atom -12391.145707 kJ/mol
# Density = 1.637396 g / cm^3
# Si number density = 16.411309 Si / 1000 Ang^3
#
#
#
# Elastic Constant Matrix: (Units=GPa)
#
#
# Indices 1 2 3 4 5 6 
#
# 1 61.6469 49.3395 36.8278 0.0000 -8.7700 0.0000
# 2 49.3395 126.4950 38.2761 0.0000 -11.7452 0.0000
# 3 36.8278 38.2761 60.5956 0.0000 -19.6479 0.0000
# 4 0.0000 0.0000 0.0000 10.2756 0.0000 -2.4469
# 5 -8.7700 -11.7452 -19.6479 0.0000 26.2768 0.0000
# 6 0.0000 0.0000 0.0000 -2.4469 0.0000 19.0196
#
#
#
# Elastic Compliance Matrix: (Units=1/GPa)
#
#
# Indices 1 2 3 4 5 6 
#
# 1 0.031089 -0.007893 -0.015430 0.000000 -0.004689 0.000000
# 2 -0.007893 0.011779 -0.002364 0.000000 0.000864 0.000000
# 3 -0.015430 -0.002364 0.033478 0.000000 0.018826 0.000000
# 4 0.000000 0.000000 0.000000 0.100393 0.000000 0.012916
# 5 -0.004689 0.000864 0.018826 0.000000 0.050954 0.000000
# 6 0.000000 0.000000 0.000000 0.012916 0.000000 0.054239
#
#
# Mechanical properties :
#
#
# Convention : Reuss Voigt Hill
#
# Bulk Modulus (GPa) = 40.04160 55.29160 47.66660
# Shear Modulus (GPa) = 14.63573 19.40066 17.01819
#
# Velocity S-wave (km/s) = 2.98955 3.44197 3.22371
# Velocity P-wave (km/s) = 6.03062 7.03992 6.55473
#
# Compressibility (1/GPa) = 0.02497403
#
# Stress axis : x y z
#
# Youngs Moduli (GPa) = 32.16560 84.89335 29.87066
#
# Poissons Ratio (x) = 0.67005 0.46089
# Poissons Ratio (y) = 0.25388 0.07060
# Poissons Ratio (z) = 0.49630 0.20066
#
# Static dielectric constant tensor:
#      x y z
#    x 3.176020 0.000000 -0.235230 
#    y 0.000000 3.351560 0.000000 
#    z -0.235230 0.000000 2.909490 
# 
# 
# High freq. dielectric constant tensor:
#      x y z
#    x 1.616950 0.000000 -0.001740 
#    y 0.000000 1.619640 0.000000 
#    z -0.001740 0.000000 1.593810 
# 
# From -- ./inp_files/36463.got.cif
#   From: 2010.06.25/outbox.cif.g09.slc.cpg/sg10_19_cif.got.tgz:36463.got - 2010.06.27 22:07:45.
