data_PCOD8057478
_publ_section_title
;
Structure prediction by ZEFSAII (Michael W. Deem and Ramdas Pophale) SiO2 
 PCOD8057478
Probable space group: P 2/M
;
_chemical_formula_sum "Si O2"
_cell_formula_units_Z 30
_cell_length_a 12.422620
_cell_length_b 14.219073
_cell_length_c 18.995034
_cell_angle_alpha 90.000000
_cell_angle_beta 153.205831
_cell_angle_gamma 90.000000
_cell_volume 1512.500942
_symmetry_space_group_name_H-M "P 2/M"
_symmetry_group_IT_number 10
_symmetry_cell_setting 'monoclinic'
loop_
_space_group_symop_operation_xyz
x,y,z
-x,y,-z
-x,-y,-z
x,-y,z
loop_
_atom_site_type_symbol
_atom_site_label
_atom_site_fract_x
_atom_site_fract_y
_atom_site_fract_z
Si Si1 0.764012 0.394792 0.628605
Si Si2 0.346859 0.192363 0.238103
Si Si3 0.635727 0.192965 0.915819
Si Si4 0.000000 0.347208 0.000000
Si Si5 0.123231 0.107777 0.239317
Si Si6 0.206633 0.398871 0.985598
Si Si7 0.699459 0.890075 0.174431
Si Si8 0.823268 0.788204 0.592982
O O1 0.500000 0.364903 0.500000
O O2 0.757809 0.500000 0.593084
O O3 0.856999 0.323539 0.623360
O O4 0.949678 0.386768 0.800343
O O5 0.332947 0.164795 0.147727
O O6 0.181463 0.283729 0.152894
O O7 0.242519 0.115787 0.231880
O O8 0.623173 0.204209 0.416641
O O9 0.393768 0.148052 0.804681
O O10 0.629670 0.306078 0.928436
O O11 0.854523 0.146366 0.084588
O O12 0.846059 0.410391 0.962296
O O13 0.260110 0.164179 0.381548
O O14 0.119124 0.000000 0.259813
O O15 0.326030 0.500000 0.031561
O O16 0.938190 0.834575 0.296465
O O17 0.758349 0.000000 0.213975
O O18 0.500000 0.867677 0.000000
#
# Coordination Sequence:
#
# PCOD8057478 Si02
#       8
#     4   4   4   2   4   4   4   4
#     4  10  19  33  57  88 123 160 193 239 305 365
#     4  11  23  38  61  89 129 155 192 249 317 359
#     4  11  22  42  60  86 121 161 201 248 299 359
#     4  10  17  36  53  84 122 168 185 228 301 376
#     4  12  22  38  62  86 117 156 196 248 313 368
#     4  10  18  31  56  87 116 152 199 243 290 356
#     4  11  23  42  66  85 112 163 214 251 295 355
#     4  12  23  39  61  91 123 155 203 259 289 353
#
# _framework density 19.834699000000001
#
# number of rings (size 3 to 8) (size 9 to 14) (size 15 to 20)
#    0.000    1.067    5.333    3.000    0.000    3.733 
#    0.000    4.000    0.000    2.400    0.000    4.667 
#    0.000    0.000    0.000    0.000    0.000    0.000 
#
# Total GULP energy -371818.031536 kJ/mol
# GULP energy per Si atom -12393.934385 kJ/mol
# Density = 1.978955 g / cm^3
# Si number density = 19.834699 Si / 1000 Ang^3
#
#
#
# Elastic Constant Matrix: (Units=GPa)
#
#
# Indices 1 2 3 4 5 6 
#
# 1 80.1770 33.7615 16.4846 0.0000 12.4310 0.0000
# 2 33.7615 120.4545 36.0621 0.0000 15.0777 0.0000
# 3 16.4846 36.0621 90.3424 0.0000 3.9985 0.0000
# 4 0.0000 0.0000 0.0000 8.1090 0.0000 11.6214
# 5 12.4310 15.0777 3.9985 0.0000 28.9660 0.0000
# 6 0.0000 0.0000 0.0000 11.6214 0.0000 23.4731
#
#
#
# Elastic Compliance Matrix: (Units=1/GPa)
#
#
# Indices 1 2 3 4 5 6 
#
# 1 0.014773 -0.003214 -0.001213 0.000000 -0.004499 0.000000
# 2 -0.003214 0.010725 -0.003530 0.000000 -0.003716 0.000000
# 3 -0.001213 -0.003530 0.012673 0.000000 0.000609 0.000000
# 4 0.000000 0.000000 0.000000 0.424569 0.000000 -0.210202
# 5 -0.004499 -0.003716 0.000609 0.000000 0.038304 0.000000
# 6 0.000000 0.000000 0.000000 -0.210202 0.000000 0.146672
#
#
# Mechanical properties :
#
#
# Convention : Reuss Voigt Hill
#
# Bulk Modulus (GPa) = 44.93391 51.51003 48.22197
# Shear Modulus (GPa) = 7.45101 25.75399 16.60250
#
# Velocity S-wave (km/s) = 1.94029 3.60728 2.89631
# Velocity P-wave (km/s) = 5.26526 6.58605 5.96234
#
# Compressibility (1/GPa) = 0.02225491
#
# Stress axis : x y z
#
# Youngs Moduli (GPa) = 67.69141 93.24239 78.91058
#
# Poissons Ratio (x) = 0.29969 0.09576
# Poissons Ratio (y) = 0.21757 0.27856
# Poissons Ratio (z) = 0.08214 0.32915
#
# Static dielectric constant tensor:
#      x y z
#    x 3.484060 0.000000 -0.098820 
#    y 0.000000 3.766030 0.000000 
#    z -0.098820 0.000000 3.553540 
# 
# 
# High freq. dielectric constant tensor:
#      x y z
#    x 1.752290 0.000000 -0.010400 
#    y 0.000000 1.781250 0.000000 
#    z -0.010400 0.000000 1.766330 
# 
# From -- ./inp_files/76922.got.cif
#   From: 2010.06.25/outbox.cif.g09.slc.cpg/sg10_39_cif.got.tgz:76922.got - 2010.06.27 22:07:45.
