data_PCOD8057902
_publ_section_title
;
Structure prediction by ZEFSAII (Michael W. Deem and Ramdas Pophale) SiO2 
 PCOD8057902
Probable space group: P 2/M
;
_chemical_formula_sum "Si O2"
_cell_formula_units_Z 32
_cell_length_a 21.265017
_cell_length_b 8.970975
_cell_length_c 30.619121
_cell_angle_alpha 90.000000
_cell_angle_beta 19.320024
_cell_angle_gamma 90.000000
_cell_volume 1932.509541
_symmetry_space_group_name_H-M "P 2/M"
_symmetry_group_IT_number 10
_symmetry_cell_setting 'monoclinic'
loop_
_space_group_symop_operation_xyz
x,y,z
-x,y,-z
-x,-y,-z
x,-y,z
loop_
_atom_site_type_symbol
_atom_site_label
_atom_site_fract_x
_atom_site_fract_y
_atom_site_fract_z
Si Si1 0.727633 0.176174 0.693171
Si Si2 0.313410 0.825145 0.998734
Si Si3 0.933217 0.325421 0.482519
Si Si4 0.309994 0.673095 0.536258
Si Si5 0.372315 0.831733 0.626538
Si Si6 0.315092 0.823314 0.096607
Si Si7 0.949813 0.671644 0.371984
Si Si8 0.058797 0.325037 0.783320
O O1 0.512138 0.214310 0.846039
O O2 0.771034 0.244102 0.617111
O O3 0.862683 0.253219 0.640506
O O4 0.766591 0.000000 0.667841
O O5 0.271347 0.000000 0.025572
O O6 0.314873 0.763209 0.047240
O O7 0.151171 0.742970 0.077581
O O8 0.939126 0.500000 0.490194
O O9 0.882778 0.298206 0.465142
O O10 0.358808 0.500000 0.508699
O O11 0.507506 0.761298 0.412505
O O12 0.224805 0.715679 0.545021
O O13 0.155866 0.719856 0.673793
O O14 0.500000 0.821893 0.500000
O O15 0.178601 0.741249 0.745250
O O16 0.318888 0.000000 0.673808
O O17 0.130992 0.770975 0.243052
O O18 0.319586 0.000000 0.093929
O O19 0.500000 0.758871 0.000000
O O20 0.006959 0.500000 0.326896
O O21 0.045706 0.500000 0.798290
#
# Coordination Sequence:
#
# PCOD8057902 Si02
#       8
#     4   4   4   4   4   4   4   4
#     4  10  20  35  53  70  93 125 164 207 249 287
#     4  10  20  32  47  69  97 127 160 200 241 283
#     4  10  20  34  52  72  95 123 162 208 248 284
#     4   9  17  30  45  66  96 127 160 192 231 282
#     4   9  17  28  44  66  94 126 160 194 232 276
#     4  10  20  32  46  66  95 129 162 194 234 286
#     4  10  20  33  48  70  98 128 159 197 240 284
#     4  10  18  29  47  68  95 129 161 194 233 283
#
# _framework density 16.558779999999999
#
# number of rings (size 3 to 8) (size 9 to 14) (size 15 to 20)
#    0.000    2.250    1.250    3.000    0.000    5.750 
#    0.000    0.000    0.000    0.000    0.000    0.875 
#    0.000    7.000    0.000    0.000    0.000    0.000 
#
# Total GULP energy -396852.978282 kJ/mol
# GULP energy per Si atom -12401.655571 kJ/mol
# Density = 1.652109 g / cm^3
# Si number density = 16.558780 Si / 1000 Ang^3
#
#
#
# Elastic Constant Matrix: (Units=GPa)
#
#
# Indices 1 2 3 4 5 6 
#
# 1 114.2890 39.1456 57.7964 0.0000 -17.4166 0.0000
# 2 39.1456 65.6894 39.8219 0.0000 -9.0708 0.0000
# 3 57.7964 39.8219 82.4172 0.0000 -13.7711 0.0000
# 4 0.0000 0.0000 0.0000 19.6399 0.0000 -6.9148
# 5 -17.4166 -9.0708 -13.7711 0.0000 25.4884 0.0000
# 6 0.0000 0.0000 0.0000 -6.9148 0.0000 22.5439
#
#
#
# Elastic Compliance Matrix: (Units=1/GPa)
#
#
# Indices 1 2 3 4 5 6 
#
# 1 0.014532 -0.003275 -0.007853 0.000000 0.004521 0.000000
# 2 -0.003275 0.022385 -0.008312 0.000000 0.001237 0.000000
# 3 -0.007853 -0.008312 0.022277 0.000000 0.003712 0.000000
# 4 0.000000 0.000000 0.000000 0.057081 0.000000 0.017508
# 5 0.004521 0.001237 0.003712 0.000000 0.044769 0.000000
# 6 0.000000 0.000000 0.000000 0.017508 0.000000 0.049728
#
#
# Mechanical properties :
#
#
# Convention : Reuss Voigt Hill
#
# Bulk Modulus (GPa) = 49.22927 59.54705 54.38816
# Shear Modulus (GPa) = 19.49909 21.90989 20.70449
#
# Velocity S-wave (km/s) = 3.43529 3.64147 3.53988
# Velocity P-wave (km/s) = 6.74756 7.32936 7.04447
#
# Compressibility (1/GPa) = 0.02031312
#
# Stress axis : x y z
#
# Youngs Moduli (GPa) = 68.81552 44.67331 44.88988
#
# Poissons Ratio (x) = 0.14630 0.35250
# Poissons Ratio (y) = 0.22537 0.37314
# Poissons Ratio (z) = 0.54038 0.37134
#
# Static dielectric constant tensor:
#      x y z
#    x 3.175840 0.000000 -0.148630 
#    y 0.000000 3.148370 0.000000 
#    z -0.148630 0.000000 2.922830 
# 
# 
# High freq. dielectric constant tensor:
#      x y z
#    x 1.631110 0.000000 -0.019700 
#    y 0.000000 1.645450 0.000000 
#    z -0.019700 0.000000 1.612940 
# 
# From -- ./inp_files/95647.got.cif
#   From: 2010.06.25/outbox.cif.g09.slc.cpg/sg10_48_cif.got.tgz:95647.got - 2010.06.27 22:07:45.
