data_PCOD8057121
_publ_section_title
;
Structure prediction by ZEFSAII (Michael W. Deem and Ramdas Pophale) SiO2 
 PCOD8057121
Probable space group: P 2/M
;
_chemical_formula_sum "Si O2"
_cell_formula_units_Z 32
_cell_length_a 15.239971
_cell_length_b 9.169180
_cell_length_c 14.923493
_cell_angle_alpha 90.000000
_cell_angle_beta 79.141434
_cell_angle_gamma 90.000000
_cell_volume 2048.041321
_symmetry_space_group_name_H-M "P 2/M"
_symmetry_group_IT_number 10
_symmetry_cell_setting 'monoclinic'
loop_
_space_group_symop_operation_xyz
x,y,z
-x,y,-z
-x,-y,-z
x,-y,z
loop_
_atom_site_type_symbol
_atom_site_label
_atom_site_fract_x
_atom_site_fract_y
_atom_site_fract_z
Si Si1 0.202860 0.331080 0.414733
Si Si2 0.132639 0.827609 0.918551
Si Si3 0.607163 0.672760 0.568629
Si Si4 0.929894 0.173222 0.687720
Si Si5 0.240896 0.328114 0.757722
Si Si6 0.889249 0.667936 0.378338
Si Si7 0.586984 0.673112 0.373093
Si Si8 0.943544 0.172146 0.884847
O O1 0.193800 0.500000 0.388429
O O2 0.305896 0.275284 0.393096
O O3 0.151705 0.232519 0.353900
O O4 0.166199 0.306211 0.521168
O O5 0.216037 0.748909 0.855784
O O6 0.042499 0.769025 0.888097
O O7 0.144651 0.000000 0.905790
O O8 0.127185 0.780219 0.024599
O O9 0.611992 0.500000 0.559105
O O10 0.608347 0.737294 0.467587
O O11 0.514289 0.719835 0.635552
O O12 0.913744 0.227794 0.792985
O O13 0.022745 0.234333 0.632590
O O14 0.932981 0.000000 0.680287
O O15 0.240631 0.500000 0.772887
O O16 0.171503 0.282976 0.693327
O O17 0.339546 0.269315 0.711567
O O18 0.918606 0.500000 0.363567
O O19 0.594878 0.500000 0.376141
O O20 0.950864 0.000000 0.885504
#
# Coordination Sequence:
#
# PCOD8057121 Si02
#       8
#     4   4   4   4   4   4   4   4
#     4  10  19  31  45  63  88 120 152 180 210 249
#     4   9  16  30  48  62  81 113 146 177 216 268
#     4   8  13  24  43  64  85 114 149 177 206 251
#     4  11  21  32  45  62  84 116 154 187 213 248
#     4  10  17  26  43  70  95 113 137 177 220 253
#     4  10  19  30  42  61  92 123 147 174 209 250
#     4   8  13  23  42  66  89 112 142 178 211 251
#     4   8  16  30  46  61  80 110 149 184 215 254
#
# _framework density 15.624684
#
# number of rings (size 3 to 8) (size 9 to 14) (size 15 to 20)
#    0.000    2.750    2.500    2.250    0.000    2.000 
#    0.000    2.500    0.000    0.750    0.000    2.625 
#    0.000    7.000    0.000    0.000    0.000    0.000 
#
# Total GULP energy -396581.429764 kJ/mol
# GULP energy per Si atom -12393.169680 kJ/mol
# Density = 1.558912 g / cm^3
# Si number density = 15.624684 Si / 1000 Ang^3
#
#
#
# Elastic Constant Matrix: (Units=GPa)
#
#
# Indices 1 2 3 4 5 6 
#
# 1 121.4971 31.2309 46.6627 0.0000 -16.3351 0.0000
# 2 31.2309 31.4660 23.6904 0.0000 -2.2385 0.0000
# 3 46.6627 23.6904 74.0856 0.0000 -15.6247 0.0000
# 4 0.0000 0.0000 0.0000 22.6288 0.0000 -0.7803
# 5 -16.3351 -2.2385 -15.6247 0.0000 24.7667 0.0000
# 6 0.0000 0.0000 0.0000 -0.7803 0.0000 0.8679
#
#
#
# Elastic Compliance Matrix: (Units=1/GPa)
#
#
# Indices 1 2 3 4 5 6 
#
# 1 0.012877 -0.009380 -0.004036 0.000000 0.005099 0.000000
# 2 -0.009380 0.049320 -0.011797 0.000000 -0.009172 0.000000
# 3 -0.004036 -0.011797 0.021946 0.000000 0.010117 0.000000
# 4 0.000000 0.000000 0.000000 0.045605 0.000000 0.041002
# 5 0.005099 -0.009172 0.010117 0.000000 0.049294 0.000000
# 6 0.000000 0.000000 0.000000 0.041002 0.000000 1.189127
#
#
# Mechanical properties :
#
#
# Convention : Reuss Voigt Hill
#
# Bulk Modulus (GPa) = 29.65874 47.80186 38.73030
# Shear Modulus (GPa) = 3.49691 18.01697 10.75694
#
# Velocity S-wave (km/s) = 1.49764 3.39943 2.62669
# Velocity P-wave (km/s) = 4.69188 6.78737 5.83447
#
# Compressibility (1/GPa) = 0.03371688
#
# Stress axis : x y z
#
# Youngs Moduli (GPa) = 77.65527 20.27582 45.56614
#
# Poissons Ratio (x) = 0.19018 0.18390
# Poissons Ratio (y) = 0.72839 0.53757
# Poissons Ratio (z) = 0.31341 0.23920
#
# Static dielectric constant tensor:
#      x y z
#    x 3.130160 0.000000 -0.113920 
#    y 0.000000 2.648820 0.000000 
#    z -0.113920 0.000000 3.108550 
# 
# 
# High freq. dielectric constant tensor:
#      x y z
#    x 1.589140 0.000000 -0.013110 
#    y 0.000000 1.566420 0.000000 
#    z -0.013110 0.000000 1.589000 
# 
# From -- ./inp_files/66003.got.cif
#   From: 2010.06.25/outbox.cif.g09.slc.cpg/sg10_34_cif.got.tgz:66003.got - 2010.06.27 22:07:45.
