data_PCOD8057567
_publ_section_title
;
Structure prediction by ZEFSAII (Michael W. Deem and Ramdas Pophale) SiO2 
 PCOD8057567
Probable space group: P 2/M
;
_chemical_formula_sum "Si O2"
_cell_formula_units_Z 32
_cell_length_a 29.078406
_cell_length_b 8.953087
_cell_length_c 19.319475
_cell_angle_alpha 90.000000
_cell_angle_beta 23.664707
_cell_angle_gamma 90.000000
_cell_volume 2018.823829
_symmetry_space_group_name_H-M "P 2/M"
_symmetry_group_IT_number 10
_symmetry_cell_setting 'monoclinic'
loop_
_space_group_symop_operation_xyz
x,y,z
-x,y,-z
-x,-y,-z
x,-y,z
loop_
_atom_site_type_symbol
_atom_site_label
_atom_site_fract_x
_atom_site_fract_y
_atom_site_fract_z
Si Si1 0.330428 0.667608 0.247579
Si Si2 0.994607 0.825890 0.165832
Si Si3 0.557456 0.325497 0.763555
Si Si4 0.068866 0.668399 0.615011
Si Si5 0.667063 0.175841 0.896992
Si Si6 0.882978 0.668437 0.119288
Si Si7 0.903928 0.675927 0.577917
Si Si8 0.765075 0.175546 0.400820
O O1 0.353852 0.500000 0.186115
O O2 0.414384 0.705020 0.194736
O O3 0.201631 0.677592 0.453230
O O4 0.350580 0.786078 0.159397
O O5 0.001367 0.774318 0.236358
O O6 0.870568 0.783761 0.305737
O O7 0.018673 0.000000 0.127693
O O8 0.095501 0.743530 0.984856
O O9 0.553985 0.500000 0.751297
O O10 0.650332 0.250210 0.586584
O O11 0.434260 0.251132 0.918554
O O12 0.022803 0.500000 0.687244
O O13 0.052581 0.723475 0.558406
O O14 0.787831 0.238888 0.757864
O O15 0.663647 0.000000 0.912489
O O16 0.838870 0.500000 0.169228
O O17 0.788117 0.761210 0.292233
O O18 0.000000 0.671813 0.000000
O O19 0.877485 0.500000 0.615387
O O20 0.000000 0.723286 0.500000
O O21 0.746412 0.000000 0.421698
#
# Coordination Sequence:
#
# PCOD8057567 Si02
#       8
#     4   4   4   4   4   4   4   4
#     4   9  18  31  45  61  86 121 158 191 223 263
#     4  10  18  27  41  62  90 120 151 190 230 268
#     4  11  20  31  46  62  87 123 161 192 221 265
#     4   9  16  28  46  68  89 115 152 190 227 270
#     4  11  22  32  45  67  92 116 148 189 234 276
#     4   9  17  28  42  58  81 118 160 193 223 263
#     4   9  19  37  56  70  88 117 152 190 233 280
#     4  10  19  29  41  61  90 121 155 192 232 268
#
# _framework density 15.850811999999999
#
# number of rings (size 3 to 8) (size 9 to 14) (size 15 to 20)
#    0.000    2.250    1.250    3.750    0.000    7.250 
#    0.000    0.000    0.000    0.000    0.000    0.000 
#    0.000    1.000    0.000   10.750    0.000    4.750 
#
# Total GULP energy -396809.001402 kJ/mol
# GULP energy per Si atom -12400.281294 kJ/mol
# Density = 1.581474 g / cm^3
# Si number density = 15.850812 Si / 1000 Ang^3
#
#
#
# Elastic Constant Matrix: (Units=GPa)
#
#
# Indices 1 2 3 4 5 6 
#
# 1 66.7244 39.3927 47.8078 0.0000 1.9887 0.0000
# 2 39.3927 97.6605 61.8584 0.0000 10.6825 0.0000
# 3 47.8078 61.8584 99.5506 0.0000 10.8528 0.0000
# 4 0.0000 0.0000 0.0000 28.0420 0.0000 6.7454
# 5 1.9887 10.6825 10.8528 0.0000 18.3039 0.0000
# 6 0.0000 0.0000 0.0000 6.7454 0.0000 14.5548
#
#
#
# Elastic Compliance Matrix: (Units=1/GPa)
#
#
# Indices 1 2 3 4 5 6 
#
# 1 0.024217 -0.004330 -0.009545 0.000000 0.005555 0.000000
# 2 -0.004330 0.017922 -0.008518 0.000000 -0.004938 0.000000
# 3 -0.009545 -0.008518 0.020598 0.000000 -0.006205 0.000000
# 4 0.000000 0.000000 0.000000 0.040135 0.000000 -0.018600
# 5 0.005555 -0.004938 -0.006205 0.000000 0.060591 0.000000
# 6 0.000000 0.000000 0.000000 -0.018600 0.000000 0.077326
#
#
# Mechanical properties :
#
#
# Convention : Reuss Voigt Hill
#
# Bulk Modulus (GPa) = 55.70871 62.45036 59.07953
# Shear Modulus (GPa) = 17.14921 19.83858 18.49390
#
# Velocity S-wave (km/s) = 3.29281 3.54161 3.41947
# Velocity P-wave (km/s) = 7.04832 7.49722 7.27623
#
# Compressibility (1/GPa) = 0.01795051
#
# Stress axis : x y z
#
# Youngs Moduli (GPa) = 41.29402 55.79756 48.54739
#
# Poissons Ratio (x) = 0.24161 0.46337
# Poissons Ratio (y) = 0.17881 0.41355
# Poissons Ratio (z) = 0.39414 0.47531
#
# Static dielectric constant tensor:
#      x y z
#    x 2.753110 0.000000 0.173270 
#    y 0.000000 3.030380 0.000000 
#    z 0.173270 0.000000 2.962460 
# 
# 
# High freq. dielectric constant tensor:
#      x y z
#    x 1.564890 0.000000 0.026500 
#    y 0.000000 1.618050 0.000000 
#    z 0.026500 0.000000 1.596750 
# 
# From -- ./inp_files/66095.got.cif
#   From: 2010.06.25/outbox.cif.g09.slc.cpg/sg10_34_cif.got.tgz:66095.got - 2010.06.27 22:07:45.
