data_PCOD8057440
_publ_section_title
;
Structure prediction by ZEFSAII (Michael W. Deem and Ramdas Pophale) SiO2 
 PCOD8057440
Probable space group: P 2/M
;
_chemical_formula_sum "Si O2"
_cell_formula_units_Z 32
_cell_length_a 12.626862
_cell_length_b 13.980175
_cell_length_c 12.369351
_cell_angle_alpha 90.000000
_cell_angle_beta 120.375836
_cell_angle_gamma 90.000000
_cell_volume 1883.772052
_symmetry_space_group_name_H-M "P 2/M"
_symmetry_group_IT_number 10
_symmetry_cell_setting 'monoclinic'
loop_
_space_group_symop_operation_xyz
x,y,z
-x,y,-z
-x,-y,-z
x,-y,z
loop_
_atom_site_type_symbol
_atom_site_label
_atom_site_fract_x
_atom_site_fract_y
_atom_site_fract_z
Si Si1 0.376043 0.203563 0.210146
Si Si2 0.313037 0.607188 0.838810
Si Si3 0.370288 0.109640 0.654278
Si Si4 0.988004 0.892031 0.717672
Si Si5 0.422866 0.607393 0.125469
Si Si6 0.774553 0.107635 0.047116
Si Si7 0.198798 0.795585 0.727406
Si Si8 0.716531 0.110175 0.627547
O O1 0.502410 0.153820 0.239000
O O2 0.387279 0.317920 0.201118
O O3 0.345111 0.179647 0.317501
O O4 0.266867 0.165405 0.078802
O O5 0.264409 0.500000 0.791763
O O6 0.438190 0.625438 0.839062
O O7 0.211031 0.680898 0.742487
O O8 0.334160 0.622163 0.977226
O O9 0.255590 0.166170 0.645520
O O10 0.363446 0.118830 0.521603
O O11 0.362712 0.000000 0.687280
O O12 0.075737 0.891659 0.869658
O O13 0.054713 0.826074 0.660545
O O14 0.854605 0.852048 0.678329
O O15 0.974916 0.000000 0.664682
O O16 0.407432 0.500000 0.163931
O O17 0.725290 0.156335 0.133021
O O18 0.723245 0.000000 0.013823
O O19 0.717345 0.000000 0.669823
#
# Coordination Sequence:
#
# PCOD8057440 Si02
#       8
#     4   4   4   4   4   4   4   4
#     4  12  20  32  51  74 106 135 165 203 256 306
#     4   9  16  29  49  76 106 130 159 203 259 318
#     4  11  22  33  49  73 104 139 171 206 248 300
#     4   8  17  34  51  72 100 131 173 210 245 293
#     4   9  17  30  49  74 102 133 165 202 254 312
#     4   9  18  30  47  77 106 130 157 201 259 303
#     4  10  17  32  51  77 102 126 160 213 261 300
#     4  10  22  37  50  68  99 146 187 205 225 286
#
# _framework density 16.987195
#
# number of rings (size 3 to 8) (size 9 to 14) (size 15 to 20)
#    0.750    1.500    2.500    3.000    0.000    2.500 
#    0.000    5.000    0.000    3.000    0.000    3.500 
#    0.000    0.000    0.000    0.000    0.000    0.000 
#
# Total GULP energy -396644.593505 kJ/mol
# GULP energy per Si atom -12395.143547 kJ/mol
# Density = 1.694853 g / cm^3
# Si number density = 16.987195 Si / 1000 Ang^3
#
#
#
# Elastic Constant Matrix: (Units=GPa)
#
#
# Indices 1 2 3 4 5 6 
#
# 1 66.3749 37.1320 3.5489 0.0000 -3.4562 0.0000
# 2 37.1320 125.9640 21.3093 0.0000 -8.6027 0.0000
# 3 3.5489 21.3093 34.8320 0.0000 -5.8595 0.0000
# 4 0.0000 0.0000 0.0000 20.2647 0.0000 -5.3949
# 5 -3.4562 -8.6027 -5.8595 0.0000 22.0547 0.0000
# 6 0.0000 0.0000 0.0000 -5.3949 0.0000 21.4407
#
#
#
# Elastic Compliance Matrix: (Units=1/GPa)
#
#
# Indices 1 2 3 4 5 6 
#
# 1 0.018146 -0.005567 0.001748 0.000000 0.001137 0.000000
# 2 -0.005567 0.010658 -0.005653 0.000000 0.001783 0.000000
# 3 0.001748 -0.005653 0.033146 0.000000 0.006875 0.000000
# 4 0.000000 0.000000 0.000000 0.052890 0.000000 0.013308
# 5 0.001137 0.001783 0.006875 0.000000 0.048042 0.000000
# 6 0.000000 0.000000 0.000000 0.013308 0.000000 0.049989
#
#
# Mechanical properties :
#
#
# Convention : Reuss Voigt Hill
#
# Bulk Modulus (GPa) = 23.25260 39.01683 31.13472
# Shear Modulus (GPa) = 20.31278 23.76408 22.03843
#
# Velocity S-wave (km/s) = 3.46174 3.74430 3.60579
# Velocity P-wave (km/s) = 5.44943 6.45843 5.97526
#
# Compressibility (1/GPa) = 0.04300594
#
# Stress axis : x y z
#
# Youngs Moduli (GPa) = 55.10813 93.82602 30.16947
#
# Poissons Ratio (x) = 0.52236 -0.05274
# Poissons Ratio (y) = 0.30680 0.17055
# Poissons Ratio (z) = -0.09634 0.53041
#
# Static dielectric constant tensor:
#      x y z
#    x 2.962420 0.000000 0.037400 
#    y 0.000000 3.150980 0.000000 
#    z 0.037400 0.000000 2.917940 
# 
# 
# High freq. dielectric constant tensor:
#      x y z
#    x 1.636670 0.000000 0.003060 
#    y 0.000000 1.645250 0.000000 
#    z 0.003060 0.000000 1.635620 
# 
# From -- ./inp_files/47422.got.cif
#   From: 2010.06.25/outbox.cif.g09.slc.cpg/sg10_24_cif.got.tgz:47422.got - 2010.06.27 22:07:45.
