data_PCOD8057626
_publ_section_title
;
Structure prediction by ZEFSAII (Michael W. Deem and Ramdas Pophale) SiO2 
 PCOD8057626
Probable space group: P 2/M
;
_chemical_formula_sum "Si O2"
_cell_formula_units_Z 28
_cell_length_a 17.478414
_cell_length_b 9.048747
_cell_length_c 14.513913
_cell_angle_alpha 90.000000
_cell_angle_beta 130.760134
_cell_angle_gamma 90.000000
_cell_volume 1738.716104
_symmetry_space_group_name_H-M "P 2/M"
_symmetry_group_IT_number 10
_symmetry_cell_setting 'monoclinic'
loop_
_space_group_symop_operation_xyz
x,y,z
-x,y,-z
-x,-y,-z
x,-y,z
loop_
_atom_site_type_symbol
_atom_site_label
_atom_site_fract_x
_atom_site_fract_y
_atom_site_fract_z
Si Si1 0.085097 0.326093 0.674678
Si Si2 0.923041 0.168043 0.819290
Si Si3 0.115973 0.668430 0.902329
Si Si4 0.388190 0.325088 0.427963
Si Si5 0.743877 0.167257 0.537864
Si Si6 0.784308 0.670110 0.840280
Si Si7 0.874525 0.824291 0.473644
O O1 0.077918 0.500000 0.646190
O O2 0.142895 0.297594 0.817027
O O3 0.148703 0.241002 0.645998
O O4 0.972854 0.257905 0.591468
O O5 0.844203 0.188950 0.675609
O O6 0.884372 0.252627 0.879263
O O7 0.028596 0.225860 0.866976
O O8 0.936599 0.000000 0.859381
O O9 0.077406 0.500000 0.880507
O O10 0.213394 0.692800 0.046503
O O11 0.500000 0.259644 0.500000
O O12 0.392400 0.500000 0.435468
O O13 0.345285 0.269377 0.492433
O O14 0.317930 0.267054 0.287677
O O15 0.776327 0.210673 0.459312
O O16 0.704156 0.000000 0.510929
O O17 0.792239 0.500000 0.819046
O O18 0.895669 0.000000 0.486829
#
# Coordination Sequence:
#
# PCOD8057626 Si02
#       7
#     4   4   4   4   4   4   4
#     4  10  19  28  41  62  87 118 155 186 212 247
#     4  10  18  28  41  61  88 117 150 183 209 247
#     4  10  19  29  41  59  87 122 151 175 212 257
#     4   9  18  32  50  70  88 109 142 184 226 265
#     4   9  18  30  45  65  89 118 147 176 219 265
#     4   9  18  31  44  60  86 117 145 176 218 267
#     4  10  18  30  44  61  87 119 151 182 219 255
#
# _framework density 16.103836999999999
#
# number of rings (size 3 to 8) (size 9 to 14) (size 15 to 20)
#    0.000    2.429    1.429    2.571    0.000    4.857 
#    0.000    0.000    0.000    0.000    0.000    1.000 
#    0.000    8.000    0.000    0.000    0.000    0.000 
#
# Total GULP energy -347021.221127 kJ/mol
# GULP energy per Si atom -12393.615040 kJ/mol
# Density = 1.606718 g / cm^3
# Si number density = 16.103837 Si / 1000 Ang^3
#
#
#
# Elastic Constant Matrix: (Units=GPa)
#
#
# Indices 1 2 3 4 5 6 
#
# 1 108.4832 34.0041 57.1980 0.0000 -11.5066 0.0000
# 2 34.0041 55.1307 27.6191 0.0000 -3.9455 0.0000
# 3 57.1980 27.6191 69.5731 0.0000 -17.3048 0.0000
# 4 0.0000 0.0000 0.0000 12.5479 0.0000 -3.2707
# 5 -11.5066 -3.9455 -17.3048 0.0000 26.3726 0.0000
# 6 0.0000 0.0000 0.0000 -3.2707 0.0000 21.6988
#
#
#
# Elastic Compliance Matrix: (Units=1/GPa)
#
#
# Indices 1 2 3 4 5 6 
#
# 1 0.017126 -0.004279 -0.012765 0.000000 -0.001544 0.000000
# 2 -0.004279 0.023911 -0.006631 0.000000 -0.002641 0.000000
# 3 -0.012765 -0.006631 0.030914 0.000000 0.013723 0.000000
# 4 0.000000 0.000000 0.000000 0.082954 0.000000 0.012504
# 5 -0.001544 -0.002641 0.013723 0.000000 0.045854 0.000000
# 6 0.000000 0.000000 0.000000 0.012504 0.000000 0.047970
#
#
# Mechanical properties :
#
#
# Convention : Reuss Voigt Hill
#
# Bulk Modulus (GPa) = 40.65017 52.31437 46.48227
# Shear Modulus (GPa) = 16.43231 19.74825 18.09028
#
# Velocity S-wave (km/s) = 3.19783 3.50567 3.35528
# Velocity P-wave (km/s) = 6.23956 6.99589 6.62852
#
# Compressibility (1/GPa) = 0.02460014
#
# Stress axis : x y z
#
# Youngs Moduli (GPa) = 58.39138 41.82197 32.34801
#
# Poissons Ratio (x) = 0.17894 0.41293
# Poissons Ratio (y) = 0.24983 0.21452
# Poissons Ratio (z) = 0.74538 0.27734
#
# Static dielectric constant tensor:
#      x y z
#    x 3.100620 0.000000 -0.328130 
#    y 0.000000 3.116280 0.000000 
#    z -0.328130 0.000000 3.183350 
# 
# 
# High freq. dielectric constant tensor:
#      x y z
#    x 1.597260 0.000000 -0.029980 
#    y 0.000000 1.626410 0.000000 
#    z -0.029980 0.000000 1.596230 
# 
# From -- ./inp_files/54681.got.cif
#   From: 2010.06.25/outbox.cif.g09.slc.cpg/sg10_28_cif.got.tgz:54681.got - 2010.06.27 22:07:45.
