data_PCOD8057602
_publ_section_title
;
Structure prediction by ZEFSAII (Michael W. Deem and Ramdas Pophale) SiO2 
 PCOD8057602
Probable space group: P 2/M
;
_chemical_formula_sum "Si O2"
_cell_formula_units_Z 28
_cell_length_a 14.195761
_cell_length_b 9.049111
_cell_length_c 14.261834
_cell_angle_alpha 90.000000
_cell_angle_beta 61.051711
_cell_angle_gamma 90.000000
_cell_volume 1603.157782
_symmetry_space_group_name_H-M "P 2/M"
_symmetry_group_IT_number 10
_symmetry_cell_setting 'monoclinic'
loop_
_space_group_symop_operation_xyz
x,y,z
-x,y,-z
-x,-y,-z
x,-y,z
loop_
_atom_site_type_symbol
_atom_site_label
_atom_site_fract_x
_atom_site_fract_y
_atom_site_fract_z
Si Si1 0.635990 0.825523 0.243156
Si Si2 0.358739 0.325028 0.149769
Si Si3 0.596137 0.674451 0.078935
Si Si4 0.740248 0.326973 0.366095
Si Si5 0.151769 0.676042 0.355025
Si Si6 0.077412 0.674165 0.589601
Si Si7 0.428473 0.160817 0.443932
O O1 0.661822 0.756790 0.129476
O O2 0.716949 0.759192 0.281658
O O3 0.511147 0.782562 0.324410
O O4 0.653806 0.000000 0.234243
O O5 0.358520 0.500000 0.156961
O O6 0.472319 0.268661 0.136319
O O7 0.259374 0.255014 0.256271
O O8 0.347278 0.280610 0.046049
O O9 0.602124 0.500000 0.093671
O O10 0.726484 0.500000 0.353913
O O11 0.859991 0.283972 0.344778
O O12 0.661894 0.282077 0.490221
O O13 0.160538 0.500000 0.347670
O O14 0.139278 0.736311 0.467371
O O15 0.046153 0.729990 0.347233
O O16 0.076692 0.500000 0.576623
O O17 0.500000 0.135829 0.500000
O O18 0.377566 0.000000 0.441998
#
# Coordination Sequence:
#
# PCOD8057602 Si02
#       7
#     4   4   4   4   4   4   4
#     4  10  20  32  44  61  89 127 156 180 223 274
#     4   8  15  27  45  67  94 121 144 181 235 272
#     4   9  17  29  46  72  94 114 150 190 224 267
#     4  10  18  27  43  69  93 115 150 193 224 258
#     4   8  13  25  42  63  96 126 142 174 227 276
#     4   8  15  24  39  68  97 119 148 179 218 271
#     4   8  16  29  40  55  85 121 152 175 212 269
#
# _framework density 17.465529
#
# number of rings (size 3 to 8) (size 9 to 14) (size 15 to 20)
#    0.000    3.286    0.000    3.429    2.000    3.143 
#    0.000    1.429    0.000    0.857    0.000   18.000 
#    0.000    0.000    0.000    0.000    0.000    0.000 
#
# Total GULP energy -346900.844786 kJ/mol
# GULP energy per Si atom -12389.315885 kJ/mol
# Density = 1.742578 g / cm^3
# Si number density = 17.465529 Si / 1000 Ang^3
#
#
#
# Elastic Constant Matrix: (Units=GPa)
#
#
# Indices 1 2 3 4 5 6 
#
# 1 93.7257 27.2936 44.0352 0.0000 9.3945 0.0000
# 2 27.2936 43.1233 15.4233 0.0000 9.5605 0.0000
# 3 44.0352 15.4233 84.8683 0.0000 1.1736 0.0000
# 4 0.0000 0.0000 0.0000 63.7154 0.0000 14.9165
# 5 9.3945 9.5605 1.1736 0.0000 29.8310 0.0000
# 6 0.0000 0.0000 0.0000 14.9165 0.0000 6.8643
#
#
#
# Elastic Compliance Matrix: (Units=1/GPa)
#
#
# Indices 1 2 3 4 5 6 
#
# 1 0.016400 -0.007253 -0.007156 0.000000 -0.002559 0.000000
# 2 -0.007253 0.029953 -0.001580 0.000000 -0.007253 0.000000
# 3 -0.007156 -0.001580 0.015753 0.000000 0.002140 0.000000
# 4 0.000000 0.000000 0.000000 0.031948 0.000000 -0.069425
# 5 -0.002559 -0.007253 0.002140 0.000000 0.036568 0.000000
# 6 0.000000 0.000000 0.000000 -0.069425 0.000000 0.296545
#
#
# Mechanical properties :
#
#
# Convention : Reuss Voigt Hill
#
# Bulk Modulus (GPa) = 33.19077 43.91351 38.55214
# Shear Modulus (GPa) = 10.65670 29.07981 19.86825
#
# Velocity S-wave (km/s) = 2.47281 4.08485 3.37645
# Velocity P-wave (km/s) = 5.21516 6.88807 6.10915
#
# Compressibility (1/GPa) = 0.03012886
#
# Stress axis : x y z
#
# Youngs Moduli (GPa) = 60.97465 33.38546 63.47831
#
# Poissons Ratio (x) = 0.24216 0.45425
# Poissons Ratio (y) = 0.44228 0.10027
# Poissons Ratio (z) = 0.43633 0.05273
#
# Static dielectric constant tensor:
#      x y z
#    x 3.407670 0.000000 -0.139960 
#    y 0.000000 2.856560 0.000000 
#    z -0.139960 0.000000 3.448760 
# 
# 
# High freq. dielectric constant tensor:
#      x y z
#    x 1.666790 0.000000 0.012170 
#    y 0.000000 1.635730 0.000000 
#    z 0.012170 0.000000 1.657620 
# 
# From -- ./inp_files/65934.got.cif
#   From: 2010.06.25/outbox.cif.g09.slc.cpg/sg10_33_cif.got.tgz:65934.got - 2010.06.27 22:07:45.
