data_PCOD8057106
_publ_section_title
;
Structure prediction by ZEFSAII (Michael W. Deem and Ramdas Pophale) SiO2 
 PCOD8057106
Probable space group: P 2/M
;
_chemical_formula_sum "Si O2"
_cell_formula_units_Z 28
_cell_length_a 20.909258
_cell_length_b 8.635327
_cell_length_c 18.245226
_cell_angle_alpha 90.000000
_cell_angle_beta 27.569739
_cell_angle_gamma 90.000000
_cell_volume 1524.706336
_symmetry_space_group_name_H-M "P 2/M"
_symmetry_group_IT_number 10
_symmetry_cell_setting 'monoclinic'
loop_
_space_group_symop_operation_xyz
x,y,z
-x,y,-z
-x,-y,-z
x,-y,z
loop_
_atom_site_type_symbol
_atom_site_label
_atom_site_fract_x
_atom_site_fract_y
_atom_site_fract_z
Si Si1 0.186253 0.817211 0.531065
Si Si2 0.385576 0.184221 0.454178
Si Si3 0.315205 0.320465 0.831246
Si Si4 0.125865 0.182303 0.143707
Si Si5 0.834393 0.180106 0.607613
Si Si6 0.336369 0.170181 0.662277
Si Si7 0.867953 0.319215 0.715768
O O1 0.293819 0.749193 0.480682
O O2 0.238452 0.772949 0.395645
O O3 0.031465 0.754443 0.703578
O O4 0.181706 0.000000 0.545081
O O5 0.531596 0.269334 0.302306
O O6 0.302602 0.226096 0.613684
O O7 0.411772 0.000000 0.423237
O O8 0.295941 0.500000 0.866895
O O9 0.281723 0.287791 0.779503
O O10 0.206157 0.224351 0.988898
O O11 0.200047 0.266805 0.138163
O O12 0.130979 0.000000 0.151858
O O13 0.774943 0.276305 0.738160
O O14 0.995247 0.216635 0.432118
O O15 0.813621 0.000000 0.645033
O O16 0.500000 0.157714 0.500000
O O17 0.271713 0.000000 0.742915
O O18 0.901829 0.500000 0.681410
#
# Coordination Sequence:
#
# PCOD8057106 Si02
#       7
#     4   4   4   4   4   4   4
#     4   8  16  30  51  75  96 121 159 202 238 277
#     4   9  17  33  54  74  95 122 159 200 238 280
#     4  11  21  32  48  72  99 127 159 195 237 285
#     4  10  19  33  51  71  96 127 161 198 240 284
#     4   9  15  26  44  67  94 126 162 195 230 277
#     4   8  15  29  50  71  91 121 161 199 233 274
#     4  10  17  26  42  67  96 125 158 197 238 277
#
# _framework density 18.364193
#
# number of rings (size 3 to 8) (size 9 to 14) (size 15 to 20)
#    0.000    2.714    0.000    6.000    0.000    2.571 
#    0.000    5.000    0.000    5.143    0.000    6.000 
#    0.000    0.000    0.000    0.000    0.000    0.000 
#
# Total GULP energy -346944.742231 kJ/mol
# GULP energy per Si atom -12390.883651 kJ/mol
# Density = 1.832240 g / cm^3
# Si number density = 18.364193 Si / 1000 Ang^3
#
#
#
# Elastic Constant Matrix: (Units=GPa)
#
#
# Indices 1 2 3 4 5 6 
#
# 1 112.5793 22.4940 2.1704 0.0000 8.4327 0.0000
# 2 22.4940 58.3736 8.9254 0.0000 2.4703 0.0000
# 3 2.1704 8.9254 18.9383 0.0000 0.1259 0.0000
# 4 0.0000 0.0000 0.0000 14.8155 0.0000 6.4004
# 5 8.4327 2.4703 0.1259 0.0000 15.6871 0.0000
# 6 0.0000 0.0000 0.0000 6.4004 0.0000 13.7987
#
#
#
# Elastic Compliance Matrix: (Units=1/GPa)
#
#
# Indices 1 2 3 4 5 6 
#
# 1 0.009976 -0.003741 0.000652 0.000000 -0.004779 0.000000
# 2 -0.003741 0.019992 -0.008986 0.000000 -0.001065 0.000000
# 3 0.000652 -0.008986 0.056959 0.000000 0.000608 0.000000
# 4 0.000000 0.000000 0.000000 0.084412 0.000000 -0.039154
# 5 -0.004779 -0.001065 0.000608 0.000000 0.066478 0.000000
# 6 0.000000 0.000000 0.000000 -0.039154 0.000000 0.090632
#
#
# Mechanical properties :
#
#
# Convention : Reuss Voigt Hill
#
# Bulk Modulus (GPa) = 15.92983 28.56343 22.24663
# Shear Modulus (GPa) = 13.38598 19.28035 16.33316
#
# Velocity S-wave (km/s) = 2.70278 3.24371 2.98552
# Velocity P-wave (km/s) = 4.29339 5.44211 4.90152
#
# Compressibility (1/GPa) = 0.06277529
#
# Stress axis : x y z
#
# Youngs Moduli (GPa) = 100.24496 50.02035 17.55641
#
# Poissons Ratio (x) = 0.18715 -0.01144
# Poissons Ratio (y) = 0.37507 0.15776
# Poissons Ratio (z) = -0.06535 0.44949
#
# Static dielectric constant tensor:
#      x y z
#    x 4.217280 0.000000 0.512380 
#    y 0.000000 3.167540 0.000000 
#    z 0.512380 0.000000 3.096890 
# 
# 
# High freq. dielectric constant tensor:
#      x y z
#    x 1.720230 0.000000 0.040510 
#    y 0.000000 1.699880 0.000000 
#    z 0.040510 0.000000 1.666100 
# 
# From -- ./inp_files/79246.got.cif
#   From: 2010.06.25/outbox.cif.g09.slc.cpg/sg10_40_cif.got.tgz:79246.got - 2010.06.27 22:07:45.
