data_PCOD8057435
_publ_section_title
;
Structure prediction by ZEFSAII (Michael W. Deem and Ramdas Pophale) SiO2 
 PCOD8057435
Probable space group: P 2/M
;
_chemical_formula_sum "Si O2"
_cell_formula_units_Z 32
_cell_length_a 25.628391
_cell_length_b 14.514693
_cell_length_c 9.555077
_cell_angle_alpha 90.000000
_cell_angle_beta 26.000511
_cell_angle_gamma 90.000000
_cell_volume 1558.164444
_symmetry_space_group_name_H-M "P 2/M"
_symmetry_group_IT_number 10
_symmetry_cell_setting 'monoclinic'
loop_
_space_group_symop_operation_xyz
x,y,z
-x,y,-z
-x,-y,-z
x,-y,z
loop_
_atom_site_type_symbol
_atom_site_label
_atom_site_fract_x
_atom_site_fract_y
_atom_site_fract_z
Si Si1 0.842801 0.893730 0.269799
Si Si2 0.436893 0.104302 0.016198
Si Si3 0.531951 0.607033 0.766514
Si Si4 0.862960 0.601046 0.314159
Si Si5 0.037123 0.778003 0.262216
Si Si6 0.434321 0.244843 0.801199
Si Si7 0.193586 0.603635 0.871407
Si Si8 0.828106 0.228836 0.558290
O O1 0.702069 0.884524 0.618884
O O2 0.888752 0.842798 0.301117
O O3 0.885628 0.000000 0.166843
O O4 0.885075 0.845326 0.023785
O O5 0.474202 0.000000 0.896415
O O6 0.500000 0.144353 0.000000
O O7 0.488596 0.162144 0.762286
O O8 0.499605 0.500000 0.824256
O O9 0.449538 0.662147 0.855778
O O10 0.672513 0.624693 0.400633
O O11 0.500000 0.639060 0.000000
O O12 0.844247 0.500000 0.423942
O O13 0.813259 0.606126 0.278840
O O14 0.792384 0.674583 0.573206
O O15 0.000000 0.630915 0.000000
O O16 0.000000 0.825354 0.500000
O O17 0.914897 0.755504 0.478069
O O18 0.105579 0.683375 0.138609
O O19 0.500000 0.261621 0.500000
O O20 0.303946 0.204486 0.073051
O O21 0.155260 0.500000 0.014494
#
# Coordination Sequence:
#
# PCOD8057435 Si02
#       8
#     4   4   4   4   4   4   4   4
#     4  10  22  42  65  90 122 159 202 250 300 359
#     4   9  20  39  66  95 120 158 209 252 298 360
#     4  10  22  40  63  90 120 162 211 251 298 364
#     4  10  17  31  59  90 114 145 198 254 292 337
#     4  12  26  38  60  91 126 158 200 251 304 361
#     4  11  25  38  61  90 125 164 198 249 314 361
#     4  10  21  38  61  88 122 159 198 248 304 356
#     4  11  22  41  60  89 118 160 206 245 295 361
#
# _framework density 20.536984
#
# number of rings (size 3 to 8) (size 9 to 14) (size 15 to 20)
#    0.000    1.625    2.500    1.500    5.250    3.500 
#    0.000    0.000    0.000    0.000    0.000    0.000 
#    0.000    0.000    0.000    0.000    0.000    0.000 
#
# Total GULP energy -396592.620207 kJ/mol
# GULP energy per Si atom -12393.519381 kJ/mol
# Density = 2.049024 g / cm^3
# Si number density = 20.536984 Si / 1000 Ang^3
#
#
#
# Elastic Constant Matrix: (Units=GPa)
#
#
# Indices 1 2 3 4 5 6 
#
# 1 77.3492 34.1859 40.6756 0.0000 5.4192 0.0000
# 2 34.1859 107.5214 34.4664 0.0000 12.6727 0.0000
# 3 40.6756 34.4664 66.9178 0.0000 15.5857 0.0000
# 4 0.0000 0.0000 0.0000 26.5237 0.0000 -7.6241
# 5 5.4192 12.6727 15.5857 0.0000 40.2755 0.0000
# 6 0.0000 0.0000 0.0000 -7.6241 0.0000 20.8050
#
#
#
# Elastic Compliance Matrix: (Units=1/GPa)
#
#
# Indices 1 2 3 4 5 6 
#
# 1 0.019978 -0.003080 -0.011163 0.000000 0.002601 0.000000
# 2 -0.003080 0.011688 -0.003723 0.000000 -0.001822 0.000000
# 3 -0.011163 -0.003723 0.025305 0.000000 -0.007119 0.000000
# 4 0.000000 0.000000 0.000000 0.042141 0.000000 0.015443
# 5 0.002601 -0.001822 -0.007119 0.000000 0.027807 0.000000
# 6 0.000000 0.000000 0.000000 0.015443 0.000000 0.053724
#
#
# Mechanical properties :
#
#
# Convention : Reuss Voigt Hill
#
# Bulk Modulus (GPa) = 47.53265 52.27160 49.90212
# Shear Modulus (GPa) = 22.36261 27.01821 24.69041
#
# Velocity S-wave (km/s) = 3.30342 3.63104 3.47110
# Velocity P-wave (km/s) = 6.14372 6.56406 6.35737
#
# Compressibility (1/GPa) = 0.02103817
#
# Stress axis : x y z
#
# Youngs Moduli (GPa) = 50.05631 85.55705 39.51863
#
# Poissons Ratio (x) = 0.26352 0.44113
# Poissons Ratio (y) = 0.15418 0.14714
# Poissons Ratio (z) = 0.55875 0.31856
#
# Static dielectric constant tensor:
#      x y z
#    x 3.705920 0.000000 -0.236600 
#    y 0.000000 3.941850 0.000000 
#    z -0.236600 0.000000 3.609680 
# 
# 
# High freq. dielectric constant tensor:
#      x y z
#    x 1.801370 0.000000 -0.022720 
#    y 0.000000 1.806990 0.000000 
#    z -0.022720 0.000000 1.790840 
# 
# From -- ./inp_files/36327.got.cif
#   From: 2010.06.25/outbox.cif.g09.slc.cpg/sg10_19_cif.got.tgz:36327.got - 2010.06.27 22:07:45.
