data_PCOD8057258
_publ_section_title
;
Structure prediction by ZEFSAII (Michael W. Deem and Ramdas Pophale) SiO2 
 PCOD8057258
Probable space group: P 2/M
;
_chemical_formula_sum "Si O2"
_cell_formula_units_Z 32
_cell_length_a 11.872922
_cell_length_b 8.866960
_cell_length_c 17.347036
_cell_angle_alpha 90.000000
_cell_angle_beta 94.222218
_cell_angle_gamma 90.000000
_cell_volume 1821.282720
_symmetry_space_group_name_H-M "P 2/M"
_symmetry_group_IT_number 10
_symmetry_cell_setting 'monoclinic'
loop_
_space_group_symop_operation_xyz
x,y,z
-x,y,-z
-x,-y,-z
x,-y,z
loop_
_atom_site_type_symbol
_atom_site_label
_atom_site_fract_x
_atom_site_fract_y
_atom_site_fract_z
Si Si1 0.739995 0.675044 0.394423
Si Si2 0.227952 0.834797 0.833897
Si Si3 0.354898 0.321027 0.288903
Si Si4 0.971537 0.180552 0.082913
Si Si5 0.127211 0.178572 0.229997
Si Si6 0.415727 0.819206 0.738405
Si Si7 0.383753 0.323784 0.461820
Si Si8 0.927814 0.165483 0.322768
O O1 0.724111 0.500000 0.374022
O O2 0.645940 0.766106 0.342452
O O3 0.718149 0.708210 0.483697
O O4 0.868455 0.723854 0.381390
O O5 0.344180 0.757438 0.809837
O O6 0.148922 0.850096 0.755829
O O7 0.151836 0.752643 0.895979
O O8 0.260179 0.000000 0.866837
O O9 0.363079 0.500000 0.286009
O O10 0.243593 0.267242 0.239851
O O11 0.460638 0.250580 0.249024
O O12 0.353299 0.256630 0.376510
O O13 0.068508 0.230754 0.147315
O O14 0.962980 0.000000 0.082257
O O15 0.000000 0.245503 0.000000
O O16 0.049741 0.225566 0.299928
O O17 0.148294 0.000000 0.231470
O O18 0.420086 0.000000 0.738422
O O19 0.500000 0.250999 0.500000
O O20 0.404316 0.500000 0.451471
O O21 0.940385 0.000000 0.361730
#
# Coordination Sequence:
#
# PCOD8057258 Si02
#       8
#     4   4   4   4   4   4   4   4
#     4  10  17  28  48  69  89 117 158 205 243 275
#     4   7  12  23  41  67  95 119 146 185 227 268
#     4  11  21  33  49  67  91 126 165 200 236 282
#     4   8  13  25  50  79 100 120 149 186 229 276
#     4   9  18  33  50  71 100 127 153 191 238 282
#     4  10  18  29  45  67  96 126 156 193 240 283
#     4   9  17  31  46  63  91 122 156 202 246 277
#     4   8  15  29  46  64  92 125 152 188 237 282
#
# _framework density 17.570032999999999
#
# number of rings (size 3 to 8) (size 9 to 14) (size 15 to 20)
#    0.000    3.000    1.250    3.375    0.000    0.500 
#    0.000    3.750    0.000    4.875    0.000    5.250 
#    0.000    0.000    0.000    0.000    0.000    0.000 
#
# Total GULP energy -396437.747993 kJ/mol
# GULP energy per Si atom -12388.679625 kJ/mol
# Density = 1.753004 g / cm^3
# Si number density = 17.570033 Si / 1000 Ang^3
#
#
#
# Elastic Constant Matrix: (Units=GPa)
#
#
# Indices 1 2 3 4 5 6 
#
# 1 145.4141 38.0221 66.2575 0.0000 -26.7220 0.0000
# 2 38.0221 47.5102 24.9674 0.0000 -8.9232 0.0000
# 3 66.2575 24.9674 96.6780 0.0000 -24.9396 0.0000
# 4 0.0000 0.0000 0.0000 9.3505 0.0000 5.8410
# 5 -26.7220 -8.9232 -24.9396 0.0000 29.2303 0.0000
# 6 0.0000 0.0000 0.0000 5.8410 0.0000 11.1577
#
#
#
# Elastic Compliance Matrix: (Units=1/GPa)
#
#
# Indices 1 2 3 4 5 6 
#
# 1 0.011592 -0.005644 -0.005382 0.000000 0.004282 0.000000
# 2 -0.005644 0.027263 -0.003022 0.000000 0.000584 0.000000
# 3 -0.005382 -0.003022 0.017060 0.000000 0.008713 0.000000
# 4 0.000000 0.000000 0.000000 0.158912 0.000000 -0.083190
# 5 0.004282 0.000584 0.008713 0.000000 0.045738 0.000000
# 6 0.000000 0.000000 0.000000 -0.083190 0.000000 0.133174
#
#
# Mechanical properties :
#
#
# Convention : Reuss Voigt Hill
#
# Bulk Modulus (GPa) = 35.94675 60.89957 48.42316
# Shear Modulus (GPa) = 11.59799 20.63806 16.11802
#
# Velocity S-wave (km/s) = 2.57203 3.43099 3.03208
# Velocity P-wave (km/s) = 5.41516 7.10154 6.31490
#
# Compressibility (1/GPa) = 0.02781892
#
# Stress axis : x y z
#
# Youngs Moduli (GPa) = 86.26596 36.67983 58.61548
#
# Poissons Ratio (x) = 0.20703 0.31548
# Poissons Ratio (y) = 0.48692 0.17711
# Poissons Ratio (z) = 0.46430 0.11083
#
# Static dielectric constant tensor:
#      x y z
#    x 3.512000 0.000000 -0.447600 
#    y 0.000000 2.965150 0.000000 
#    z -0.447600 0.000000 3.265810 
# 
# 
# High freq. dielectric constant tensor:
#      x y z
#    x 1.681750 0.000000 -0.032530 
#    y 0.000000 1.645280 0.000000 
#    z -0.032530 0.000000 1.649900 
# 
# From -- ./inp_files/75967.got.cif
#   From: 2010.06.25/outbox.cif.g09.slc.cpg/sg10_38_cif.got.tgz:75967.got - 2010.06.27 22:07:45.
