data_PCOD8057024
_publ_section_title
;
Structure prediction by ZEFSAII (Michael W. Deem and Ramdas Pophale) SiO2 
 PCOD8057024
Probable space group: P 2/M
;
_chemical_formula_sum "Si O2"
_cell_formula_units_Z 32
_cell_length_a 34.718276
_cell_length_b 9.379478
_cell_length_c 21.280042
_cell_angle_alpha 90.000000
_cell_angle_beta 17.738537
_cell_angle_gamma 90.000000
_cell_volume 2111.272734
_symmetry_space_group_name_H-M "P 2/M"
_symmetry_group_IT_number 10
_symmetry_cell_setting 'monoclinic'
loop_
_space_group_symop_operation_xyz
x,y,z
-x,y,-z
-x,-y,-z
x,-y,z
loop_
_atom_site_type_symbol
_atom_site_label
_atom_site_fract_x
_atom_site_fract_y
_atom_site_fract_z
Si Si1 0.063192 0.830676 0.713089
Si Si2 0.424554 0.829419 0.469865
Si Si3 0.786602 0.829421 0.107829
Si Si4 0.704237 0.664781 0.688793
Si Si5 0.611635 0.843929 0.276734
Si Si6 0.509697 0.335217 0.883339
Si Si7 0.615738 0.830677 0.607990
Si Si8 0.105593 0.169268 0.788817
O O1 0.170976 0.760864 0.502682
O O2 0.077019 0.776348 0.763095
O O3 0.075867 0.000000 0.689124
O O4 0.929110 0.775400 0.895156
O O5 0.297672 0.775660 0.702323
O O6 0.550860 0.767311 0.309358
O O7 0.422384 0.775406 0.401866
O O8 0.428214 0.000000 0.466780
O O9 0.728707 0.767308 0.131517
O O10 0.781791 0.000000 0.113215
O O11 0.742827 0.500000 0.623820
O O12 0.619932 0.709802 0.760136
O O13 0.625938 0.693133 0.874058
O O14 0.500000 0.860896 0.500000
O O15 0.659086 0.000000 0.181833
O O16 0.523871 0.500000 0.842784
O O17 0.518282 0.239144 0.808066
O O18 0.757238 0.776349 0.402648
O O19 0.605835 0.000000 0.629184
O O20 0.100536 0.000000 0.798930
O O21 0.000000 0.232867 0.000000
#
# Coordination Sequence:
#
# PCOD8057024 Si02
#       8
#     4   4   4   4   4   4   4   4
#     4  10  17  25  40  63  84 105 134 167 199 231
#     4   8  13  21  35  57  85 113 138 163 193 232
#     4   8  13  21  35  57  85 113 138 163 193 232
#     4   9  18  32  46  57  74 104 137 168 205 246
#     4   7  10  18  32  52  80 111 138 164 193 225
#     4   9  18  32  46  57  74 104 137 168 205 246
#     4  10  17  25  40  63  84 105 134 167 199 231
#     4   9  16  24  34  53  84 114 133 151 184 231
#
# _framework density 15.156734
#
# number of rings (size 3 to 8) (size 9 to 14) (size 15 to 20)
#    0.000    3.250    1.250    3.000    0.000    3.500 
#    0.000    1.250    0.000    3.750    0.000    1.750 
#    0.000   10.000    0.000    0.000    0.000    0.000 
#
# Total GULP energy -396491.038091 kJ/mol
# GULP energy per Si atom -12390.344940 kJ/mol
# Density = 1.512224 g / cm^3
# Si number density = 15.156734 Si / 1000 Ang^3
#
#
#
# Elastic Constant Matrix: (Units=GPa)
#
#
# Indices 1 2 3 4 5 6 
#
# 1 128.1263 23.2629 68.3876 0.0000 -13.9189 0.0000
# 2 23.2629 18.4447 26.0424 0.0000 1.2739 0.0000
# 3 68.3876 26.0424 96.2560 0.0000 -0.6628 0.0000
# 4 0.0000 0.0000 0.0000 4.4811 0.0000 -1.0605
# 5 -13.9189 1.2739 -0.6628 0.0000 20.7353 0.0000
# 6 0.0000 0.0000 0.0000 -1.0605 0.0000 6.7875
#
#
#
# Elastic Compliance Matrix: (Units=1/GPa)
#
#
# Indices 1 2 3 4 5 6 
#
# 1 0.014720 -0.007431 -0.008378 0.000000 0.010070 0.000000
# 2 -0.007431 0.092271 -0.019762 0.000000 -0.011289 0.000000
# 3 -0.008378 -0.019762 0.021663 0.000000 -0.003717 0.000000
# 4 0.000000 0.000000 0.000000 0.231727 0.000000 0.036207
# 5 0.010070 -0.011289 -0.003717 0.000000 0.055561 0.000000
# 6 0.000000 0.000000 0.000000 0.036207 0.000000 0.152987
#
#
# Mechanical properties :
#
#
# Convention : Reuss Voigt Hill
#
# Bulk Modulus (GPa) = 17.38825 53.13477 35.26151
# Shear Modulus (GPa) = 7.58446 14.74306 11.16376
#
# Velocity S-wave (km/s) = 2.23939 3.12221 2.71690
# Velocity P-wave (km/s) = 4.26424 6.93762 5.75822
#
# Compressibility (1/GPa) = 0.05751009
#
# Stress axis : x y z
#
# Youngs Moduli (GPa) = 67.93571 10.83765 46.16237
#
# Poissons Ratio (x) = 0.08054 0.38676
# Poissons Ratio (y) = 0.50484 0.91228
# Poissons Ratio (z) = 0.56918 0.21418
#
# Static dielectric constant tensor:
#      x y z
#    x 3.194340 0.000000 -0.149380 
#    y 0.000000 2.413290 0.000000 
#    z -0.149380 0.000000 2.868170 
# 
# 
# High freq. dielectric constant tensor:
#      x y z
#    x 1.579020 0.000000 -0.006010 
#    y 0.000000 1.528380 0.000000 
#    z -0.006010 0.000000 1.565890 
# 
# From -- ./inp_files/55473.got.cif
#   From: 2010.06.25/outbox.cif.g09.slc.cpg/sg10_28_cif.got.tgz:55473.got - 2010.06.27 22:07:45.
