data_PCOD8057289
_publ_section_title
;
Structure prediction by ZEFSAII (Michael W. Deem and Ramdas Pophale) SiO2 
 PCOD8057289
Probable space group: P 2/M
;
_chemical_formula_sum "Si O2"
_cell_formula_units_Z 28
_cell_length_a 10.082656
_cell_length_b 16.488239
_cell_length_c 15.890996
_cell_angle_alpha 90.000000
_cell_angle_beta 36.852920
_cell_angle_gamma 90.000000
_cell_volume 1584.455168
_symmetry_space_group_name_H-M "P 2/M"
_symmetry_group_IT_number 10
_symmetry_cell_setting 'monoclinic'
loop_
_space_group_symop_operation_xyz
x,y,z
-x,y,-z
-x,-y,-z
x,-y,z
loop_
_atom_site_type_symbol
_atom_site_label
_atom_site_fract_x
_atom_site_fract_y
_atom_site_fract_z
Si Si1 0.294826 0.000000 0.492192
Si Si2 0.245929 0.748277 0.599391
Si Si3 0.658471 0.765316 0.151526
Si Si4 0.040377 0.170932 0.853940
Si Si5 0.778614 0.168225 0.560982
Si Si6 0.257950 0.590747 0.853301
Si Si7 0.812809 0.000000 0.263264
Si Si8 0.262303 0.585475 0.657735
O O1 0.232334 0.922090 0.469354
O O2 0.553969 0.000000 0.376654
O O3 0.159645 0.000000 0.649004
O O4 0.500000 0.755312 0.500000
O O5 0.225552 0.767248 0.512224
O O6 0.145593 0.658383 0.666817
O O7 0.095015 0.808733 0.729638
O O8 0.423503 0.810458 0.274087
O O9 0.630414 0.666994 0.154088
O O10 0.790823 0.782857 0.170331
O O11 0.791392 0.803060 0.004836
O O12 0.069346 0.074531 0.843678
O O13 0.000000 0.180302 0.500000
O O14 0.349841 0.500000 0.832248
O O15 0.298770 0.609105 0.735439
O O16 0.000000 0.593320 0.000000
O O17 0.500000 0.570997 0.500000
O O18 0.126898 0.500000 0.718402
#
# Coordination Sequence:
#
# PCOD8057289 Si02
#       8
#     2   4   4   4   4   4   2   4
#     4  11  21  37  59  82 111 142 194 232 273 338
#     4  11  17  34  57  79 105 145 188 226 275 333
#     4  11  20  35  53  85 119 143 185 232 281 329
#     4  11  20  32  57  84 110 143 181 235 277 328
#     4  12  25  39  57  80 112 152 193 232 280 335
#     4  10  17  28  50  83 119 145 173 229 291 331
#     4  11  20  34  60  91 106 141 188 233 284 334
#     4   9  16  25  44  75 106 135 173 222 273 320
#
# _framework density 17.671689000000001
#
# number of rings (size 3 to 8) (size 9 to 14) (size 15 to 20)
#    0.000    1.286    7.143    1.071    0.000    1.714 
#    0.000    0.714    0.000    2.571    0.000    0.000 
#    0.000    5.714    0.000    0.000    0.000    0.000 
#
# Total GULP energy -347003.946557 kJ/mol
# GULP energy per Si atom -12392.998091 kJ/mol
# Density = 1.763147 g / cm^3
# Si number density = 17.671689 Si / 1000 Ang^3
#
#
#
# Elastic Constant Matrix: (Units=GPa)
#
#
# Indices 1 2 3 4 5 6 
#
# 1 64.3004 24.1383 31.3437 0.0000 -6.9563 0.0000
# 2 24.1383 147.8210 26.4996 0.0000 0.6900 0.0000
# 3 31.3437 26.4996 112.1172 0.0000 4.3769 0.0000
# 4 0.0000 0.0000 0.0000 43.9933 0.0000 58.3406
# 5 -6.9563 0.6900 4.3769 0.0000 19.1330 0.0000
# 6 0.0000 0.0000 0.0000 58.3406 0.0000 174.4792
#
#
#
# Elastic Compliance Matrix: (Units=1/GPa)
#
#
# Indices 1 2 3 4 5 6 
#
# 1 0.019973 -0.002340 -0.005365 0.000000 0.008574 0.000000
# 2 -0.002340 0.007339 -0.001046 0.000000 -0.000876 0.000000
# 3 -0.005365 -0.001046 0.010838 0.000000 -0.004392 0.000000
# 4 0.000000 0.000000 0.000000 0.040840 0.000000 -0.013656
# 5 0.008574 -0.000876 -0.004392 0.000000 0.056419 0.000000
# 6 0.000000 0.000000 0.000000 -0.013656 0.000000 0.010297
#
#
# Mechanical properties :
#
#
# Convention : Reuss Voigt Hill
#
# Bulk Modulus (GPa) = 48.43297 54.24465 51.33881
# Shear Modulus (GPa) = 29.39593 63.67155 46.53374
#
# Velocity S-wave (km/s) = 4.08296 6.00903 5.13707
# Velocity P-wave (km/s) = 7.04940 8.88296 8.01876
#
# Compressibility (1/GPa) = 0.02064709
#
# Stress axis : x y z
#
# Youngs Moduli (GPa) = 50.06684 136.26491 92.26805
#
# Poissons Ratio (x) = 0.31882 0.49506
# Poissons Ratio (y) = 0.11714 0.09654
# Poissons Ratio (z) = 0.26863 0.14257
#
# Static dielectric constant tensor:
#      x y z
#    x 2.725990 0.000000 0.217510 
#    y 0.000000 4.120540 0.000000 
#    z 0.217510 0.000000 3.474180 
# 
# 
# High freq. dielectric constant tensor:
#      x y z
#    x 1.605450 0.000000 0.030320 
#    y 0.000000 1.714920 0.000000 
#    z 0.030320 0.000000 1.696820 
# 
# From -- ./inp_files/30143.got.cif
#   From: 2010.06.25/outbox.cif.g09.slc.cpg/sg10_16_cif.got.tgz:30143.got - 2010.06.27 22:07:45.
