data_PCOD8057132
_publ_section_title
;
Structure prediction by ZEFSAII (Michael W. Deem and Ramdas Pophale) SiO2 
 PCOD8057132
Probable space group: P 2/M
;
_chemical_formula_sum "Si O2"
_cell_formula_units_Z 24
_cell_length_a 24.781567
_cell_length_b 8.842314
_cell_length_c 18.179827
_cell_angle_alpha 90.000000
_cell_angle_beta 19.726349
_cell_angle_gamma 90.000000
_cell_volume 1344.604268
_symmetry_space_group_name_H-M "P 2/M"
_symmetry_group_IT_number 10
_symmetry_cell_setting 'monoclinic'
loop_
_space_group_symop_operation_xyz
x,y,z
-x,y,-z
-x,-y,-z
x,-y,z
loop_
_atom_site_type_symbol
_atom_site_label
_atom_site_fract_x
_atom_site_fract_y
_atom_site_fract_z
Si Si1 0.250705 0.679056 0.352689
Si Si2 0.432394 0.677538 0.976481
Si Si3 0.925812 0.822112 0.819661
Si Si4 0.633914 0.173191 0.091022
Si Si5 0.740022 0.321198 0.178900
Si Si6 0.551112 0.823674 0.533784
O O1 0.217318 0.500000 0.400803
O O2 0.389641 0.732754 0.230607
O O3 0.094523 0.772715 0.571794
O O4 0.303748 0.728795 0.202625
O O5 0.436647 0.500000 0.971088
O O6 0.379415 0.731657 0.965131
O O7 0.920146 0.000000 0.840908
O O8 0.790224 0.773230 0.935183
O O9 0.896971 0.740210 0.935435
O O10 0.474231 0.197694 0.346062
O O11 0.651329 0.000000 0.045380
O O12 0.750262 0.500000 0.174022
O O13 0.588760 0.269713 0.325685
O O14 0.718698 0.245757 0.288145
O O15 0.536390 0.000000 0.531839
#
# Coordination Sequence:
#
# PCOD8057132 Si02
#       6
#     4   4   4   4   4   4
#     4   9  19  36  53  72  96 127 165 203 243 294
#     4   9  19  35  54  72  96 128 163 202 246 292
#     4  10  20  33  49  73 102 132 162 201 247 289
#     4   9  19  32  48  73 103 130 162 200 241 287
#     4  10  17  26  44  70  97 128 164 201 238 286
#     4   9  16  28  44  66  99 133 161 197 240 286
#
# _framework density 17.849118000000001
#
# number of rings (size 3 to 8) (size 9 to 14) (size 15 to 20)
#    0.000    2.667    0.000    5.500    0.000    6.000 
#    0.000    5.000    0.000    1.000    0.000    7.000 
#    0.000    0.000    0.000    0.000    0.000    0.000 
#
# Total GULP energy -297422.779403 kJ/mol
# GULP energy per Si atom -12392.615808 kJ/mol
# Density = 1.780849 g / cm^3
# Si number density = 17.849118 Si / 1000 Ang^3
#
#
#
# Elastic Constant Matrix: (Units=GPa)
#
#
# Indices 1 2 3 4 5 6 
#
# 1 23.4516 29.7461 81.2984 0.0000 7.6801 0.0000
# 2 29.7461 59.8577 43.4331 0.0000 10.5016 0.0000
# 3 81.2984 43.4331 121.1708 0.0000 29.4187 0.0000
# 4 0.0000 0.0000 0.0000 33.1224 0.0000 1.4897
# 5 7.6801 10.5016 29.4187 0.0000 18.6891 0.0000
# 6 0.0000 0.0000 0.0000 1.4897 0.0000 63.5447
#
#
#
# Elastic Compliance Matrix: (Units=1/GPa)
#
#
# Indices 1 2 3 4 5 6 
#
# 1 -0.022886 0.000289 0.021054 0.000000 -0.023899 0.000000
# 2 0.000289 0.022575 -0.008380 0.000000 0.000387 0.000000
# 3 0.021054 -0.008380 -0.003095 0.000000 0.000929 0.000000
# 4 0.000000 0.000000 0.000000 0.030223 0.000000 -0.000709
# 5 -0.023899 0.000387 0.000929 0.000000 0.061649 0.000000
# 6 0.000000 0.000000 0.000000 -0.000709 0.000000 0.015754
#
#
# Mechanical properties :
#
#
# Convention : Reuss Voigt Hill
#
# Bulk Modulus (GPa) = 44.40366 57.04836 50.72601
# Shear Modulus (GPa) = 58.27522 26.40473 42.33998
#
# Velocity S-wave (km/s) = 5.72011 3.85038 4.87571
# Velocity P-wave (km/s) = 8.27994 7.19709 7.75743
#
# Compressibility (1/GPa) = 0.02252066
#
# Stress axis : x y z
#
# Youngs Moduli (GPa) = -43.69400 44.29628 -323.11257
#
# Poissons Ratio (x) = -0.01281 6.80285
# Poissons Ratio (y) = 0.01264 -2.70769
# Poissons Ratio (z) = 0.91994 0.37120
#
# Static dielectric constant tensor:
#      x y z
#    x 3.683530 0.000000 0.534440 
#    y 0.000000 3.210940 0.000000 
#    z 0.534440 0.000000 3.594460 
# 
# 
# High freq. dielectric constant tensor:
#      x y z
#    x 1.664480 0.000000 0.036870 
#    y 0.000000 1.693630 0.000000 
#    z 0.036870 0.000000 1.689080 
# 
# From -- ./inp_files/52868.got.cif
#   From: 2010.06.25/outbox.cif.g09.slc.cpg/sg10_27_cif.got.tgz:52868.got - 2010.06.27 22:07:45.
