data_PCOD8057244
_publ_section_title
;
Structure prediction by ZEFSAII (Michael W. Deem and Ramdas Pophale) SiO2 
 PCOD8057244
Probable space group: P 2/M
;
_chemical_formula_sum "Si O2"
_cell_formula_units_Z 32
_cell_length_a 13.524106
_cell_length_b 18.617494
_cell_length_c 13.524100
_cell_angle_alpha 90.000000
_cell_angle_beta 146.655069
_cell_angle_gamma 90.000000
_cell_volume 1871.744578
_symmetry_space_group_name_H-M "P 2/M"
_symmetry_group_IT_number 10
_symmetry_cell_setting 'monoclinic'
loop_
_space_group_symop_operation_xyz
x,y,z
-x,y,-z
-x,-y,-z
x,-y,z
loop_
_atom_site_type_symbol
_atom_site_label
_atom_site_fract_x
_atom_site_fract_y
_atom_site_fract_z
Si Si1 0.603683 0.419752 0.991593
Si Si2 0.246453 0.180688 0.365523
Si Si3 0.204741 0.419661 0.204741
Si Si4 0.107381 0.669732 0.302813
Si Si5 0.634477 0.180688 0.753547
Si Si6 0.991593 0.580248 0.603683
Si Si7 0.938836 0.079918 0.061164
Si Si8 0.302813 0.330268 0.107381
O O1 0.529488 0.500000 0.905325
O O2 0.574167 0.366777 0.874505
O O3 0.500000 0.387908 0.000000
O O4 0.813128 0.424882 0.186872
O O5 0.193752 0.251796 0.381353
O O6 0.434729 0.150181 0.565271
O O7 0.264001 0.200257 0.264001
O O8 0.091984 0.121064 0.252026
O O9 0.281422 0.500000 0.281422
O O10 0.221615 0.378781 0.322707
O O11 0.322707 0.378781 0.221615
O O12 0.000000 0.422713 0.000000
O O13 0.125495 0.633223 0.425832
O O14 0.903249 0.677332 0.096751
O O15 0.618646 0.251796 0.806248
O O16 0.747974 0.121064 0.908017
O O17 0.905325 0.500000 0.529488
O O18 0.000000 0.612092 0.500000
O O19 0.914487 0.000000 0.085513
O O20 0.000000 0.074161 0.000000
#
# Coordination Sequence:
#
# PCOD8057244 Si02
#       8
#     4   4   4   4   4   4   4   4
#     4   9  18  31  46  65  90 126 170 213 255 295
#     4  10  19  30  47  71 100 132 164 197 242 291
#     4   9  16  24  41  67  89 119 165 208 245 290
#     4  10  17  28  47  66  93 129 165 205 249 295
#     4  10  19  30  47  71 100 132 164 197 242 291
#     4   9  18  31  46  65  90 126 170 213 255 295
#     4   9  18  32  50  70  98 134 166 196 236 289
#     4  10  17  28  47  66  93 129 165 205 249 295
#
# _framework density 17.096350999999999
#
# number of rings (size 3 to 8) (size 9 to 14) (size 15 to 20)
#    0.000    2.500    2.500    0.750    0.000    4.500 
#    0.000    2.500    0.000    3.000    0.000    0.000 
#    0.000    1.000    0.500    0.000    0.000    0.000 
#
# Total GULP energy -396758.478437 kJ/mol
# GULP energy per Si atom -12398.702451 kJ/mol
# Density = 1.705744 g / cm^3
# Si number density = 17.096351 Si / 1000 Ang^3
#
#
#
# Elastic Constant Matrix: (Units=GPa)
#
#
# Indices 1 2 3 4 5 6 
#
# 1 96.7957 52.4711 25.4614 0.0000 -11.2246 0.0000
# 2 52.4711 137.2237 43.5899 0.0000 -2.5638 0.0000
# 3 25.4614 43.5899 68.0173 0.0000 2.9171 0.0000
# 4 0.0000 0.0000 0.0000 8.7228 0.0000 -1.1666
# 5 -11.2246 -2.5638 2.9171 0.0000 20.3078 0.0000
# 6 0.0000 0.0000 0.0000 -1.1666 0.0000 12.7642
#
#
#
# Elastic Compliance Matrix: (Units=1/GPa)
#
#
# Indices 1 2 3 4 5 6 
#
# 1 0.014405 -0.004448 -0.002877 0.000000 0.007814 0.000000
# 2 -0.004448 0.010606 -0.005115 0.000000 -0.000385 0.000000
# 3 -0.002877 -0.005115 0.019272 0.000000 -0.005004 0.000000
# 4 0.000000 0.000000 0.000000 0.116061 0.000000 0.010608
# 5 0.007814 -0.000385 -0.005004 0.000000 0.054231 0.000000
# 6 0.000000 0.000000 0.000000 0.010608 0.000000 0.079314
#
#
# Mechanical properties :
#
#
# Convention : Reuss Voigt Hill
#
# Bulk Modulus (GPa) = 51.54040 60.56460 56.05250
# Shear Modulus (GPa) = 15.37336 20.39323 17.88329
#
# Velocity S-wave (km/s) = 3.00195 3.45750 3.23775
# Velocity P-wave (km/s) = 6.49831 7.17227 6.84359
#
# Compressibility (1/GPa) = 0.01940226
#
# Stress axis : x y z
#
# Youngs Moduli (GPa) = 69.41912 94.28559 51.88914
#
# Poissons Ratio (x) = 0.41942 0.14927
# Poissons Ratio (y) = 0.30881 0.26543
# Poissons Ratio (z) = 0.19970 0.48230
#
# Static dielectric constant tensor:
#      x y z
#    x 3.079030 0.000000 -0.000400 
#    y 0.000000 3.217710 0.000000 
#    z -0.000400 0.000000 3.077640 
# 
# 
# High freq. dielectric constant tensor:
#      x y z
#    x 1.625750 0.000000 0.008220 
#    y 0.000000 1.643420 0.000000 
#    z 0.008220 0.000000 1.654240 
# 
# From -- ./inp_files/67748.got.cif
#   From: 2010.06.25/outbox.cif.g09.slc.cpg/sg10_34_cif.got.tgz:67748.got - 2010.06.27 22:07:45.
