data_PCOD8057199
_publ_section_title
;
Structure prediction by ZEFSAII (Michael W. Deem and Ramdas Pophale) SiO2 
 PCOD8057199
Probable space group: P 2/M
;
_chemical_formula_sum "Si O2"
_cell_formula_units_Z 32
_cell_length_a 14.902270
_cell_length_b 9.174495
_cell_length_c 13.935843
_cell_angle_alpha 90.000000
_cell_angle_beta 91.760092
_cell_angle_gamma 90.000000
_cell_volume 1904.420689
_symmetry_space_group_name_H-M "P 2/M"
_symmetry_group_IT_number 10
_symmetry_cell_setting 'monoclinic'
loop_
_space_group_symop_operation_xyz
x,y,z
-x,y,-z
-x,-y,-z
x,-y,z
loop_
_atom_site_type_symbol
_atom_site_label
_atom_site_fract_x
_atom_site_fract_y
_atom_site_fract_z
Si Si1 0.100683 0.171196 0.011249
Si Si2 0.398984 0.327034 0.511486
Si Si3 0.124990 0.339939 0.525365
Si Si4 0.178210 0.827904 0.818219
Si Si5 0.248782 0.834987 0.400267
Si Si6 0.285326 0.339287 0.681088
Si Si7 0.025486 0.330565 0.699706
Si Si8 0.864356 0.833915 0.775473
O O1 0.147314 0.212320 0.113834
O O2 0.090587 0.000000 0.998114
O O3 0.165472 0.227079 0.927753
O O4 0.000000 0.240014 0.000000
O O5 0.500000 0.271217 0.500000
O O6 0.390745 0.500000 0.500845
O O7 0.336108 0.259462 0.427096
O O8 0.365436 0.276971 0.616090
O O9 0.120009 0.500000 0.475002
O O10 0.158124 0.219777 0.451345
O O11 0.195943 0.346853 0.614994
O O12 0.032962 0.305916 0.582902
O O13 0.268672 0.760755 0.774156
O O14 0.091331 0.775059 0.758740
O O15 0.186179 0.000000 0.810346
O O16 0.230197 0.826302 0.285052
O O17 0.266296 0.000000 0.434175
O O18 0.311215 0.500000 0.719239
O O19 0.042890 0.500000 0.726325
O O20 0.926773 0.283181 0.725680
O O21 0.902916 0.000000 0.770952
#
# Coordination Sequence:
#
# PCOD8057199 Si02
#       8
#     4   4   4   4   4   4   4   4
#     4   9  16  29  47  63  83 121 166 199 229 268
#     4   9  18  34  55  74  94 123 150 171 212 282
#     4   8  16  30  44  58  86 125 157 183 219 273
#     4  10  17  27  46  66  88 121 158 195 232 270
#     4  10  20  31  46  69  94 117 145 190 233 264
#     4   8  15  28  45  68  95 117 143 183 225 265
#     4  10  19  29  42  62  86 118 158 197 232 261
#     4  10  20  33  45  61  88 121 158 194 232 273
#
# _framework density 16.80301
#
# number of rings (size 3 to 8) (size 9 to 14) (size 15 to 20)
#    0.000    2.750    1.250    2.625    0.000    6.750 
#    0.000    4.375    0.000    0.000    0.000    0.875 
#    0.000    7.000    0.000    0.000    0.000    0.000 
#
# Total GULP energy -396542.071528 kJ/mol
# GULP energy per Si atom -12391.939735 kJ/mol
# Density = 1.676477 g / cm^3
# Si number density = 16.803010 Si / 1000 Ang^3
#
#
#
# Elastic Constant Matrix: (Units=GPa)
#
#
# Indices 1 2 3 4 5 6 
#
# 1 48.9446 24.0883 48.4723 0.0000 -16.1496 0.0000
# 2 24.0883 54.0374 38.5780 0.0000 -5.5671 0.0000
# 3 48.4723 38.5780 126.4845 0.0000 -11.5592 0.0000
# 4 0.0000 0.0000 0.0000 14.0171 0.0000 -7.4044
# 5 -16.1496 -5.5671 -11.5592 0.0000 18.8962 0.0000
# 6 0.0000 0.0000 0.0000 -7.4044 0.0000 16.5184
#
#
#
# Elastic Compliance Matrix: (Units=1/GPa)
#
#
# Indices 1 2 3 4 5 6 
#
# 1 0.047257 -0.008952 -0.012636 0.000000 0.030021 0.000000
# 2 -0.008952 0.025484 -0.004613 0.000000 -0.002964 0.000000
# 3 -0.012636 -0.004613 0.013817 0.000000 -0.003707 0.000000
# 4 0.000000 0.000000 0.000000 0.093475 0.000000 0.041900
# 5 0.030021 -0.002964 -0.003707 0.000000 0.075437 0.000000
# 6 0.000000 0.000000 0.000000 0.041900 0.000000 0.079320
#
#
# Mechanical properties :
#
#
# Convention : Reuss Voigt Hill
#
# Bulk Modulus (GPa) = 29.27766 50.19373 39.73569
# Shear Modulus (GPa) = 12.54462 17.77487 15.15975
#
# Velocity S-wave (km/s) = 2.73531 3.25597 3.00693
# Velocity P-wave (km/s) = 5.23811 6.63866 5.97953
#
# Compressibility (1/GPa) = 0.03415574
#
# Stress axis : x y z
#
# Youngs Moduli (GPa) = 21.16099 39.24036 72.37501
#
# Poissons Ratio (x) = 0.35127 0.91455
# Poissons Ratio (y) = 0.18943 0.33387
# Poissons Ratio (z) = 0.26740 0.18102
#
# Static dielectric constant tensor:
#      x y z
#    x 3.024860 0.000000 -0.241590 
#    y 0.000000 3.104530 0.000000 
#    z -0.241590 0.000000 3.390950 
# 
# 
# High freq. dielectric constant tensor:
#      x y z
#    x 1.606270 0.000000 -0.011420 
#    y 0.000000 1.640990 0.000000 
#    z -0.011420 0.000000 1.645080 
# 
# From -- ./inp_files/66118.got.cif
#   From: 2010.06.25/outbox.cif.g09.slc.cpg/sg10_34_cif.got.tgz:66118.got - 2010.06.27 22:07:45.
