data_PCOD8057646
_publ_section_title
;
Structure prediction by ZEFSAII (Michael W. Deem and Ramdas Pophale) SiO2 
 PCOD8057646
Probable space group: P 2/M
;
_chemical_formula_sum "Si O2"
_cell_formula_units_Z 28
_cell_length_a 14.562422
_cell_length_b 8.850885
_cell_length_c 13.772153
_cell_angle_alpha 90.000000
_cell_angle_beta 104.324306
_cell_angle_gamma 90.000000
_cell_volume 1719.910998
_symmetry_space_group_name_H-M "P 2/M"
_symmetry_group_IT_number 10
_symmetry_cell_setting 'monoclinic'
loop_
_space_group_symop_operation_xyz
x,y,z
-x,y,-z
-x,-y,-z
x,-y,z
loop_
_atom_site_type_symbol
_atom_site_label
_atom_site_fract_x
_atom_site_fract_y
_atom_site_fract_z
Si Si1 0.900470 0.824288 0.085062
Si Si2 0.214590 0.175470 0.134939
Si Si3 0.591694 0.324493 0.126951
Si Si4 0.597474 0.821097 0.919957
Si Si5 0.072933 0.678063 0.223854
Si Si6 0.972995 0.676977 0.389664
Si Si7 0.796116 0.326245 0.226291
O O1 0.823713 0.783251 0.146200
O O2 0.997275 0.732612 0.124011
O O3 0.925252 0.000000 0.097739
O O4 0.855315 0.781693 0.970726
O O5 0.321356 0.225959 0.135529
O O6 0.177066 0.261249 0.221393
O O7 0.212527 0.000000 0.157994
O O8 0.563907 0.500000 0.113875
O O9 0.504174 0.230823 0.149974
O O10 0.684618 0.300449 0.219195
O O11 0.614799 0.265217 0.025234
O O12 0.599167 0.000000 0.940262
O O13 0.075104 0.500000 0.225853
O O14 0.040224 0.741482 0.320996
O O15 0.991594 0.500000 0.401945
O O16 0.862107 0.711136 0.336788
O O17 0.000000 0.753822 0.500000
O O18 0.814501 0.500000 0.198878
#
# Coordination Sequence:
#
# PCOD8057646 Si02
#       7
#     4   4   4   4   4   4   4
#     4  10  18  29  43  60  87 122 153 179 211 255
#     4  10  20  31  42  60  87 122 154 180 213 254
#     4  10  18  28  42  64  91 117 148 187 226 252
#     4  10  19  30  43  60  86 122 160 183 208 255
#     4  10  20  30  44  66  87 113 147 183 222 264
#     4   8  15  30  49  68  89 112 141 179 224 272
#     4   9  17  28  45  68  91 116 148 184 223 263
#
# _framework density 16.279911999999999
#
# number of rings (size 3 to 8) (size 9 to 14) (size 15 to 20)
#    0.000    2.429    1.429    3.857    0.000    4.571 
#    0.000    0.000    0.000   10.714    0.000    1.000 
#    0.000    8.000    0.000    0.000    0.000    0.000 
#
# Total GULP energy -347024.799526 kJ/mol
# GULP energy per Si atom -12393.742840 kJ/mol
# Density = 1.624286 g / cm^3
# Si number density = 16.279912 Si / 1000 Ang^3
#
#
#
# Elastic Constant Matrix: (Units=GPa)
#
#
# Indices 1 2 3 4 5 6 
#
# 1 141.4618 30.8695 55.3693 0.0000 -4.3701 0.0000
# 2 30.8695 37.4365 21.9312 0.0000 1.1766 0.0000
# 3 55.3693 21.9312 74.2741 0.0000 0.1411 0.0000
# 4 0.0000 0.0000 0.0000 6.3300 0.0000 -4.8013
# 5 -4.3701 1.1766 0.1411 0.0000 11.5279 0.0000
# 6 0.0000 0.0000 0.0000 -4.8013 0.0000 27.2726
#
#
#
# Elastic Compliance Matrix: (Units=1/GPa)
#
#
# Indices 1 2 3 4 5 6 
#
# 1 0.010966 -0.005318 -0.006613 0.000000 0.004781 0.000000
# 2 -0.005318 0.034995 -0.006358 0.000000 -0.005510 0.000000
# 3 -0.006613 -0.006358 0.020275 0.000000 -0.002106 0.000000
# 4 0.000000 0.000000 0.000000 0.182325 0.000000 0.032098
# 5 0.004781 -0.005510 -0.002106 0.000000 0.089147 0.000000
# 6 0.000000 0.000000 0.000000 0.032098 0.000000 0.042318
#
#
# Mechanical properties :
#
#
# Convention : Reuss Voigt Hill
#
# Bulk Modulus (GPa) = 33.71933 52.16806 42.94369
# Shear Modulus (GPa) = 11.72359 18.69291 15.20825
#
# Velocity S-wave (km/s) = 2.68643 3.39221 3.05974
# Velocity P-wave (km/s) = 5.51178 6.88889 6.23845
#
# Compressibility (1/GPa) = 0.02965658
#
# Stress axis : x y z
#
# Youngs Moduli (GPa) = 91.19239 28.57542 49.32132
#
# Poissons Ratio (x) = 0.15197 0.32619
# Poissons Ratio (y) = 0.48498 0.31359
# Poissons Ratio (z) = 0.60310 0.18169
#
# Static dielectric constant tensor:
#      x y z
#    x 3.381210 0.000000 0.016370 
#    y 0.000000 3.016010 0.000000 
#    z 0.016370 0.000000 2.955220 
# 
# 
# High freq. dielectric constant tensor:
#      x y z
#    x 1.634850 0.000000 0.001620 
#    y 0.000000 1.623540 0.000000 
#    z 0.001620 0.000000 1.574650 
# 
# From -- ./inp_files/65717.got.cif
#   From: 2010.06.25/outbox.cif.g09.slc.cpg/sg10_33_cif.got.tgz:65717.got - 2010.06.27 22:07:45.
