data_PCOD8057015
_publ_section_title
;
Structure prediction by ZEFSAII (Michael W. Deem and Ramdas Pophale) SiO2 
 PCOD8057015
Probable space group: P 2/M
;
_chemical_formula_sum "Si O2"
_cell_formula_units_Z 28
_cell_length_a 11.460903
_cell_length_b 8.642485
_cell_length_c 18.424631
_cell_angle_alpha 90.000000
_cell_angle_beta 62.609347
_cell_angle_gamma 90.000000
_cell_volume 1620.375448
_symmetry_space_group_name_H-M "P 2/M"
_symmetry_group_IT_number 10
_symmetry_cell_setting 'monoclinic'
loop_
_space_group_symop_operation_xyz
x,y,z
-x,y,-z
-x,-y,-z
x,-y,z
loop_
_atom_site_type_symbol
_atom_site_label
_atom_site_fract_x
_atom_site_fract_y
_atom_site_fract_z
Si Si1 0.079980 0.178911 0.067813
Si Si2 0.024057 0.319728 0.386720
Si Si3 0.998430 0.177522 0.244058
Si Si4 0.802555 0.817204 0.544815
Si Si5 0.812407 0.680084 0.092149
Si Si6 0.481407 0.815944 0.424432
Si Si7 0.718477 0.182241 0.258194
O O1 0.101961 0.201423 0.147904
O O2 0.956594 0.283180 0.080922
O O3 0.046497 0.000000 0.061551
O O4 0.202710 0.235834 0.982884
O O5 0.000491 0.500000 0.406059
O O6 0.152385 0.266485 0.394357
O O7 0.046323 0.284708 0.295817
O O8 0.897103 0.226827 0.451066
O O9 0.853072 0.228241 0.260172
O O10 0.997146 0.000000 0.270522
O O11 0.656776 0.758431 0.568128
O O12 0.807750 0.000000 0.555152
O O13 0.790233 0.500000 0.087114
O O14 0.708214 0.742499 0.180988
O O15 0.500000 0.748064 0.500000
O O16 0.598029 0.752641 0.340169
O O17 0.486063 0.000000 0.426132
O O18 0.710339 0.000000 0.249727
#
# Coordination Sequence:
#
# PCOD8057015 Si02
#       7
#     4   4   4   4   4   4   4
#     4   9  16  27  43  62  87 120 155 191 229 268
#     4  11  21  32  47  67  94 123 152 189 231 274
#     4   9  17  29  47  69  92 120 154 190 227 270
#     4  10  19  33  52  69  89 119 156 193 227 267
#     4  10  17  25  39  62  93 124 153 184 223 274
#     4   9  17  30  50  73  92 115 152 194 229 263
#     4   9  17  30  47  67  93 123 155 189 227 273
#
# _framework density 17.279944
#
# number of rings (size 3 to 8) (size 9 to 14) (size 15 to 20)
#    0.000    2.429    0.000    6.857    0.000    5.143 
#    0.000    1.429    0.000    3.000    0.000    1.000 
#    0.000    8.000    0.000    0.000    0.000    0.000 
#
# Total GULP energy -347082.025547 kJ/mol
# GULP energy per Si atom -12395.786627 kJ/mol
# Density = 1.724061 g / cm^3
# Si number density = 17.279944 Si / 1000 Ang^3
#
#
#
# Elastic Constant Matrix: (Units=GPa)
#
#
# Indices 1 2 3 4 5 6 
#
# 1 76.1167 21.9965 58.0857 0.0000 5.8589 0.0000
# 2 21.9965 53.5021 30.7535 0.0000 7.4807 0.0000
# 3 58.0857 30.7535 159.8705 0.0000 12.9128 0.0000
# 4 0.0000 0.0000 0.0000 15.1023 0.0000 0.0732
# 5 5.8589 7.4807 12.9128 0.0000 22.4501 0.0000
# 6 0.0000 0.0000 0.0000 0.0732 0.0000 5.6185
#
#
#
# Elastic Compliance Matrix: (Units=1/GPa)
#
#
# Indices 1 2 3 4 5 6 
#
# 1 0.019029 -0.004325 -0.006080 0.000000 -0.000028 0.000000
# 2 -0.004325 0.022525 -0.002356 0.000000 -0.005022 0.000000
# 3 -0.006080 -0.002356 0.009151 0.000000 -0.002892 0.000000
# 4 0.000000 0.000000 0.000000 0.066219 0.000000 -0.000862
# 5 -0.000028 -0.005022 -0.002892 0.000000 0.047887 0.000000
# 6 0.000000 0.000000 0.000000 -0.000862 0.000000 0.177995
#
#
# Mechanical properties :
#
#
# Convention : Reuss Voigt Hill
#
# Bulk Modulus (GPa) = 39.70774 56.79565 48.25169
# Shear Modulus (GPa) = 13.27234 20.54442 16.90838
#
# Velocity S-wave (km/s) = 2.77443 3.45181 3.13149
# Velocity P-wave (km/s) = 5.76994 6.98756 6.40774
#
# Compressibility (1/GPa) = 0.02518401
#
# Stress axis : x y z
#
# Youngs Moduli (GPa) = 52.55093 44.39419 109.28061
#
# Poissons Ratio (x) = 0.19200 0.66438
# Poissons Ratio (y) = 0.22728 0.25748
# Poissons Ratio (z) = 0.31949 0.10460
#
# Static dielectric constant tensor:
#      x y z
#    x 2.908530 0.000000 0.117130 
#    y 0.000000 3.041950 0.000000 
#    z 0.117130 0.000000 3.747710 
# 
# 
# High freq. dielectric constant tensor:
#      x y z
#    x 1.613180 0.000000 0.017900 
#    y 0.000000 1.659520 0.000000 
#    z 0.017900 0.000000 1.683770 
# 
# From -- ./inp_files/83196.got.cif
#   From: 2010.06.25/outbox.cif.g09.slc.cpg/sg10_42_cif.got.tgz:83196.got - 2010.06.27 22:07:45.
