data_PCOD8057680
_publ_section_title
;
Structure prediction by ZEFSAII (Michael W. Deem and Ramdas Pophale) SiO2 
 PCOD8057680
Probable space group: P 2/M
;
_chemical_formula_sum "Si O2"
_cell_formula_units_Z 28
_cell_length_a 21.814906
_cell_length_b 9.254608
_cell_length_c 17.575025
_cell_angle_alpha 90.000000
_cell_angle_beta 27.869561
_cell_angle_gamma 90.000000
_cell_volume 1658.639491
_symmetry_space_group_name_H-M "P 2/M"
_symmetry_group_IT_number 10
_symmetry_cell_setting 'monoclinic'
loop_
_space_group_symop_operation_xyz
x,y,z
-x,y,-z
-x,-y,-z
x,-y,z
loop_
_atom_site_type_symbol
_atom_site_label
_atom_site_fract_x
_atom_site_fract_y
_atom_site_fract_z
Si Si1 0.811618 0.339922 0.333552
Si Si2 0.845130 0.837407 0.156477
Si Si3 0.801291 0.667247 0.510766
Si Si4 0.353877 0.667917 0.171635
Si Si5 0.880022 0.662999 0.974990
Si Si6 0.934264 0.166224 0.772051
Si Si7 0.137914 0.165329 0.317474
O O1 0.766733 0.500000 0.357391
O O2 0.771948 0.229414 0.310510
O O3 0.746602 0.295713 0.485906
O O4 0.966495 0.338256 0.177153
O O5 0.794062 0.000000 0.201263
O O6 0.806725 0.744624 0.124412
O O7 0.000000 0.834477 0.000000
O O8 0.848807 0.500000 0.460343
O O9 0.685971 0.696428 0.697153
O O10 0.922490 0.768063 0.399720
O O11 0.348100 0.500000 0.157261
O O12 0.257616 0.746103 0.219534
O O13 0.500000 0.729615 0.000000
O O14 0.824804 0.500000 0.029296
O O15 0.854145 0.747970 0.924824
O O16 0.853326 0.178926 0.783104
O O17 0.950784 0.000000 0.779566
O O18 0.000000 0.228483 0.500000
O O19 0.151080 0.000000 0.330053
#
# Coordination Sequence:
#
# PCOD8057680 Si02
#       7
#     4   4   4   4   4   4   4
#     4   8  14  23  35  52  77 112 149 183 222 272
#     4   9  15  22  33  52  79 112 148 183 223 268
#     4   9  17  29  44  63  89 120 154 192 237 282
#     4  10  21  35  51  72  97 126 162 203 244 286
#     4   9  16  25  37  55  83 116 149 183 227 277
#     4  10  18  28  44  65  90 117 154 197 233 275
#     4  10  20  34  50  71  96 125 161 200 242 289
#
# _framework density 16.881305999999999
#
# number of rings (size 3 to 8) (size 9 to 14) (size 15 to 20)
#    0.000    2.714    1.429    2.143    0.000    6.857 
#    0.000    0.000    0.000    0.000    0.000    0.000 
#    0.000    1.143    0.000   13.143    0.000    6.000 
#
# Total GULP energy -347129.506259 kJ/mol
# GULP energy per Si atom -12397.482366 kJ/mol
# Density = 1.684288 g / cm^3
# Si number density = 16.881306 Si / 1000 Ang^3
#
#
#
# Elastic Constant Matrix: (Units=GPa)
#
#
# Indices 1 2 3 4 5 6 
#
# 1 93.6584 59.1328 57.4201 0.0000 26.4269 0.0000
# 2 59.1328 112.5068 44.9164 0.0000 16.6349 0.0000
# 3 57.4201 44.9164 68.3555 0.0000 12.8802 0.0000
# 4 0.0000 0.0000 0.0000 15.4192 0.0000 7.5793
# 5 26.4269 16.6349 12.8802 0.0000 28.9669 0.0000
# 6 0.0000 0.0000 0.0000 7.5793 0.0000 29.3740
#
#
#
# Elastic Compliance Matrix: (Units=1/GPa)
#
#
# Indices 1 2 3 4 5 6 
#
# 1 0.030466 -0.006283 -0.018452 0.000000 -0.015982 0.000000
# 2 -0.006283 0.013722 -0.003639 0.000000 -0.000530 0.000000
# 3 -0.018452 -0.003639 0.031603 0.000000 0.004872 0.000000
# 4 0.000000 0.000000 0.000000 0.074275 0.000000 -0.019165
# 5 -0.015982 -0.000530 0.004872 0.000000 0.047241 0.000000
# 6 0.000000 0.000000 0.000000 -0.019165 0.000000 0.038989
#
#
# Mechanical properties :
#
#
# Convention : Reuss Voigt Hill
#
# Bulk Modulus (GPa) = 52.51405 66.38437 59.44921
# Shear Modulus (GPa) = 16.70060 22.28878 19.49469
#
# Velocity S-wave (km/s) = 3.14872 3.63757 3.40193
# Velocity P-wave (km/s) = 6.66293 7.55328 7.12203
#
# Compressibility (1/GPa) = 0.01904252
#
# Stress axis : x y z
#
# Youngs Moduli (GPa) = 32.82333 72.87691 31.64276
#
# Poissons Ratio (x) = 0.45789 0.58388
# Poissons Ratio (y) = 0.20623 0.11514
# Poissons Ratio (z) = 0.60566 0.26519
#
# Static dielectric constant tensor:
#      x y z
#    x 3.146920 0.000000 0.501170 
#    y 0.000000 3.307760 0.000000 
#    z 0.501170 0.000000 2.900710 
# 
# 
# High freq. dielectric constant tensor:
#      x y z
#    x 1.639740 0.000000 0.049670 
#    y 0.000000 1.660110 0.000000 
#    z 0.049670 0.000000 1.599740 
# 
# From -- ./inp_files/56312.got.cif
#   From: 2010.06.25/outbox.cif.g09.slc.cpg/sg10_29_cif.got.tgz:56312.got - 2010.06.27 22:07:45.
