data_PCOD8057971
_publ_section_title
;
Structure prediction by ZEFSAII (Michael W. Deem and Ramdas Pophale) SiO2 
 PCOD8057971
Probable space group: P 2/M
;
_chemical_formula_sum "Si O2"
_cell_formula_units_Z 20
_cell_length_a 22.099181
_cell_length_b 8.402608
_cell_length_c 7.352617
_cell_angle_alpha 90.000000
_cell_angle_beta 49.143570
_cell_angle_gamma 90.000000
_cell_volume 1032.656048
_symmetry_space_group_name_H-M "P 2/M"
_symmetry_group_IT_number 10
_symmetry_cell_setting 'monoclinic'
loop_
_space_group_symop_operation_xyz
x,y,z
-x,y,-z
-x,-y,-z
x,-y,z
loop_
_atom_site_type_symbol
_atom_site_label
_atom_site_fract_x
_atom_site_fract_y
_atom_site_fract_z
Si Si1 0.791351 0.689138 0.903319
Si Si2 0.615827 0.815454 0.261771
Si Si3 0.906400 0.688755 0.369242
Si Si4 0.496257 0.686612 0.216432
Si Si5 0.082013 0.689234 0.056483
O O1 0.777868 0.500000 0.941446
O O2 0.830843 0.744118 0.635813
O O3 0.708761 0.778475 0.091231
O O4 0.852296 0.755648 0.934817
O O5 0.578321 0.721622 0.163689
O O6 0.576202 0.768743 0.532226
O O7 0.600756 0.000000 0.256037
O O8 0.910591 0.500000 0.359673
O O9 0.894189 0.753218 0.189774
O O10 0.991942 0.749109 0.281596
O O11 0.479625 0.500000 0.247634
O O12 0.500000 0.750070 0.000000
O O13 0.084008 0.500000 0.060239
#
# Coordination Sequence:
#
# PCOD8057971 Si02
#       5
#     4   4   4   4   4
#     4  10  18  29  48  73 101 133 172 217 260 301
#     4  11  23  37  54  80 114 145 173 208 255 318
#     4   8  14  25  43  69  98 128 168 219 268 305
#     4  10  21  40  65  85 102 130 171 219 266 311
#     4   8  14  25  43  69  98 128 168 219 268 305
#
# _framework density 19.367533000000002
#
# number of rings (size 3 to 8) (size 9 to 14) (size 15 to 20)
#    0.000    2.600    0.000    5.400    0.000    5.600 
#    0.000    4.000    0.000    2.400    0.000    2.800 
#    0.000    0.000    0.000    0.000    0.000    0.000 
#
# Total GULP energy -247886.470075 kJ/mol
# GULP energy per Si atom -12394.323504 kJ/mol
# Density = 1.932345 g / cm^3
# Si number density = 19.367533 Si / 1000 Ang^3
#
#
#
# Elastic Constant Matrix: (Units=GPa)
#
#
# Indices 1 2 3 4 5 6 
#
# 1 60.0465 9.3529 47.1585 0.0000 5.5580 0.0000
# 2 9.3529 35.0915 17.0877 0.0000 1.4975 0.0000
# 3 47.1585 17.0877 123.4610 0.0000 -2.9638 0.0000
# 4 0.0000 0.0000 0.0000 0.0993 0.0000 7.4485
# 5 5.5580 1.4975 -2.9638 0.0000 36.2290 0.0000
# 6 0.0000 0.0000 0.0000 7.4485 0.0000 2.1977
#
#
#
# Elastic Compliance Matrix: (Units=1/GPa)
#
#
# Indices 1 2 3 4 5 6 
#
# 1 0.024626 -0.001867 -0.009255 0.000000 -0.004458 0.000000
# 2 -0.001867 0.030792 -0.003580 0.000000 -0.001279 0.000000
# 3 -0.009255 -0.003580 0.012192 0.000000 0.002565 0.000000
# 4 0.000000 0.000000 0.000000 -0.039768 0.000000 0.134785
# 5 -0.004458 -0.001279 0.002565 0.000000 0.028549 0.000000
# 6 0.000000 0.000000 0.000000 0.134785 0.000000 -0.001797
#
#
# Mechanical properties :
#
#
# Convention : Reuss Voigt Hill
#
# Bulk Modulus (GPa) = 26.17290 40.64415 33.40852
# Shear Modulus (GPa) = 51.68961 17.37186 34.53073
#
# Velocity S-wave (km/s) = 5.17172 2.99817 4.22704
# Velocity P-wave (km/s) = 7.01466 5.74601 6.41179
#
# Compressibility (1/GPa) = 0.03820745
#
# Stress axis : x y z
#
# Youngs Moduli (GPa) = 40.60810 32.47594 82.02197
#
# Poissons Ratio (x) = 0.06062 0.75911
# Poissons Ratio (y) = 0.07580 0.29360
# Poissons Ratio (z) = 0.37583 0.11625
#
# Static dielectric constant tensor:
#      x y z
#    x 3.767940 0.000000 0.190950 
#    y 0.000000 3.076240 0.000000 
#    z 0.190950 0.000000 3.812910 
# 
# 
# High freq. dielectric constant tensor:
#      x y z
#    x 1.757020 0.000000 0.003070 
#    y 0.000000 1.710660 0.000000 
#    z 0.003070 0.000000 1.762160 
# 
# From -- ./inp_files/35613.got.cif
#   From: 2010.06.25/outbox.cif.g09.slc.cpg/sg10_18_cif.got.tgz:35613.got - 2010.06.27 22:07:45.
