data_PCOD8057683
_publ_section_title
;
Structure prediction by ZEFSAII (Michael W. Deem and Ramdas Pophale) SiO2 
 PCOD8057683
Probable space group: P 2/M
;
_chemical_formula_sum "Si O2"
_cell_formula_units_Z 28
_cell_length_a 18.023565
_cell_length_b 13.165337
_cell_length_c 15.563550
_cell_angle_alpha 90.000000
_cell_angle_beta 29.687758
_cell_angle_gamma 90.000000
_cell_volume 1829.051991
_symmetry_space_group_name_H-M "P 2/M"
_symmetry_group_IT_number 10
_symmetry_cell_setting 'monoclinic'
loop_
_space_group_symop_operation_xyz
x,y,z
-x,y,-z
-x,-y,-z
x,-y,z
loop_
_atom_site_type_symbol
_atom_site_label
_atom_site_fract_x
_atom_site_fract_y
_atom_site_fract_z
Si Si1 0.324325 0.218015 0.675821
Si Si2 0.664294 0.879628 0.001422
Si Si3 0.858262 0.613899 0.204462
Si Si4 0.149357 0.805903 0.690608
Si Si5 0.821865 0.117008 0.014965
Si Si6 0.677275 0.879570 0.645712
Si Si7 0.168433 0.120674 0.333364
O O1 0.500000 0.199861 0.500000
O O2 0.282950 0.337578 0.705442
O O3 0.249345 0.155938 0.671525
O O4 0.254487 0.181316 0.834339
O O5 0.739187 0.833726 0.840019
O O6 0.668285 0.000000 0.991325
O O7 0.758443 0.841386 0.988489
O O8 0.493858 0.842538 0.180239
O O9 0.818883 0.500000 0.274473
O O10 0.891010 0.685996 0.254478
O O11 0.000000 0.614474 0.000000
O O12 0.241863 0.818822 0.510975
O O13 0.000248 0.872537 0.836387
O O14 0.778216 0.000000 0.071819
O O15 0.752668 0.844917 0.658505
O O16 0.692479 0.000000 0.614833
O O17 0.000000 0.164312 0.500000
O O18 0.165522 0.000000 0.330310
#
# Coordination Sequence:
#
# PCOD8057683 Si02
#       7
#     4   4   4   4   4   4   4
#     4  10  20  33  47  69  94 121 154 193 229 281
#     4   9  18  29  42  62  90 127 162 194 228 261
#     4   9  18  36  54  69  90 116 152 198 246 280
#     4  10  19  32  45  69  88 122 156 192 227 282
#     4  11  20  31  45  64  94 131 163 189 223 268
#     4  10  18  28  44  65  95 126 154 192 231 271
#     4   9  16  27  42  62  87 123 164 195 223 262
#
# _framework density 15.308477
#
# number of rings (size 3 to 8) (size 9 to 14) (size 15 to 20)
#    0.857    1.429    1.429    3.000    0.000    6.286 
#    0.000    0.000    0.000    0.000    0.000    0.000 
#    0.000    8.571    0.000    0.000    0.000    0.286 
#
# Total GULP energy -347048.298475 kJ/mol
# GULP energy per Si atom -12394.582088 kJ/mol
# Density = 1.527363 g / cm^3
# Si number density = 15.308477 Si / 1000 Ang^3
#
#
#
# Elastic Constant Matrix: (Units=GPa)
#
#
# Indices 1 2 3 4 5 6 
#
# 1 121.7281 20.8717 61.6428 0.0000 -0.7619 0.0000
# 2 20.8717 45.7005 16.1822 0.0000 8.9359 0.0000
# 3 61.6428 16.1822 126.8656 0.0000 3.3125 0.0000
# 4 0.0000 0.0000 0.0000 15.0500 0.0000 -1.7659
# 5 -0.7619 8.9359 3.3125 0.0000 37.5476 0.0000
# 6 0.0000 0.0000 0.0000 -1.7659 0.0000 0.1757
#
#
#
# Elastic Compliance Matrix: (Units=1/GPa)
#
#
# Indices 1 2 3 4 5 6 
#
# 1 0.011465 -0.003725 -0.005137 0.000000 0.001572 0.000000
# 2 -0.003725 0.025190 -0.001248 0.000000 -0.005960 0.000000
# 3 -0.005137 -0.001248 0.010557 0.000000 -0.000739 0.000000
# 4 0.000000 0.000000 0.000000 -0.369857 0.000000 -3.718344
# 5 0.001572 -0.005960 -0.000739 0.000000 0.028148 0.000000
# 6 0.000000 0.000000 0.000000 -3.718344 0.000000-31.689224
#
#
# Mechanical properties :
#
#
# Convention : Reuss Voigt Hill
#
# Bulk Modulus (GPa) = 37.04596 54.63194 45.83895
# Shear Modulus (GPa) = -0.15647 23.59449 11.71901
#
# Velocity S-wave (km/s) = -0.32005 3.93016 2.76981
# Velocity P-wave (km/s) = 4.91076 7.50731 6.34332
#
# Compressibility (1/GPa) = 0.02699350
#
# Stress axis : x y z
#
# Youngs Moduli (GPa) = 87.22504 39.69850 94.72772
#
# Poissons Ratio (x) = 0.14786 0.48657
# Poissons Ratio (y) = 0.32487 0.11819
# Poissons Ratio (z) = 0.44803 0.04953
#
# Static dielectric constant tensor:
#      x y z
#    x 3.118330 0.000000 -0.129210 
#    y 0.000000 2.566160 0.000000 
#    z -0.129210 0.000000 3.232640 
# 
# 
# High freq. dielectric constant tensor:
#      x y z
#    x 1.595010 0.000000 -0.002800 
#    y 0.000000 1.525690 0.000000 
#    z -0.002800 0.000000 1.602940 
# 
# From -- ./inp_files/69226.got.cif
#   From: 2010.06.25/outbox.cif.g09.slc.cpg/sg10_35_cif.got.tgz:69226.got - 2010.06.27 22:07:45.
