data_PCOD8057612
_publ_section_title
;
Structure prediction by ZEFSAII (Michael W. Deem and Ramdas Pophale) SiO2 
 PCOD8057612
Probable space group: P 2/M
;
_chemical_formula_sum "Si O2"
_cell_formula_units_Z 32
_cell_length_a 22.779865
_cell_length_b 9.262748
_cell_length_c 14.379377
_cell_angle_alpha 90.000000
_cell_angle_beta 142.858559
_cell_angle_gamma 90.000000
_cell_volume 1831.948137
_symmetry_space_group_name_H-M "P 2/M"
_symmetry_group_IT_number 10
_symmetry_cell_setting 'monoclinic'
loop_
_space_group_symop_operation_xyz
x,y,z
-x,y,-z
-x,-y,-z
x,-y,z
loop_
_atom_site_type_symbol
_atom_site_label
_atom_site_fract_x
_atom_site_fract_y
_atom_site_fract_z
Si Si1 0.496113 0.168387 0.600709
Si Si2 0.002101 0.672424 0.108181
Si Si3 0.804107 0.671416 0.953761
Si Si4 0.381689 0.669379 0.755901
Si Si5 0.794307 0.662243 0.582778
Si Si6 0.598364 0.669674 0.005777
Si Si7 0.684192 0.339275 0.626751
Si Si8 0.686883 0.171392 0.952195
O O1 0.500000 0.222744 0.500000
O O2 0.401828 0.243633 0.525239
O O3 0.592000 0.217360 0.774638
O O4 0.479608 0.000000 0.587187
O O5 0.007047 0.500000 0.108993
O O6 0.097807 0.732637 0.284610
O O7 0.909406 0.722835 0.050809
O O8 0.000000 0.734539 0.000000
O O9 0.801543 0.500000 0.968011
O O10 0.725877 0.719183 0.776986
O O11 0.779290 0.756397 0.017534
O O12 0.384722 0.500000 0.739762
O O13 0.290600 0.741665 0.584917
O O14 0.486974 0.727471 0.853551
O O15 0.367112 0.701000 0.845955
O O16 0.800513 0.500000 0.551297
O O17 0.770857 0.662001 0.662497
O O18 0.606219 0.500000 0.992051
O O19 0.672306 0.760681 0.035503
O O20 0.643224 0.500000 0.588837
O O21 0.702085 0.000000 0.978114
#
# Coordination Sequence:
#
# PCOD8057612 Si02
#       8
#     4   4   4   4   4   4   4   4
#     4  10  20  32  42  58  91 129 157 186 228 276
#     4   9  15  26  44  69 101 129 155 195 242 281
#     4  10  19  30  46  70  97 127 161 196 234 276
#     4   8  15  28  49  75 100 125 152 193 245 288
#     4   9  15  25  45  73 100 123 152 192 240 289
#     4   9  17  32  52  74 100 125 156 197 240 286
#     4  10  18  27  45  71  95 122 158 193 226 275
#     4  11  22  34  48  66  93 132 167 196 236 284
#
# _framework density 17.467744
#
# number of rings (size 3 to 8) (size 9 to 14) (size 15 to 20)
#    0.000    2.500    2.500    1.875    0.000    2.250 
#    0.000    1.250    0.000    2.625    0.000    5.250 
#    0.000    0.000    0.000    0.000    0.000    0.000 
#
# Total GULP energy -396591.555777 kJ/mol
# GULP energy per Si atom -12393.486118 kJ/mol
# Density = 1.742799 g / cm^3
# Si number density = 17.467744 Si / 1000 Ang^3
#
#
#
# Elastic Constant Matrix: (Units=GPa)
#
#
# Indices 1 2 3 4 5 6 
#
# 1 117.5415 33.3815 44.3430 0.0000 10.8455 0.0000
# 2 33.3815 28.5413 15.9800 0.0000 4.5433 0.0000
# 3 44.3430 15.9800 86.9551 0.0000 9.8719 0.0000
# 4 0.0000 0.0000 0.0000 12.2793 0.0000 -3.4712
# 5 10.8455 4.5433 9.8719 0.0000 26.9544 0.0000
# 6 0.0000 0.0000 0.0000 -3.4712 0.0000 4.1960
#
#
#
# Elastic Compliance Matrix: (Units=1/GPa)
#
#
# Indices 1 2 3 4 5 6 
#
# 1 0.014351 -0.013956 -0.004555 0.000000 -0.001754 0.000000
# 2 -0.013956 0.053071 -0.002356 0.000000 -0.002467 0.000000
# 3 -0.004555 -0.002356 0.014610 0.000000 -0.003121 0.000000
# 4 0.000000 0.000000 0.000000 0.106296 0.000000 0.087935
# 5 -0.001754 -0.002467 -0.003121 0.000000 0.039364 0.000000
# 6 0.000000 0.000000 0.000000 0.087935 0.000000 0.311068
#
#
# Mechanical properties :
#
#
# Convention : Reuss Voigt Hill
#
# Bulk Modulus (GPa) = 24.81414 46.71632 35.76523
# Shear Modulus (GPa) = 8.41855 17.97485 13.19670
#
# Velocity S-wave (km/s) = 2.19771 3.21133 2.75160
# Velocity P-wave (km/s) = 4.54714 6.36809 5.53304
#
# Compressibility (1/GPa) = 0.04029960
#
# Stress axis : x y z
#
# Youngs Moduli (GPa) = 69.68134 18.84263 68.44548
#
# Poissons Ratio (x) = 0.26296 0.31174
# Poissons Ratio (y) = 0.97244 0.16128
# Poissons Ratio (z) = 0.31737 0.04440
#
# Static dielectric constant tensor:
#      x y z
#    x 3.231440 0.000000 0.104760 
#    y 0.000000 2.775700 0.000000 
#    z 0.104760 0.000000 3.416620 
# 
# 
# High freq. dielectric constant tensor:
#      x y z
#    x 1.673300 0.000000 0.005450 
#    y 0.000000 1.626900 0.000000 
#    z 0.005450 0.000000 1.664750 
# 
# From -- ./inp_files/70005.got.cif
#   From: 2010.06.25/outbox.cif.g09.slc.cpg/sg10_36_cif.got.tgz:70005.got - 2010.06.27 22:07:45.
