data_PCOD8057872
_publ_section_title
;
Structure prediction by ZEFSAII (Michael W. Deem and Ramdas Pophale) SiO2 
 PCOD8057872
Probable space group: P 2/M
;
_chemical_formula_sum "Si O2"
_cell_formula_units_Z 32
_cell_length_a 13.731699
_cell_length_b 9.212873
_cell_length_c 16.714967
_cell_angle_alpha 90.000000
_cell_angle_beta 102.228801
_cell_angle_gamma 90.000000
_cell_volume 2066.602844
_symmetry_space_group_name_H-M "P 2/M"
_symmetry_group_IT_number 10
_symmetry_cell_setting 'monoclinic'
loop_
_space_group_symop_operation_xyz
x,y,z
-x,y,-z
-x,-y,-z
x,-y,z
loop_
_atom_site_type_symbol
_atom_site_label
_atom_site_fract_x
_atom_site_fract_y
_atom_site_fract_z
Si Si1 0.114092 0.329844 0.033042
Si Si2 0.581822 0.334226 0.902943
Si Si3 0.745005 0.831210 0.833396
Si Si4 0.384189 0.336116 0.500333
Si Si5 0.572935 0.832059 0.342197
Si Si6 0.729015 0.663130 0.070291
Si Si7 0.349801 0.834582 0.344828
Si Si8 0.612973 0.829315 0.168819
O O1 0.129951 0.500000 0.053347
O O2 0.153269 0.241001 0.116784
O O3 0.175691 0.284121 0.964692
O O4 0.000000 0.288474 0.000000
O O5 0.567429 0.500000 0.871020
O O6 0.650646 0.249583 0.853142
O O7 0.477216 0.253545 0.889308
O O8 0.630597 0.331966 0.998667
O O9 0.737112 0.812904 0.736059
O O10 0.741342 0.000000 0.857276
O O11 0.500000 0.324558 0.500000
O O12 0.346772 0.500000 0.501748
O O13 0.364432 0.256801 0.581037
O O14 0.323251 0.261839 0.417486
O O15 0.456033 0.790660 0.324159
O O16 0.616880 0.791335 0.263301
O O17 0.588636 0.000000 0.364252
O O18 0.747115 0.500000 0.105326
O O19 0.713428 0.770232 0.143216
O O20 0.354822 0.000000 0.375083
O O21 0.601183 0.000000 0.152506
#
# Coordination Sequence:
#
# PCOD8057872 Si02
#       8
#     4   4   4   4   4   4   4   4
#     4   9  19  36  53  67  88 117 146 180 227 275
#     4  10  19  30  43  59  86 120 151 183 220 259
#     4  10  18  29  46  69  91 114 150 187 222 263
#     4   9  17  26  38  59  81 108 150 189 216 247
#     4   9  17  29  40  54  82 120 152 177 216 259
#     4   9  19  32  44  62  84 112 147 181 221 264
#     4   9  16  28  42  57  84 118 147 179 218 259
#     4  11  20  29  42  62  87 117 152 186 217 256
#
# _framework density 15.484349
#
# number of rings (size 3 to 8) (size 9 to 14) (size 15 to 20)
#    0.000    2.500    1.250    2.625    0.000    7.750 
#    0.000    0.000    0.000    0.000    0.000    0.000 
#    0.000    1.000    0.000   11.250    0.000    5.000 
#
# Total GULP energy -396748.687496 kJ/mol
# GULP energy per Si atom -12398.396484 kJ/mol
# Density = 1.544911 g / cm^3
# Si number density = 15.484349 Si / 1000 Ang^3
#
#
#
# Elastic Constant Matrix: (Units=GPa)
#
#
# Indices 1 2 3 4 5 6 
#
# 1 62.3530 37.8070 46.4501 0.0000 -1.6652 0.0000
# 2 37.8070 93.6461 60.5136 0.0000 -3.8898 0.0000
# 3 46.4501 60.5136 102.4664 0.0000 -8.2544 0.0000
# 4 0.0000 0.0000 0.0000 21.1999 0.0000 -5.2021
# 5 -1.6652 -3.8898 -8.2544 0.0000 13.7030 0.0000
# 6 0.0000 0.0000 0.0000 -5.2021 0.0000 16.7327
#
#
#
# Elastic Compliance Matrix: (Units=1/GPa)
#
#
# Indices 1 2 3 4 5 6 
#
# 1 0.025536 -0.004512 -0.009212 0.000000 -0.003727 0.000000
# 2 -0.004512 0.018088 -0.008689 0.000000 -0.000648 0.000000
# 3 -0.009212 -0.008689 0.019736 0.000000 0.008302 0.000000
# 4 0.000000 0.000000 0.000000 0.051066 0.000000 0.015876
# 5 -0.003727 -0.000648 0.008302 0.000000 0.077341 0.000000
# 6 0.000000 0.000000 0.000000 0.015876 0.000000 0.064699
#
#
# Mechanical properties :
#
#
# Convention : Reuss Voigt Hill
#
# Bulk Modulus (GPa) = 53.95373 60.88965 57.42169
# Shear Modulus (GPa) = 16.26183 17.90678 17.08431
#
# Velocity S-wave (km/s) = 3.24421 3.40434 3.32524
# Velocity P-wave (km/s) = 6.99663 7.40685 7.20466
#
# Compressibility (1/GPa) = 0.01853440
#
# Stress axis : x y z
#
# Youngs Moduli (GPa) = 39.16012 55.28541 50.67000
#
# Poissons Ratio (x) = 0.24943 0.46676
# Poissons Ratio (y) = 0.17668 0.44028
# Poissons Ratio (z) = 0.36073 0.48038
#
# Static dielectric constant tensor:
#      x y z
#    x 2.624490 0.000000 -0.067830 
#    y 0.000000 3.062560 0.000000 
#    z -0.067830 0.000000 2.981020 
# 
# 
# High freq. dielectric constant tensor:
#      x y z
#    x 1.537700 0.000000 -0.013140 
#    y 0.000000 1.605870 0.000000 
#    z -0.013140 0.000000 1.590020 
# 
# From -- ./inp_files/68222.got.cif
#   From: 2010.06.25/outbox.cif.g09.slc.cpg/sg10_35_cif.got.tgz:68222.got - 2010.06.27 22:07:45.
