data_PCOD8057178
_publ_section_title
;
Structure prediction by ZEFSAII (Michael W. Deem and Ramdas Pophale) SiO2 
 PCOD8057178
Probable space group: P 2/M
;
_chemical_formula_sum "Si O2"
_cell_formula_units_Z 32
_cell_length_a 12.822461
_cell_length_b 8.940640
_cell_length_c 21.398519
_cell_angle_alpha 90.000000
_cell_angle_beta 53.283397
_cell_angle_gamma 90.000000
_cell_volume 1966.449229
_symmetry_space_group_name_H-M "P 2/M"
_symmetry_group_IT_number 10
_symmetry_cell_setting 'monoclinic'
loop_
_space_group_symop_operation_xyz
x,y,z
-x,y,-z
-x,-y,-z
x,-y,z
loop_
_atom_site_type_symbol
_atom_site_label
_atom_site_fract_x
_atom_site_fract_y
_atom_site_fract_z
Si Si1 0.517903 0.327767 0.174509
Si Si2 0.872974 0.823740 0.820381
Si Si3 0.186496 0.676263 0.917905
Si Si4 0.119327 0.665923 0.504992
Si Si5 0.972053 0.179101 0.917616
Si Si6 0.729729 0.325036 0.662342
Si Si7 0.582539 0.177502 0.912038
Si Si8 0.045212 0.824849 0.342218
O O1 0.504857 0.500000 0.159168
O O2 0.661821 0.291040 0.147384
O O3 0.419127 0.289607 0.266608
O O4 0.486150 0.229028 0.126307
O O5 0.942842 0.765169 0.857830
O O6 0.728099 0.755137 0.865403
O O7 0.959900 0.779262 0.729067
O O8 0.857665 0.000000 0.830785
O O9 0.156138 0.500000 0.932657
O O10 0.110185 0.750053 0.887318
O O11 0.141308 0.755965 0.997803
O O12 0.145987 0.500000 0.521349
O O13 0.242775 0.725243 0.419790
O O14 0.000000 0.667313 0.500000
O O15 0.086004 0.767829 0.576676
O O16 0.976500 0.000000 0.922439
O O17 0.763744 0.500000 0.655725
O O18 0.822903 0.241043 0.676995
O O19 0.585316 0.000000 0.910411
O O20 0.500000 0.238581 0.000000
O O21 0.052537 0.000000 0.348817
#
# Coordination Sequence:
#
# PCOD8057178 Si02
#       8
#     4   4   4   4   4   4   4   4
#     4  10  20  32  47  67  93 123 152 186 229 273
#     4   9  18  30  44  67  94 119 149 189 228 264
#     4  10  20  34  49  69  94 115 148 199 241 264
#     4   8  15  27  42  60  87 120 153 183 216 264
#     4  10  19  34  53  68  86 119 160 191 227 276
#     4   9  17  30  44  62  90 124 154 181 218 269
#     4  10  19  31  46  64  91 124 154 184 222 270
#     4  10  17  27  43  65  93 120 148 185 226 265
#
# _framework density 16.272986
#
# number of rings (size 3 to 8) (size 9 to 14) (size 15 to 20)
#    0.000    2.500    1.250    3.375    0.000    4.500 
#    0.000    3.750    0.000    0.000    0.000    0.875 
#    0.000    7.000    0.000    0.000    0.000    0.000 
#
# Total GULP energy -396656.697376 kJ/mol
# GULP energy per Si atom -12395.521793 kJ/mol
# Density = 1.623595 g / cm^3
# Si number density = 16.272986 Si / 1000 Ang^3
#
#
#
# Elastic Constant Matrix: (Units=GPa)
#
#
# Indices 1 2 3 4 5 6 
#
# 1 88.8551 30.6349 69.2339 0.0000 -0.6985 0.0000
# 2 30.6349 53.4647 42.0535 0.0000 1.5519 0.0000
# 3 69.2339 42.0535 151.5289 0.0000 -6.6205 0.0000
# 4 0.0000 0.0000 0.0000 18.7854 0.0000 -6.8363
# 5 -0.6985 1.5519 -6.6205 0.0000 20.0397 0.0000
# 6 0.0000 0.0000 0.0000 -6.8363 0.0000 4.9429
#
#
#
# Elastic Compliance Matrix: (Units=1/GPa)
#
#
# Indices 1 2 3 4 5 6 
#
# 1 0.018518 -0.004952 -0.007145 0.000000 -0.001331 0.000000
# 2 -0.004952 0.025589 -0.005005 0.000000 -0.003808 0.000000
# 3 -0.007145 -0.005005 0.011424 0.000000 0.003913 0.000000
# 4 0.000000 0.000000 0.000000 0.107175 0.000000 0.148228
# 5 -0.001331 -0.003808 0.003913 0.000000 0.051442 0.000000
# 6 0.000000 0.000000 0.000000 0.148228 0.000000 0.407316
#
#
# Mechanical properties :
#
#
# Convention : Reuss Voigt Hill
#
# Bulk Modulus (GPa) = 46.89020 64.18813 55.53917
# Shear Modulus (GPa) = 7.54400 18.88205 13.21303
#
# Velocity S-wave (km/s) = 2.15545 3.41006 2.85258
# Velocity P-wave (km/s) = 5.92216 7.41855 6.71218
#
# Compressibility (1/GPa) = 0.02132642
#
# Stress axis : x y z
#
# Youngs Moduli (GPa) = 54.00058 39.07911 87.53537
#
# Poissons Ratio (x) = 0.19353 0.62542
# Poissons Ratio (y) = 0.26743 0.43814
# Poissons Ratio (z) = 0.38582 0.19560
#
# Static dielectric constant tensor:
#      x y z
#    x 2.915630 0.000000 -0.082920 
#    y 0.000000 3.023490 0.000000 
#    z -0.082920 0.000000 3.501710 
# 
# 
# High freq. dielectric constant tensor:
#      x y z
#    x 1.589350 0.000000 -0.004450 
#    y 0.000000 1.621460 0.000000 
#    z -0.004450 0.000000 1.636670 
# 
# From -- ./inp_files/83368.got.cif
#   From: 2010.06.25/outbox.cif.g09.slc.cpg/sg10_42_cif.got.tgz:83368.got - 2010.06.27 22:07:45.
