data_PCOD8057835
_publ_section_title
;
Structure prediction by ZEFSAII (Michael W. Deem and Ramdas Pophale) SiO2 
 PCOD8057835
Probable space group: P 2/M
;
_chemical_formula_sum "Si O2"
_cell_formula_units_Z 30
_cell_length_a 17.507705
_cell_length_b 17.571958
_cell_length_c 6.546021
_cell_angle_alpha 90.000000
_cell_angle_beta 61.108989
_cell_angle_gamma 90.000000
_cell_volume 1763.205494
_symmetry_space_group_name_H-M "P 2/M"
_symmetry_group_IT_number 10
_symmetry_cell_setting 'monoclinic'
loop_
_space_group_symop_operation_xyz
x,y,z
-x,y,-z
-x,-y,-z
x,-y,z
loop_
_atom_site_type_symbol
_atom_site_label
_atom_site_fract_x
_atom_site_fract_y
_atom_site_fract_z
Si Si1 0.808056 0.714073 0.962141
Si Si2 0.500000 0.160361 0.000000
Si Si3 0.911455 0.182148 0.530642
Si Si4 0.616219 0.913107 0.512556
Si Si5 0.351793 0.189569 0.910622
Si Si6 0.089303 0.685630 0.781184
Si Si7 0.898016 0.411680 0.596786
Si Si8 0.756488 0.913892 0.653558
O O1 0.704626 0.735026 0.075908
O O2 0.834017 0.711042 0.165931
O O3 0.861626 0.780248 0.784184
O O4 0.833295 0.632364 0.834167
O O5 0.454573 0.105268 0.222580
O O6 0.569274 0.212811 0.036248
O O7 0.935343 0.245010 0.333228
O O8 0.854439 0.116601 0.500263
O O9 0.000000 0.144702 0.500000
O O10 0.608779 0.852735 0.338641
O O11 0.711385 0.904702 0.491461
O O12 0.600812 0.000000 0.455717
O O13 0.291560 0.130036 0.104555
O O14 0.125419 0.614625 0.602614
O O15 0.000000 0.658164 0.000000
O O16 0.878613 0.500000 0.651811
O O17 0.000000 0.391534 0.500000
O O18 0.759025 0.000000 0.723891
#
# Coordination Sequence:
#
# PCOD8057835 Si02
#       8
#     4   2   4   4   4   4   4   4
#     4  10  19  33  49  70  98 132 163 197 239 286
#     4  10  21  34  50  76  97 124 158 202 251 298
#     4  10  18  29  45  65  90 125 172 212 240 277
#     4  10  19  33  50  71  99 127 158 199 251 304
#     4  10  20  33  52  71  96 126 162 201 243 296
#     4  11  17  29  48  69  93 129 167 194 234 282
#     4  10  20  32  48  75 107 134 163 197 234 280
#     4   9  19  32  45  64  92 127 165 207 251 287
#
# _framework density 17.014465999999999
#
# number of rings (size 3 to 8) (size 9 to 14) (size 15 to 20)
#    0.000    2.000    2.667    2.600    0.000    4.267 
#    0.000    0.000    0.000    0.400    0.000    0.467 
#    0.000    3.200    0.000    0.133    0.000    0.000 
#
# Total GULP energy -371896.888831 kJ/mol
# GULP energy per Si atom -12396.562961 kJ/mol
# Density = 1.697574 g / cm^3
# Si number density = 17.014466 Si / 1000 Ang^3
#
#
#
# Elastic Constant Matrix: (Units=GPa)
#
#
# Indices 1 2 3 4 5 6 
#
# 1 132.3945 49.1470 32.4129 0.0000 4.9238 0.0000
# 2 49.1470 69.9502 19.6880 0.0000 1.5099 0.0000
# 3 32.4129 19.6880 68.4362 0.0000 9.0874 0.0000
# 4 0.0000 0.0000 0.0000 12.0004 0.0000 -2.6656
# 5 4.9238 1.5099 9.0874 0.0000 24.2333 0.0000
# 6 0.0000 0.0000 0.0000 -2.6656 0.0000 15.3550
#
#
#
# Elastic Compliance Matrix: (Units=1/GPa)
#
#
# Indices 1 2 3 4 5 6 
#
# 1 0.010834 -0.006722 -0.003116 0.000000 -0.000614 0.000000
# 2 -0.006722 0.019739 -0.002645 0.000000 0.001128 0.000000
# 3 -0.003116 -0.002645 0.017620 0.000000 -0.005810 0.000000
# 4 0.000000 0.000000 0.000000 0.086673 0.000000 0.015046
# 5 -0.000614 0.001128 -0.005810 0.000000 0.043499 0.000000
# 6 0.000000 0.000000 0.000000 0.015046 0.000000 0.067737
#
#
# Mechanical properties :
#
#
# Convention : Reuss Voigt Hill
#
# Bulk Modulus (GPa) = 43.05124 52.58630 47.81877
# Shear Modulus (GPa) = 17.93342 21.61995 19.77669
#
# Velocity S-wave (km/s) = 3.25007 3.56853 3.41302
# Velocity P-wave (km/s) = 6.28026 6.92482 6.61040
#
# Compressibility (1/GPa) = 0.02322814
#
# Stress axis : x y z
#
# Youngs Moduli (GPa) = 92.30113 50.66219 56.75297
#
# Poissons Ratio (x) = 0.34054 0.17684
# Poissons Ratio (y) = 0.62043 0.15009
# Poissons Ratio (z) = 0.28761 0.13398
#
# Static dielectric constant tensor:
#      x y z
#    x 3.494740 0.000000 0.096750 
#    y 0.000000 2.955770 0.000000 
#    z 0.096750 0.000000 3.164680 
# 
# 
# High freq. dielectric constant tensor:
#      x y z
#    x 1.659660 0.000000 0.015760 
#    y 0.000000 1.620110 0.000000 
#    z 0.015760 0.000000 1.656330 
# 
# From -- ./inp_files/11625.got.cif
#   From: 2010.06.25/outbox.cif.g09.slc.cpg/sg10_6_cif.got.tgz:11625.got - 2010.06.27 22:07:45.
