data_PCOD8057863
_publ_section_title
;
Structure prediction by ZEFSAII (Michael W. Deem and Ramdas Pophale) SiO2 
 PCOD8057863
Probable space group: P 2/M
;
_chemical_formula_sum "Si O2"
_cell_formula_units_Z 32
_cell_length_a 23.142177
_cell_length_b 9.025152
_cell_length_c 28.748659
_cell_angle_alpha 90.000000
_cell_angle_beta 162.033442
_cell_angle_gamma 90.000000
_cell_volume 1852.156868
_symmetry_space_group_name_H-M "P 2/M"
_symmetry_group_IT_number 10
_symmetry_cell_setting 'monoclinic'
loop_
_space_group_symop_operation_xyz
x,y,z
-x,y,-z
-x,-y,-z
x,-y,z
loop_
_atom_site_type_symbol
_atom_site_label
_atom_site_fract_x
_atom_site_fract_y
_atom_site_fract_z
Si Si1 0.089756 0.334349 0.714197
Si Si2 0.578128 0.176180 0.715914
Si Si3 0.887598 0.822634 0.025284
Si Si4 0.163812 0.161420 0.162460
Si Si5 0.335394 0.165768 0.836318
Si Si6 0.579739 0.336418 0.958741
Si Si7 0.117149 0.676085 0.878956
Si Si8 0.846581 0.176452 0.599558
O O1 0.015278 0.500000 0.646848
O O2 0.158502 0.260897 0.718638
O O3 0.925557 0.236445 0.611106
O O4 0.262601 0.341058 0.881308
O O5 0.700675 0.224780 0.854245
O O6 0.665603 0.244375 0.734316
O O7 0.367304 0.231186 0.560927
O O8 0.588788 0.000000 0.719436
O O9 0.895286 0.000000 0.038843
O O10 0.885065 0.735488 0.071041
O O11 0.072440 0.763498 0.138426
O O12 0.235791 0.000000 0.233611
O O13 0.000000 0.140476 0.000000
O O14 0.411825 0.228783 0.845730
O O15 0.264705 0.000000 0.773270
O O16 0.500000 0.169082 0.000000
O O17 0.493569 0.500000 0.886264
O O18 0.680420 0.281989 0.988456
O O19 0.085375 0.500000 0.852503
O O20 0.952418 0.754672 0.724430
O O21 0.867065 0.000000 0.616275
#
# Coordination Sequence:
#
# PCOD8057863 Si02
#       8
#     4   4   4   4   4   4   4   4
#     4   9  16  26  39  57  86 120 149 179 220 269
#     4   8  15  28  48  73  94 113 146 193 235 269
#     4   9  16  29  51  73  90 114 151 191 229 271
#     4   7  11  23  45  70  91 111 142 187 232 269
#     4   9  15  22  36  59  83 108 144 187 223 259
#     4   8  15  26  38  53  79 116 149 179 219 263
#     4  10  20  32  44  63  95 128 154 183 224 273
#     4  10  18  29  46  67  92 121 153 189 228 269
#
# _framework density 17.277153999999999
#
# number of rings (size 3 to 8) (size 9 to 14) (size 15 to 20)
#    0.000    3.250    0.000    3.750    0.000    5.000 
#    0.000    1.875    0.000    8.625    0.000    0.875 
#    0.000    7.000    0.000    0.000    0.000    0.000 
#
# Total GULP energy -396434.914065 kJ/mol
# GULP energy per Si atom -12388.591065 kJ/mol
# Density = 1.723783 g / cm^3
# Si number density = 17.277154 Si / 1000 Ang^3
#
#
#
# Elastic Constant Matrix: (Units=GPa)
#
#
# Indices 1 2 3 4 5 6 
#
# 1 92.5749 47.4299 79.5195 0.0000 51.6080 0.0000
# 2 47.4299 82.3728 38.8636 0.0000 18.0025 0.0000
# 3 79.5195 38.8636 63.1530 0.0000 18.9143 0.0000
# 4 0.0000 0.0000 0.0000 4.3277 0.0000 1.4272
# 5 51.6080 18.0025 18.9143 0.0000 20.2198 0.0000
# 6 0.0000 0.0000 0.0000 1.4272 0.0000 19.2372
#
#
#
# Elastic Compliance Matrix: (Units=1/GPa)
#
#
# Indices 1 2 3 4 5 6 
#
# 1 -0.015633 -0.003834 0.012601 0.000000 0.031526 0.000000
# 2 -0.003834 0.017021 -0.005611 0.000000 -0.000120 0.000000
# 3 0.012601 -0.005611 0.016055 0.000000 -0.042186 0.000000
# 4 0.000000 0.000000 0.000000 0.236866 0.000000 -0.017573
# 5 0.031526 -0.000120 -0.042186 0.000000 0.008561 0.000000
# 6 0.000000 0.000000 0.000000 -0.017573 0.000000 0.053286
#
#
# Mechanical properties :
#
#
# Convention : Reuss Voigt Hill
#
# Bulk Modulus (GPa) = 42.09415 63.30296 52.69856
# Shear Modulus (GPa) = 15.73501 13.57611 14.65556
#
# Velocity S-wave (km/s) = 3.02112 2.80622 2.91565
# Velocity P-wave (km/s) = 6.04868 6.87162 6.47324
#
# Compressibility (1/GPa) = 0.02375627
#
# Stress axis : x y z
#
# Youngs Moduli (GPa) = -63.96880 58.75087 62.28580
#
# Poissons Ratio (x) = 0.22526 -0.78489
# Poissons Ratio (y) = -0.24526 0.34948
# Poissons Ratio (z) = 0.80610 0.32964
#
# Static dielectric constant tensor:
#      x y z
#    x 3.520130 0.000000 0.463150 
#    y 0.000000 3.095480 0.000000 
#    z 0.463150 0.000000 2.958260 
# 
# 
# High freq. dielectric constant tensor:
#      x y z
#    x 1.675190 0.000000 0.036310 
#    y 0.000000 1.648910 0.000000 
#    z 0.036310 0.000000 1.619940 
# 
# From -- ./inp_files/93728.got.cif
#   From: 2010.06.25/outbox.cif.g09.slc.cpg/sg10_47_cif.got.tgz:93728.got - 2010.06.27 22:07:45.
