data_PCOD8057492
_publ_section_title
;
Structure prediction by ZEFSAII (Michael W. Deem and Ramdas Pophale) SiO2 
 PCOD8057492
Probable space group: P 2/M
;
_chemical_formula_sum "Si O2"
_cell_formula_units_Z 32
_cell_length_a 25.929237
_cell_length_b 9.559911
_cell_length_c 18.142074
_cell_angle_alpha 90.000000
_cell_angle_beta 150.959400
_cell_angle_gamma 90.000000
_cell_volume 2183.013737
_symmetry_space_group_name_H-M "P 2/M"
_symmetry_group_IT_number 10
_symmetry_cell_setting 'monoclinic'
loop_
_space_group_symop_operation_xyz
x,y,z
-x,y,-z
-x,-y,-z
x,-y,z
loop_
_atom_site_type_symbol
_atom_site_label
_atom_site_fract_x
_atom_site_fract_y
_atom_site_fract_z
Si Si1 0.573150 0.157438 0.482972
Si Si2 0.327552 0.159564 0.790474
Si Si3 0.268930 0.661663 0.043541
Si Si4 0.500249 0.337463 0.266116
Si Si5 0.898746 0.334922 0.281907
Si Si6 0.864239 0.334935 0.402874
Si Si7 0.491966 0.839540 0.869505
Si Si8 0.339222 0.156509 0.256474
O O1 0.580992 0.265704 0.425213
O O2 0.456008 0.160836 0.369221
O O3 0.655075 0.202656 0.650333
O O4 0.599598 0.000000 0.488650
O O5 0.225175 0.258167 0.661623
O O6 0.387736 0.180921 0.788779
O O7 0.290210 0.000000 0.752198
O O8 0.404293 0.200435 0.953827
O O9 0.249197 0.500000 0.036429
O O10 0.379341 0.685296 0.139595
O O11 0.264215 0.740573 0.116047
O O12 0.176407 0.726276 0.876175
O O13 0.529810 0.500000 0.297351
O O14 0.517124 0.266118 0.208980
O O15 0.885336 0.500000 0.267818
O O16 0.861274 0.279057 0.314915
O O17 0.021150 0.295522 0.419236
O O18 0.843967 0.500000 0.381587
O O19 0.499732 0.000000 0.851494
O O20 0.292686 0.000000 0.192514
#
# Coordination Sequence:
#
# PCOD8057492 Si02
#       8
#     4   4   4   4   4   4   4   4
#     4   8  14  25  38  51  74 107 134 157 192 235
#     4   9  18  31  44  58  77 102 133 166 199 235
#     4   9  16  25  37  55  81 108 132 163 199 229
#     4  10  18  25  38  61  82 101 133 171 195 220
#     4   8  15  27  41  58  80 107 135 159 194 242
#     4   9  16  28  45  59  76 105 136 165 196 232
#     4   9  18  31  43  55  77 108 133 157 198 244
#     4   8  14  24  37  53  73 102 138 164 186 227
#
# _framework density 14.658633999999999
#
# number of rings (size 3 to 8) (size 9 to 14) (size 15 to 20)
#    0.000    3.250    0.000    3.375    0.000    3.000 
#    0.000    6.250    0.000    0.000    0.000    0.000 
#    0.000    1.000    0.000   11.250    0.000    5.500 
#
# Total GULP energy -396631.734801 kJ/mol
# GULP energy per Si atom -12394.741713 kJ/mol
# Density = 1.462527 g / cm^3
# Si number density = 14.658634 Si / 1000 Ang^3
#
#
#
# Elastic Constant Matrix: (Units=GPa)
#
#
# Indices 1 2 3 4 5 6 
#
# 1 62.9904 49.0975 41.7514 0.0000 -16.9468 0.0000
# 2 49.0975 76.5230 46.7579 0.0000 -15.5145 0.0000
# 3 41.7514 46.7579 89.4764 0.0000 -19.8307 0.0000
# 4 0.0000 0.0000 0.0000 21.2907 0.0000 -4.7556
# 5 -16.9468 -15.5145 -19.8307 0.0000 30.0041 0.0000
# 6 0.0000 0.0000 0.0000 -4.7556 0.0000 25.4655
#
#
#
# Elastic Compliance Matrix: (Units=1/GPa)
#
#
# Indices 1 2 3 4 5 6 
#
# 1 0.035426 -0.017856 -0.005637 0.000000 0.007051 0.000000
# 2 -0.017856 0.028588 -0.006522 0.000000 0.000386 0.000000
# 3 -0.005637 -0.006522 0.018466 0.000000 0.005649 0.000000
# 4 0.000000 0.000000 0.000000 0.049013 0.000000 0.009153
# 5 0.007051 0.000386 0.005649 0.000000 0.041245 0.000000
# 6 0.000000 0.000000 0.000000 0.009153 0.000000 0.040978
#
#
# Mechanical properties :
#
#
# Convention : Reuss Voigt Hill
#
# Bulk Modulus (GPa) = 44.54014 56.02259 50.28137
# Shear Modulus (GPa) = 17.77911 21.44426 19.61168
#
# Velocity S-wave (km/s) = 3.48642 3.82895 3.66169
# Velocity P-wave (km/s) = 6.83064 7.60585 7.22864
#
# Compressibility (1/GPa) = 0.02245166
#
# Stress axis : x y z
#
# Youngs Moduli (GPa) = 28.22764 34.98020 54.15238
#
# Poissons Ratio (x) = 0.62460 0.30525
# Poissons Ratio (y) = 0.50403 0.35316
# Poissons Ratio (z) = 0.15912 0.22813
#
# Static dielectric constant tensor:
#      x y z
#    x 2.683510 0.000000 -0.300200 
#    y 0.000000 2.804790 0.000000 
#    z -0.300200 0.000000 2.956420 
# 
# 
# High freq. dielectric constant tensor:
#      x y z
#    x 1.533980 0.000000 -0.023800 
#    y 0.000000 1.555210 0.000000 
#    z -0.023800 0.000000 1.543540 
# 
# From -- ./inp_files/68214.got.cif
#   From: 2010.06.25/outbox.cif.g09.slc.cpg/sg10_35_cif.got.tgz:68214.got - 2010.06.27 22:07:45.
