data_PCOD8057849
_publ_section_title
;
Structure prediction by ZEFSAII (Michael W. Deem and Ramdas Pophale) SiO2 
 PCOD8057849
Probable space group: P 2/M
;
_chemical_formula_sum "Si O2"
_cell_formula_units_Z 32
_cell_length_a 24.549587
_cell_length_b 8.542228
_cell_length_c 12.522066
_cell_angle_alpha 90.000000
_cell_angle_beta 49.197887
_cell_angle_gamma 90.000000
_cell_volume 1987.790246
_symmetry_space_group_name_H-M "P 2/M"
_symmetry_group_IT_number 10
_symmetry_cell_setting 'monoclinic'
loop_
_space_group_symop_operation_xyz
x,y,z
-x,y,-z
-x,-y,-z
x,-y,z
loop_
_atom_site_type_symbol
_atom_site_label
_atom_site_fract_x
_atom_site_fract_y
_atom_site_fract_z
Si Si1 0.577231 0.678937 0.874951
Si Si2 0.840292 0.182612 0.750546
Si Si3 0.941896 0.318929 0.791205
Si Si4 0.828504 0.681018 0.336570
Si Si5 0.282019 0.319757 0.203059
Si Si6 0.926253 0.181844 0.037124
Si Si7 0.906400 0.818534 0.437896
Si Si8 0.700820 0.818267 0.603343
O O1 0.564594 0.500000 0.857184
O O2 0.630077 0.691514 0.911630
O O3 0.617367 0.762413 0.722994
O O4 0.500000 0.758383 0.000000
O O5 0.874996 0.279958 0.800978
O O6 0.756394 0.238091 0.848665
O O7 0.878397 0.228526 0.590694
O O8 0.844780 0.000000 0.770937
O O9 0.962900 0.500000 0.752839
O O10 0.008381 0.211313 0.671214
O O11 0.917374 0.284091 0.942760
O O12 0.835627 0.500000 0.298689
O O13 0.860174 0.782440 0.199714
O O14 0.871019 0.714981 0.391081
O O15 0.743982 0.727596 0.455258
O O16 0.257870 0.500000 0.244541
O O17 0.256360 0.223700 0.341631
O O18 0.926581 0.000000 0.005634
O O19 0.000000 0.231122 0.000000
O O20 0.891179 0.000000 0.431832
O O21 0.703491 0.000000 0.575221
#
# Coordination Sequence:
#
# PCOD8057849 Si02
#       8
#     4   4   4   4   4   4   4   4
#     4   8  15  28  46  70 103 137 166 198 238 287
#     4  11  22  35  51  69  97 130 165 205 249 300
#     4  12  25  37  51  70  94 123 164 210 253 301
#     4  12  22  33  53  74  97 127 167 210 253 302
#     4   9  17  29  46  68  96 130 164 195 234 282
#     4  11  23  39  57  71  92 124 163 211 263 307
#     4  11  21  34  51  71  94 124 161 204 254 300
#     4  10  18  29  45  70 100 132 165 197 240 290
#
# _framework density 16.098278000000001
#
# number of rings (size 3 to 8) (size 9 to 14) (size 15 to 20)
#    0.750    0.750    2.500    4.875    0.000    3.750 
#    0.000    0.000    0.000    0.000    0.000    0.000 
#    0.000    1.000    0.000   10.750    0.000    4.750 
#
# Total GULP energy -396654.488710 kJ/mol
# GULP energy per Si atom -12395.452772 kJ/mol
# Density = 1.606164 g / cm^3
# Si number density = 16.098278 Si / 1000 Ang^3
#
#
#
# Elastic Constant Matrix: (Units=GPa)
#
#
# Indices 1 2 3 4 5 6 
#
# 1 60.8874 14.3997 42.4173 0.0000 -8.5611 0.0000
# 2 14.3997 65.9623 19.4016 0.0000 1.2107 0.0000
# 3 42.4173 19.4016 76.8816 0.0000 -10.4611 0.0000
# 4 0.0000 0.0000 0.0000 22.0299 0.0000 0.7980
# 5 -8.5611 1.2107 -10.4611 0.0000 26.8649 0.0000
# 6 0.0000 0.0000 0.0000 0.7980 0.0000 20.8770
#
#
#
# Elastic Compliance Matrix: (Units=1/GPa)
#
#
# Indices 1 2 3 4 5 6 
#
# 1 0.027101 -0.001845 -0.014044 0.000000 0.003251 0.000000
# 2 -0.001845 0.016659 -0.003557 0.000000 -0.002724 0.000000
# 3 -0.014044 -0.003557 0.022245 0.000000 0.004347 0.000000
# 4 0.000000 0.000000 0.000000 0.045456 0.000000 -0.001738
# 5 0.003251 -0.002724 0.004347 0.000000 0.040075 0.000000
# 6 0.000000 0.000000 0.000000 -0.001738 0.000000 0.047966
#
#
# Mechanical properties :
#
#
# Convention : Reuss Voigt Hill
#
# Bulk Modulus (GPa) = 36.88314 39.57428 38.22871
# Shear Modulus (GPa) = 20.20763 22.45520 21.33141
#
# Velocity S-wave (km/s) = 3.54682 3.73886 3.64411
# Velocity P-wave (km/s) = 6.30351 6.57838 6.44241
#
# Compressibility (1/GPa) = 0.02711266
#
# Stress axis : x y z
#
# Youngs Moduli (GPa) = 36.89860 60.02730 44.95456
#
# Poissons Ratio (x) = 0.11075 0.63136
# Poissons Ratio (y) = 0.06808 0.15989
# Poissons Ratio (z) = 0.51822 0.21350
#
# Static dielectric constant tensor:
#      x y z
#    x 2.968890 0.000000 -0.179310 
#    y 0.000000 3.057920 0.000000 
#    z -0.179310 0.000000 2.977130 
# 
# 
# High freq. dielectric constant tensor:
#      x y z
#    x 1.590110 0.000000 -0.014430 
#    y 0.000000 1.633490 0.000000 
#    z -0.014430 0.000000 1.595910 
# 
# From -- ./inp_files/57168.got.cif
#   From: 2010.06.25/outbox.cif.g09.slc.cpg/sg10_29_cif.got.tgz:57168.got - 2010.06.27 22:07:45.
