data_PCOD8057447
_publ_section_title
;
Structure prediction by ZEFSAII (Michael W. Deem and Ramdas Pophale) SiO2 
 PCOD8057447
Probable space group: P 2/M
;
_chemical_formula_sum "Si O2"
_cell_formula_units_Z 24
_cell_length_a 17.336245
_cell_length_b 7.622737
_cell_length_c 18.337631
_cell_angle_alpha 90.000000
_cell_angle_beta 148.867642
_cell_angle_gamma 90.000000
_cell_volume 1252.892700
_symmetry_space_group_name_H-M "P 2/M"
_symmetry_group_IT_number 10
_symmetry_cell_setting 'monoclinic'
loop_
_space_group_symop_operation_xyz
x,y,z
-x,y,-z
-x,-y,-z
x,-y,z
loop_
_atom_site_type_symbol
_atom_site_label
_atom_site_fract_x
_atom_site_fract_y
_atom_site_fract_z
Si Si1 0.326433 0.795096 0.612958
Si Si2 0.663871 0.797559 0.898258
Si Si3 0.163652 0.500000 0.222409
Si Si4 0.189406 0.500000 0.076670
Si Si5 0.036231 0.301290 0.451983
Si Si6 0.094798 0.291159 0.801767
Si Si7 0.805146 0.801690 0.645482
O O1 0.492757 0.738076 0.769013
O O2 0.212035 0.703504 0.576004
O O3 0.293934 0.737593 0.503434
O O4 0.299184 0.000000 0.599132
O O5 0.742433 0.676294 0.902015
O O6 0.673191 0.000000 0.880135
O O7 0.741527 0.769811 0.039993
O O8 0.227170 0.500000 0.192452
O O9 0.227409 0.673306 0.313489
O O10 0.985538 0.500000 0.079961
O O11 0.981953 0.500000 0.415270
O O12 0.000000 0.205363 0.500000
O O13 0.940062 0.217256 0.307670
O O14 0.076903 0.500000 0.791147
O O15 0.978623 0.205878 0.763962
O O16 0.764328 0.000000 0.636222
#
# Coordination Sequence:
#
# PCOD8057447 Si02
#       7
#     4   4   2   2   4   4   4
#     4   9  21  35  55  82 108 144 186 224 267 323
#     4  11  21  37  56  81 111 145 187 223 269 327
#     4  11  22  37  55  85 110 137 186 226 274 336
#     4  11  24  37  55  83 114 142 176 230 282 319
#     4   9  19  34  56  86 113 142 181 225 272 320
#     4  10  17  32  56  79 108 145 187 224 264 323
#     4  10  18  34  56  79 106 142 185 228 268 315
#
# _framework density 19.155670000000001
#
# number of rings (size 3 to 8) (size 9 to 14) (size 15 to 20)
#    0.000    2.000    3.333    0.500    2.333    1.667 
#    0.000    4.167    0.000    8.000    0.000    0.000 
#    0.000    0.000    0.000    0.000    0.000    0.000 
#
# Total GULP energy -297554.794491 kJ/mol
# GULP energy per Si atom -12398.116437 kJ/mol
# Density = 1.911207 g / cm^3
# Si number density = 19.155670 Si / 1000 Ang^3
#
#
#
# Elastic Constant Matrix: (Units=GPa)
#
#
# Indices 1 2 3 4 5 6 
#
# 1 114.1516 38.6602 66.9299 0.0000 -22.0879 0.0000
# 2 38.6602 80.5802 22.7105 0.0000 -7.9770 0.0000
# 3 66.9299 22.7105 149.7543 0.0000 -1.5664 0.0000
# 4 0.0000 0.0000 0.0000 25.1480 0.0000 1.6556
# 5 -22.0879 -7.9770 -1.5664 0.0000 28.0282 0.0000
# 6 0.0000 0.0000 0.0000 1.6556 0.0000 11.0121
#
#
#
# Elastic Compliance Matrix: (Units=1/GPa)
#
#
# Indices 1 2 3 4 5 6 
#
# 1 0.016367 -0.004932 -0.006451 0.000000 0.011134 0.000000
# 2 -0.004932 0.014820 -0.000040 0.000000 0.000329 0.000000
# 3 -0.006451 -0.000040 0.009519 0.000000 -0.004563 0.000000
# 4 0.000000 0.000000 0.000000 0.040162 0.000000 -0.006038
# 5 0.011134 0.000329 -0.004563 0.000000 0.044291 0.000000
# 6 0.000000 0.000000 0.000000 -0.006038 0.000000 0.091717
#
#
# Mechanical properties :
#
#
# Convention : Reuss Voigt Hill
#
# Bulk Modulus (GPa) = 55.98756 66.78748 61.38752
# Shear Modulus (GPa) = 20.35204 27.25002 23.80103
#
# Velocity S-wave (km/s) = 3.26307 3.77577 3.52874
# Velocity P-wave (km/s) = 6.59454 7.34506 6.97990
#
# Compressibility (1/GPa) = 0.01786111
#
# Stress axis : x y z
#
# Youngs Moduli (GPa) = 61.09751 67.47588 105.05457
#
# Poissons Ratio (x) = 0.33281 0.67766
# Poissons Ratio (y) = 0.30135 0.00416
# Poissons Ratio (z) = 0.39412 0.00267
#
# Static dielectric constant tensor:
#      x y z
#    x 3.383030 0.000000 -0.243050 
#    y 0.000000 3.508910 0.000000 
#    z -0.243050 0.000000 3.823790 
# 
# 
# High freq. dielectric constant tensor:
#      x y z
#    x 1.711320 0.000000 -0.012250 
#    y 0.000000 1.750620 0.000000 
#    z -0.012250 0.000000 1.751090 
# 
# From -- ./inp_files/78677.got.cif
#   From: 2010.06.25/outbox.cif.g09.slc.cpg/sg10_40_cif.got.tgz:78677.got - 2010.06.27 22:07:45.
