data_PCOD8057714
_publ_section_title
;
Structure prediction by ZEFSAII (Michael W. Deem and Ramdas Pophale) SiO2 
 PCOD8057714
Probable space group: P 2/M
;
_chemical_formula_sum "Si O2"
_cell_formula_units_Z 32
_cell_length_a 28.394176
_cell_length_b 8.774726
_cell_length_c 20.260807
_cell_angle_alpha 90.000000
_cell_angle_beta 20.805526
_cell_angle_gamma 90.000000
_cell_volume 1793.036009
_symmetry_space_group_name_H-M "P 2/M"
_symmetry_group_IT_number 10
_symmetry_cell_setting 'monoclinic'
loop_
_space_group_symop_operation_xyz
x,y,z
-x,y,-z
-x,-y,-z
x,-y,z
loop_
_atom_site_type_symbol
_atom_site_label
_atom_site_fract_x
_atom_site_fract_y
_atom_site_fract_z
Si Si1 0.619690 0.319341 0.796545
Si Si2 0.847263 0.319389 0.909070
Si Si3 0.566983 0.319719 0.225765
Si Si4 0.891372 0.321475 0.291469
Si Si5 0.425558 0.175954 0.532605
Si Si6 0.147542 0.823638 0.954985
Si Si7 0.600433 0.678522 0.673592
Si Si8 0.887750 0.180636 0.440640
O O1 0.639927 0.500000 0.769324
O O2 0.589501 0.254528 0.762221
O O3 0.754170 0.244414 0.650001
O O4 0.500000 0.268333 0.000000
O O5 0.864018 0.500000 0.885344
O O6 0.975302 0.241702 0.705921
O O7 0.717898 0.264736 0.037655
O O8 0.826249 0.267086 0.011862
O O9 0.559740 0.500000 0.233252
O O10 0.472345 0.268694 0.408578
O O11 0.509330 0.251368 0.232216
O O12 0.919703 0.500000 0.259559
O O13 0.746539 0.288362 0.450339
O O14 0.890958 0.248868 0.363880
O O15 0.014400 0.240372 0.092655
O O16 0.500000 0.238040 0.500000
O O17 0.268433 0.201219 0.746566
O O18 0.462469 0.000000 0.473366
O O19 0.129365 0.000000 0.997238
O O20 0.577590 0.500000 0.710139
O O21 0.885728 0.000000 0.443933
#
# Coordination Sequence:
#
# PCOD8057714 Si02
#       8
#     4   4   4   4   4   4   4   4
#     4   9  17  32  56  80 101 126 155 191 235 281
#     4  10  18  28  45  69  94 122 161 201 236 278
#     4  10  20  32  49  70  94 126 162 201 240 284
#     4   9  16  29  49  68  92 124 159 200 241 285
#     4  10  20  33  46  64  94 128 162 203 248 288
#     4  10  18  29  46  66  91 121 158 205 249 283
#     4   8  16  32  50  72  99 123 153 194 239 284
#     4  10  18  28  46  72 101 127 155 194 235 277
#
# _framework density 17.846826
#
# number of rings (size 3 to 8) (size 9 to 14) (size 15 to 20)
#    0.000    2.500    1.250    4.500    0.000    2.000 
#    0.000    3.750    0.000    4.500    0.000    5.250 
#    0.000    0.000    0.000    0.000    0.000    0.000 
#
# Total GULP energy -396544.677853 kJ/mol
# GULP energy per Si atom -12392.021183 kJ/mol
# Density = 1.780621 g / cm^3
# Si number density = 17.846826 Si / 1000 Ang^3
#
#
#
# Elastic Constant Matrix: (Units=GPa)
#
#
# Indices 1 2 3 4 5 6 
#
# 1 86.5865 21.6147 60.7198 0.0000 -19.2460 0.0000
# 2 21.6147 65.9876 49.0900 0.0000 -11.8554 0.0000
# 3 60.7198 49.0900 154.8269 0.0000 -23.1449 0.0000
# 4 0.0000 0.0000 0.0000 24.1146 0.0000 -3.4084
# 5 -19.2460 -11.8554 -23.1449 0.0000 25.0914 0.0000
# 6 0.0000 0.0000 0.0000 -3.4084 0.0000 4.0130
#
#
#
# Elastic Compliance Matrix: (Units=1/GPa)
#
#
# Indices 1 2 3 4 5 6 
#
# 1 0.017244 -0.000083 -0.005527 0.000000 0.008089 0.000000
# 2 -0.000083 0.020211 -0.005750 0.000000 0.004181 0.000000
# 3 -0.005527 -0.005750 0.010915 0.000000 0.003112 0.000000
# 4 0.000000 0.000000 0.000000 0.047126 0.000000 0.040026
# 5 0.008089 0.004181 0.003112 0.000000 0.050905 0.000000
# 6 0.000000 0.000000 0.000000 0.040026 0.000000 0.283187
#
#
# Mechanical properties :
#
#
# Convention : Reuss Voigt Hill
#
# Bulk Modulus (GPa) = 38.98958 63.36111 51.17535
# Shear Modulus (GPa) = 10.84934 22.37556 16.61245
#
# Velocity S-wave (km/s) = 2.46827 3.54468 3.05427
# Velocity P-wave (km/s) = 5.47881 7.23414 6.41678
#
# Compressibility (1/GPa) = 0.02564788
#
# Stress axis : x y z
#
# Youngs Moduli (GPa) = 57.99175 49.47870 91.61883
#
# Poissons Ratio (x) = 0.00412 0.50638
# Poissons Ratio (y) = 0.00483 0.52684
# Poissons Ratio (z) = 0.32052 0.28452
#
# Static dielectric constant tensor:
#      x y z
#    x 3.327260 0.000000 -0.525990 
#    y 0.000000 3.218750 0.000000 
#    z -0.525990 0.000000 3.933200 
# 
# 
# High freq. dielectric constant tensor:
#      x y z
#    x 1.648760 0.000000 -0.030500 
#    y 0.000000 1.682750 0.000000 
#    z -0.030500 0.000000 1.700970 
# 
# From -- ./inp_files/87172.got.cif
#   From: 2010.06.25/outbox.cif.g09.slc.cpg/sg10_44_cif.got.tgz:87172.got - 2010.06.27 22:07:45.
