data_PCOD8057223
_publ_section_title
;
Structure prediction by ZEFSAII (Michael W. Deem and Ramdas Pophale) SiO2 
 PCOD8057223
Probable space group: P 2/M
;
_chemical_formula_sum "Si O2"
_cell_formula_units_Z 30
_cell_length_a 9.172248
_cell_length_b 13.633595
_cell_length_c 16.795614
_cell_angle_alpha 90.000000
_cell_angle_beta 62.286700
_cell_angle_gamma 90.000000
_cell_volume 1859.368679
_symmetry_space_group_name_H-M "P 2/M"
_symmetry_group_IT_number 10
_symmetry_cell_setting 'monoclinic'
loop_
_space_group_symop_operation_xyz
x,y,z
-x,y,-z
-x,-y,-z
x,-y,z
loop_
_atom_site_type_symbol
_atom_site_label
_atom_site_fract_x
_atom_site_fract_y
_atom_site_fract_z
Si Si1 0.054975 0.391111 0.896886
Si Si2 0.261484 0.611353 0.278744
Si Si3 0.993129 0.114360 0.687913
Si Si4 0.162912 0.259594 0.158072
Si Si5 0.166104 0.220991 0.412021
Si Si6 0.500000 0.278635 0.000000
Si Si7 0.679192 0.885529 0.486651
Si Si8 0.386446 0.389922 0.875029
O O1 0.049801 0.500000 0.856674
O O2 0.240585 0.346480 0.856563
O O3 0.940259 0.311616 0.884291
O O4 0.000000 0.403852 0.000000
O O5 0.196204 0.500000 0.305020
O O6 0.178229 0.659362 0.222950
O O7 0.223641 0.673033 0.367289
O O8 0.456047 0.614097 0.220514
O O9 0.179548 0.142342 0.613749
O O10 0.942656 0.168027 0.782619
O O11 0.863353 0.145366 0.652798
O O12 0.976402 0.000000 0.708380
O O13 0.343869 0.221314 0.080058
O O14 0.300091 0.174261 0.436922
O O15 0.000000 0.240559 0.500000
O O16 0.587197 0.340624 0.046443
O O17 0.500000 0.857318 0.500000
O O18 0.693408 0.000000 0.503769
O O19 0.335870 0.500000 0.910739
#
# Coordination Sequence:
#
# PCOD8057223 Si02
#       8
#     4   4   4   4   4   2   4   4
#     4  10  18  28  43  67  91 117 150 187 228 267
#     4   9  18  30  44  66  94 124 154 186 221 263
#     4   9  18  33  50  69  92 118 149 186 230 272
#     4  10  19  30  47  67  90 121 154 192 228 266
#     4   9  17  30  49  70  92 120 152 183 222 268
#     4  10  17  28  43  64  86 116 154 190 222 262
#     4   9  17  30  51  76  95 113 144 188 232 272
#     4   9  17  27  42  63  89 118 151 187 224 260
#
# _framework density 16.134509000000001
#
# number of rings (size 3 to 8) (size 9 to 14) (size 15 to 20)
#    0.000    2.667    1.333    1.000    0.000    4.000 
#    0.000    0.333    0.000    0.800    0.000    0.000 
#    0.000    0.000    0.000    0.000    0.000    0.000 
#
# Total GULP energy -371744.711380 kJ/mol
# GULP energy per Si atom -12391.490379 kJ/mol
# Density = 1.609779 g / cm^3
# Si number density = 16.134509 Si / 1000 Ang^3
#
#
#
# Elastic Constant Matrix: (Units=GPa)
#
#
# Indices 1 2 3 4 5 6 
#
# 1 99.0778 37.3349 32.1459 0.0000 0.6655 0.0000
# 2 37.3349 77.8236 41.5186 0.0000 -1.3538 0.0000
# 3 32.1459 41.5186 71.8170 0.0000 3.2071 0.0000
# 4 0.0000 0.0000 0.0000 30.4636 0.0000 3.0598
# 5 0.6655 -1.3538 3.2071 0.0000 14.8888 0.0000
# 6 0.0000 0.0000 0.0000 3.0598 0.0000 23.0448
#
#
#
# Elastic Compliance Matrix: (Units=1/GPa)
#
#
# Indices 1 2 3 4 5 6 
#
# 1 0.012796 -0.004476 -0.003126 0.000000 -0.000306 0.000000
# 2 -0.004476 0.020390 -0.009972 0.000000 0.004202 0.000000
# 3 -0.003126 -0.009972 0.021328 0.000000 -0.005361 0.000000
# 4 0.000000 0.000000 0.000000 0.033270 0.000000 -0.004417
# 5 -0.000306 0.004202 -0.005361 0.000000 0.068715 0.000000
# 6 0.000000 0.000000 0.000000 -0.004417 0.000000 0.043980
#
#
# Mechanical properties :
#
#
# Convention : Reuss Voigt Hill
#
# Bulk Modulus (GPa) = 51.63844 52.30193 51.97019
# Shear Modulus (GPa) = 20.65406 22.86071 21.75739
#
# Velocity S-wave (km/s) = 3.58175 3.76823 3.67618
# Velocity P-wave (km/s) = 7.01283 7.17073 7.09222
#
# Compressibility (1/GPa) = 0.01936542
#
# Stress axis : x y z
#
# Youngs Moduli (GPa) = 78.14804 49.04355 46.88699
#
# Poissons Ratio (x) = 0.21953 0.14658
# Poissons Ratio (y) = 0.34982 0.46755
# Poissons Ratio (z) = 0.24431 0.48905
#
# Static dielectric constant tensor:
#      x y z
#    x 2.821210 0.000000 -0.076050 
#    y 0.000000 2.901890 0.000000 
#    z -0.076050 0.000000 3.079900 
# 
# 
# High freq. dielectric constant tensor:
#      x y z
#    x 1.628170 0.000000 -0.008840 
#    y 0.000000 1.593920 0.000000 
#    z -0.008840 0.000000 1.615250 
# 
# From -- ./inp_files/74780.got.cif
#   From: 2010.06.25/outbox.cif.g09.slc.cpg/sg10_38_cif.got.tgz:74780.got - 2010.06.27 22:07:45.
