data_PCOD8057916
_publ_section_title
;
Structure prediction by ZEFSAII (Michael W. Deem and Ramdas Pophale) SiO2 
 PCOD8057916
Probable space group: P 2/M
;
_chemical_formula_sum "Si O2"
_cell_formula_units_Z 32
_cell_length_a 23.261409
_cell_length_b 9.303026
_cell_length_c 17.237593
_cell_angle_alpha 90.000000
_cell_angle_beta 148.308293
_cell_angle_gamma 90.000000
_cell_volume 1959.676435
_symmetry_space_group_name_H-M "P 2/M"
_symmetry_group_IT_number 10
_symmetry_cell_setting 'monoclinic'
loop_
_space_group_symop_operation_xyz
x,y,z
-x,y,-z
-x,-y,-z
x,-y,z
loop_
_atom_site_type_symbol
_atom_site_label
_atom_site_fract_x
_atom_site_fract_y
_atom_site_fract_z
Si Si1 0.149768 0.667348 0.555317
Si Si2 0.297963 0.834697 0.608078
Si Si3 0.475415 0.831785 0.059159
Si Si4 0.912418 0.333732 0.227208
Si Si5 0.935898 0.831758 0.097956
Si Si6 0.822637 0.836037 0.681898
Si Si7 0.741246 0.332162 0.161734
Si Si8 0.124355 0.337425 0.115474
O O1 0.173138 0.500000 0.573315
O O2 0.213551 0.743493 0.560075
O O3 0.191610 0.723833 0.686416
O O4 0.021545 0.701957 0.401110
O O5 0.422039 0.790509 0.769036
O O6 0.275637 0.807987 0.491337
O O7 0.277261 0.000000 0.606652
O O8 0.449332 0.000000 0.030336
O O9 0.500000 0.779414 0.000000
O O10 0.372645 0.749860 0.976347
O O11 0.912939 0.500000 0.201174
O O12 0.901516 0.232751 0.140547
O O13 0.810227 0.298046 0.164396
O O14 0.063779 0.800714 0.231070
O O15 0.908801 0.000000 0.065311
O O16 0.863136 0.753807 0.948692
O O17 0.802762 0.734417 0.733152
O O18 0.824238 0.000000 0.713433
O O19 0.716663 0.500000 0.141301
O O20 0.165016 0.500000 0.148047
O O21 0.000000 0.333818 0.000000
#
# Coordination Sequence:
#
# PCOD8057916 Si02
#       8
#     4   4   4   4   4   4   4   4
#     4  10  19  31  49  70  95 128 165 202 243 290
#     4  10  19  32  49  71  98 129 162 201 248 287
#     4  10  20  34  52  70  94 127 165 208 249 288
#     4  10  20  33  48  69  99 131 164 202 244 289
#     4  10  18  29  47  70  97 129 162 194 235 288
#     4   9  17  29  45  67  97 127 159 196 237 286
#     4  10  21  35  50  69  95 129 168 208 246 287
#     4   9  17  28  44  67  97 129 159 191 233 285
#
# _framework density 16.329226999999999
#
# number of rings (size 3 to 8) (size 9 to 14) (size 15 to 20)
#    0.000    2.250    2.500    1.125    0.000    5.250 
#    0.000    0.000    0.000    2.250    0.000    0.875 
#    0.000    7.000    0.000    0.000    0.000    0.000 
#
# Total GULP energy -396857.114811 kJ/mol
# GULP energy per Si atom -12401.784838 kJ/mol
# Density = 1.629206 g / cm^3
# Si number density = 16.329227 Si / 1000 Ang^3
#
#
#
# Elastic Constant Matrix: (Units=GPa)
#
#
# Indices 1 2 3 4 5 6 
#
# 1 60.1154 44.8060 54.5780 0.0000 -3.3883 0.0000
# 2 44.8060 71.9934 48.3375 0.0000 -5.6582 0.0000
# 3 54.5780 48.3375 107.7013 0.0000 -10.0109 0.0000
# 4 0.0000 0.0000 0.0000 18.6388 0.0000 -8.4827
# 5 -3.3883 -5.6582 -10.0109 0.0000 28.8682 0.0000
# 6 0.0000 0.0000 0.0000 -8.4827 0.0000 25.1869
#
#
#
# Elastic Compliance Matrix: (Units=1/GPa)
#
#
# Indices 1 2 3 4 5 6 
#
# 1 0.041511 -0.016837 -0.013778 0.000000 -0.003206 0.000000
# 2 -0.016837 0.026729 -0.003266 0.000000 0.002130 0.000000
# 3 -0.013778 -0.003266 0.018107 0.000000 0.004022 0.000000
# 4 0.000000 0.000000 0.000000 0.063364 0.000000 0.021340
# 5 -0.003206 0.002130 0.004022 0.000000 0.036076 0.000000
# 6 0.000000 0.000000 0.000000 0.021340 0.000000 0.046890
#
#
# Mechanical properties :
#
#
# Convention : Reuss Voigt Hill
#
# Bulk Modulus (GPa) = 53.80362 59.47255 56.63809
# Shear Modulus (GPa) = 16.30612 20.67800 18.49206
#
# Velocity S-wave (km/s) = 3.16347 3.56240 3.36884
# Velocity P-wave (km/s) = 6.80912 7.30896 7.06346
#
# Compressibility (1/GPa) = 0.01858611
#
# Stress axis : x y z
#
# Youngs Moduli (GPa) = 24.08985 37.41250 55.22870
#
# Poissons Ratio (x) = 0.62990 0.76091
# Poissons Ratio (y) = 0.40559 0.18039
# Poissons Ratio (z) = 0.33190 0.12220
#
# Static dielectric constant tensor:
#      x y z
#    x 2.886200 0.000000 -0.197660 
#    y 0.000000 3.116240 0.000000 
#    z -0.197660 0.000000 3.114000 
# 
# 
# High freq. dielectric constant tensor:
#      x y z
#    x 1.605400 0.000000 -0.023000 
#    y 0.000000 1.632300 0.000000 
#    z -0.023000 0.000000 1.618780 
# 
# From -- ./inp_files/49909.got.cif
#   From: 2010.06.25/outbox.cif.g09.slc.cpg/sg10_25_cif.got.tgz:49909.got - 2010.06.27 22:07:45.
