data_PCOD8057554
_publ_section_title
;
Structure prediction by ZEFSAII (Michael W. Deem and Ramdas Pophale) SiO2 
 PCOD8057554
Probable space group: P 2/M
;
_chemical_formula_sum "Si O2"
_cell_formula_units_Z 28
_cell_length_a 14.025465
_cell_length_b 8.843140
_cell_length_c 14.558718
_cell_angle_alpha 90.000000
_cell_angle_beta 105.688810
_cell_angle_gamma 90.000000
_cell_volume 1738.433107
_symmetry_space_group_name_H-M "P 2/M"
_symmetry_group_IT_number 10
_symmetry_cell_setting 'monoclinic'
loop_
_space_group_symop_operation_xyz
x,y,z
-x,y,-z
-x,-y,-z
x,-y,z
loop_
_atom_site_type_symbol
_atom_site_label
_atom_site_fract_x
_atom_site_fract_y
_atom_site_fract_z
Si Si1 0.626463 0.179192 0.214898
Si Si2 0.257062 0.821270 0.922413
Si Si3 0.724927 0.673666 0.799754
Si Si4 0.373988 0.324278 0.405615
Si Si5 0.110046 0.322460 0.017949
Si Si6 0.420408 0.820122 0.596269
Si Si7 0.416881 0.822319 0.105705
O O1 0.722563 0.227322 0.178837
O O2 0.632183 0.233089 0.322305
O O3 0.527636 0.245821 0.139784
O O4 0.618323 0.000000 0.211609
O O5 0.243579 0.000000 0.929220
O O6 0.159354 0.744902 0.938621
O O7 0.353774 0.761626 0.003027
O O8 0.701686 0.500000 0.819117
O O9 0.720005 0.697016 0.687982
O O10 0.829639 0.720549 0.873199
O O11 0.638623 0.778588 0.815724
O O12 0.391535 0.500000 0.431824
O O13 0.472930 0.257925 0.384871
O O14 0.350731 0.236037 0.494304
O O15 0.104654 0.500000 0.001509
O O16 0.000000 0.254074 0.000000
O O17 0.434085 0.000000 0.595747
O O18 0.424372 0.000000 0.100537
#
# Coordination Sequence:
#
# PCOD8057554 Si02
#       7
#     4   4   4   4   4   4   4
#     4   9  16  26  40  61  87 116 145 172 205 244
#     4   9  17  28  44  64  86 111 141 175 209 251
#     4   9  17  28  43  62  85 113 142 175 215 253
#     4  10  18  28  40  58  85 114 146 180 213 242
#     4   9  18  33  49  65  86 110 138 175 219 263
#     4  10  18  27  41  59  84 117 151 177 202 241
#     4   9  15  25  41  60  84 115 146 171 199 243
#
# _framework density 16.106459000000001
#
# number of rings (size 3 to 8) (size 9 to 14) (size 15 to 20)
#    0.000    2.714    1.429    2.143    0.000    2.571 
#    0.000    2.143    0.000    3.429    0.000    1.000 
#    0.000    8.000    0.000    0.000    0.000    0.000 
#
# Total GULP energy -346872.079561 kJ/mol
# GULP energy per Si atom -12388.288556 kJ/mol
# Density = 1.606980 g / cm^3
# Si number density = 16.106459 Si / 1000 Ang^3
#
#
#
# Elastic Constant Matrix: (Units=GPa)
#
#
# Indices 1 2 3 4 5 6 
#
# 1 96.6709 15.7383 59.9663 0.0000 -12.6775 0.0000
# 2 15.7383 25.6859 20.5248 0.0000 -6.5940 0.0000
# 3 59.9663 20.5248 115.5996 0.0000 -21.0684 0.0000
# 4 0.0000 0.0000 0.0000 3.8568 0.0000 6.4078
# 5 -12.6775 -6.5940 -21.0684 0.0000 20.6711 0.0000
# 6 0.0000 0.0000 0.0000 6.4078 0.0000 10.8793
#
#
#
# Elastic Compliance Matrix: (Units=1/GPa)
#
#
# Indices 1 2 3 4 5 6 
#
# 1 0.015548 -0.003458 -0.007264 0.000000 0.001029 0.000000
# 2 -0.003458 0.047156 -0.005187 0.000000 0.007635 0.000000
# 3 -0.007264 -0.005187 0.015015 0.000000 0.009194 0.000000
# 4 0.000000 0.000000 0.000000 12.092778 0.000000 -7.122515
# 5 0.001029 0.007635 0.009194 0.000000 0.060814 0.000000
# 6 0.000000 0.000000 0.000000 -7.122515 0.000000 4.287001
#
#
# Mechanical properties :
#
#
# Convention : Reuss Voigt Hill
#
# Bulk Modulus (GPa) = 21.78619 47.82391 34.80505
# Shear Modulus (GPa) = 0.30183 16.52990 8.41587
#
# Velocity S-wave (km/s) = 0.43337 3.20705 2.28834
# Velocity P-wave (km/s) = 3.71566 6.59321 5.35147
#
# Compressibility (1/GPa) = 0.04590063
#
# Stress axis : x y z
#
# Youngs Moduli (GPa) = 64.31575 21.20638 66.59834
#
# Poissons Ratio (x) = 0.07333 0.48377
# Poissons Ratio (y) = 0.22241 0.34546
# Poissons Ratio (z) = 0.46719 0.11000
#
# Static dielectric constant tensor:
#      x y z
#    x 2.931480 0.000000 -0.040600 
#    y 0.000000 2.937260 0.000000 
#    z -0.040600 0.000000 3.406370 
# 
# 
# High freq. dielectric constant tensor:
#      x y z
#    x 1.572510 0.000000 -0.008140 
#    y 0.000000 1.607870 0.000000 
#    z -0.008140 0.000000 1.624510 
# 
# From -- ./inp_files/65782.got.cif
#   From: 2010.06.25/outbox.cif.g09.slc.cpg/sg10_33_cif.got.tgz:65782.got - 2010.06.27 22:07:45.
