data_PCOD8057622
_publ_section_title
;
Structure prediction by ZEFSAII (Michael W. Deem and Ramdas Pophale) SiO2 
 PCOD8057622
Probable space group: P 2/M
;
_chemical_formula_sum "Si O2"
_cell_formula_units_Z 32
_cell_length_a 19.055173
_cell_length_b 8.928921
_cell_length_c 12.128792
_cell_angle_alpha 90.000000
_cell_angle_beta 101.320066
_cell_angle_gamma 90.000000
_cell_volume 2023.472870
_symmetry_space_group_name_H-M "P 2/M"
_symmetry_group_IT_number 10
_symmetry_cell_setting 'monoclinic'
loop_
_space_group_symop_operation_xyz
x,y,z
-x,y,-z
-x,-y,-z
x,-y,z
loop_
_atom_site_type_symbol
_atom_site_label
_atom_site_fract_x
_atom_site_fract_y
_atom_site_fract_z
Si Si1 0.607522 0.178759 0.527666
Si Si2 0.310375 0.827109 0.103747
Si Si3 0.730201 0.677110 0.680363
Si Si4 0.497375 0.675637 0.657591
Si Si5 0.548681 0.326465 0.914482
Si Si6 0.842595 0.172200 0.996854
Si Si7 0.117455 0.672550 0.211335
Si Si8 0.016091 0.166802 0.875175
O O1 0.688602 0.236052 0.570298
O O2 0.577347 0.251766 0.405742
O O3 0.561475 0.238285 0.616543
O O4 0.604037 0.000000 0.519825
O O5 0.241448 0.809672 0.000070
O O6 0.321524 0.000000 0.140607
O O7 0.298919 0.733046 0.211011
O O8 0.378486 0.767605 0.058802
O O9 0.715507 0.500000 0.669441
O O10 0.814906 0.714485 0.689422
O O11 0.500216 0.500000 0.628530
O O12 0.504431 0.703182 0.789454
O O13 0.569052 0.500000 0.933464
O O14 0.500000 0.270509 0.000000
O O15 0.899195 0.212960 0.113059
O O16 0.858536 0.000000 0.964896
O O17 0.858748 0.281793 0.902296
O O18 0.102665 0.500000 0.210264
O O19 0.040288 0.743322 0.218362
O O20 0.004517 0.000000 0.830648
O O21 0.000000 0.187690 0.000000
#
# Coordination Sequence:
#
# PCOD8057622 Si02
#       8
#     4   4   4   4   4   4   4   4
#     4  11  20  29  45  66  87 107 139 181 213 249
#     4  10  18  28  43  61  80 104 140 181 214 248
#     4  10  18  28  40  57  83 113 140 171 213 254
#     4  10  19  32  48  63  84 111 138 170 215 262
#     4  10  21  35  49  64  85 113 142 174 214 261
#     4   8  15  25  35  49  71 101 133 166 205 244
#     4   9  16  22  32  51  74 100 134 170 200 237
#     4   8  13  22  33  45  68 101 133 163 198 241
#
# _framework density 15.814394999999999
#
# number of rings (size 3 to 8) (size 9 to 14) (size 15 to 20)
#    0.000    2.500    1.250    4.125    0.000    5.000 
#    0.000    0.000    0.000    0.000    0.000    0.000 
#    0.000    0.000    0.000    1.125    0.000   22.875 
#
# Total GULP energy -396428.993976 kJ/mol
# GULP energy per Si atom -12388.406062 kJ/mol
# Density = 1.577840 g / cm^3
# Si number density = 15.814395 Si / 1000 Ang^3
#
#
#
# Elastic Constant Matrix: (Units=GPa)
#
#
# Indices 1 2 3 4 5 6 
#
# 1 117.8295 52.0898 49.5188 0.0000 41.6058 0.0000
# 2 52.0898 77.6319 30.9876 0.0000 25.1238 0.0000
# 3 49.5188 30.9876 55.3571 0.0000 16.3982 0.0000
# 4 0.0000 0.0000 0.0000 11.3865 0.0000 10.2789
# 5 41.6058 25.1238 16.3982 0.0000 28.9106 0.0000
# 6 0.0000 0.0000 0.0000 10.2789 0.0000 23.6398
#
#
#
# Elastic Compliance Matrix: (Units=1/GPa)
#
#
# Indices 1 2 3 4 5 6 
#
# 1 0.023522 -0.003082 -0.012118 0.000000 -0.024300 0.000000
# 2 -0.003082 0.020518 -0.005722 0.000000 -0.010150 0.000000
# 3 -0.012118 -0.005722 0.030612 0.000000 0.005049 0.000000
# 4 0.000000 0.000000 0.000000 0.144571 0.000000 -0.062861
# 5 -0.024300 -0.010150 0.005049 0.000000 0.075516 0.000000
# 6 0.000000 0.000000 0.000000 -0.062861 0.000000 0.069634
#
#
# Mechanical properties :
#
#
# Convention : Reuss Voigt Hill
#
# Bulk Modulus (GPa) = 30.48021 57.33455 43.90738
# Shear Modulus (GPa) = 11.98600 20.66886 16.32743
#
# Velocity S-wave (km/s) = 2.75602 3.61912 3.21665
# Velocity P-wave (km/s) = 5.42615 7.33467 6.45137
#
# Compressibility (1/GPa) = 0.03280817
#
# Stress axis : x y z
#
# Youngs Moduli (GPa) = 42.51283 48.73791 32.66687
#
# Poissons Ratio (x) = 0.15021 0.39586
# Poissons Ratio (y) = 0.13102 0.18692
# Poissons Ratio (z) = 0.51517 0.27888
#
# Static dielectric constant tensor:
#      x y z
#    x 3.446860 0.000000 0.616470 
#    y 0.000000 3.098150 0.000000 
#    z 0.616470 0.000000 2.719010 
# 
# 
# High freq. dielectric constant tensor:
#      x y z
#    x 1.606920 0.000000 0.055690 
#    y 0.000000 1.620320 0.000000 
#    z 0.055690 0.000000 1.543990 
# 
# From -- ./inp_files/54510.got.cif
#   From: 2010.06.25/outbox.cif.g09.slc.cpg/sg10_28_cif.got.tgz:54510.got - 2010.06.27 22:07:45.
