data_PCOD8057171
_publ_section_title
;
Structure prediction by ZEFSAII (Michael W. Deem and Ramdas Pophale) SiO2 
 PCOD8057171
Probable space group: P 2/M
;
_chemical_formula_sum "Si O2"
_cell_formula_units_Z 32
_cell_length_a 13.593519
_cell_length_b 9.078077
_cell_length_c 17.079348
_cell_angle_alpha 90.000000
_cell_angle_beta 102.791626
_cell_angle_gamma 90.000000
_cell_volume 2055.334924
_symmetry_space_group_name_H-M "P 2/M"
_symmetry_group_IT_number 10
_symmetry_cell_setting 'monoclinic'
loop_
_space_group_symop_operation_xyz
x,y,z
-x,y,-z
-x,-y,-z
x,-y,z
loop_
_atom_site_type_symbol
_atom_site_label
_atom_site_fract_x
_atom_site_fract_y
_atom_site_fract_z
Si Si1 0.738900 0.835952 0.169848
Si Si2 0.135390 0.173131 0.665824
Si Si3 0.074280 0.325505 0.335740
Si Si4 0.124660 0.826767 0.192507
Si Si5 0.616544 0.672425 0.022737
Si Si6 0.078358 0.836074 0.911839
Si Si7 0.233842 0.827029 0.060322
Si Si8 0.880845 0.662115 0.488069
O O1 0.766151 0.788983 0.263638
O O2 0.846756 0.834776 0.147602
O O3 0.691571 0.000000 0.158931
O O4 0.661657 0.726707 0.113573
O O5 0.164367 0.224264 0.582962
O O6 0.036871 0.255166 0.681422
O O7 0.112361 0.000000 0.662219
O O8 0.061076 0.500000 0.324388
O O9 0.140397 0.260096 0.276114
O O10 0.138312 0.286773 0.425665
O O11 0.219440 0.799120 0.150626
O O12 0.025129 0.757797 0.132691
O O13 0.111985 0.000000 0.208671
O O14 0.634683 0.500000 0.020004
O O15 0.667705 0.746499 0.955708
O O16 0.500000 0.715381 0.000000
O O17 0.046275 0.000000 0.930628
O O18 0.134630 0.764358 0.996865
O O19 0.245863 0.000000 0.042891
O O20 0.833835 0.500000 0.464553
O O21 0.000000 0.652949 0.500000
#
# Coordination Sequence:
#
# PCOD8057171 Si02
#       8
#     4   4   4   4   4   4   4   4
#     4   9  17  29  46  66  86 112 145 180 220 259
#     4  10  17  27  43  62  83 110 149 189 219 251
#     4  10  19  28  38  56  87 123 152 179 215 252
#     4  10  17  27  43  62  86 115 149 183 211 248
#     4  10  21  35  49  65  87 113 141 178 221 262
#     4   8  13  25  41  58  83 111 139 173 211 247
#     4   9  18  30  46  65  84 111 144 180 220 256
#     4   8  16  28  38  53  81 117 151 181 215 252
#
# _framework density 15.569238
#
# number of rings (size 3 to 8) (size 9 to 14) (size 15 to 20)
#    0.000    2.750    1.250    3.000    0.000    6.750 
#    0.000    0.000    0.000    2.250    0.000    0.000 
#    0.000    1.000    0.000   11.000    0.000    8.000 
#
# Total GULP energy -396518.518343 kJ/mol
# GULP energy per Si atom -12391.203698 kJ/mol
# Density = 1.553380 g / cm^3
# Si number density = 15.569238 Si / 1000 Ang^3
#
#
#
# Elastic Constant Matrix: (Units=GPa)
#
#
# Indices 1 2 3 4 5 6 
#
# 1 54.9660 36.7938 49.2679 0.0000 -3.3856 0.0000
# 2 36.7938 71.0654 54.3300 0.0000 -4.2091 0.0000
# 3 49.2679 54.3300 123.5953 0.0000 -16.9379 0.0000
# 4 0.0000 0.0000 0.0000 23.8941 0.0000 -0.8144
# 5 -3.3856 -4.2091 -16.9379 0.0000 16.7960 0.0000
# 6 0.0000 0.0000 0.0000 -0.8144 0.0000 16.2972
#
#
#
# Elastic Compliance Matrix: (Units=1/GPa)
#
#
# Indices 1 2 3 4 5 6 
#
# 1 0.033233 -0.010289 -0.009468 0.000000 -0.005428 0.000000
# 2 -0.010289 0.024710 -0.007190 0.000000 -0.003132 0.000000
# 3 -0.009468 -0.007190 0.016845 0.000000 0.013277 0.000000
# 4 0.000000 0.000000 0.000000 0.041923 0.000000 0.002095
# 5 -0.005428 -0.003132 0.013277 0.000000 0.071048 0.000000
# 6 0.000000 0.000000 0.000000 0.002095 0.000000 0.061465
#
#
# Mechanical properties :
#
#
# Convention : Reuss Voigt Hill
#
# Bulk Modulus (GPa) = 47.86147 58.93444 53.39795
# Shear Modulus (GPa) = 16.12473 18.67980 17.40227
#
# Velocity S-wave (km/s) = 3.22169 3.46755 3.34688
# Velocity P-wave (km/s) = 6.68183 7.34624 7.02190
#
# Compressibility (1/GPa) = 0.02089363
#
# Stress axis : x y z
#
# Youngs Moduli (GPa) = 30.09057 40.47001 59.36387
#
# Poissons Ratio (x) = 0.41640 0.56209
# Poissons Ratio (y) = 0.30960 0.42681
# Poissons Ratio (z) = 0.28491 0.29097
#
# Static dielectric constant tensor:
#      x y z
#    x 2.576130 0.000000 -0.162080 
#    y 0.000000 2.897420 0.000000 
#    z -0.162080 0.000000 3.323070 
# 
# 
# High freq. dielectric constant tensor:
#      x y z
#    x 1.539700 0.000000 -0.015720 
#    y 0.000000 1.588720 0.000000 
#    z -0.015720 0.000000 1.604020 
# 
# From -- ./inp_files/77397.got.cif
#   From: 2010.06.25/outbox.cif.g09.slc.cpg/sg10_39_cif.got.tgz:77397.got - 2010.06.27 22:07:45.
