data_PCOD8057217
_publ_section_title
;
Structure prediction by ZEFSAII (Michael W. Deem and Ramdas Pophale) SiO2 
 PCOD8057217
Probable space group: P 2/M
;
_chemical_formula_sum "Si O2"
_cell_formula_units_Z 30
_cell_length_a 12.086861
_cell_length_b 9.318976
_cell_length_c 14.272257
_cell_angle_alpha 90.000000
_cell_angle_beta 90.702706
_cell_angle_gamma 90.000000
_cell_volume 1607.465699
_symmetry_space_group_name_H-M "P 2/M"
_symmetry_group_IT_number 10
_symmetry_cell_setting 'monoclinic'
loop_
_space_group_symop_operation_xyz
x,y,z
-x,y,-z
-x,-y,-z
x,-y,z
loop_
_atom_site_type_symbol
_atom_site_label
_atom_site_fract_x
_atom_site_fract_y
_atom_site_fract_z
Si Si1 0.625485 0.833006 0.001463
Si Si2 0.123909 0.330980 0.673847
Si Si3 0.262117 0.671331 0.499473
Si Si4 0.500000 0.699895 0.500000
Si Si5 0.485685 0.345614 0.289839
Si Si6 0.124137 0.667912 0.312185
Si Si7 0.705490 0.832276 0.795361
Si Si8 0.699168 0.332512 0.177149
O O1 0.680524 0.799716 0.902940
O O2 0.626030 0.000000 0.026395
O O3 0.500000 0.774088 0.000000
O O4 0.696339 0.752532 0.080362
O O5 0.118403 0.500000 0.659713
O O6 0.189443 0.270218 0.584849
O O7 0.187532 0.288977 0.769554
O O8 0.999648 0.270150 0.676592
O O9 0.292806 0.500000 0.508027
O O10 0.375763 0.769307 0.497022
O O11 0.191963 0.699667 0.406384
O O12 0.496541 0.620366 0.600123
O O13 0.451372 0.500000 0.244918
O O14 0.391650 0.229080 0.271022
O O15 0.598210 0.288603 0.244010
O O16 0.123318 0.500000 0.287021
O O17 0.179614 0.754331 0.227558
O O18 0.714967 0.000000 0.774907
O O19 0.696434 0.500000 0.154139
#
# Coordination Sequence:
#
# PCOD8057217 Si02
#       8
#     4   4   4   2   4   4   4   4
#     4  10  21  38  57  78 107 143 180 220 275 340
#     4   9  18  33  52  81 115 145 182 226 266 313
#     4  10  17  27  50  83 115 146 178 216 262 317
#     4  12  19  28  51  88 125 146 173 216 265 324
#     4  11  20  32  54  84 116 147 177 216 266 322
#     4  10  20  35  57  80 107 147 191 226 262 313
#     4  11  23  38  56  78 108 143 181 228 275 325
#     4  10  20  33  55  85 113 139 176 228 275 317
#
# _framework density 18.662918999999999
#
# number of rings (size 3 to 8) (size 9 to 14) (size 15 to 20)
#    0.000    1.733    4.000    2.000    0.000    2.933 
#    0.000    1.667    0.000    6.400    0.000    0.000 
#    0.000    0.000    0.000    0.000    0.000    0.000 
#
# Total GULP energy -371680.644762 kJ/mol
# GULP energy per Si atom -12389.354825 kJ/mol
# Density = 1.862044 g / cm^3
# Si number density = 18.662919 Si / 1000 Ang^3
#
#
#
# Elastic Constant Matrix: (Units=GPa)
#
#
# Indices 1 2 3 4 5 6 
#
# 1 179.3048 38.3511 68.5146 0.0000 -6.3470 0.0000
# 2 38.3511 42.7167 43.6935 0.0000 -3.1847 0.0000
# 3 68.5146 43.6935 125.5185 0.0000 -3.2429 0.0000
# 4 0.0000 0.0000 0.0000 -1.9600 0.0000 -6.3610
# 5 -6.3470 -3.1847 -3.2429 0.0000 23.6953 0.0000
# 6 0.0000 0.0000 0.0000 -6.3610 0.0000 14.3120
#
#
#
# Elastic Compliance Matrix: (Units=1/GPa)
#
#
# Indices 1 2 3 4 5 6 
#
# 1 0.007477 -0.003859 -0.002709 0.000000 0.001113 0.000000
# 2 -0.003859 0.038584 -0.011258 0.000000 0.002612 0.000000
# 3 -0.002709 -0.011258 0.013354 0.000000 -0.000411 0.000000
# 4 0.000000 0.000000 0.000000 -0.208891 0.000000 -0.092843
# 5 0.001113 0.002612 -0.000411 0.000000 0.042795 0.000000
# 6 0.000000 0.000000 0.000000 -0.092843 0.000000 0.028607
#
#
# Mechanical properties :
#
#
# Convention : Reuss Voigt Hill
#
# Bulk Modulus (GPa) = 42.08042 72.07315 57.07678
# Shear Modulus (GPa) = -144.92151 20.34153 -62.28999
#
# Velocity S-wave (km/s) = -8.82160 3.30501 -5.78349
# Velocity P-wave (km/s) = 9.00913 7.29838 3.73484
#
# Compressibility (1/GPa) = 0.02376402
#
# Stress axis : x y z
#
# Youngs Moduli (GPa) = 133.74133 25.91756 74.88346
#
# Poissons Ratio (x) = 0.10000 0.20289
# Poissons Ratio (y) = 0.51605 0.84300
# Poissons Ratio (z) = 0.36237 0.29177
#
# Static dielectric constant tensor:
#      x y z
#    x 3.703640 0.000000 -0.107570 
#    y 0.000000 2.977790 0.000000 
#    z -0.107570 0.000000 3.454370 
# 
# 
# High freq. dielectric constant tensor:
#      x y z
#    x 1.732860 0.000000 -0.005370 
#    y 0.000000 1.672970 0.000000 
#    z -0.005370 0.000000 1.732040 
# 
# From -- ./inp_files/63449.got.cif
#   From: 2010.06.25/outbox.cif.g09.slc.cpg/sg10_32_cif.got.tgz:63449.got - 2010.06.27 22:07:45.
