data_PCOD8057329
_publ_section_title
;
Structure prediction by ZEFSAII (Michael W. Deem and Ramdas Pophale) SiO2 
 PCOD8057329
Probable space group: P 2/M
;
_chemical_formula_sum "Si O2"
_cell_formula_units_Z 28
_cell_length_a 14.444192
_cell_length_b 8.993522
_cell_length_c 19.288721
_cell_angle_alpha 90.000000
_cell_angle_beta 42.003427
_cell_angle_gamma 90.000000
_cell_volume 1676.741944
_symmetry_space_group_name_H-M "P 2/M"
_symmetry_group_IT_number 10
_symmetry_cell_setting 'monoclinic'
loop_
_space_group_symop_operation_xyz
x,y,z
-x,y,-z
-x,-y,-z
x,-y,z
loop_
_atom_site_type_symbol
_atom_site_label
_atom_site_fract_x
_atom_site_fract_y
_atom_site_fract_z
Si Si1 0.214341 0.824106 0.387437
Si Si2 0.788389 0.824417 0.113199
Si Si3 0.603077 0.326165 0.004584
Si Si4 0.015455 0.176150 0.879080
Si Si5 0.482325 0.176963 0.806409
Si Si6 0.083976 0.675428 0.199100
Si Si7 0.988185 0.823954 0.618930
O O1 0.369952 0.759156 0.301277
O O2 0.136112 0.769435 0.361769
O O3 0.132600 0.775474 0.502122
O O4 0.216849 0.000000 0.383620
O O5 0.844590 0.774758 0.157471
O O6 0.632384 0.768128 0.185700
O O7 0.797646 0.000000 0.105119
O O8 0.886352 0.766213 0.996813
O O9 0.599229 0.500000 0.024174
O O10 0.757010 0.273721 0.898246
O O11 0.500000 0.285023 0.000000
O O12 0.553152 0.236572 0.098534
O O13 0.011742 0.260178 0.808512
O O14 0.010653 0.000000 0.868521
O O15 0.484588 0.000000 0.809889
O O16 0.071028 0.500000 0.206988
O O17 0.022341 0.738186 0.303885
O O18 0.982222 0.000000 0.635454
#
# Coordination Sequence:
#
# PCOD8057329 Si02
#       7
#     4   4   4   4   4   4   4
#     4   8  16  30  50  73  93 116 155 198 230 266
#     4   8  15  27  47  71  93 116 150 191 230 275
#     4  10  21  33  42  61  98 132 151 178 226 276
#     4   9  16  30  48  67  92 123 152 184 233 281
#     4  10  17  29  50  73  92 115 152 194 228 270
#     4  11  21  31  45  69  96 123 158 194 223 266
#     4   9  17  32  50  68  93 125 155 189 233 274
#
# _framework density 16.699051000000001
#
# number of rings (size 3 to 8) (size 9 to 14) (size 15 to 20)
#    0.000    2.714    1.429    3.000    0.000    0.857 
#    0.000    4.286    0.000    0.857    0.000    6.000 
#    0.000    0.000    0.000    0.000    0.000    0.000 
#
# Total GULP energy -347073.733994 kJ/mol
# GULP energy per Si atom -12395.490500 kJ/mol
# Density = 1.666104 g / cm^3
# Si number density = 16.699051 Si / 1000 Ang^3
#
#
#
# Elastic Constant Matrix: (Units=GPa)
#
#
# Indices 1 2 3 4 5 6 
#
# 1 154.4370 34.3743 88.7077 0.0000 -1.0001 0.0000
# 2 34.3743 32.7785 32.6380 0.0000 2.5254 0.0000
# 3 88.7077 32.6380 129.1732 0.0000 0.9422 0.0000
# 4 0.0000 0.0000 0.0000 4.0798 0.0000 -10.2357
# 5 -1.0001 2.5254 0.9422 0.0000 25.2852 0.0000
# 6 0.0000 0.0000 0.0000 -10.2357 0.0000 4.7706
#
#
#
# Elastic Compliance Matrix: (Units=1/GPa)
#
#
# Indices 1 2 3 4 5 6 
#
# 1 0.011444 -0.005697 -0.006429 0.000000 0.001261 0.000000
# 2 -0.005697 0.043946 -0.007160 0.000000 -0.004348 0.000000
# 3 -0.006429 -0.007160 0.013966 0.000000 -0.000060 0.000000
# 4 0.000000 0.000000 0.000000 -0.055923 0.000000 -0.119987
# 5 0.001261 -0.004348 -0.000060 0.000000 0.040035 0.000000
# 6 0.000000 0.000000 0.000000 -0.119987 0.000000 -0.047826
#
#
# Mechanical properties :
#
#
# Convention : Reuss Voigt Hill
#
# Bulk Modulus (GPa) = 32.48337 69.75874 51.12105
# Shear Modulus (GPa) = 91.78480 17.53837 54.66159
#
# Velocity S-wave (km/s) = 7.42182 3.24429 5.72751
# Velocity P-wave (km/s) = 9.64049 7.47654 8.62663
#
# Compressibility (1/GPa) = 0.03078498
#
# Stress axis : x y z
#
# Youngs Moduli (GPa) = 87.38249 22.75508 71.60358
#
# Poissons Ratio (x) = 0.12964 0.46031
# Poissons Ratio (y) = 0.49783 0.51266
# Poissons Ratio (z) = 0.56175 0.16292
#
# Static dielectric constant tensor:
#      x y z
#    x 3.572080 0.000000 -0.304150 
#    y 0.000000 2.812550 0.000000 
#    z -0.304150 0.000000 3.248720 
# 
# 
# High freq. dielectric constant tensor:
#      x y z
#    x 1.651270 0.000000 -0.001710 
#    y 0.000000 1.614190 0.000000 
#    z -0.001710 0.000000 1.629350 
# 
# From -- ./inp_files/54712.got.cif
#   From: 2010.06.25/outbox.cif.g09.slc.cpg/sg10_28_cif.got.tgz:54712.got - 2010.06.27 22:07:45.
