data_PCOD8057165
_publ_section_title
;
Structure prediction by ZEFSAII (Michael W. Deem and Ramdas Pophale) SiO2 
 PCOD8057165
Probable space group: P 2/M
;
_chemical_formula_sum "Si O2"
_cell_formula_units_Z 32
_cell_length_a 19.547351
_cell_length_b 9.055844
_cell_length_c 28.958155
_cell_angle_alpha 90.000000
_cell_angle_beta 23.373627
_cell_angle_gamma 90.000000
_cell_volume 2033.657207
_symmetry_space_group_name_H-M "P 2/M"
_symmetry_group_IT_number 10
_symmetry_cell_setting 'monoclinic'
loop_
_space_group_symop_operation_xyz
x,y,z
-x,y,-z
-x,-y,-z
x,-y,z
loop_
_atom_site_type_symbol
_atom_site_label
_atom_site_fract_x
_atom_site_fract_y
_atom_site_fract_z
Si Si1 0.886442 0.166342 0.438372
Si Si2 0.600847 0.674146 0.842237
Si Si3 0.089307 0.324987 0.742006
Si Si4 0.041063 0.673945 0.423897
Si Si5 0.687649 0.826795 0.474265
Si Si6 0.396557 0.337587 0.611401
Si Si7 0.250038 0.832791 0.167478
Si Si8 0.739436 0.173554 0.945903
O O1 0.898153 0.267615 0.476391
O O2 0.727530 0.209697 0.503339
O O3 0.052764 0.185656 0.303399
O O4 0.867407 0.000000 0.468254
O O5 0.571999 0.500000 0.858550
O O6 0.629260 0.725379 0.877439
O O7 0.766640 0.724285 0.709513
O O8 0.433442 0.755866 0.924835
O O9 0.070664 0.500000 0.746105
O O10 0.178710 0.258749 0.641112
O O11 0.202645 0.289009 0.717738
O O12 0.905129 0.251051 0.865746
O O13 0.024936 0.500000 0.433405
O O14 0.000000 0.738239 0.500000
O O15 0.489771 0.777489 0.587903
O O16 0.709264 0.000000 0.450770
O O17 0.500000 0.345464 0.500000
O O18 0.396375 0.500000 0.634872
O O19 0.264613 0.787720 0.105521
O O20 0.315135 0.000000 0.135569
O O21 0.746858 0.000000 0.951397
#
# Coordination Sequence:
#
# PCOD8057165 Si02
#       8
#     4   4   4   4   4   4   4   4
#     4   9  17  29  44  65  89 114 147 181 218 259
#     4  10  20  31  44  64  84 108 144 181 218 260
#     4  10  19  29  41  58  85 119 154 187 218 251
#     4   9  19  35  51  66  86 112 143 181 224 266
#     4  10  17  27  42  62  87 116 150 185 218 257
#     4   8  16  28  39  56  82 115 151 186 219 250
#     4   9  17  30  42  56  84 117 145 177 214 250
#     4  11  20  30  43  60  86 118 149 181 215 254
#
# _framework density 15.735198
#
# number of rings (size 3 to 8) (size 9 to 14) (size 15 to 20)
#    0.000    2.500    1.250    2.625    0.000    7.000 
#    0.000    0.000    0.000    0.000    0.000    0.000 
#    0.000    1.000    0.000   11.250    0.000    5.625 
#
# Total GULP energy -396692.996531 kJ/mol
# GULP energy per Si atom -12396.656142 kJ/mol
# Density = 1.569938 g / cm^3
# Si number density = 15.735198 Si / 1000 Ang^3
#
#
#
# Elastic Constant Matrix: (Units=GPa)
#
#
# Indices 1 2 3 4 5 6 
#
# 1 96.4892 47.6155 51.0236 0.0000 -19.9611 0.0000
# 2 47.6155 72.9354 35.0188 0.0000 -16.2852 0.0000
# 3 51.0236 35.0188 58.0723 0.0000 -20.0516 0.0000
# 4 0.0000 0.0000 0.0000 19.3119 0.0000 -8.1623
# 5 -19.9611 -16.2852 -20.0516 0.0000 26.3576 0.0000
# 6 0.0000 0.0000 0.0000 -8.1623 0.0000 26.2781
#
#
#
# Elastic Compliance Matrix: (Units=1/GPa)
#
#
# Indices 1 2 3 4 5 6 
#
# 1 0.021677 -0.006958 -0.014466 0.000000 0.001112 0.000000
# 2 -0.006958 0.021874 -0.005737 0.000000 0.003881 0.000000
# 3 -0.014466 -0.005737 0.038495 0.000000 0.014785 0.000000
# 4 0.000000 0.000000 0.000000 0.059607 0.000000 0.018515
# 5 0.001112 0.003881 0.014785 0.000000 0.052428 0.000000
# 6 0.000000 0.000000 0.000000 0.018515 0.000000 0.043805
#
#
# Mechanical properties :
#
#
# Convention : Reuss Voigt Hill
#
# Bulk Modulus (GPa) = 36.07000 54.97919 45.52460
# Shear Modulus (GPa) = 16.58644 20.64545 18.61595
#
# Velocity S-wave (km/s) = 3.25021 3.62616 3.44332
# Velocity P-wave (km/s) = 6.08753 7.24901 6.69351
#
# Compressibility (1/GPa) = 0.02772387
#
# Stress axis : x y z
#
# Youngs Moduli (GPa) = 46.13110 45.71556 25.97733
#
# Poissons Ratio (x) = 0.31808 0.37580
# Poissons Ratio (y) = 0.32097 0.14904
# Poissons Ratio (z) = 0.66735 0.26229
#
# Static dielectric constant tensor:
#      x y z
#    x 3.098510 0.000000 -0.359830 
#    y 0.000000 3.044190 0.000000 
#    z -0.359830 0.000000 2.953840 
# 
# 
# High freq. dielectric constant tensor:
#      x y z
#    x 1.584790 0.000000 -0.034850 
#    y 0.000000 1.612680 0.000000 
#    z -0.034850 0.000000 1.569730 
# 
# From -- ./inp_files/72556.got.cif
#   From: 2010.06.25/outbox.cif.g09.slc.cpg/sg10_37_cif.got.tgz:72556.got - 2010.06.27 22:07:45.
