data_PCOD8057970
_publ_section_title
;
Structure prediction by ZEFSAII (Michael W. Deem and Ramdas Pophale) SiO2 
 PCOD8057970
Probable space group: P 2/M
;
_chemical_formula_sum "Si O2"
_cell_formula_units_Z 28
_cell_length_a 12.249548
_cell_length_b 17.602151
_cell_length_c 20.810280
_cell_angle_alpha 90.000000
_cell_angle_beta 160.023106
_cell_angle_gamma 90.000000
_cell_volume 1532.970925
_symmetry_space_group_name_H-M "P 2/M"
_symmetry_group_IT_number 10
_symmetry_cell_setting 'monoclinic'
loop_
_space_group_symop_operation_xyz
x,y,z
-x,y,-z
-x,-y,-z
x,-y,z
loop_
_atom_site_type_symbol
_atom_site_label
_atom_site_fract_x
_atom_site_fract_y
_atom_site_fract_z
Si Si1 0.632479 0.316412 0.296011
Si Si2 0.723758 0.088605 0.397355
Si Si3 0.331055 0.721621 0.264733
Si Si4 0.930792 0.415894 0.036933
Si Si5 0.329321 0.853906 0.494427
Si Si6 0.280953 0.821314 0.070219
Si Si7 0.962552 0.912241 0.789259
O O1 0.530106 0.295313 0.311376
O O2 0.433419 0.387059 0.156586
O O3 0.558865 0.241888 0.211999
O O4 0.000000 0.339756 0.500000
O O5 0.814838 0.123675 0.516572
O O6 0.389043 0.123155 0.187704
O O7 0.000000 0.110113 0.500000
O O8 0.678219 0.000000 0.379824
O O9 0.557228 0.764925 0.441595
O O10 0.181470 0.642576 0.209455
O O11 0.042015 0.778550 0.087238
O O12 0.966904 0.500000 0.087475
O O13 0.000000 0.417684 0.000000
O O14 0.629893 0.907997 0.644069
O O15 0.062688 0.867206 0.292451
O O16 0.240793 0.870966 0.983441
O O17 0.054584 0.000000 0.828637
#
# Coordination Sequence:
#
# PCOD8057970 Si02
#       7
#     4   4   4   4   4   4   4
#     4  10  18  29  48  73 101 132 167 208 251 301
#     4  11  22  33  49  72  99 132 170 216 271 315
#     4   9  18  30  50  72  96 131 170 203 252 301
#     4   8  15  28  46  73 106 132 157 198 251 303
#     4  10  19  33  50  71  98 130 168 218 262 307
#     4  10  19  32  49  71  94 130 172 216 250 300
#     4  10  20  33  50  71  96 130 174 225 268 300
#
# _framework density 18.265184999999999
#
# number of rings (size 3 to 8) (size 9 to 14) (size 15 to 20)
#    0.000    2.286    1.429    3.857    2.000    0.286 
#    0.000    2.857    0.000    2.571    0.000   18.000 
#    0.000    0.000    0.000   39.286    0.000    0.000 
#
# Total GULP energy -347020.525518 kJ/mol
# GULP energy per Si atom -12393.590197 kJ/mol
# Density = 1.822361 g / cm^3
# Si number density = 18.265185 Si / 1000 Ang^3
#
#
#
# Elastic Constant Matrix: (Units=GPa)
#
#
# Indices 1 2 3 4 5 6 
#
# 1 78.0413 36.2192 34.9755 0.0000 -11.0403 0.0000
# 2 36.2192 147.6316 55.0945 0.0000 -6.2446 0.0000
# 3 34.9755 55.0945 69.7305 0.0000 -1.1358 0.0000
# 4 0.0000 0.0000 0.0000 22.4424 0.0000 -3.2125
# 5 -11.0403 -6.2446 -1.1358 0.0000 26.6298 0.0000
# 6 0.0000 0.0000 0.0000 -3.2125 0.0000 14.3755
#
#
#
# Elastic Compliance Matrix: (Units=1/GPa)
#
#
# Indices 1 2 3 4 5 6 
#
# 1 0.017866 -0.001124 -0.007963 0.000000 0.006804 0.000000
# 2 -0.001124 0.009777 -0.007136 0.000000 0.001522 0.000000
# 3 -0.007963 -0.007136 0.023909 0.000000 -0.003955 0.000000
# 4 0.000000 0.000000 0.000000 0.046031 0.000000 0.010287
# 5 0.006804 0.001522 -0.003955 0.000000 0.040561 0.000000
# 6 0.000000 0.000000 0.000000 0.010287 0.000000 0.071862
#
#
# Mechanical properties :
#
#
# Convention : Reuss Voigt Hill
#
# Bulk Modulus (GPa) = 52.33805 60.88687 56.61246
# Shear Modulus (GPa) = 20.09482 23.96382 22.02932
#
# Velocity S-wave (km/s) = 3.32048 3.62608 3.47664
# Velocity P-wave (km/s) = 6.58920 7.13712 6.86863
#
# Compressibility (1/GPa) = 0.01910656
#
# Stress axis : x y z
#
# Youngs Moduli (GPa) = 55.97080 102.28169 41.82558
#
# Poissons Ratio (x) = 0.11495 0.33304
# Poissons Ratio (y) = 0.06291 0.29848
# Poissons Ratio (z) = 0.44568 0.72991
#
# Static dielectric constant tensor:
#      x y z
#    x 3.069620 0.000000 -0.088630 
#    y 0.000000 3.728360 0.000000 
#    z -0.088630 0.000000 3.391550 
# 
# 
# High freq. dielectric constant tensor:
#      x y z
#    x 1.670380 0.000000 0.001550 
#    y 0.000000 1.708720 0.000000 
#    z 0.001550 0.000000 1.692410 
# 
# From -- ./inp_files/84230.got.cif
#   From: 2010.06.25/outbox.cif.g09.slc.cpg/sg10_43_cif.got.tgz:84230.got - 2010.06.27 22:07:45.
