data_PCOD8057110
_publ_section_title
;
Structure prediction by ZEFSAII (Michael W. Deem and Ramdas Pophale) SiO2 
 PCOD8057110
Probable space group: P 2/M
;
_chemical_formula_sum "Si O2"
_cell_formula_units_Z 32
_cell_length_a 28.797348
_cell_length_b 8.671978
_cell_length_c 21.088407
_cell_angle_alpha 90.000000
_cell_angle_beta 159.780467
_cell_angle_gamma 90.000000
_cell_volume 1820.165788
_symmetry_space_group_name_H-M "P 2/M"
_symmetry_group_IT_number 10
_symmetry_cell_setting 'monoclinic'
loop_
_space_group_symop_operation_xyz
x,y,z
-x,y,-z
-x,-y,-z
x,-y,z
loop_
_atom_site_type_symbol
_atom_site_label
_atom_site_fract_x
_atom_site_fract_y
_atom_site_fract_z
Si Si1 0.046385 0.820458 0.470223
Si Si2 0.885245 0.817250 0.012027
Si Si3 0.078386 0.682012 0.162143
Si Si4 0.370174 0.181929 0.083686
Si Si5 0.804171 0.680539 0.236696
Si Si6 0.384109 0.821087 0.401640
Si Si7 0.132411 0.817910 0.869138
Si Si8 0.616231 0.680277 0.465621
O O1 0.175475 0.724332 0.662353
O O2 0.915188 0.781442 0.343078
O O3 0.005290 0.775274 0.345345
O O4 0.080132 0.000000 0.518728
O O5 0.755468 0.761856 0.806650
O O6 0.891230 0.000000 0.023144
O O7 0.876717 0.746550 0.072139
O O8 0.018201 0.754959 0.148631
O O9 0.062579 0.500000 0.145710
O O10 0.232537 0.733780 0.355487
O O11 0.000000 0.746492 0.000000
O O12 0.520027 0.227542 0.295017
O O13 0.359579 0.000000 0.060679
O O14 0.337984 0.265536 0.974913
O O15 0.265060 0.243896 0.002424
O O16 0.826920 0.500000 0.255841
O O17 0.500000 0.791202 0.500000
O O18 0.419495 0.721002 0.508079
O O19 0.376753 0.000000 0.411790
O O20 0.148396 0.000000 0.894333
O O21 0.596051 0.500000 0.428748
#
# Coordination Sequence:
#
# PCOD8057110 Si02
#       8
#     4   4   4   4   4   4   4   4
#     4   9  15  26  44  66  97 137 172 197 239 290
#     4  10  19  32  52  74  94 122 166 207 241 284
#     4  10  21  38  53  67  94 128 161 205 255 294
#     4  10  19  33  51  71 101 133 163 199 248 299
#     4  10  17  26  42  68 101 132 167 203 238 283
#     4  10  20  33  50  72  99 129 160 197 243 293
#     4   8  16  30  48  72 101 130 159 201 245 288
#     4  11  22  35  51  70  95 127 165 205 248 293
#
# _framework density 17.580815999999999
#
# number of rings (size 3 to 8) (size 9 to 14) (size 15 to 20)
#    0.000    2.250    1.250    4.500    0.000    3.500 
#    0.000    5.000    0.000    0.000    0.000    0.875 
#    0.000    7.000    0.000    0.000    0.000    0.000 
#
# Total GULP energy -396691.332818 kJ/mol
# GULP energy per Si atom -12396.604151 kJ/mol
# Density = 1.754080 g / cm^3
# Si number density = 17.580816 Si / 1000 Ang^3
#
#
#
# Elastic Constant Matrix: (Units=GPa)
#
#
# Indices 1 2 3 4 5 6 
#
# 1 43.1940 16.1524 50.2015 0.0000 -7.4715 0.0000
# 2 16.1524 39.8571 31.4396 0.0000 -6.0471 0.0000
# 3 50.2015 31.4396 120.6066 0.0000 -23.0482 0.0000
# 4 0.0000 0.0000 0.0000 26.7571 0.0000 -3.5065
# 5 -7.4715 -6.0471 -23.0482 0.0000 29.0168 0.0000
# 6 0.0000 0.0000 0.0000 -3.5065 0.0000 13.3585
#
#
#
# Elastic Compliance Matrix: (Units=1/GPa)
#
#
# Indices 1 2 3 4 5 6 
#
# 1 0.045835 -0.004443 -0.018677 0.000000 -0.003959 0.000000
# 2 -0.004443 0.032015 -0.006413 0.000000 0.000434 0.000000
# 3 -0.018677 -0.006413 0.019527 0.000000 0.009365 0.000000
# 4 0.000000 0.000000 0.000000 0.038705 0.000000 0.010160
# 5 -0.003959 0.000434 0.009365 0.000000 0.040972 0.000000
# 6 0.000000 0.000000 0.000000 0.010160 0.000000 0.077525
#
#
# Mechanical properties :
#
#
# Convention : Reuss Voigt Hill
#
# Bulk Modulus (GPa) = 26.10270 44.36052 35.23161
# Shear Modulus (GPa) = 15.31791 20.88408 18.10100
#
# Velocity S-wave (km/s) = 2.95496 3.45032 3.21220
# Velocity P-wave (km/s) = 5.14994 6.41561 5.81730
#
# Compressibility (1/GPa) = 0.03831021
#
# Stress axis : x y z
#
# Youngs Moduli (GPa) = 21.81751 31.23541 51.21162
#
# Poissons Ratio (x) = 0.13879 0.95646
# Poissons Ratio (y) = 0.09694 0.32843
# Poissons Ratio (z) = 0.40748 0.20032
#
# Static dielectric constant tensor:
#      x y z
#    x 3.413010 0.000000 -0.495490 
#    y 0.000000 3.083990 0.000000 
#    z -0.495490 0.000000 3.568000 
# 
# 
# High freq. dielectric constant tensor:
#      x y z
#    x 1.652850 0.000000 -0.032840 
#    y 0.000000 1.671440 0.000000 
#    z -0.032840 0.000000 1.676650 
# 
# From -- ./inp_files/54944.got.cif
#   From: 2010.06.25/outbox.cif.g09.slc.cpg/sg10_28_cif.got.tgz:54944.got - 2010.06.27 22:07:45.
