data_PCOD8057974
_publ_section_title
;
Structure prediction by ZEFSAII (Michael W. Deem and Ramdas Pophale) SiO2 
 PCOD8057974
Probable space group: P 2/M
;
_chemical_formula_sum "Si O2"
_cell_formula_units_Z 28
_cell_length_a 13.700785
_cell_length_b 14.058584
_cell_length_c 9.559383
_cell_angle_alpha 90.000000
_cell_angle_beta 69.582285
_cell_angle_gamma 90.000000
_cell_volume 1725.588367
_symmetry_space_group_name_H-M "P 2/M"
_symmetry_group_IT_number 10
_symmetry_cell_setting 'monoclinic'
loop_
_space_group_symop_operation_xyz
x,y,z
-x,y,-z
-x,-y,-z
x,-y,z
loop_
_atom_site_type_symbol
_atom_site_label
_atom_site_fract_x
_atom_site_fract_y
_atom_site_fract_z
Si Si1 0.879940 0.891342 0.398669
Si Si2 1.000000 0.606163 0.833924
Si Si3 0.197476 0.725308 0.736377
Si Si4 0.879941 0.108658 0.721391
Si Si5 0.401009 0.390594 0.637526
Si Si6 0.197476 0.274692 0.066146
Si Si7 0.598991 0.390594 0.038535
O O1 0.806534 0.826197 0.339612
O O2 0.863890 0.863653 0.568055
O O3 1.000000 0.876841 0.295047
O O4 0.846380 0.000000 0.389473
O O5 1.000000 0.500000 0.770038
O O6 0.102389 0.660524 0.729550
O O7 0.897611 0.660524 0.831939
O O8 0.000000 0.600147 0.000000
O O9 0.303586 0.673137 0.641199
O O10 0.189976 0.743471 0.905012
O O11 0.806535 0.173803 0.853854
O O12 0.846380 0.000000 0.764146
O O13 0.500000 0.356016 0.500000
O O14 0.372971 0.500000 0.618536
O O15 0.428246 0.376810 0.785877
O O16 0.303587 0.326862 0.055215
O O17 0.627030 0.500000 0.991507
O O18 0.500000 0.356017 0.000000
#
# Coordination Sequence:
#
# PCOD8057974 Si02
#       7
#     4   4   4   4   4   4   4
#     4   9  18  32  48  67  95 129 159 189 233 288
#     4   9  16  26  42  67  98 126 149 181 230 281
#     4  10  18  29  48  73  96 122 158 197 234 276
#     4   9  18  32  48  67  95 129 159 189 233 288
#     4   9  18  32  49  70  96 127 163 198 232 275
#     4  10  18  29  48  73  96 122 158 197 234 276
#     4   9  18  32  49  70  96 127 163 198 232 275
#
# _framework density 16.22635
#
# number of rings (size 3 to 8) (size 9 to 14) (size 15 to 20)
#    0.000    2.714    1.429    1.714    0.000    5.143 
#    0.000    1.429    0.000    4.286    0.000    0.000 
#    0.000    0.000    0.000    0.000    0.000    0.000 
#
# Total GULP energy -347231.908164 kJ/mol
# GULP energy per Si atom -12401.139577 kJ/mol
# Density = 1.618942 g / cm^3
# Si number density = 16.226350 Si / 1000 Ang^3
#
#
#
# Elastic Constant Matrix: (Units=GPa)
#
#
# Indices 1 2 3 4 5 6 
#
# 1 120.9299 65.2901 48.7383 0.0000 -8.6655 0.0000
# 2 65.2901 109.5018 52.2708 0.0000 -5.8491 0.0000
# 3 48.7383 52.2708 62.7827 0.0000 -17.4583 0.0000
# 4 0.0000 0.0000 0.0000 26.9171 0.0000 0.6911
# 5 -8.6655 -5.8491 -17.4583 0.0000 22.5016 0.0000
# 6 0.0000 0.0000 0.0000 0.6911 0.0000 25.3788
#
#
#
# Elastic Compliance Matrix: (Units=1/GPa)
#
#
# Indices 1 2 3 4 5 6 
#
# 1 0.013573 -0.004906 -0.006825 0.000000 -0.001344 0.000000
# 2 -0.004906 0.017979 -0.013243 0.000000 -0.007491 0.000000
# 3 -0.006825 -0.013243 0.038972 0.000000 0.024166 0.000000
# 4 0.000000 0.000000 0.000000 0.037177 0.000000 -0.001012
# 5 -0.001344 -0.007491 0.024166 0.000000 0.060727 0.000000
# 6 0.000000 0.000000 0.000000 -0.001012 0.000000 0.039431
#
#
# Mechanical properties :
#
#
# Convention : Reuss Voigt Hill
#
# Bulk Modulus (GPa) = 48.60354 69.53476 59.06915
# Shear Modulus (GPa) = 18.89173 23.42051 21.15612
#
# Velocity S-wave (km/s) = 3.41583 3.80328 3.61475
# Velocity P-wave (km/s) = 6.75098 7.88877 7.34195
#
# Compressibility (1/GPa) = 0.02057463
#
# Stress axis : x y z
#
# Youngs Moduli (GPa) = 73.67719 55.62012 25.65927
#
# Poissons Ratio (x) = 0.27289 0.17513
# Poissons Ratio (y) = 0.36149 0.33981
# Poissons Ratio (z) = 0.50287 0.73658
#
# Static dielectric constant tensor:
#      x y z
#    x 2.965570 0.000000 -0.037780 
#    y 0.000000 3.059270 0.000000 
#    z -0.037780 0.000000 2.881500 
# 
# 
# High freq. dielectric constant tensor:
#      x y z
#    x 1.610250 0.000000 -0.000620 
#    y 0.000000 1.623550 0.000000 
#    z -0.000620 0.000000 1.608880 
# 
# From -- ./inp_files/24877.got.cif
#   From: 2010.06.25/outbox.cif.g09.slc.cpg/sg10_13_cif.got.tgz:24877.got - 2010.06.27 22:07:45.
