data_PCOD8057841
_publ_section_title
;
Structure prediction by ZEFSAII (Michael W. Deem and Ramdas Pophale) SiO2 
 PCOD8057841
Probable space group: P 2/M
;
_chemical_formula_sum "Si O2"
_cell_formula_units_Z 32
_cell_length_a 22.437130
_cell_length_b 8.974205
_cell_length_c 12.287848
_cell_angle_alpha 90.000000
_cell_angle_beta 45.609994
_cell_angle_gamma 90.000000
_cell_volume 1768.067811
_symmetry_space_group_name_H-M "P 2/M"
_symmetry_group_IT_number 10
_symmetry_cell_setting 'monoclinic'
loop_
_space_group_symop_operation_xyz
x,y,z
-x,y,-z
-x,-y,-z
x,-y,z
loop_
_atom_site_type_symbol
_atom_site_label
_atom_site_fract_x
_atom_site_fract_y
_atom_site_fract_z
Si Si1 0.280021 0.824327 0.453319
Si Si2 0.073419 0.161464 0.827357
Si Si3 0.284275 0.324922 0.110260
Si Si4 0.405776 0.823598 0.109414
Si Si5 0.157863 0.669742 0.455679
Si Si6 0.799761 0.676783 0.996746
Si Si7 0.775032 0.324525 0.272088
Si Si8 0.986806 0.670167 0.748096
O O1 0.354453 0.766117 0.280379
O O2 0.191166 0.771430 0.514708
O O3 0.290345 0.755541 0.561881
O O4 0.284415 0.000000 0.456382
O O5 0.133201 0.282741 0.805576
O O6 0.030661 0.227184 0.777759
O O7 0.118910 0.000000 0.745536
O O8 0.000000 0.123555 0.000000
O O9 0.301465 0.500000 0.088510
O O10 0.366582 0.243777 0.049474
O O11 0.204376 0.282406 0.286218
O O12 0.263735 0.265200 0.014976
O O13 0.402033 0.000000 0.103809
O O14 0.500000 0.765493 0.000000
O O15 0.181226 0.500000 0.457294
O O16 0.057290 0.681704 0.561823
O O17 0.800634 0.500000 0.994356
O O18 0.767795 0.733267 0.155858
O O19 0.893702 0.731677 0.843859
O O20 0.760541 0.500000 0.296649
O O21 0.979102 0.500000 0.799165
#
# Coordination Sequence:
#
# PCOD8057841 Si02
#       8
#     4   4   4   4   4   4   4   4
#     4  10  19  31  50  76 103 127 157 205 255 293
#     4  11  21  30  42  65  95 130 175 227 263 282
#     4   9  18  34  52  75 104 130 165 207 247 293
#     4   9  19  37  60  83 104 126 153 191 248 312
#     4   9  17  28  47  71  96 130 169 211 251 293
#     4   9  19  32  47  68  99 140 177 209 243 288
#     4  11  20  31  48  69  98 137 175 207 247 296
#     4  10  18  29  45  66  94 135 178 211 251 293
#
# _framework density 18.098852999999998
#
# number of rings (size 3 to 8) (size 9 to 14) (size 15 to 20)
#    0.000    2.250    2.500    1.125    0.000    1.750 
#    0.000    4.375    0.000    0.750    0.000    9.625 
#    0.000    0.000    0.000    0.000    0.000    0.000 
#
# Total GULP energy -396440.260139 kJ/mol
# GULP energy per Si atom -12388.758129 kJ/mol
# Density = 1.805766 g / cm^3
# Si number density = 18.098853 Si / 1000 Ang^3
#
#
#
# Elastic Constant Matrix: (Units=GPa)
#
#
# Indices 1 2 3 4 5 6 
#
# 1 123.8054 23.8430 67.8828 0.0000 6.2623 0.0000
# 2 23.8430 42.3605 19.9647 0.0000 4.4650 0.0000
# 3 67.8828 19.9647 88.6901 0.0000 -0.6772 0.0000
# 4 0.0000 0.0000 0.0000 20.4894 0.0000 -3.5717
# 5 6.2623 4.4650 -0.6772 0.0000 29.1485 0.0000
# 6 0.0000 0.0000 0.0000 -3.5717 0.0000 8.3288
#
#
#
# Elastic Compliance Matrix: (Units=1/GPa)
#
#
# Indices 1 2 3 4 5 6 
#
# 1 0.014543 -0.002932 -0.010493 0.000000 -0.002919 0.000000
# 2 -0.002932 0.027520 -0.003979 0.000000 -0.003678 0.000000
# 3 -0.010493 -0.003979 0.020228 0.000000 0.003334 0.000000
# 4 0.000000 0.000000 0.000000 0.052749 0.000000 0.022621
# 5 -0.002919 -0.003678 0.003334 0.000000 0.035575 0.000000
# 6 0.000000 0.000000 0.000000 0.022621 0.000000 0.129766
#
#
# Mechanical properties :
#
#
# Convention : Reuss Voigt Hill
#
# Bulk Modulus (GPa) = 36.38697 53.13745 44.76221
# Shear Modulus (GPa) = 15.41538 21.13769 18.27654
#
# Velocity S-wave (km/s) = 2.92161 3.42117 3.18121
# Velocity P-wave (km/s) = 5.61510 6.71038 6.18702
#
# Compressibility (1/GPa) = 0.02748236
#
# Stress axis : x y z
#
# Youngs Moduli (GPa) = 68.76093 36.33686 49.43680
#
# Poissons Ratio (x) = 0.10656 0.51876
# Poissons Ratio (y) = 0.20164 0.19669
# Poissons Ratio (z) = 0.72154 0.14457
#
# Static dielectric constant tensor:
#      x y z
#    x 3.231470 0.000000 0.182450 
#    y 0.000000 3.217650 0.000000 
#    z 0.182450 0.000000 3.678950 
# 
# 
# High freq. dielectric constant tensor:
#      x y z
#    x 1.666370 0.000000 0.010110 
#    y 0.000000 1.690450 0.000000 
#    z 0.010110 0.000000 1.704390 
# 
# From -- ./inp_files/55267.got.cif
#   From: 2010.06.25/outbox.cif.g09.slc.cpg/sg10_28_cif.got.tgz:55267.got - 2010.06.27 22:07:45.
