data_PCOD8057901
_publ_section_title
;
Structure prediction by ZEFSAII (Michael W. Deem and Ramdas Pophale) SiO2 
 PCOD8057901
Probable space group: P 2/M
;
_chemical_formula_sum "Si O2"
_cell_formula_units_Z 28
_cell_length_a 32.485714
_cell_length_b 9.066006
_cell_length_c 10.135844
_cell_angle_alpha 90.000000
_cell_angle_beta 32.402334
_cell_angle_gamma 90.000000
_cell_volume 1599.634049
_symmetry_space_group_name_H-M "P 2/M"
_symmetry_group_IT_number 10
_symmetry_cell_setting 'monoclinic'
loop_
_space_group_symop_operation_xyz
x,y,z
-x,y,-z
-x,-y,-z
x,-y,z
loop_
_atom_site_type_symbol
_atom_site_label
_atom_site_fract_x
_atom_site_fract_y
_atom_site_fract_z
Si Si1 0.847503 0.334208 0.765676
Si Si2 0.552433 0.673751 0.980822
Si Si3 0.469495 0.169458 0.438060
Si Si4 0.146408 0.667024 0.936698
Si Si5 0.700518 0.826566 0.486970
Si Si6 0.996610 0.166557 0.351845
Si Si7 0.301378 0.169111 0.812116
O O1 0.852257 0.500000 0.698389
O O2 0.918345 0.242834 0.513291
O O3 0.852079 0.330437 0.910226
O O4 0.766687 0.264443 0.938959
O O5 0.567019 0.500000 0.941113
O O6 0.633509 0.756292 0.755371
O O7 0.500000 0.723138 0.000000
O O8 0.511169 0.720595 0.226357
O O9 0.500000 0.204150 0.500000
O O10 0.378515 0.201226 0.684473
O O11 0.485355 0.000000 0.353052
O O12 0.148350 0.500000 0.877969
O O13 0.219167 0.755962 0.683566
O O14 0.068804 0.745289 0.096165
O O15 0.683910 0.787452 0.379632
O O16 0.703783 0.000000 0.503997
O O17 0.000000 0.168574 0.500000
O O18 0.998773 0.000000 0.292339
O O19 0.275270 0.000000 0.891451
#
# Coordination Sequence:
#
# PCOD8057901 Si02
#       7
#     4   4   4   4   4   4   4
#     4   9  16  24  37  57  83 118 156 194 236 285
#     4  11  22  34  51  74 100 129 165 207 251 299
#     4  10  21  37  55  74  98 130 167 208 254 301
#     4   9  16  25  37  57  88 120 153 194 240 288
#     4  10  18  29  47  68  92 124 163 203 244 290
#     4   9  15  23  35  53  81 118 157 192 232 284
#     4   9  17  29  45  66  91 121 158 201 244 290
#
# _framework density 17.504003000000001
#
# number of rings (size 3 to 8) (size 9 to 14) (size 15 to 20)
#    0.000    2.429    1.429    2.143    0.000    7.143 
#    0.000    0.000    0.000    0.000    0.000    0.000 
#    0.000    1.143    0.000   12.286    0.000    9.000 
#
# Total GULP energy -347238.436972 kJ/mol
# GULP energy per Si atom -12401.372749 kJ/mol
# Density = 1.746416 g / cm^3
# Si number density = 17.504003 Si / 1000 Ang^3
#
#
#
# Elastic Constant Matrix: (Units=GPa)
#
#
# Indices 1 2 3 4 5 6 
#
# 1 56.9051 36.0513 46.4695 0.0000 -18.5592 0.0000
# 2 36.0513 123.5758 64.3532 0.0000 -21.7714 0.0000
# 3 46.4695 64.3532 103.4896 0.0000 -36.1991 0.0000
# 4 0.0000 0.0000 0.0000 35.2518 0.0000 -9.3854
# 5 -18.5592 -21.7714 -36.1991 0.0000 26.7141 0.0000
# 6 0.0000 0.0000 0.0000 -9.3854 0.0000 13.2423
#
#
#
# Elastic Compliance Matrix: (Units=1/GPa)
#
#
# Indices 1 2 3 4 5 6 
#
# 1 0.028549 -0.002487 -0.009589 0.000000 0.004814 0.000000
# 2 -0.002487 0.012190 -0.006830 0.000000 -0.001048 0.000000
# 3 -0.009589 -0.006830 0.026498 0.000000 0.023678 0.000000
# 4 0.000000 0.000000 0.000000 0.034965 0.000000 0.024781
# 5 0.004814 -0.001048 0.023678 0.000000 0.072008 0.000000
# 6 0.000000 0.000000 0.000000 0.024781 0.000000 0.093079
#
#
# Mechanical properties :
#
#
# Convention : Reuss Voigt Hill
#
# Bulk Modulus (GPa) = 33.98529 64.19092 49.08810
# Shear Modulus (GPa) = 15.87759 24.18141 20.02950
#
# Velocity S-wave (km/s) = 3.01505 3.72086 3.38639
# Velocity P-wave (km/s) = 5.61948 7.43044 6.58749
#
# Compressibility (1/GPa) = 0.02942450
#
# Stress axis : x y z
#
# Youngs Moduli (GPa) = 35.02712 82.03551 37.73903
#
# Poissons Ratio (x) = 0.20404 0.36188
# Poissons Ratio (y) = 0.08712 0.25776
# Poissons Ratio (z) = 0.33588 0.56030
#
# Static dielectric constant tensor:
#      x y z
#    x 2.856150 0.000000 -0.415830 
#    y 0.000000 3.385310 0.000000 
#    z -0.415830 0.000000 3.178530 
# 
# 
# High freq. dielectric constant tensor:
#      x y z
#    x 1.621780 0.000000 -0.045130 
#    y 0.000000 1.690420 0.000000 
#    z -0.045130 0.000000 1.669260 
# 
# From -- ./inp_files/37117.got.cif
#   From: 2010.06.25/outbox.cif.g09.slc.cpg/sg10_19_cif.got.tgz:37117.got - 2010.06.27 22:07:45.
