data_PCOD8057155
_publ_section_title
;
Structure prediction by ZEFSAII (Michael W. Deem and Ramdas Pophale) SiO2 
 PCOD8057155
Probable space group: P 2/M
;
_chemical_formula_sum "Si O2"
_cell_formula_units_Z 32
_cell_length_a 12.237351
_cell_length_b 8.862763
_cell_length_c 24.577404
_cell_angle_alpha 90.000000
_cell_angle_beta 131.240514
_cell_angle_gamma 90.000000
_cell_volume 2004.383985
_symmetry_space_group_name_H-M "P 2/M"
_symmetry_group_IT_number 10
_symmetry_cell_setting 'monoclinic'
loop_
_space_group_symop_operation_xyz
x,y,z
-x,y,-z
-x,-y,-z
x,-y,z
loop_
_atom_site_type_symbol
_atom_site_label
_atom_site_fract_x
_atom_site_fract_y
_atom_site_fract_z
Si Si1 0.636740 0.330566 0.659426
Si Si2 0.350928 0.679528 0.891501
Si Si3 0.400572 0.830117 0.520542
Si Si4 0.879824 0.176321 0.799242
Si Si5 0.352871 0.820536 0.009590
Si Si6 0.924088 0.823953 0.240098
Si Si7 0.164379 0.670242 0.381333
Si Si8 0.948995 0.821220 0.040902
O O1 0.596909 0.500000 0.662881
O O2 0.486423 0.242790 0.599371
O O3 0.725601 0.256071 0.738057
O O4 0.733499 0.325207 0.637468
O O5 0.354432 0.500000 0.899355
O O6 0.504974 0.739463 0.919040
O O7 0.225775 0.730436 0.808721
O O8 0.320086 0.758890 0.938840
O O9 0.500000 0.825623 0.500000
O O10 0.251342 0.740030 0.460830
O O11 0.359641 0.000000 0.522877
O O12 0.993391 0.212118 0.788824
O O13 0.947482 0.241899 0.877210
O O14 0.848318 0.000000 0.792336
O O15 0.375723 0.000000 0.013735
O O16 0.218052 0.776001 0.003701
O O17 0.020242 0.767976 0.322548
O O18 0.890827 0.000000 0.235950
O O19 0.119031 0.500000 0.380875
O O20 0.964109 0.000000 0.045840
O O21 0.000000 0.752177 0.000000
#
# Coordination Sequence:
#
# PCOD8057155 Si02
#       8
#     4   4   4   4   4   4   4   4
#     4   9  16  24  35  51  72 101 134 172 209 244
#     4  11  20  29  43  63  86 111 139 178 218 256
#     4   9  15  23  34  49  70 101 137 171 202 242
#     4   9  16  27  41  58  78 103 137 175 211 253
#     4  10  18  31  47  64  83 108 140 176 216 261
#     4  10  17  27  41  59  80 109 142 175 211 251
#     4   9  16  24  34  52  77 105 134 169 207 247
#     4   9  17  30  48  67  85 108 141 181 221 260
#
# _framework density 15.965005
#
# number of rings (size 3 to 8) (size 9 to 14) (size 15 to 20)
#    0.000    2.500    1.250    3.750    0.000    5.000 
#    0.000    0.000    0.000    3.375    0.000    0.000 
#    0.000    0.000    0.000    1.125    0.000   23.375 
#
# Total GULP energy -396731.302111 kJ/mol
# GULP energy per Si atom -12397.853191 kJ/mol
# Density = 1.592867 g / cm^3
# Si number density = 15.965005 Si / 1000 Ang^3
#
#
#
# Elastic Constant Matrix: (Units=GPa)
#
#
# Indices 1 2 3 4 5 6 
#
# 1 54.8671 22.8489 40.2797 0.0000 9.5242 0.0000
# 2 22.8489 91.3531 49.8199 0.0000 12.7762 0.0000
# 3 40.2797 49.8199 131.2384 0.0000 28.8059 0.0000
# 4 0.0000 0.0000 0.0000 26.3570 0.0000 8.1538
# 5 9.5242 12.7762 28.8059 0.0000 17.8362 0.0000
# 6 0.0000 0.0000 0.0000 8.1538 0.0000 7.9596
#
#
#
# Elastic Compliance Matrix: (Units=1/GPa)
#
#
# Indices 1 2 3 4 5 6 
#
# 1 0.023984 -0.002476 -0.006196 0.000000 -0.001027 0.000000
# 2 -0.002476 0.014116 -0.004136 0.000000 -0.002110 0.000000
# 3 -0.006196 -0.004136 0.015050 0.000000 -0.018035 0.000000
# 4 0.000000 0.000000 0.000000 0.055542 0.000000 -0.056897
# 5 -0.001027 -0.002110 -0.018035 0.000000 0.087253 0.000000
# 6 0.000000 0.000000 0.000000 -0.056897 0.000000 0.183920
#
#
# Mechanical properties :
#
#
# Convention : Reuss Voigt Hill
#
# Bulk Modulus (GPa) = 36.31745 55.92839 46.12292
# Shear Modulus (GPa) = 12.05811 21.39791 16.72801
#
# Velocity S-wave (km/s) = 2.75122 3.66498 3.24047
# Velocity P-wave (km/s) = 5.73497 7.28130 6.55390
#
# Compressibility (1/GPa) = 0.02753498
#
# Stress axis : x y z
#
# Youngs Moduli (GPa) = 41.69491 70.83972 66.44614
#
# Poissons Ratio (x) = 0.17542 0.41168
# Poissons Ratio (y) = 0.10325 0.27479
# Poissons Ratio (z) = 0.25833 0.29296
#
# Static dielectric constant tensor:
#      x y z
#    x 2.621490 0.000000 0.257870 
#    y 0.000000 3.057390 0.000000 
#    z 0.257870 0.000000 3.237120 
# 
# 
# High freq. dielectric constant tensor:
#      x y z
#    x 1.539940 0.000000 0.035910 
#    y 0.000000 1.619270 0.000000 
#    z 0.035910 0.000000 1.620260 
# 
# From -- ./inp_files/88557.got.cif
#   From: 2010.06.25/outbox.cif.g09.slc.cpg/sg10_45_cif.got.tgz:88557.got - 2010.06.27 22:07:45.
