data_PCOD8057638
_publ_section_title
;
Structure prediction by ZEFSAII (Michael W. Deem and Ramdas Pophale) SiO2 
 PCOD8057638
Probable space group: P 2/M
;
_chemical_formula_sum "Si O2"
_cell_formula_units_Z 28
_cell_length_a 12.105747
_cell_length_b 9.144895
_cell_length_c 25.465928
_cell_angle_alpha 90.000000
_cell_angle_beta 38.686064
_cell_angle_gamma 90.000000
_cell_volume 1762.164868
_symmetry_space_group_name_H-M "P 2/M"
_symmetry_group_IT_number 10
_symmetry_cell_setting 'monoclinic'
loop_
_space_group_symop_operation_xyz
x,y,z
-x,y,-z
-x,-y,-z
x,-y,z
loop_
_atom_site_type_symbol
_atom_site_label
_atom_site_fract_x
_atom_site_fract_y
_atom_site_fract_z
Si Si1 0.804275 0.330751 0.557004
Si Si2 0.514598 0.827553 0.272336
Si Si3 0.700926 0.172697 0.380210
Si Si4 0.056752 0.335512 0.061563
Si Si5 0.284744 0.333887 0.884386
Si Si6 0.330490 0.327864 0.506696
Si Si7 0.846804 0.168554 0.216752
O O1 0.769298 0.500000 0.582767
O O2 0.670998 0.237311 0.641135
O O3 0.782519 0.299136 0.503322
O O4 0.000000 0.281855 0.500000
O O5 0.562388 0.768458 0.196281
O O6 0.664577 0.775143 0.257894
O O7 0.496669 0.000000 0.276460
O O8 0.516384 0.245591 0.432112
O O9 0.773170 0.253734 0.405666
O O10 0.839628 0.199694 0.281659
O O11 0.672814 0.000000 0.400421
O O12 0.094277 0.500000 0.065519
O O13 0.884911 0.325866 0.089508
O O14 0.021120 0.244121 0.127738
O O15 0.225002 0.278758 0.964854
O O16 0.354990 0.500000 0.861335
O O17 0.360558 0.500000 0.505746
O O18 0.867288 0.000000 0.196121
#
# Coordination Sequence:
#
# PCOD8057638 Si02
#       7
#     4   4   4   4   4   4   4
#     4  10  21  35  48  62  84 114 147 186 227 260
#     4  10  18  28  42  61  83 111 147 180 214 256
#     4  10  18  29  44  62  89 117 141 174 217 261
#     4   8  14  23  37  56  80 111 144 174 205 245
#     4   8  14  25  38  55  80 111 143 174 210 250
#     4  10  19  30  45  64  82 107 147 184 216 257
#     4   9  17  26  38  59  87 115 142 171 209 255
#
# _framework density 15.889545999999999
#
# number of rings (size 3 to 8) (size 9 to 14) (size 15 to 20)
#    0.000    2.714    1.429    3.000    0.000    3.143 
#    0.000    2.857    0.000    0.000    0.000    0.000 
#    0.000    1.143    0.000   12.857    0.000    7.000 
#
# Total GULP energy -347015.241725 kJ/mol
# GULP energy per Si atom -12393.401490 kJ/mol
# Density = 1.585338 g / cm^3
# Si number density = 15.889546 Si / 1000 Ang^3
#
#
#
# Elastic Constant Matrix: (Units=GPa)
#
#
# Indices 1 2 3 4 5 6 
#
# 1 59.7749 32.5130 47.5026 0.0000 10.0254 0.0000
# 2 32.5130 80.2104 64.7934 0.0000 12.3877 0.0000
# 3 47.5026 64.7934 136.5067 0.0000 29.8390 0.0000
# 4 0.0000 0.0000 0.0000 30.3697 0.0000 7.5417
# 5 10.0254 12.3877 29.8390 0.0000 20.7974 0.0000
# 6 0.0000 0.0000 0.0000 7.5417 0.0000 13.2203
#
#
#
# Elastic Compliance Matrix: (Units=1/GPa)
#
#
# Indices 1 2 3 4 5 6 
#
# 1 0.024250 -0.004887 -0.006120 0.000000 0.000001 0.000000
# 2 -0.004887 0.021295 -0.008960 0.000000 0.002526 0.000000
# 3 -0.006120 -0.008960 0.017332 0.000000 -0.016581 0.000000
# 4 0.000000 0.000000 0.000000 0.038362 0.000000 -0.021884
# 5 0.000001 0.002526 -0.016581 0.000000 0.070367 0.000000
# 6 0.000000 0.000000 0.000000 -0.021884 0.000000 0.088125
#
#
# Mechanical properties :
#
#
# Convention : Reuss Voigt Hill
#
# Bulk Modulus (GPa) = 43.57959 62.90111 53.24035
# Shear Modulus (GPa) = 16.27005 21.65633 18.96319
#
# Velocity S-wave (km/s) = 3.20339 3.69579 3.45837
# Velocity P-wave (km/s) = 6.41626 7.60817 7.03749
#
# Compressibility (1/GPa) = 0.02294652
#
# Stress axis : x y z
#
# Youngs Moduli (GPa) = 41.23639 46.95851 57.69568
#
# Poissons Ratio (x) = 0.22947 0.35307
# Poissons Ratio (y) = 0.20151 0.51693
# Poissons Ratio (z) = 0.25235 0.42073
#
# Static dielectric constant tensor:
#      x y z
#    x 2.712920 0.000000 0.403110 
#    y 0.000000 3.089350 0.000000 
#    z 0.403110 0.000000 3.302840 
# 
# 
# High freq. dielectric constant tensor:
#      x y z
#    x 1.551420 0.000000 0.036540 
#    y 0.000000 1.617470 0.000000 
#    z 0.036540 0.000000 1.612600 
# 
# From -- ./inp_files/89875.got.cif
#   From: 2010.06.25/outbox.cif.g09.slc.cpg/sg10_45_cif.got.tgz:89875.got - 2010.06.27 22:07:45.
