data_PCOD8057451
_publ_section_title
;
Structure prediction by ZEFSAII (Michael W. Deem and Ramdas Pophale) SiO2 
 PCOD8057451
Probable space group: P 2/M
;
_chemical_formula_sum "Si O2"
_cell_formula_units_Z 24
_cell_length_a 24.117447
_cell_length_b 8.478437
_cell_length_c 12.601409
_cell_angle_alpha 90.000000
_cell_angle_beta 29.500947
_cell_angle_gamma 90.000000
_cell_volume 1268.871809
_symmetry_space_group_name_H-M "P 2/M"
_symmetry_group_IT_number 10
_symmetry_cell_setting 'monoclinic'
loop_
_space_group_symop_operation_xyz
x,y,z
-x,y,-z
-x,-y,-z
x,-y,z
loop_
_atom_site_type_symbol
_atom_site_label
_atom_site_fract_x
_atom_site_fract_y
_atom_site_fract_z
Si Si1 0.625267 0.685739 0.754040
Si Si2 0.618607 0.687548 0.526052
Si Si3 0.763250 0.687545 0.092103
Si Si4 0.376079 0.315167 0.871763
Si Si5 0.235390 0.182035 0.293819
Si Si6 0.004559 0.685747 0.616138
O O1 0.646102 0.500000 0.731121
O O2 0.643108 0.746366 0.604076
O O3 0.717292 0.777938 0.669088
O O4 0.500000 0.730551 0.000000
O O5 0.609411 0.500000 0.542347
O O6 0.717882 0.745282 0.282122
O O7 0.499839 0.759098 0.682863
O O8 0.761152 0.500000 0.087113
O O9 0.682520 0.759100 0.134800
O O10 0.890276 0.746371 0.862544
O O11 0.388656 0.500000 0.834043
O O12 0.299521 0.287405 0.101418
O O13 0.103662 0.222097 0.509978
O O14 0.255026 0.000000 0.234883
O O15 0.023290 0.500000 0.599489
O O16 0.000000 0.730588 0.500000
#
# Coordination Sequence:
#
# PCOD8057451 Si02
#       6
#     4   4   4   4   4   4
#     4  10  19  35  58  81 106 139 180 224 268 314
#     4   9  17  30  54  86 112 135 171 222 273 319
#     4   9  17  30  54  86 112 135 171 222 273 319
#     4  10  17  32  56  83 113 139 172 217 272 324
#     4  12  24  35  52  80 112 144 184 222 263 315
#     4  10  19  35  58  81 106 139 180 224 268 314
#
# _framework density 18.914441
#
# number of rings (size 3 to 8) (size 9 to 14) (size 15 to 20)
#    0.000    2.000    3.333    2.000    0.000    2.667 
#    0.000    0.833    0.000   10.000    0.000    0.000 
#    0.000    0.000    0.000    0.000    0.000    0.000 
#
# Total GULP energy -297605.006403 kJ/mol
# GULP energy per Si atom -12400.208600 kJ/mol
# Density = 1.887139 g / cm^3
# Si number density = 18.914441 Si / 1000 Ang^3
#
#
#
# Elastic Constant Matrix: (Units=GPa)
#
#
# Indices 1 2 3 4 5 6 
#
# 1 141.9024 16.6610 74.0821 0.0000 -0.4168 0.0000
# 2 16.6610 19.4356 4.8070 0.0000 -6.0659 0.0000
# 3 74.0821 4.8070 153.1176 0.0000 6.1765 0.0000
# 4 0.0000 0.0000 0.0000 2.7919 0.0000 1.6181
# 5 -0.4168 -6.0659 6.1765 0.0000 36.8608 0.0000
# 6 0.0000 0.0000 0.0000 1.6181 0.0000 -0.3594
#
#
#
# Elastic Compliance Matrix: (Units=1/GPa)
#
#
# Indices 1 2 3 4 5 6 
#
# 1 0.010487 -0.007918 -0.004810 0.000000 -0.000379 0.000000
# 2 -0.007918 0.060880 0.001530 0.000000 0.009673 0.000000
# 3 -0.004810 0.001530 0.008862 0.000000 -0.001288 0.000000
# 4 0.000000 0.000000 0.000000 0.099229 0.000000 0.446790
# 5 -0.000379 0.009673 -0.001288 0.000000 0.028932 0.000000
# 6 0.000000 0.000000 0.000000 0.446790 0.000000 -0.770878
#
#
# Mechanical properties :
#
#
# Convention : Reuss Voigt Hill
#
# Bulk Modulus (GPa) = 17.29145 56.17286 36.73216
# Shear Modulus (GPa) = -9.60036 22.45237 6.42600
#
# Velocity S-wave (km/s) = -2.25537 3.44910 1.84520
# Velocity P-wave (km/s) = 1.54257 6.75459 4.89919
#
# Compressibility (1/GPa) = 0.05783205
#
# Stress axis : x y z
#
# Youngs Moduli (GPa) = 95.35852 16.42567 112.84137
#
# Poissons Ratio (x) = 0.13006 0.54276
# Poissons Ratio (y) = 0.75506 -0.17260
# Poissons Ratio (z) = 0.45866 -0.02512
#
# Static dielectric constant tensor:
#      x y z
#    x 3.656690 0.000000 -0.022920 
#    y 0.000000 2.940680 0.000000 
#    z -0.022920 0.000000 3.611790 
# 
# 
# High freq. dielectric constant tensor:
#      x y z
#    x 1.740340 0.000000 -0.002270 
#    y 0.000000 1.686780 0.000000 
#    z -0.002270 0.000000 1.735890 
# 
# From -- ./inp_files/45263.got.cif
#   From: 2010.06.25/outbox.cif.g09.slc.cpg/sg10_23_cif.got.tgz:45263.got - 2010.06.27 22:07:45.
