data_PCOD8057695
_publ_section_title
;
Structure prediction by ZEFSAII (Michael W. Deem and Ramdas Pophale) SiO2 
 PCOD8057695
Probable space group: P 2/M
;
_chemical_formula_sum "Si O2"
_cell_formula_units_Z 32
_cell_length_a 16.846329
_cell_length_b 12.534546
_cell_length_c 23.983226
_cell_angle_alpha 90.000000
_cell_angle_beta 157.870674
_cell_angle_gamma 90.000000
_cell_volume 1907.722986
_symmetry_space_group_name_H-M "P 2/M"
_symmetry_group_IT_number 10
_symmetry_cell_setting 'monoclinic'
loop_
_space_group_symop_operation_xyz
x,y,z
-x,y,-z
-x,-y,-z
x,-y,z
loop_
_atom_site_type_symbol
_atom_site_label
_atom_site_fract_x
_atom_site_fract_y
_atom_site_fract_z
Si Si1 0.433017 0.877694 0.623401
Si Si2 0.489529 0.770495 0.213665
Si Si3 0.988273 0.199848 0.359479
Si Si4 0.750550 0.122248 0.104848
Si Si5 0.908697 0.122287 0.090112
Si Si6 0.623353 0.126202 0.632935
Si Si7 0.342331 0.879429 0.777481
Si Si8 0.145644 0.376440 0.540909
O O1 0.533502 0.811967 0.738882
O O2 0.523839 0.828214 0.625168
O O3 0.181883 0.868093 0.461821
O O4 0.501889 0.000000 0.674017
O O5 0.655957 0.836095 0.284359
O O6 0.605279 0.654502 0.287920
O O7 0.257043 0.786175 0.036931
O O8 0.823495 0.203371 0.201022
O O9 0.885915 0.137145 0.344758
O O10 0.056800 0.314877 0.428208
O O11 0.919085 0.124117 0.163977
O O12 0.731367 0.000000 0.115806
O O13 0.526797 0.168952 0.937198
O O14 0.131773 0.157837 0.210464
O O15 0.849106 0.000000 0.032199
O O16 0.500000 0.176806 0.500000
O O17 0.595152 0.000000 0.613119
O O18 0.407928 0.000000 0.813886
O O19 0.136804 0.500000 0.520114
O O20 0.000000 0.351594 0.500000
#
# Coordination Sequence:
#
# PCOD8057695 Si02
#       8
#     4   4   4   4   4   4   4   4
#     4  10  19  27  41  67 100 129 162 201 229 275
#     4  10  19  32  47  71  93 125 166 198 242 287
#     4  11  19  29  47  69  90 126 164 197 237 283
#     4   9  17  28  44  69 101 132 160 189 225 279
#     4   9  17  30  49  71 105 139 161 192 228 278
#     4   9  17  29  44  66  99 140 172 191 224 272
#     4  10  18  28  44  69 103 134 155 183 227 285
#     4  10  21  38  53  65  87 123 165 210 256 292
#
# _framework density 16.773924000000001
#
# number of rings (size 3 to 8) (size 9 to 14) (size 15 to 20)
#    0.000    2.250    1.250    4.125    0.000    3.500 
#    0.000    3.750    0.000    4.500    0.000    7.000 
#    0.000   12.500    0.000    0.000    0.000    0.000 
#
# Total GULP energy -396483.304511 kJ/mol
# GULP energy per Si atom -12390.103266 kJ/mol
# Density = 1.673575 g / cm^3
# Si number density = 16.773924 Si / 1000 Ang^3
#
#
#
# Elastic Constant Matrix: (Units=GPa)
#
#
# Indices 1 2 3 4 5 6 
#
# 1 121.5741 26.3560 44.1713 0.0000 10.7091 0.0000
# 2 26.3560 54.2577 27.0023 0.0000 -6.1774 0.0000
# 3 44.1713 27.0023 72.3038 0.0000 9.6977 0.0000
# 4 0.0000 0.0000 0.0000 16.9669 0.0000 -1.8365
# 5 10.7091 -6.1774 9.6977 0.0000 34.6327 0.0000
# 6 0.0000 0.0000 0.0000 -1.8365 0.0000 11.6017
#
#
#
# Elastic Compliance Matrix: (Units=1/GPa)
#
#
# Indices 1 2 3 4 5 6 
#
# 1 0.011010 -0.003004 -0.005274 0.000000 -0.002464 0.000000
# 2 -0.003004 0.025037 -0.008560 0.000000 0.007792 0.000000
# 3 -0.005274 -0.008560 0.021025 0.000000 -0.005783 0.000000
# 4 0.000000 0.000000 0.000000 0.059966 0.000000 0.009492
# 5 -0.002464 0.007792 -0.005783 0.000000 0.032645 0.000000
# 6 0.000000 0.000000 0.000000 0.009492 0.000000 0.087697
#
#
# Mechanical properties :
#
#
# Convention : Reuss Voigt Hill
#
# Bulk Modulus (GPa) = 42.74241 49.24387 45.99314
# Shear Modulus (GPa) = 17.93051 22.68064 20.30557
#
# Velocity S-wave (km/s) = 3.27303 3.68113 3.48306
# Velocity P-wave (km/s) = 6.31034 6.89121 6.60716
#
# Compressibility (1/GPa) = 0.02339596
#
# Stress axis : x y z
#
# Youngs Moduli (GPa) = 90.82851 39.94095 47.56283
#
# Poissons Ratio (x) = 0.11998 0.25083
# Poissons Ratio (y) = 0.27285 0.40714
# Poissons Ratio (z) = 0.47900 0.34190
#
# Static dielectric constant tensor:
#      x y z
#    x 3.378480 0.000000 0.028200 
#    y 0.000000 2.654090 0.000000 
#    z 0.028200 0.000000 3.227730 
# 
# 
# High freq. dielectric constant tensor:
#      x y z
#    x 1.663200 0.000000 0.001940 
#    y 0.000000 1.575180 0.000000 
#    z 0.001940 0.000000 1.650030 
# 
# From -- ./inp_files/93459.got.cif
#   From: 2010.06.25/outbox.cif.g09.slc.cpg/sg10_47_cif.got.tgz:93459.got - 2010.06.27 22:07:45.
