data_PCOD8057911
_publ_section_title
;
Structure prediction by ZEFSAII (Michael W. Deem and Ramdas Pophale) SiO2 
 PCOD8057911
Probable space group: P 2/M
;
_chemical_formula_sum "Si O2"
_cell_formula_units_Z 32
_cell_length_a 21.060090
_cell_length_b 9.096231
_cell_length_c 30.422084
_cell_angle_alpha 90.000000
_cell_angle_beta 160.438288
_cell_angle_gamma 90.000000
_cell_volume 1951.302512
_symmetry_space_group_name_H-M "P 2/M"
_symmetry_group_IT_number 10
_symmetry_cell_setting 'monoclinic'
loop_
_space_group_symop_operation_xyz
x,y,z
-x,y,-z
-x,-y,-z
x,-y,z
loop_
_atom_site_type_symbol
_atom_site_label
_atom_site_fract_x
_atom_site_fract_y
_atom_site_fract_z
Si Si1 0.851099 0.326608 0.529695
Si Si2 0.811823 0.327876 0.968885
Si Si3 0.195772 0.826225 0.793709
Si Si4 0.123639 0.166119 0.124399
Si Si5 0.157989 0.171457 0.567620
Si Si6 0.557501 0.173936 0.870385
Si Si7 0.466910 0.173392 0.046877
Si Si8 0.426144 0.670329 0.272406
O O1 0.874687 0.500000 0.542193
O O2 0.887908 0.261478 0.505780
O O3 0.644366 0.282391 0.412621
O O4 0.999401 0.259675 0.660869
O O5 0.838194 0.500000 0.993698
O O6 0.731527 0.254055 0.960378
O O7 0.666312 0.292318 0.834798
O O8 0.017192 0.257963 0.092750
O O9 0.340369 0.769502 0.850284
O O10 0.159791 0.000000 0.766527
O O11 0.283527 0.783578 0.898340
O O12 0.327550 0.237812 0.247076
O O13 0.153734 0.000000 0.160479
O O14 0.000000 0.172090 0.000000
O O15 0.361823 0.217193 0.719318
O O16 0.000000 0.213551 0.500000
O O17 0.149293 0.000000 0.550144
O O18 0.552090 0.236795 0.916501
O O19 0.591972 0.000000 0.891554
O O20 0.485222 0.000000 0.060971
O O21 0.398663 0.500000 0.265779
#
# Coordination Sequence:
#
# PCOD8057911 Si02
#       8
#     4   4   4   4   4   4   4   4
#     4  11  21  32  46  69 100 130 159 194 237 283
#     4  10  18  30  45  64  95 131 159 185 230 287
#     4   9  17  33  54  71  90 122 165 206 246 286
#     4   9  17  28  45  68  91 118 157 198 232 268
#     4  10  20  32  47  67  93 127 164 197 234 283
#     4  10  18  29  47  70  95 122 159 202 239 277
#     4   8  16  32  53  72  91 120 161 209 250 283
#     4   9  18  31  44  62  94 131 159 185 228 284
#
# _framework density 16.399301999999999
#
# number of rings (size 3 to 8) (size 9 to 14) (size 15 to 20)
#    0.000    2.500    1.250    2.625    0.000    5.250 
#    0.000    3.750    0.000    0.000    0.000    0.875 
#    0.000    7.000    0.000    0.000    0.000    0.000 
#
# Total GULP energy -396815.650647 kJ/mol
# GULP energy per Si atom -12400.489083 kJ/mol
# Density = 1.636198 g / cm^3
# Si number density = 16.399302 Si / 1000 Ang^3
#
#
#
# Elastic Constant Matrix: (Units=GPa)
#
#
# Indices 1 2 3 4 5 6 
#
# 1 72.2321 29.5015 35.9842 0.0000 16.3639 0.0000
# 2 29.5015 55.9461 33.0956 0.0000 11.1450 0.0000
# 3 35.9842 33.0956 84.9819 0.0000 12.3208 0.0000
# 4 0.0000 0.0000 0.0000 22.8113 0.0000 7.4929
# 5 16.3639 11.1450 12.3208 0.0000 25.5403 0.0000
# 6 0.0000 0.0000 0.0000 7.4929 0.0000 18.0751
#
#
#
# Elastic Compliance Matrix: (Units=1/GPa)
#
#
# Indices 1 2 3 4 5 6 
#
# 1 0.020842 -0.006303 -0.005196 0.000000 -0.008096 0.000000
# 2 -0.006303 0.026084 -0.006907 0.000000 -0.004011 0.000000
# 3 -0.005196 -0.006907 0.016921 0.000000 -0.001819 0.000000
# 4 0.000000 0.000000 0.000000 0.050748 0.000000 -0.021037
# 5 -0.008096 -0.004011 -0.001819 0.000000 0.046969 0.000000
# 6 0.000000 0.000000 0.000000 -0.021037 0.000000 0.064046
#
#
# Mechanical properties :
#
#
# Convention : Reuss Voigt Hill
#
# Bulk Modulus (GPa) = 36.99323 45.59143 41.29233
# Shear Modulus (GPa) = 18.42066 20.92392 19.67229
#
# Velocity S-wave (km/s) = 3.35514 3.57585 3.46725
# Velocity P-wave (km/s) = 6.13319 6.70150 6.42364
#
# Compressibility (1/GPa) = 0.02703197
#
# Stress axis : x y z
#
# Youngs Moduli (GPa) = 47.98097 38.33839 59.09677
#
# Poissons Ratio (x) = 0.24166 0.30709
# Poissons Ratio (y) = 0.30244 0.40821
# Poissons Ratio (z) = 0.24933 0.26482
#
# Static dielectric constant tensor:
#      x y z
#    x 3.177560 0.000000 0.110910 
#    y 0.000000 2.983130 0.000000 
#    z 0.110910 0.000000 3.021200 
# 
# 
# High freq. dielectric constant tensor:
#      x y z
#    x 1.621610 0.000000 0.019300 
#    y 0.000000 1.623440 0.000000 
#    z 0.019300 0.000000 1.612830 
# 
# From -- ./inp_files/70046.got.cif
#   From: 2010.06.25/outbox.cif.g09.slc.cpg/sg10_36_cif.got.tgz:70046.got - 2010.06.27 22:07:45.
