data_PCOD8057689
_publ_section_title
;
Structure prediction by ZEFSAII (Michael W. Deem and Ramdas Pophale) SiO2 
 PCOD8057689
Probable space group: P 2/M
;
_chemical_formula_sum "Si O2"
_cell_formula_units_Z 30
_cell_length_a 11.888001
_cell_length_b 9.740838
_cell_length_c 15.492111
_cell_angle_alpha 90.000000
_cell_angle_beta 100.541615
_cell_angle_gamma 90.000000
_cell_volume 1763.694234
_symmetry_space_group_name_H-M "P 2/M"
_symmetry_group_IT_number 10
_symmetry_cell_setting 'monoclinic'
loop_
_space_group_symop_operation_xyz
x,y,z
-x,y,-z
-x,-y,-z
x,-y,z
loop_
_atom_site_type_symbol
_atom_site_label
_atom_site_fract_x
_atom_site_fract_y
_atom_site_fract_z
Si Si1 0.607845 0.845226 0.377710
Si Si2 0.747737 0.157879 0.225889
Si Si3 0.610502 0.839317 0.759311
Si Si4 0.000000 0.237393 0.500000
Si Si5 0.007086 0.843466 0.693810
Si Si6 0.754669 0.349464 0.505118
Si Si7 0.537065 0.163303 0.097389
Si Si8 0.200611 0.657669 0.291835
O O1 0.691037 0.822557 0.309962
O O2 0.479176 0.809928 0.330499
O O3 0.655033 0.751504 0.460390
O O4 0.614146 0.000000 0.413363
O O5 0.874920 0.219044 0.250341
O O6 0.662648 0.224042 0.141826
O O7 0.761898 0.000000 0.205019
O O8 0.556225 0.798138 0.843672
O O9 0.717929 0.739626 0.762311
O O10 0.646696 0.000000 0.763330
O O11 0.007825 0.149581 0.589155
O O12 0.116368 0.325007 0.510733
O O13 0.918051 0.738891 0.722416
O O14 0.983499 0.000000 0.720938
O O15 0.720787 0.500000 0.467449
O O16 0.745967 0.340027 0.606259
O O17 0.547020 0.000000 0.094135
O O18 0.500000 0.226059 0.000000
O O19 0.182573 0.500000 0.257903
#
# Coordination Sequence:
#
# PCOD8057689 Si02
#       8
#     4   4   4   2   4   4   4   4
#     4   9  17  30  47  68  93 122 158 203 246 281
#     4   8  14  26  44  71 101 123 149 193 243 287
#     4   9  18  33  52  72  96 123 157 196 237 290
#     4  10  18  28  44  66  94 128 164 210 242 272
#     4  10  18  29  48  70  94 127 166 203 239 281
#     4  10  20  31  43  62  91 129 169 206 239 276
#     4   8  14  27  52  82 104 119 141 187 250 299
#     4  10  22  35  45  63  95 133 169 201 235 277
#
# _framework density 17.00975
#
# number of rings (size 3 to 8) (size 9 to 14) (size 15 to 20)
#    0.000    2.800    1.333    2.400    0.000    4.267 
#    0.000    2.667    0.000    1.200    0.000    5.600 
#    0.000    0.000    0.000    0.000    0.000    0.000 
#
# Total GULP energy -371692.252416 kJ/mol
# GULP energy per Si atom -12389.741747 kJ/mol
# Density = 1.697104 g / cm^3
# Si number density = 17.009750 Si / 1000 Ang^3
#
#
#
# Elastic Constant Matrix: (Units=GPa)
#
#
# Indices 1 2 3 4 5 6 
#
# 1 116.5257 51.9697 48.7637 0.0000 5.2786 0.0000
# 2 51.9697 81.0333 28.6746 0.0000 2.0032 0.0000
# 3 48.7637 28.6746 70.1648 0.0000 10.5198 0.0000
# 4 0.0000 0.0000 0.0000 4.3964 0.0000 -3.5502
# 5 5.2786 2.0032 10.5198 0.0000 19.7283 0.0000
# 6 0.0000 0.0000 0.0000 -3.5502 0.0000 13.8878
#
#
#
# Elastic Compliance Matrix: (Units=1/GPa)
#
#
# Indices 1 2 3 4 5 6 
#
# 1 0.014755 -0.006794 -0.007597 0.000000 0.000793 0.000000
# 2 -0.006794 0.017616 -0.002697 0.000000 0.001468 0.000000
# 3 -0.007597 -0.002697 0.022051 0.000000 -0.009452 0.000000
# 4 0.000000 0.000000 0.000000 0.286626 0.000000 0.073273
# 5 0.000793 0.001468 -0.009452 0.000000 0.055368 0.000000
# 6 0.000000 0.000000 0.000000 0.073273 0.000000 0.090737
#
#
# Mechanical properties :
#
#
# Convention : Reuss Voigt Hill
#
# Bulk Modulus (GPa) = 49.39328 58.50441 53.94885
# Shear Modulus (GPa) = 9.46826 16.82357 13.14592
#
# Velocity S-wave (km/s) = 2.36188 3.14834 2.78303
# Velocity P-wave (km/s) = 6.04477 6.90546 6.48940
#
# Compressibility (1/GPa) = 0.02024567
#
# Stress axis : x y z
#
# Youngs Moduli (GPa) = 67.77206 56.76544 45.34866
#
# Poissons Ratio (x) = 0.38569 0.34451
# Poissons Ratio (y) = 0.46048 0.12232
# Poissons Ratio (z) = 0.51486 0.15311
#
# Static dielectric constant tensor:
#      x y z
#    x 3.247980 0.000000 0.218220 
#    y 0.000000 2.978140 0.000000 
#    z 0.218220 0.000000 3.170300 
# 
# 
# High freq. dielectric constant tensor:
#      x y z
#    x 1.661710 0.000000 0.009680 
#    y 0.000000 1.629680 0.000000 
#    z 0.009680 0.000000 1.626320 
# 
# From -- ./inp_files/76003.got.cif
#   From: 2010.06.25/outbox.cif.g09.slc.cpg/sg10_39_cif.got.tgz:76003.got - 2010.06.27 22:07:45.
