data_PCOD8057633
_publ_section_title
;
Structure prediction by ZEFSAII (Michael W. Deem and Ramdas Pophale) SiO2 
 PCOD8057633
Probable space group: P 2/M
;
_chemical_formula_sum "Si O2"
_cell_formula_units_Z 32
_cell_length_a 26.646023
_cell_length_b 8.984064
_cell_length_c 18.549149
_cell_angle_alpha 90.000000
_cell_angle_beta 151.392236
_cell_angle_gamma 90.000000
_cell_volume 2126.146507
_symmetry_space_group_name_H-M "P 2/M"
_symmetry_group_IT_number 10
_symmetry_cell_setting 'monoclinic'
loop_
_space_group_symop_operation_xyz
x,y,z
-x,y,-z
-x,-y,-z
x,-y,z
loop_
_atom_site_type_symbol
_atom_site_label
_atom_site_fract_x
_atom_site_fract_y
_atom_site_fract_z
Si Si1 0.654685 0.665477 0.731290
Si Si2 0.102135 0.174892 0.721817
Si Si3 0.428206 0.668306 0.516572
Si Si4 0.666897 0.327476 0.201111
Si Si5 0.728837 0.321680 0.970668
Si Si6 0.486558 0.674124 0.866242
Si Si7 0.518949 0.175872 0.759998
Si Si8 0.133168 0.826173 0.598999
O O1 0.694303 0.500000 0.765056
O O2 0.542348 0.660788 0.626779
O O3 0.647707 0.740128 0.642315
O O4 0.729848 0.736709 0.887786
O O5 0.163360 0.269079 0.858495
O O6 0.139894 0.227522 0.690394
O O7 0.979747 0.213740 0.576855
O O8 0.122854 0.000000 0.758887
O O9 0.393280 0.500000 0.493960
O O10 0.432103 0.772834 0.591615
O O11 0.688480 0.500000 0.219477
O O12 0.614693 0.293251 0.212266
O O13 0.777916 0.246923 0.337409
O O14 0.590330 0.275269 0.040285
O O15 0.718264 0.500000 0.960176
O O16 0.631472 0.252296 0.890949
O O17 0.492721 0.500000 0.853485
O O18 0.474624 0.775405 0.781139
O O19 0.532851 0.000000 0.773492
O O20 0.150998 0.000000 0.619791
#
# Coordination Sequence:
#
# PCOD8057633 Si02
#       8
#     4   4   4   4   4   4   4   4
#     4   7  12  23  39  56  75 103 138 167 198 239
#     4   9  18  31  43  60  84 111 140 169 201 242
#     4   8  13  25  41  54  74 107 139 166 197 238
#     4   9  18  31  47  63  80 103 138 177 208 239
#     4  10  18  28  42  60  82 110 141 174 206 239
#     4   9  18  32  45  60  82 108 136 171 209 243
#     4  11  20  27  38  60  86 111 139 171 202 241
#     4   9  18  31  45  59  83 113 138 167 206 245
#
# _framework density 15.050704
#
# number of rings (size 3 to 8) (size 9 to 14) (size 15 to 20)
#    0.000    3.000    0.000    5.250    0.000    4.000 
#    0.000    8.125    0.000    0.000    0.000    0.000 
#    0.000    1.000    0.000   11.250    0.000    5.875 
#
# Total GULP energy -396464.727637 kJ/mol
# GULP energy per Si atom -12389.522739 kJ/mol
# Density = 1.501645 g / cm^3
# Si number density = 15.050704 Si / 1000 Ang^3
#
#
#
# Elastic Constant Matrix: (Units=GPa)
#
#
# Indices 1 2 3 4 5 6 
#
# 1 77.0502 37.2249 57.6196 0.0000 -13.9284 0.0000
# 2 37.2249 59.1227 41.2642 0.0000 -9.0139 0.0000
# 3 57.6196 41.2642 97.3502 0.0000 -17.8622 0.0000
# 4 0.0000 0.0000 0.0000 20.7552 0.0000 3.4807
# 5 -13.9284 -9.0139 -17.8622 0.0000 30.4237 0.0000
# 6 0.0000 0.0000 0.0000 3.4807 0.0000 17.1664
#
#
#
# Elastic Compliance Matrix: (Units=1/GPa)
#
#
# Indices 1 2 3 4 5 6 
#
# 1 0.025842 -0.007850 -0.011458 0.000000 0.002778 0.000000
# 2 -0.007850 0.026449 -0.006485 0.000000 0.000435 0.000000
# 3 -0.011458 -0.006485 0.020720 0.000000 0.004998 0.000000
# 4 0.000000 0.000000 0.000000 0.049877 0.000000 -0.010113
# 5 0.002778 0.000435 0.004998 0.000000 0.037204 0.000000
# 6 0.000000 0.000000 0.000000 -0.010113 0.000000 0.060304
#
#
# Mechanical properties :
#
#
# Convention : Reuss Voigt Hill
#
# Bulk Modulus (GPa) = 46.67561 56.19339 51.43450
# Shear Modulus (GPa) = 17.91324 20.16335 19.03829
#
# Velocity S-wave (km/s) = 3.45366 3.66415 3.56046
# Velocity P-wave (km/s) = 6.85443 7.43764 7.15198
#
# Compressibility (1/GPa) = 0.02142446
#
# Stress axis : x y z
#
# Youngs Moduli (GPa) = 38.69689 37.80876 48.26268
#
# Poissons Ratio (x) = 0.29679 0.55301
# Poissons Ratio (y) = 0.30377 0.31298
# Poissons Ratio (z) = 0.44340 0.24519
#
# Static dielectric constant tensor:
#      x y z
#    x 3.474840 0.000000 0.168450 
#    y 0.000000 2.754080 0.000000 
#    z 0.168450 0.000000 3.531630 
# 
# 
# High freq. dielectric constant tensor:
#      x y z
#    x 1.554350 0.000000 -0.028070 
#    y 0.000000 1.565000 0.000000 
#    z -0.028070 0.000000 1.561130 
# 
# From -- ./inp_files/80004.got.cif
#   From: 2010.06.25/outbox.cif.g09.slc.cpg/sg10_41_cif.got.tgz:80004.got - 2010.06.27 22:07:45.
