data_PCOD8057969
_publ_section_title
;
Structure prediction by ZEFSAII (Michael W. Deem and Ramdas Pophale) SiO2 
 PCOD8057969
Probable space group: P 2/M
;
_chemical_formula_sum "Si O2"
_cell_formula_units_Z 30
_cell_length_a 22.826341
_cell_length_b 9.519729
_cell_length_c 10.930526
_cell_angle_alpha 90.000000
_cell_angle_beta 43.124052
_cell_angle_gamma 90.000000
_cell_volume 1623.646345
_symmetry_space_group_name_H-M "P 2/M"
_symmetry_group_IT_number 10
_symmetry_cell_setting 'monoclinic'
loop_
_space_group_symop_operation_xyz
x,y,z
-x,y,-z
-x,-y,-z
x,-y,z
loop_
_atom_site_type_symbol
_atom_site_label
_atom_site_fract_x
_atom_site_fract_y
_atom_site_fract_z
Si Si1 0.945563 0.653646 0.335620
Si Si2 0.645363 0.338524 0.106002
Si Si3 0.817682 0.659200 0.723375
Si Si4 0.675937 0.662978 0.344555
Si Si5 0.085247 0.842081 0.237392
Si Si6 0.514167 0.159166 0.622086
Si Si7 0.000000 0.253645 0.000000
Si Si8 0.169816 0.847013 0.860729
O O1 0.979635 0.500000 0.325603
O O2 0.846820 0.670108 0.535637
O O3 0.999334 0.776138 0.314642
O O4 0.953598 0.655932 0.176381
O O5 0.616549 0.500000 0.131000
O O6 0.677594 0.317201 0.195771
O O7 0.566381 0.237309 0.193409
O O8 0.720004 0.293193 0.896783
O O9 0.825622 0.500000 0.760901
O O10 0.884651 0.754797 0.692786
O O11 0.667529 0.500000 0.393600
O O12 0.598418 0.750001 0.523092
O O13 0.762963 0.724026 0.273390
O O14 0.064374 0.000000 0.311440
O O15 0.158749 0.839917 0.023381
O O16 0.500000 0.154942 0.500000
O O17 0.522751 0.000000 0.660500
O O18 0.922826 0.162959 0.061894
O O19 0.208133 0.000000 0.766837
#
# Coordination Sequence:
#
# PCOD8057969 Si02
#       8
#     4   4   4   4   4   4   2   4
#     4  10  21  35  52  70  94 129 170 213 254 299
#     4   9  17  29  45  69 102 134 164 200 243 296
#     4  10  19  32  49  72 100 132 166 203 251 302
#     4  10  18  29  48  73 100 133 170 204 244 295
#     4  10  20  32  48  71 100 130 164 206 252 302
#     4   9  17  28  44  68 101 137 167 198 239 291
#     4  10  22  38  54  74  96 130 174 220 258 294
#     4  10  20  34  52  72  99 134 170 211 256 299
#
# _framework density 18.476928999999998
#
# number of rings (size 3 to 8) (size 9 to 14) (size 15 to 20)
#    0.000    2.267    1.333    2.000    0.000    8.000 
#    0.000    0.000    0.000    0.000    0.000    0.933 
#    0.000    6.400    0.000    0.000    0.000    0.000 
#
# Total GULP energy -371743.294310 kJ/mol
# GULP energy per Si atom -12391.443144 kJ/mol
# Density = 1.843487 g / cm^3
# Si number density = 18.476929 Si / 1000 Ang^3
#
#
#
# Elastic Constant Matrix: (Units=GPa)
#
#
# Indices 1 2 3 4 5 6 
#
# 1 52.0758 32.8313 40.2841 0.0000 -11.6551 0.0000
# 2 32.8313 127.9637 60.0356 0.0000 -17.4545 0.0000
# 3 40.2841 60.0356 138.5940 0.0000 -9.9907 0.0000
# 4 0.0000 0.0000 0.0000 20.5070 0.0000 -8.3876
# 5 -11.6551 -17.4545 -9.9907 0.0000 23.1683 0.0000
# 6 0.0000 0.0000 0.0000 -8.3876 0.0000 14.9250
#
#
#
# Elastic Compliance Matrix: (Units=1/GPa)
#
#
# Indices 1 2 3 4 5 6 
#
# 1 0.027903 -0.003038 -0.006139 0.000000 0.009102 0.000000
# 2 -0.003038 0.010937 -0.003479 0.000000 0.005211 0.000000
# 3 -0.006139 -0.003479 0.010419 0.000000 -0.001216 0.000000
# 4 0.000000 0.000000 0.000000 0.063318 0.000000 0.035584
# 5 0.009102 0.005211 -0.001216 0.000000 0.051143 0.000000
# 6 0.000000 0.000000 0.000000 0.035584 0.000000 0.086999
#
#
# Mechanical properties :
#
#
# Convention : Reuss Voigt Hill
#
# Bulk Modulus (GPa) = 41.75554 64.99285 53.37420
# Shear Modulus (GPa) = 17.60480 24.08555 20.84518
#
# Velocity S-wave (km/s) = 3.09009 3.61438 3.36247
# Velocity P-wave (km/s) = 5.94806 7.25740 6.63510
#
# Compressibility (1/GPa) = 0.02394892
#
# Stress axis : x y z
#
# Youngs Moduli (GPa) = 35.83784 91.43100 95.97879
#
# Poissons Ratio (x) = 0.27774 0.58917
# Poissons Ratio (y) = 0.10886 0.33392
# Poissons Ratio (z) = 0.21999 0.31810
#
# Static dielectric constant tensor:
#      x y z
#    x 2.949400 0.000000 -0.042070 
#    y 0.000000 3.532130 0.000000 
#    z -0.042070 0.000000 3.601070 
# 
# 
# High freq. dielectric constant tensor:
#      x y z
#    x 1.657980 0.000000 -0.018770 
#    y 0.000000 1.729720 0.000000 
#    z -0.018770 0.000000 1.718130 
# 
# From -- ./inp_files/56617.got.cif
#   From: 2010.06.25/outbox.cif.g09.slc.cpg/sg10_29_cif.got.tgz:56617.got - 2010.06.27 22:07:45.
