data_PCOD8057709
_publ_section_title
;
Structure prediction by ZEFSAII (Michael W. Deem and Ramdas Pophale) SiO2 
 PCOD8057709
Probable space group: P 2/M
;
_chemical_formula_sum "Si O2"
_cell_formula_units_Z 32
_cell_length_a 24.752533
_cell_length_b 8.881042
_cell_length_c 12.602487
_cell_angle_alpha 90.000000
_cell_angle_beta 49.170743
_cell_angle_gamma 90.000000
_cell_volume 2096.241683
_symmetry_space_group_name_H-M "P 2/M"
_symmetry_group_IT_number 10
_symmetry_cell_setting 'monoclinic'
loop_
_space_group_symop_operation_xyz
x,y,z
-x,y,-z
-x,-y,-z
x,-y,z
loop_
_atom_site_type_symbol
_atom_site_label
_atom_site_fract_x
_atom_site_fract_y
_atom_site_fract_z
Si Si1 0.576284 0.671850 0.873630
Si Si2 0.851343 0.326043 0.725215
Si Si3 0.928094 0.173093 0.811499
Si Si4 0.824241 0.677677 0.358070
Si Si5 0.283489 0.330649 0.215715
Si Si6 0.921651 0.175174 0.065065
Si Si7 0.909058 0.822600 0.441691
Si Si8 0.696228 0.824868 0.608716
O O1 0.563006 0.500000 0.855659
O O2 0.629734 0.682910 0.908676
O O3 0.615721 0.756274 0.724296
O O4 0.500000 0.747823 0.000000
O O5 0.872052 0.500000 0.685872
O O6 0.873630 0.270355 0.811822
O O7 0.764709 0.301041 0.826165
O O8 0.889979 0.232646 0.583649
O O9 0.008477 0.218256 0.681256
O O10 0.914432 0.000000 0.801686
O O11 0.911084 0.208101 0.955059
O O12 0.819590 0.500000 0.368360
O O13 0.863080 0.728061 0.201185
O O14 0.865847 0.737004 0.407027
O O15 0.743454 0.745675 0.456935
O O16 0.266968 0.500000 0.279860
O O17 0.260642 0.211552 0.336666
O O18 0.911392 0.000000 0.106867
O O19 0.000000 0.228390 0.000000
O O20 0.895132 0.000000 0.447937
O O21 0.690613 0.000000 0.592819
#
# Coordination Sequence:
#
# PCOD8057709 Si02
#       8
#     4   4   4   4   4   4   4   4
#     4   8  14  27  46  67  98 132 157 186 226 274
#     4  11  21  32  47  67  96 125 154 196 235 282
#     4  10  22  36  49  65  88 118 157 200 240 292
#     4  12  22  32  49  71  95 121 158 204 246 294
#     4   8  16  29  42  63  93 125 154 182 223 268
#     4  10  20  38  55  67  86 118 158 203 253 296
#     4  11  20  33  50  67  87 120 157 196 245 289
#     4  10  18  28  45  68  94 127 158 190 227 276
#
# _framework density 15.265416
#
# number of rings (size 3 to 8) (size 9 to 14) (size 15 to 20)
#    0.750    1.250    2.500    3.000    0.000    4.000 
#    0.000    0.000    0.000    0.000    0.000    0.000 
#    0.000    1.000    0.000   11.500    0.000    2.875 
#
# Total GULP energy -396466.053629 kJ/mol
# GULP energy per Si atom -12389.564176 kJ/mol
# Density = 1.523067 g / cm^3
# Si number density = 15.265416 Si / 1000 Ang^3
#
#
#
# Elastic Constant Matrix: (Units=GPa)
#
#
# Indices 1 2 3 4 5 6 
#
# 1 59.8942 32.0589 52.0959 0.0000 -19.1534 0.0000
# 2 32.0589 82.9700 43.5138 0.0000 -13.8789 0.0000
# 3 52.0959 43.5138 92.4131 0.0000 -19.0289 0.0000
# 4 0.0000 0.0000 0.0000 22.2649 0.0000 0.8129
# 5 -19.1534 -13.8789 -19.0289 0.0000 23.7363 0.0000
# 6 0.0000 0.0000 0.0000 0.8129 0.0000 19.2987
#
#
#
# Elastic Compliance Matrix: (Units=1/GPa)
#
#
# Indices 1 2 3 4 5 6 
#
# 1 0.037792 -0.003354 -0.016588 0.000000 0.015236 0.000000
# 2 -0.003354 0.016622 -0.005380 0.000000 0.002699 0.000000
# 3 -0.016588 -0.005380 0.023117 0.000000 0.002002 0.000000
# 4 0.000000 0.000000 0.000000 0.044983 0.000000 -0.001895
# 5 0.015236 0.002699 0.002002 0.000000 0.057607 0.000000
# 6 0.000000 0.000000 0.000000 -0.001895 0.000000 0.051897
#
#
# Mechanical properties :
#
#
# Convention : Reuss Voigt Hill
#
# Bulk Modulus (GPa) = 37.19260 54.51274 45.85267
# Shear Modulus (GPa) = 17.14545 20.23390 18.68968
#
# Velocity S-wave (km/s) = 3.35499 3.64465 3.50282
# Velocity P-wave (km/s) = 6.27892 7.31429 6.81629
#
# Compressibility (1/GPa) = 0.02688707
#
# Stress axis : x y z
#
# Youngs Moduli (GPa) = 26.46089 60.16273 43.25782
#
# Poissons Ratio (x) = 0.20181 0.71754
# Poissons Ratio (y) = 0.08876 0.23271
# Poissons Ratio (z) = 0.43892 0.32366
#
# Static dielectric constant tensor:
#      x y z
#    x 2.878600 0.000000 -0.225660 
#    y 0.000000 2.932330 0.000000 
#    z -0.225660 0.000000 2.936540 
# 
# 
# High freq. dielectric constant tensor:
#      x y z
#    x 1.560530 0.000000 -0.016440 
#    y 0.000000 1.593210 0.000000 
#    z -0.016440 0.000000 1.563720 
# 
# From -- ./inp_files/57167.got.cif
#   From: 2010.06.25/outbox.cif.g09.slc.cpg/sg10_29_cif.got.tgz:57167.got - 2010.06.27 22:07:45.
