data_PCOD8057630
_publ_section_title
;
Structure prediction by ZEFSAII (Michael W. Deem and Ramdas Pophale) SiO2 
 PCOD8057630
Probable space group: P 2/M
;
_chemical_formula_sum "Si O2"
_cell_formula_units_Z 32
_cell_length_a 16.997613
_cell_length_b 9.007148
_cell_length_c 19.523988
_cell_angle_alpha 90.000000
_cell_angle_beta 43.235667
_cell_angle_gamma 90.000000
_cell_volume 2047.551443
_symmetry_space_group_name_H-M "P 2/M"
_symmetry_group_IT_number 10
_symmetry_cell_setting 'monoclinic'
loop_
_space_group_symop_operation_xyz
x,y,z
-x,y,-z
-x,-y,-z
x,-y,z
loop_
_atom_site_type_symbol
_atom_site_label
_atom_site_fract_x
_atom_site_fract_y
_atom_site_fract_z
Si Si1 0.381157 0.167392 0.115540
Si Si2 0.736954 0.674161 0.926033
Si Si3 0.586438 0.673913 0.390225
Si Si4 0.823175 0.170485 0.092312
Si Si5 0.592124 0.671040 0.234325
Si Si6 0.496975 0.669629 0.850673
Si Si7 0.059736 0.828907 0.125234
Si Si8 0.154760 0.676111 0.783242
O O1 0.286978 0.264017 0.135097
O O2 0.403846 0.232544 0.177024
O O3 0.335670 0.000000 0.151259
O O4 0.500000 0.175620 0.000000
O O5 0.758440 0.500000 0.908164
O O6 0.851117 0.750525 0.881208
O O7 0.630481 0.714494 0.043020
O O8 0.500000 0.750097 0.500000
O O9 0.587348 0.500000 0.402624
O O10 0.541878 0.710247 0.341352
O O11 0.716695 0.731638 0.317948
O O12 0.697091 0.222152 0.149913
O O13 0.871362 0.271265 0.122914
O O14 0.819853 0.000000 0.118893
O O15 0.905122 0.190226 0.975758
O O16 0.636132 0.500000 0.205747
O O17 0.496839 0.694584 0.235473
O O18 0.521223 0.500000 0.855641
O O19 0.935235 0.751180 0.211967
O O20 0.051082 0.000000 0.152277
O O21 0.142504 0.500000 0.787063
#
# Coordination Sequence:
#
# PCOD8057630 Si02
#       8
#     4   4   4   4   4   4   4   4
#     4   9  17  27  39  56  81 113 148 180 212 249
#     4  10  18  28  42  58  82 115 149 181 212 247
#     4   8  15  29  48  67  86 108 138 179 222 258
#     4  10  19  29  41  58  84 114 143 177 215 250
#     4   9  16  27  44  65  86 112 146 180 214 255
#     4   9  16  26  40  59  83 111 146 182 212 246
#     4  11  21  30  41  59  86 115 145 179 213 251
#     4  10  20  31  45  62  81 109 145 179 214 256
#
# _framework density 15.628422
#
# number of rings (size 3 to 8) (size 9 to 14) (size 15 to 20)
#    0.000    2.500    1.250    3.000    0.000    5.500 
#    0.000    0.000    0.000    9.375    0.000    0.000 
#    0.000    1.000    0.000   11.750    0.000    2.250 
#
# Total GULP energy -396685.510505 kJ/mol
# GULP energy per Si atom -12396.422203 kJ/mol
# Density = 1.559285 g / cm^3
# Si number density = 15.628422 Si / 1000 Ang^3
#
#
#
# Elastic Constant Matrix: (Units=GPa)
#
#
# Indices 1 2 3 4 5 6 
#
# 1 128.2846 56.2990 45.1686 0.0000 -7.2304 0.0000
# 2 56.2990 78.5753 27.6315 0.0000 -5.3571 0.0000
# 3 45.1686 27.6315 56.7223 0.0000 0.9212 0.0000
# 4 0.0000 0.0000 0.0000 7.6179 0.0000 -2.0203
# 5 -7.2304 -5.3571 0.9212 0.0000 14.2244 0.0000
# 6 0.0000 0.0000 0.0000 -2.0203 0.0000 27.3166
#
#
#
# Elastic Compliance Matrix: (Units=1/GPa)
#
#
# Indices 1 2 3 4 5 6 
#
# 1 0.013794 -0.006825 -0.007740 0.000000 0.004943 0.000000
# 2 -0.006825 0.019314 -0.004040 0.000000 0.004067 0.000000
# 3 -0.007740 -0.004040 0.025877 0.000000 -0.007132 0.000000
# 4 0.000000 0.000000 0.000000 0.133896 0.000000 0.009903
# 5 0.004943 0.004067 -0.007132 0.000000 0.074808 0.000000
# 6 0.000000 0.000000 0.000000 0.009903 0.000000 0.037340
#
#
# Mechanical properties :
#
#
# Convention : Reuss Voigt Hill
#
# Bulk Modulus (GPa) = 45.92260 57.97560 51.94910
# Shear Modulus (GPa) = 14.30620 18.79732 16.55176
#
# Velocity S-wave (km/s) = 3.02883 3.47185 3.25788
# Velocity P-wave (km/s) = 6.45597 7.29716 6.88941
#
# Compressibility (1/GPa) = 0.02177577
#
# Stress axis : x y z
#
# Youngs Moduli (GPa) = 72.49501 51.77465 38.64382
#
# Poissons Ratio (x) = 0.35334 0.29911
# Poissons Ratio (y) = 0.49474 0.15613
# Poissons Ratio (z) = 0.56112 0.20919
#
# Static dielectric constant tensor:
#      x y z
#    x 3.111470 0.000000 0.008930 
#    y 0.000000 3.010050 0.000000 
#    z 0.008930 0.000000 2.733450 
# 
# 
# High freq. dielectric constant tensor:
#      x y z
#    x 1.606970 0.000000 -0.004010 
#    y 0.000000 1.602800 0.000000 
#    z -0.004010 0.000000 1.536180 
# 
# From -- ./inp_files/55243.got.cif
#   From: 2010.06.25/outbox.cif.g09.slc.cpg/sg10_28_cif.got.tgz:55243.got - 2010.06.27 22:07:45.
