data_PCOD8057792
_publ_section_title
;
Structure prediction by ZEFSAII (Michael W. Deem and Ramdas Pophale) SiO2 
 PCOD8057792
Probable space group: P 2/M
;
_chemical_formula_sum "Si O2"
_cell_formula_units_Z 32
_cell_length_a 26.381144
_cell_length_b 8.636198
_cell_length_c 15.995885
_cell_angle_alpha 90.000000
_cell_angle_beta 35.666334
_cell_angle_gamma 90.000000
_cell_volume 2124.910658
_symmetry_space_group_name_H-M "P 2/M"
_symmetry_group_IT_number 10
_symmetry_cell_setting 'monoclinic'
loop_
_space_group_symop_operation_xyz
x,y,z
-x,y,-z
-x,-y,-z
x,-y,z
loop_
_atom_site_type_symbol
_atom_site_label
_atom_site_fract_x
_atom_site_fract_y
_atom_site_fract_z
Si Si1 0.984419 0.318951 0.144774
Si Si2 0.011746 0.180370 0.682403
Si Si3 0.692932 0.185142 0.320636
Si Si4 0.507961 0.830238 0.588350
Si Si5 0.833768 0.817582 0.831420
Si Si6 0.129676 0.816977 0.838780
Si Si7 0.908595 0.325971 0.576340
Si Si8 0.321596 0.185606 0.846918
O O1 0.001834 0.500000 0.110148
O O2 0.899223 0.270744 0.206342
O O3 0.968080 0.278762 0.262588
O O4 0.067053 0.224455 0.999969
O O5 0.916976 0.228714 0.775531
O O6 0.085237 0.222689 0.515507
O O7 0.016903 0.000000 0.696849
O O8 0.601306 0.252936 0.481664
O O9 0.773218 0.240998 0.269478
O O10 0.706556 0.244826 0.207379
O O11 0.687303 0.000000 0.326667
O O12 0.500000 0.847241 0.500000
O O13 0.418694 0.747894 0.740265
O O14 0.511213 0.000000 0.625533
O O15 0.836401 0.741332 0.736151
O O16 0.830861 0.000000 0.822660
O O17 0.748118 0.752961 0.992676
O O18 0.126013 0.000000 0.828915
O O19 0.882972 0.500000 0.585597
O O20 0.000000 0.319450 0.500000
O O21 0.324179 0.000000 0.843564
#
# Coordination Sequence:
#
# PCOD8057792 Si02
#       8
#     4   4   4   4   4   4   4   4
#     4  11  21  31  41  56  79 104 133 167 203 238
#     4  10  18  29  44  59  77 103 135 166 197 232
#     4   8  13  21  35  55  78 105 135 165 196 229
#     4   7  10  17  30  51  79 105 127 157 196 230
#     4   9  16  25  39  59  81 106 135 164 193 229
#     4  10  18  29  43  58  78 104 136 170 200 229
#     4   9  17  28  40  56  79 105 132 162 196 232
#     4   8  12  19  33  55  82 107 131 160 194 230
#
# _framework density 15.059456000000001
#
# number of rings (size 3 to 8) (size 9 to 14) (size 15 to 20)
#    0.000    3.000    0.000    5.250    0.000    4.000 
#    0.000    0.000    0.000    0.000    0.000    1.750 
#    0.000    9.500    0.000   11.750    0.000    2.250 
#
# Total GULP energy -396502.480196 kJ/mol
# GULP energy per Si atom -12390.702506 kJ/mol
# Density = 1.502518 g / cm^3
# Si number density = 15.059456 Si / 1000 Ang^3
#
#
#
# Elastic Constant Matrix: (Units=GPa)
#
#
# Indices 1 2 3 4 5 6 
#
# 1 76.0298 15.1679 51.8609 0.0000 -10.7231 0.0000
# 2 15.1679 32.4602 15.2454 0.0000 1.4631 0.0000
# 3 51.8609 15.2454 117.2064 0.0000 -7.1161 0.0000
# 4 0.0000 0.0000 0.0000 9.6355 0.0000 6.2461
# 5 -10.7231 1.4631 -7.1161 0.0000 26.0088 0.0000
# 6 0.0000 0.0000 0.0000 6.2461 0.0000 10.5806
#
#
#
# Elastic Compliance Matrix: (Units=1/GPa)
#
#
# Indices 1 2 3 4 5 6 
#
# 1 0.020797 -0.006276 -0.007976 0.000000 0.006745 0.000000
# 2 -0.006276 0.034947 -0.002080 0.000000 -0.005122 0.000000
# 3 -0.007976 -0.002080 0.012344 0.000000 0.000206 0.000000
# 4 0.000000 0.000000 0.000000 0.168120 0.000000 -0.099247
# 5 0.006745 -0.005122 0.000206 0.000000 0.041574 0.000000
# 6 0.000000 0.000000 0.000000 -0.099247 0.000000 0.153102
#
#
# Mechanical properties :
#
#
# Convention : Reuss Voigt Hill
#
# Bulk Modulus (GPa) = 28.22894 43.36052 35.79473
# Shear Modulus (GPa) = 10.51845 18.80646 14.66246
#
# Velocity S-wave (km/s) = 2.64571 3.53769 3.12370
# Velocity P-wave (km/s) = 5.30271 6.74851 6.06882
#
# Compressibility (1/GPa) = 0.03542464
#
# Stress axis : x y z
#
# Youngs Moduli (GPa) = 48.08453 28.61465 81.00929
#
# Poissons Ratio (x) = 0.17958 0.64615
# Poissons Ratio (y) = 0.30176 0.16849
# Poissons Ratio (z) = 0.38353 0.05951
#
# Static dielectric constant tensor:
#      x y z
#    x 2.843440 0.000000 -0.188130 
#    y 0.000000 2.655380 0.000000 
#    z -0.188130 0.000000 3.134380 
# 
# 
# High freq. dielectric constant tensor:
#      x y z
#    x 1.544200 0.000000 -0.005980 
#    y 0.000000 1.554520 0.000000 
#    z -0.005980 0.000000 1.570110 
# 
# From -- ./inp_files/72037.got.cif
#   From: 2010.06.25/outbox.cif.g09.slc.cpg/sg10_37_cif.got.tgz:72037.got - 2010.06.27 22:07:45.
