data_PCOD8057016
_publ_section_title
;
Structure prediction by ZEFSAII (Michael W. Deem and Ramdas Pophale) SiO2 
 PCOD8057016
Probable space group: P 2/M
;
_chemical_formula_sum "Si O2"
_cell_formula_units_Z 32
_cell_length_a 20.152572
_cell_length_b 8.698549
_cell_length_c 24.725114
_cell_angle_alpha 90.000000
_cell_angle_beta 156.485903
_cell_angle_gamma 90.000000
_cell_volume 1729.262580
_symmetry_space_group_name_H-M "P 2/M"
_symmetry_group_IT_number 10
_symmetry_cell_setting 'monoclinic'
loop_
_space_group_symop_operation_xyz
x,y,z
-x,y,-z
-x,-y,-z
x,-y,z
loop_
_atom_site_type_symbol
_atom_site_label
_atom_site_fract_x
_atom_site_fract_y
_atom_site_fract_z
Si Si1 0.883591 0.682156 0.313771
Si Si2 0.255607 0.680432 0.325767
Si Si3 0.677459 0.181627 0.465371
Si Si4 0.966492 0.818726 0.760178
Si Si5 0.611518 0.320308 0.195974
Si Si6 0.238323 0.818394 0.588809
Si Si7 0.764862 0.680020 0.108418
Si Si8 0.448731 0.179956 0.385079
O O1 0.894822 0.500000 0.322747
O O2 0.741607 0.739493 0.248644
O O3 0.838376 0.741784 0.220066
O O4 0.056301 0.750778 0.463271
O O5 0.281593 0.500000 0.353587
O O6 0.076241 0.735107 0.214366
O O7 0.391054 0.779953 0.459138
O O8 0.286958 0.725340 0.285759
O O9 0.835202 0.243461 0.617339
O O10 0.686356 0.247937 0.411302
O O11 0.502338 0.227616 0.363712
O O12 0.692690 0.000000 0.475563
O O13 0.148576 0.768500 0.876555
O O14 0.960051 0.000000 0.764316
O O15 0.634686 0.500000 0.224392
O O16 0.637915 0.231638 0.271612
O O17 0.429582 0.281461 0.037744
O O18 0.223892 0.000000 0.576002
O O19 0.797660 0.500000 0.126086
O O20 0.409663 0.000000 0.359804
#
# Coordination Sequence:
#
# PCOD8057016 Si02
#       8
#     4   4   4   4   4   4   4   4
#     4  10  20  36  57  77  99 133 172 213 263 314
#     4  10  17  25  39  66 100 131 165 206 249 299
#     4   8  16  29  46  68  97 131 166 207 249 297
#     4  10  18  31  49  70  99 134 169 208 255 305
#     4  10  22  38  53  74 105 136 170 212 261 315
#     4  11  21  35  53  77 105 136 174 215 256 302
#     4  10  20  35  55  77 100 132 173 217 260 307
#     4   9  15  26  42  63  94 133 168 204 255 302
#
# _framework density 18.504996999999999
#
# number of rings (size 3 to 8) (size 9 to 14) (size 15 to 20)
#    0.000    2.250    1.250    4.500    0.000    4.000 
#    0.000    1.875    0.000    2.250    0.000    0.875 
#    0.000    7.000    0.000    0.000    0.000    0.000 
#
# Total GULP energy -396671.476050 kJ/mol
# GULP energy per Si atom -12395.983627 kJ/mol
# Density = 1.846288 g / cm^3
# Si number density = 18.504997 Si / 1000 Ang^3
#
#
#
# Elastic Constant Matrix: (Units=GPa)
#
#
# Indices 1 2 3 4 5 6 
#
# 1 124.9018 34.0953 27.9453 0.0000 30.9944 0.0000
# 2 34.0953 40.8977 11.3352 0.0000 7.1354 0.0000
# 3 27.9453 11.3352 35.9045 0.0000 -0.6632 0.0000
# 4 0.0000 0.0000 0.0000 15.7759 0.0000 4.4355
# 5 30.9944 7.1354 -0.6632 0.0000 22.2199 0.0000
# 6 0.0000 0.0000 0.0000 4.4355 0.0000 28.7553
#
#
#
# Elastic Compliance Matrix: (Units=1/GPa)
#
#
# Indices 1 2 3 4 5 6 
#
# 1 0.019187 -0.008167 -0.012808 0.000000 -0.024523 0.000000
# 2 -0.008167 0.032138 -0.003772 0.000000 0.000959 0.000000
# 3 -0.012808 -0.003772 0.039385 0.000000 0.020253 0.000000
# 4 0.000000 0.000000 0.000000 0.066261 0.000000 -0.010221
# 5 -0.024523 0.000959 0.020253 0.000000 0.079509 0.000000
# 6 0.000000 0.000000 0.000000 -0.010221 0.000000 0.036353
#
#
# Mechanical properties :
#
#
# Convention : Reuss Voigt Hill
#
# Bulk Modulus (GPa) = 24.26228 38.71729 31.48978
# Shear Modulus (GPa) = 14.87803 21.90542 18.39173
#
# Velocity S-wave (km/s) = 2.83857 3.44431 3.15600
# Velocity P-wave (km/s) = 4.88702 6.06512 5.50766
#
# Compressibility (1/GPa) = 0.04121623
#
# Stress axis : x y z
#
# Youngs Moduli (GPa) = 52.11903 31.11587 25.39007
#
# Poissons Ratio (x) = 0.25412 0.32520
# Poissons Ratio (y) = 0.42566 0.09577
# Poissons Ratio (z) = 0.66755 0.11736
#
# Static dielectric constant tensor:
#      x y z
#    x 4.159740 0.000000 0.330790 
#    y 0.000000 3.201870 0.000000 
#    z 0.330790 0.000000 3.053980 
# 
# 
# High freq. dielectric constant tensor:
#      x y z
#    x 1.738090 0.000000 0.028990 
#    y 0.000000 1.708220 0.000000 
#    z 0.028990 0.000000 1.667950 
# 
# From -- ./inp_files/86103.got.cif
#   From: 2010.06.25/outbox.cif.g09.slc.cpg/sg10_44_cif.got.tgz:86103.got - 2010.06.27 22:07:45.
