data_PCOD8057946
_publ_section_title
;
Structure prediction by ZEFSAII (Michael W. Deem and Ramdas Pophale) SiO2 
 PCOD8057946
Probable space group: P 2/M
;
_chemical_formula_sum "Si O2"
_cell_formula_units_Z 30
_cell_length_a 23.765675
_cell_length_b 12.107803
_cell_length_c 5.253168
_cell_angle_alpha 90.000000
_cell_angle_beta 87.485043
_cell_angle_gamma 90.000000
_cell_volume 1510.143704
_symmetry_space_group_name_H-M "P 2/M"
_symmetry_group_IT_number 10
_symmetry_cell_setting 'monoclinic'
loop_
_space_group_symop_operation_xyz
x,y,z
-x,y,-z
-x,-y,-z
x,-y,z
loop_
_atom_site_type_symbol
_atom_site_label
_atom_site_fract_x
_atom_site_fract_y
_atom_site_fract_z
Si Si1 0.251986 0.712733 0.928292
Si Si2 0.062535 0.370010 0.495362
Si Si3 0.300426 0.377417 0.408194
Si Si4 0.453923 0.876826 0.220903
Si Si5 0.592664 0.710456 0.429592
Si Si6 0.462777 0.500000 0.757170
Si Si7 0.656526 0.876432 0.068370
Si Si8 0.869842 0.631431 0.015068
O O1 0.274060 0.625310 0.132266
O O2 0.184796 0.709556 0.958464
O O3 0.268081 0.691730 0.631600
O O4 0.281478 0.828214 0.016296
O O5 0.056554 0.500000 0.477727
O O6 0.098256 0.330174 0.245692
O O7 0.000000 0.316718 0.500000
O O8 0.092182 0.336167 0.751551
O O9 0.295730 0.500000 0.514125
O O10 0.366428 0.344714 0.367898
O O11 0.458441 0.780999 0.434082
O O12 0.468834 0.000000 0.321940
O O13 0.500000 0.843675 0.000000
O O14 0.388765 0.877170 0.149790
O O15 0.572524 0.613984 0.241089
O O16 0.631282 0.798626 0.284975
O O17 0.500000 0.500000 0.500000
O O18 0.500000 0.500000 0.000000
O O19 0.664737 0.000000 0.172822
O O20 0.854893 0.500000 0.018484
#
# Coordination Sequence:
#
# PCOD8057946 Si02
#       8
#     4   4   4   4   4   2   4   4
#     4  11  22  36  57  85 119 155 199 248 300 354
#     4   9  17  29  47  73 112 161 205 242 286 336
#     4  11  21  37  58  82 112 154 192 234 287 358
#     4  10  22  41  68  94 117 151 201 258 312 369
#     4  11  24  43  64  87 120 155 195 239 306 373
#     4  12  32  46  66  92 126 158 190 242 299 376
#     4  10  23  41  63  89 119 153 199 253 309 367
#     4  10  18  29  47  76 115 156 198 246 287 347
#
# _framework density 19.865656999999999
#
# number of rings (size 3 to 8) (size 9 to 14) (size 15 to 20)
#    0.000    1.600    2.000    2.800    3.733    2.667 
#    0.000    2.000    0.000    1.200    0.000    0.000 
#    0.000    3.200    0.000    0.000    0.000    0.000 
#
# Total GULP energy -371716.185598 kJ/mol
# GULP energy per Si atom -12390.539520 kJ/mol
# Density = 1.982044 g / cm^3
# Si number density = 19.865657 Si / 1000 Ang^3
#
#
#
# Elastic Constant Matrix: (Units=GPa)
#
#
# Indices 1 2 3 4 5 6 
#
# 1 128.2781 46.5684 30.6956 0.0000 -7.8473 0.0000
# 2 46.5684 105.2158 23.0074 0.0000 -6.9235 0.0000
# 3 30.6956 23.0074 92.3940 0.0000 -6.3281 0.0000
# 4 0.0000 0.0000 0.0000 22.6617 0.0000 -5.4081
# 5 -7.8473 -6.9235 -6.3281 0.0000 25.5099 0.0000
# 6 0.0000 0.0000 0.0000 -5.4081 0.0000 19.5294
#
#
#
# Elastic Compliance Matrix: (Units=1/GPa)
#
#
# Indices 1 2 3 4 5 6 
#
# 1 0.009774 -0.003747 -0.002216 0.000000 0.001440 0.000000
# 2 -0.003747 0.011604 -0.001534 0.000000 0.001616 0.000000
# 3 -0.002216 -0.001534 0.012071 0.000000 0.001897 0.000000
# 4 0.000000 0.000000 0.000000 0.047250 0.000000 0.013085
# 5 0.001440 0.001616 0.001897 0.000000 0.040553 0.000000
# 6 0.000000 0.000000 0.000000 0.013085 0.000000 0.054828
#
#
# Mechanical properties :
#
#
# Convention : Reuss Voigt Hill
#
# Bulk Modulus (GPa) = 54.18093 58.49230 56.33662
# Shear Modulus (GPa) = 25.35170 28.58131 26.96651
#
# Velocity S-wave (km/s) = 3.57621 3.79717 3.68835
# Velocity P-wave (km/s) = 6.66223 6.98087 6.82341
#
# Compressibility (1/GPa) = 0.01845668
#
# Stress axis : x y z
#
# Youngs Moduli (GPa) = 102.31246 86.17417 82.84176
#
# Poissons Ratio (x) = 0.32287 0.18354
# Poissons Ratio (y) = 0.38334 0.12710
# Poissons Ratio (z) = 0.22668 0.13221
#
# Static dielectric constant tensor:
#      x y z
#    x 3.865030 0.000000 0.040280 
#    y 0.000000 3.779410 0.000000 
#    z 0.040280 0.000000 3.569050 
# 
# 
# High freq. dielectric constant tensor:
#      x y z
#    x 1.769810 0.000000 0.007700 
#    y 0.000000 1.740220 0.000000 
#    z 0.007700 0.000000 1.782090 
# 
# From -- ./inp_files/12439.got.cif
#   From: 2010.06.25/outbox.cif.g09.slc.cpg/sg10_7_cif.got.tgz:12439.got - 2010.06.27 22:07:45.
