data_PCOD8057529
_publ_section_title
;
Structure prediction by ZEFSAII (Michael W. Deem and Ramdas Pophale) SiO2 
 PCOD8057529
Probable space group: P 2/M
;
_chemical_formula_sum "Si O2"
_cell_formula_units_Z 30
_cell_length_a 13.559968
_cell_length_b 10.039340
_cell_length_c 16.735277
_cell_angle_alpha 90.000000
_cell_angle_beta 127.417178
_cell_angle_gamma 90.000000
_cell_volume 1809.440802
_symmetry_space_group_name_H-M "P 2/M"
_symmetry_group_IT_number 10
_symmetry_cell_setting 'monoclinic'
loop_
_space_group_symop_operation_xyz
x,y,z
-x,y,-z
-x,-y,-z
x,-y,z
loop_
_atom_site_type_symbol
_atom_site_label
_atom_site_fract_x
_atom_site_fract_y
_atom_site_fract_z
Si Si1 0.000000 0.705568 0.500000
Si Si2 0.555288 0.657254 0.652304
Si Si3 0.601711 0.157180 0.989915
Si Si4 0.686018 0.655183 0.556931
Si Si5 0.242392 0.149616 0.662187
Si Si6 0.838334 0.151904 0.198940
Si Si7 0.518171 0.159263 0.774335
Si Si8 0.957199 0.352569 0.654273
O O1 0.126695 0.788160 0.559355
O O2 0.996525 0.624700 0.580930
O O3 0.551913 0.500000 0.674046
O O4 0.660774 0.684370 0.637774
O O5 0.424097 0.711508 0.552745
O O6 0.589408 0.752258 0.743508
O O7 0.578415 0.202102 0.888011
O O8 0.589259 0.000000 0.991177
O O9 0.500000 0.222094 0.000000
O O10 0.741020 0.199673 0.083700
O O11 0.684052 0.500000 0.539940
O O12 0.819901 0.711236 0.596185
O O13 0.232610 0.161229 0.752329
O O14 0.375242 0.210024 0.703034
O O15 0.241687 0.000000 0.632503
O O16 0.954076 0.251823 0.254768
O O17 0.884778 0.000000 0.207216
O O18 0.531351 0.000000 0.765618
O O19 0.964489 0.500000 0.697363
#
# Coordination Sequence:
#
# PCOD8057529 Si02
#       8
#     2   4   4   4   4   4   4   4
#     4  10  18  26  42  68  95 124 149 184 221 274
#     4   9  17  32  51  70  90 120 161 198 228 272
#     4   9  15  28  50  69  91 125 161 189 225 281
#     4   8  16  32  52  67  89 128 164 185 221 284
#     4   9  16  26  41  64  94 123 152 183 219 267
#     4   9  17  30  47  67  89 121 159 187 218 272
#     4  10  18  28  47  73  96 119 151 196 239 274
#     4  10  19  31  46  67  94 124 152 186 229 278
#
# _framework density 16.579709000000001
#
# number of rings (size 3 to 8) (size 9 to 14) (size 15 to 20)
#    0.000    2.800    1.333    2.000    0.000    0.533 
#    0.000    6.000    0.000    1.600    0.000    5.600 
#    0.000    0.000    0.000    0.000    0.000    0.000 
#
# Total GULP energy -371730.414171 kJ/mol
# GULP energy per Si atom -12391.013806 kJ/mol
# Density = 1.654197 g / cm^3
# Si number density = 16.579709 Si / 1000 Ang^3
#
#
#
# Elastic Constant Matrix: (Units=GPa)
#
#
# Indices 1 2 3 4 5 6 
#
# 1 82.2867 26.6532 37.7905 0.0000 1.9382 0.0000
# 2 26.6532 50.2579 35.7175 0.0000 0.7601 0.0000
# 3 37.7905 35.7175 100.8961 0.0000 0.2226 0.0000
# 4 0.0000 0.0000 0.0000 18.5421 0.0000 -2.4685
# 5 1.9382 0.7601 0.2226 0.0000 20.5160 0.0000
# 6 0.0000 0.0000 0.0000 -2.4685 0.0000 22.7930
#
#
#
# Elastic Compliance Matrix: (Units=1/GPa)
#
#
# Indices 1 2 3 4 5 6 
#
# 1 0.015793 -0.005551 -0.003947 0.000000 -0.001244 0.000000
# 2 -0.005551 0.028553 -0.008028 0.000000 -0.000446 0.000000
# 3 -0.003947 -0.008028 0.014230 0.000000 0.000516 0.000000
# 4 0.000000 0.000000 0.000000 0.054720 0.000000 0.005926
# 5 -0.001244 -0.000446 0.000516 0.000000 0.048871 0.000000
# 6 0.000000 0.000000 0.000000 0.005926 0.000000 0.044515
#
#
# Mechanical properties :
#
#
# Convention : Reuss Voigt Hill
#
# Bulk Modulus (GPa) = 42.51004 48.19589 45.35297
# Shear Modulus (GPa) = 20.03394 21.25552 20.64473
#
# Velocity S-wave (km/s) = 3.47989 3.58442 3.53254
# Velocity P-wave (km/s) = 6.46851 6.80169 6.63719
#
# Compressibility (1/GPa) = 0.02352385
#
# Stress axis : x y z
#
# Youngs Moduli (GPa) = 63.31986 35.02219 70.27251
#
# Poissons Ratio (x) = 0.19442 0.27738
# Poissons Ratio (y) = 0.35151 0.56413
# Poissons Ratio (z) = 0.24994 0.28115
#
# Static dielectric constant tensor:
#      x y z
#    x 3.225460 0.000000 0.188170 
#    y 0.000000 2.816860 0.000000 
#    z 0.188170 0.000000 3.248600 
# 
# 
# High freq. dielectric constant tensor:
#      x y z
#    x 1.627870 0.000000 0.004900 
#    y 0.000000 1.609500 0.000000 
#    z 0.004900 0.000000 1.631490 
# 
# From -- ./inp_files/64434.got.cif
#   From: 2010.06.25/outbox.cif.g09.slc.cpg/sg10_33_cif.got.tgz:64434.got - 2010.06.27 22:07:45.
