data_PCOD8057043
_publ_section_title
;
Structure prediction by ZEFSAII (Michael W. Deem and Ramdas Pophale) SiO2 
 PCOD8057043
Probable space group: P 2/M
;
_chemical_formula_sum "Si O2"
_cell_formula_units_Z 32
_cell_length_a 11.633859
_cell_length_b 8.553634
_cell_length_c 21.452738
_cell_angle_alpha 90.000000
_cell_angle_beta 57.920050
_cell_angle_gamma 90.000000
_cell_volume 1808.832723
_symmetry_space_group_name_H-M "P 2/M"
_symmetry_group_IT_number 10
_symmetry_cell_setting 'monoclinic'
loop_
_space_group_symop_operation_xyz
x,y,z
-x,y,-z
-x,-y,-z
x,-y,z
loop_
_atom_site_type_symbol
_atom_site_label
_atom_site_fract_x
_atom_site_fract_y
_atom_site_fract_z
Si Si1 0.409907 0.317602 0.585082
Si Si2 0.134319 0.680596 0.498858
Si Si3 0.869781 0.181694 0.367024
Si Si4 0.860702 0.183251 0.780292
Si Si5 0.462240 0.180989 0.925513
Si Si6 0.618855 0.818578 0.764558
Si Si7 0.599809 0.816871 0.631567
Si Si8 0.706929 0.319011 0.930663
O O1 0.500000 0.266039 0.500000
O O2 0.375073 0.500000 0.591681
O O3 0.272108 0.219160 0.624879
O O4 0.488122 0.278927 0.625779
O O5 0.175928 0.500000 0.478078
O O6 0.108757 0.713304 0.578482
O O7 0.252893 0.791225 0.440194
O O8 0.000000 0.723750 0.500000
O O9 0.988542 0.226367 0.284668
O O10 0.877223 0.000000 0.383349
O O11 0.751202 0.251549 0.761811
O O12 0.838353 0.256712 0.855507
O O13 0.836859 0.000000 0.793896
O O14 0.482362 0.209451 0.845485
O O15 0.576056 0.283401 0.926607
O O16 0.487660 0.000000 0.933946
O O17 0.315769 0.235746 0.994753
O O18 0.598218 0.745089 0.702117
O O19 0.647101 0.000000 0.745320
O O20 0.564024 0.000000 0.639399
O O21 0.725424 0.500000 0.938088
#
# Coordination Sequence:
#
# PCOD8057043 Si02
#       8
#     4   4   4   4   4   4   4   4
#     4  11  23  39  56  73 100 132 166 211 263 313
#     4  11  23  36  50  73 106 138 164 196 251 313
#     4  11  22  36  57  78  96 127 174 219 253 294
#     4   9  18  33  50  72 103 134 165 202 253 302
#     4   9  15  27  45  65  97 137 170 201 245 291
#     4   8  16  30  49  74 102 131 163 206 250 294
#     4  11  21  35  56  77  98 127 173 218 252 293
#     4  10  17  25  41  69 101 133 170 203 238 289
#
# _framework density 17.690967000000001
#
# number of rings (size 3 to 8) (size 9 to 14) (size 15 to 20)
#    0.000    2.000    1.250    5.250    0.000    3.500 
#    0.000    7.500    0.000    0.000    0.000    0.875 
#    0.000    7.000    0.000    0.000    0.000    0.000 
#
# Total GULP energy -396709.260279 kJ/mol
# GULP energy per Si atom -12397.164384 kJ/mol
# Density = 1.765070 g / cm^3
# Si number density = 17.690967 Si / 1000 Ang^3
#
#
#
# Elastic Constant Matrix: (Units=GPa)
#
#
# Indices 1 2 3 4 5 6 
#
# 1 79.2679 15.2474 45.1186 0.0000 -6.7460 0.0000
# 2 15.2474 41.1083 30.9480 0.0000 0.1381 0.0000
# 3 45.1186 30.9480 143.6112 0.0000 -12.5398 0.0000
# 4 0.0000 0.0000 0.0000 15.4933 0.0000 -2.2967
# 5 -6.7460 0.1381 -12.5398 0.0000 8.0759 0.0000
# 6 0.0000 0.0000 0.0000 -2.2967 0.0000 18.1308
#
#
#
# Elastic Compliance Matrix: (Units=1/GPa)
#
#
# Indices 1 2 3 4 5 6 
#
# 1 0.015967 -0.003198 -0.003653 0.000000 0.007720 0.000000
# 2 -0.003198 0.030686 -0.006810 0.000000 -0.013771 0.000000
# 3 -0.003653 -0.006810 0.010785 0.000000 0.013811 0.000000
# 4 0.000000 0.000000 0.000000 0.065779 0.000000 0.008332
# 5 0.007720 -0.013771 0.013811 0.000000 0.151955 0.000000
# 6 0.000000 0.000000 0.000000 0.008332 0.000000 0.056210
#
#
# Mechanical properties :
#
#
# Convention : Reuss Voigt Hill
#
# Bulk Modulus (GPa) = 33.20724 49.62396 41.41560
# Shear Modulus (GPa) = 13.55962 19.85156 16.70559
#
# Velocity S-wave (km/s) = 2.77153 3.35345 3.07628
# Velocity P-wave (km/s) = 5.39011 6.56548 6.00661
#
# Compressibility (1/GPa) = 0.03011392
#
# Stress axis : x y z
#
# Youngs Moduli (GPa) = 62.62963 32.58860 92.72553
#
# Poissons Ratio (x) = 0.10422 0.33874
# Poissons Ratio (y) = 0.20029 0.63150
# Poissons Ratio (z) = 0.22879 0.22194
#
# Static dielectric constant tensor:
#      x y z
#    x 3.001090 0.000000 0.043590 
#    y 0.000000 3.171740 0.000000 
#    z 0.043590 0.000000 3.803630 
# 
# 
# High freq. dielectric constant tensor:
#      x y z
#    x 1.636810 0.000000 0.000510 
#    y 0.000000 1.682160 0.000000 
#    z 0.000510 0.000000 1.700440 
# 
# From -- ./inp_files/83544.got.cif
#   From: 2010.06.25/outbox.cif.g09.slc.cpg/sg10_42_cif.got.tgz:83544.got - 2010.06.27 22:07:45.
