data_PCOD8057238
_publ_section_title
;
Structure prediction by ZEFSAII (Michael W. Deem and Ramdas Pophale) SiO2 
 PCOD8057238
Probable space group: P 2/M
;
_chemical_formula_sum "Si O2"
_cell_formula_units_Z 28
_cell_length_a 13.913698
_cell_length_b 7.896987
_cell_length_c 21.680907
_cell_angle_alpha 90.000000
_cell_angle_beta 135.550082
_cell_angle_gamma 90.000000
_cell_volume 1668.232607
_symmetry_space_group_name_H-M "P 2/M"
_symmetry_group_IT_number 10
_symmetry_cell_setting 'monoclinic'
loop_
_space_group_symop_operation_xyz
x,y,z
-x,y,-z
-x,-y,-z
x,-y,z
loop_
_atom_site_type_symbol
_atom_site_label
_atom_site_fract_x
_atom_site_fract_y
_atom_site_fract_z
Si Si1 0.575021 0.307392 0.598630
Si Si2 0.307671 0.197964 0.528471
Si Si3 0.166705 0.806408 0.340527
Si Si4 0.548158 0.000000 0.120130
Si Si5 0.841731 0.800846 0.418545
Si Si6 0.708574 0.309875 0.234412
Si Si7 0.284811 0.000000 0.929075
Si Si8 0.870884 0.689725 0.186098
O O1 0.500000 0.278497 0.500000
O O2 0.611199 0.500000 0.629065
O O3 0.470366 0.240623 0.603037
O O4 0.718738 0.206124 0.661352
O O5 0.229305 0.273320 0.432507
O O6 0.240920 0.270192 0.560175
O O7 0.285701 0.000000 0.515985
O O8 0.034980 0.699482 0.260754
O O9 0.121312 0.000000 0.328652
O O10 0.587493 0.170285 0.175758
O O11 0.624559 0.000000 0.090367
O O12 0.384332 0.000000 0.034173
O O13 0.787958 0.701914 0.334845
O O14 0.000000 0.756528 0.500000
O O15 0.818557 0.000000 0.397974
O O16 0.646617 0.500000 0.199318
O O17 0.818576 0.273206 0.231182
O O18 0.192619 0.170334 0.889201
O O19 0.827992 0.500000 0.144897
#
# Coordination Sequence:
#
# PCOD8057238 Si02
#       8
#     4   4   4   2   4   4   2   4
#     4   9  17  28  41  59  86 120 157 196 235 274
#     4   9  18  29  43  63  88 124 166 200 229 268
#     4  10  17  28  46  65  91 125 158 192 234 279
#     4   9  18  34  51  66  93 121 155 193 230 283
#     4  10  19  31  47  66  93 128 165 202 232 263
#     4  10  20  32  48  69  94 127 161 194 232 272
#     4   9  18  32  50  70  90 123 151 185 240 282
#     4  10  19  30  46  71  98 121 154 192 230 283
#
# _framework density 16.784230000000001
#
# number of rings (size 3 to 8) (size 9 to 14) (size 15 to 20)
#    0.000    2.429    1.429    1.714    0.000    4.857 
#    0.000    2.857    0.000    0.000    0.000    0.000 
#    0.000    2.286    0.000    4.000    0.000    0.286 
#
# Total GULP energy -347123.579041 kJ/mol
# GULP energy per Si atom -12397.270680 kJ/mol
# Density = 1.674603 g / cm^3
# Si number density = 16.784230 Si / 1000 Ang^3
#
#
#
# Elastic Constant Matrix: (Units=GPa)
#
#
# Indices 1 2 3 4 5 6 
#
# 1 83.6879 27.3760 32.5574 0.0000 9.9507 0.0000
# 2 27.3760 91.4089 43.8172 0.0000 10.7496 0.0000
# 3 32.5574 43.8172 89.9883 0.0000 15.7119 0.0000
# 4 0.0000 0.0000 0.0000 14.7290 0.0000 2.0099
# 5 9.9507 10.7496 15.7119 0.0000 15.2488 0.0000
# 6 0.0000 0.0000 0.0000 2.0099 0.0000 18.1324
#
#
#
# Elastic Compliance Matrix: (Units=1/GPa)
#
#
# Indices 1 2 3 4 5 6 
#
# 1 0.014519 -0.002193 -0.003416 0.000000 -0.004410 0.000000
# 2 -0.002193 0.014760 -0.005886 0.000000 -0.002910 0.000000
# 3 -0.003416 -0.005886 0.017194 0.000000 -0.011338 0.000000
# 4 0.000000 0.000000 0.000000 0.068936 0.000000 -0.007641
# 5 -0.004410 -0.002910 -0.011338 0.000000 0.082190 0.000000
# 6 0.000000 0.000000 0.000000 -0.007641 0.000000 0.055997
#
#
# Mechanical properties :
#
#
# Convention : Reuss Voigt Hill
#
# Bulk Modulus (GPa) = 42.57899 52.50957 47.54428
# Shear Modulus (GPa) = 17.58011 20.37768 18.97889
#
# Velocity S-wave (km/s) = 3.23990 3.48817 3.36632
# Velocity P-wave (km/s) = 6.27849 6.89754 6.59528
#
# Compressibility (1/GPa) = 0.02348576
#
# Stress axis : x y z
#
# Youngs Moduli (GPa) = 68.87291 67.75060 58.16081
#
# Poissons Ratio (x) = 0.14855 0.19865
# Poissons Ratio (y) = 0.15101 0.34231
# Poissons Ratio (z) = 0.23524 0.39875
#
# Static dielectric constant tensor:
#      x y z
#    x 3.161350 0.000000 0.140970 
#    y 0.000000 3.203970 0.000000 
#    z 0.140970 0.000000 2.954520 
# 
# 
# High freq. dielectric constant tensor:
#      x y z
#    x 1.624660 0.000000 0.021800 
#    y 0.000000 1.657360 0.000000 
#    z 0.021800 0.000000 1.606610 
# 
# From -- ./inp_files/83418.got.cif
#   From: 2010.06.25/outbox.cif.g09.slc.cpg/sg10_42_cif.got.tgz:83418.got - 2010.06.27 22:07:45.
