data_PCOD8057575
_publ_section_title
;
Structure prediction by ZEFSAII (Michael W. Deem and Ramdas Pophale) SiO2 
 PCOD8057575
Probable space group: P 2/M
;
_chemical_formula_sum "Si O2"
_cell_formula_units_Z 32
_cell_length_a 29.973742
_cell_length_b 9.008173
_cell_length_c 15.937617
_cell_angle_alpha 90.000000
_cell_angle_beta 150.012545
_cell_angle_gamma 90.000000
_cell_volume 2150.831220
_symmetry_space_group_name_H-M "P 2/M"
_symmetry_group_IT_number 10
_symmetry_cell_setting 'monoclinic'
loop_
_space_group_symop_operation_xyz
x,y,z
-x,y,-z
-x,-y,-z
x,-y,z
loop_
_atom_site_type_symbol
_atom_site_label
_atom_site_fract_x
_atom_site_fract_y
_atom_site_fract_z
Si Si1 0.999505 0.667281 0.399399
Si Si2 0.527652 0.325838 0.236705
Si Si3 0.823516 0.828695 0.314745
Si Si4 0.336243 0.325551 0.850820
Si Si5 0.598028 0.832480 0.197732
Si Si6 0.823351 0.828525 0.116521
Si Si7 0.471172 0.824848 0.586353
Si Si8 0.636645 0.825302 0.749277
O O1 0.007210 0.500000 0.377433
O O2 0.907383 0.738711 0.216809
O O3 0.000000 0.669828 0.500000
O O4 0.082266 0.763248 0.499961
O O5 0.544453 0.500000 0.261718
O O6 0.596865 0.250811 0.284910
O O7 0.549682 0.263766 0.363837
O O8 0.426268 0.285212 0.047541
O O9 0.745104 0.738070 0.229532
O O10 0.813159 0.807950 0.198934
O O11 0.817915 0.000000 0.332129
O O12 0.325017 0.500000 0.821105
O O13 0.336113 0.252292 0.758466
O O14 0.632601 0.000000 0.266897
O O15 0.500000 0.830074 0.000000
O O16 0.837935 0.000000 0.116939
O O17 0.734574 0.760333 0.928556
O O18 0.563883 0.765243 0.697416
O O19 0.391797 0.786663 0.391849
O O20 0.475445 0.000000 0.612311
O O21 0.638947 0.000000 0.766059
#
# Coordination Sequence:
#
# PCOD8057575 Si02
#       8
#     4   4   4   4   4   4   4   4
#     4   9  17  28  40  56  80 108 136 168 207 248
#     4  10  19  29  41  59  84 112 139 169 208 247
#     4  10  18  27  42  62  82 107 140 173 203 242
#     4  10  19  29  41  59  85 112 136 167 207 247
#     4   9  17  29  44  60  78 104 139 173 202 239
#     4   9  16  27  42  59  80 108 142 176 208 242
#     4   9  16  28  44  60  80 109 144 177 208 242
#     4   8  15  27  43  61  81 107 141 180 213 239
#
# _framework density 14.877969
#
# number of rings (size 3 to 8) (size 9 to 14) (size 15 to 20)
#    0.000    2.750    0.000    3.375    0.000    6.000 
#    0.000    2.500    0.000    0.000    0.000    0.000 
#    0.000    1.000    0.000   10.750    0.000    4.750 
#
# Total GULP energy -396756.747252 kJ/mol
# GULP energy per Si atom -12398.648352 kJ/mol
# Density = 1.484411 g / cm^3
# Si number density = 14.877969 Si / 1000 Ang^3
#
#
#
# Elastic Constant Matrix: (Units=GPa)
#
#
# Indices 1 2 3 4 5 6 
#
# 1 53.2811 34.9035 26.0271 0.0000 -6.9016 0.0000
# 2 34.9035 71.8851 33.2212 0.0000 0.4760 0.0000
# 3 26.0271 33.2212 84.9797 0.0000 6.3886 0.0000
# 4 0.0000 0.0000 0.0000 17.7977 0.0000 3.4082
# 5 -6.9016 0.4760 6.3886 0.0000 21.8136 0.0000
# 6 0.0000 0.0000 0.0000 3.4082 0.0000 24.9591
#
#
#
# Elastic Compliance Matrix: (Units=1/GPa)
#
#
# Indices 1 2 3 4 5 6 
#
# 1 0.031338 -0.012752 -0.005500 0.000000 0.011804 0.000000
# 2 -0.012752 0.022223 -0.004542 0.000000 -0.003189 0.000000
# 3 -0.005500 -0.004542 0.015697 0.000000 -0.006238 0.000000
# 4 0.000000 0.000000 0.000000 0.057696 0.000000 -0.007878
# 5 0.011804 -0.003189 -0.006238 0.000000 0.051474 0.000000
# 6 0.000000 0.000000 0.000000 -0.007878 0.000000 0.041141
#
#
# Mechanical properties :
#
#
# Convention : Reuss Voigt Hill
#
# Bulk Modulus (GPa) = 42.25028 44.27215 43.26121
# Shear Modulus (GPa) = 18.31177 20.64702 19.47939
#
# Velocity S-wave (km/s) = 3.51208 3.72930 3.62232
# Velocity P-wave (km/s) = 6.70118 6.95450 6.82901
#
# Compressibility (1/GPa) = 0.02366848
#
# Stress axis : x y z
#
# Youngs Moduli (GPa) = 31.91010 44.99791 63.70752
#
# Poissons Ratio (x) = 0.57383 0.35040
# Poissons Ratio (y) = 0.40693 0.28938
# Poissons Ratio (z) = 0.17551 0.20439
#
# Static dielectric constant tensor:
#      x y z
#    x 2.786440 0.000000 0.102030 
#    y 0.000000 2.909200 0.000000 
#    z 0.102030 0.000000 2.892760 
# 
# 
# High freq. dielectric constant tensor:
#      x y z
#    x 1.552800 0.000000 0.008070 
#    y 0.000000 1.573270 0.000000 
#    z 0.008070 0.000000 1.541330 
# 
# From -- ./inp_files/72183.got.cif
#   From: 2010.06.25/outbox.cif.g09.slc.cpg/sg10_37_cif.got.tgz:72183.got - 2010.06.27 22:07:45.
