data_PCOD8057142
_publ_section_title
;
Structure prediction by ZEFSAII (Michael W. Deem and Ramdas Pophale) SiO2 
 PCOD8057142
Probable space group: P 2/M
;
_chemical_formula_sum "Si O2"
_cell_formula_units_Z 24
_cell_length_a 12.302582
_cell_length_b 7.766797
_cell_length_c 15.590476
_cell_angle_alpha 90.000000
_cell_angle_beta 72.747110
_cell_angle_gamma 90.000000
_cell_volume 1422.666930
_symmetry_space_group_name_H-M "P 2/M"
_symmetry_group_IT_number 10
_symmetry_cell_setting 'monoclinic'
loop_
_space_group_symop_operation_xyz
x,y,z
-x,y,-z
-x,-y,-z
x,-y,z
loop_
_atom_site_type_symbol
_atom_site_label
_atom_site_fract_x
_atom_site_fract_y
_atom_site_fract_z
Si Si1 0.317103 0.000000 0.566129
Si Si2 0.937354 0.796873 0.142834
Si Si3 0.450971 0.700031 0.750008
Si Si4 0.542297 0.000000 0.626270
Si Si5 0.416770 0.302779 0.949541
Si Si6 0.233518 0.691192 0.684871
Si Si7 0.832247 0.797426 0.990509
O O1 0.433218 0.000000 0.591240
O O2 0.343902 0.000000 0.458394
O O3 0.244692 0.170789 0.605823
O O4 0.888135 0.708102 0.239484
O O5 0.869982 0.728125 0.074962
O O6 0.921100 0.000000 0.154687
O O7 0.070707 0.748268 0.101737
O O8 0.491298 0.500000 0.735263
O O9 0.436700 0.772929 0.849906
O O10 0.329249 0.724002 0.733934
O O11 0.542564 0.825136 0.682873
O O12 0.451113 0.500000 0.935541
O O13 0.286425 0.285428 0.010260
O O14 0.500000 0.211973 0.000000
O O15 0.244205 0.500000 0.642402
O O16 0.816847 0.000000 0.998610
#
# Coordination Sequence:
#
# PCOD8057142 Si02
#       7
#     2   4   4   2   4   4   4
#     4   9  18  30  42  64  92 113 147 193 230 274
#     4   9  16  28  43  64  94 122 151 191 228 270
#     4   9  18  30  44  64  89 119 158 191 220 271
#     4   9  18  30  47  61  83 124 150 184 238 274
#     4  10  20  32  44  62  93 127 158 196 230 256
#     4  10  17  26  45  66  89 122 152 182 227 278
#     4   9  18  28  44  65  88 122 158 190 226 264
#
# _framework density 16.869726
#
# number of rings (size 3 to 8) (size 9 to 14) (size 15 to 20)
#    0.000    2.667    2.500    1.000    1.167    1.667 
#    0.000    5.000    0.000    0.000    0.000    0.000 
#    0.000    2.667    0.000    7.500    0.000    0.333 
#
# Total GULP energy -297476.675993 kJ/mol
# GULP energy per Si atom -12394.861500 kJ/mol
# Density = 1.683133 g / cm^3
# Si number density = 16.869726 Si / 1000 Ang^3
#
#
#
# Elastic Constant Matrix: (Units=GPa)
#
#
# Indices 1 2 3 4 5 6 
#
# 1 68.8083 19.0006 39.6629 0.0000 -8.5455 0.0000
# 2 19.0006 82.4567 51.6739 0.0000 -11.3155 0.0000
# 3 39.6629 51.6739 116.8429 0.0000 -27.7161 0.0000
# 4 0.0000 0.0000 0.0000 17.8041 0.0000 -3.9345
# 5 -8.5455 -11.3155 -27.7161 0.0000 20.0571 0.0000
# 6 0.0000 0.0000 0.0000 -3.9345 0.0000 11.7261
#
#
#
# Elastic Compliance Matrix: (Units=1/GPa)
#
#
# Indices 1 2 3 4 5 6 
#
# 1 0.018097 -0.000425 -0.006223 0.000000 -0.001129 0.000000
# 2 -0.000425 0.016806 -0.007560 0.000000 -0.001147 0.000000
# 3 -0.006223 -0.007560 0.018407 0.000000 0.018520 0.000000
# 4 0.000000 0.000000 0.000000 0.060665 0.000000 0.020355
# 5 -0.001129 -0.001147 0.018520 0.000000 0.074322 0.000000
# 6 0.000000 0.000000 0.000000 0.020355 0.000000 0.092109
#
#
# Mechanical properties :
#
#
# Convention : Reuss Voigt Hill
#
# Bulk Modulus (GPa) = 40.16997 54.30918 47.23957
# Shear Modulus (GPa) = 15.76679 20.43550 18.10114
#
# Velocity S-wave (km/s) = 3.06047 3.48425 3.27922
# Velocity P-wave (km/s) = 6.02928 6.96059 6.51161
#
# Compressibility (1/GPa) = 0.02489422
#
# Stress axis : x y z
#
# Youngs Moduli (GPa) = 55.25644 59.50268 54.32579
#
# Poissons Ratio (x) = 0.02531 0.33806
# Poissons Ratio (y) = 0.02350 0.41071
# Poissons Ratio (z) = 0.34385 0.44985
#
# Static dielectric constant tensor:
#      x y z
#    x 2.950930 0.000000 -0.157230 
#    y 0.000000 3.152500 0.000000 
#    z -0.157230 0.000000 3.231460 
# 
# 
# High freq. dielectric constant tensor:
#      x y z
#    x 1.598230 0.000000 -0.028330 
#    y 0.000000 1.656050 0.000000 
#    z -0.028330 0.000000 1.633380 
# 
# From -- ./inp_files/48679.got.cif
#   From: 2010.06.25/outbox.cif.g09.slc.cpg/sg10_25_cif.got.tgz:48679.got - 2010.06.27 22:07:45.
