data_PCOD8057251
_publ_section_title
;
Structure prediction by ZEFSAII (Michael W. Deem and Ramdas Pophale) SiO2 
 PCOD8057251
Probable space group: P 2/M
;
_chemical_formula_sum "Si O2"
_cell_formula_units_Z 28
_cell_length_a 18.954510
_cell_length_b 9.926666
_cell_length_c 11.419735
_cell_angle_alpha 90.000000
_cell_angle_beta 131.834224
_cell_angle_gamma 90.000000
_cell_volume 1600.934566
_symmetry_space_group_name_H-M "P 2/M"
_symmetry_group_IT_number 10
_symmetry_cell_setting 'monoclinic'
loop_
_space_group_symop_operation_xyz
x,y,z
-x,y,-z
-x,-y,-z
x,-y,z
loop_
_atom_site_type_symbol
_atom_site_label
_atom_site_fract_x
_atom_site_fract_y
_atom_site_fract_z
Si Si1 0.160867 0.843675 0.753706
Si Si2 0.820231 0.347809 0.438344
Si Si3 0.731609 0.143454 0.900511
Si Si4 0.392971 0.343184 0.373525
Si Si5 0.239816 0.654367 0.384344
Si Si6 0.967888 0.649193 0.247684
Si Si7 0.095042 0.219751 0.050691
O O1 0.194034 0.766236 0.674290
O O2 0.072793 0.763260 0.711190
O O3 0.132920 0.000000 0.696132
O O4 0.248230 0.836626 0.939987
O O5 0.801526 0.500000 0.368554
O O6 0.749094 0.310129 0.466038
O O7 0.920935 0.341598 0.612897
O O8 0.664336 0.265235 0.790062
O O9 0.832387 0.128960 0.943663
O O10 0.679499 0.000000 0.822711
O O11 0.500000 0.289734 0.500000
O O12 0.390638 0.500000 0.336593
O O13 0.341540 0.312281 0.439361
O O14 0.213987 0.500000 0.339059
O O15 0.153728 0.728770 0.226161
O O16 0.931283 0.500000 0.244956
O O17 0.940691 0.666991 0.080947
O O18 0.000000 0.147913 0.000000
#
# Coordination Sequence:
#
# PCOD8057251 Si02
#       7
#     4   4   4   4   4   4   4
#     4  10  21  35  47  63  94 134 174 210 244 281
#     4  10  19  30  46  68  95 129 169 209 243 285
#     4   9  20  35  50  72  99 131 168 202 243 293
#     4   9  18  34  58  84 105 124 152 197 251 304
#     4   9  17  29  47  74 105 130 158 199 251 302
#     4  10  19  29  46  70  94 128 175 213 244 289
#     4  10  17  28  47  71 103 134 163 203 249 290
#
# _framework density 17.489784
#
# number of rings (size 3 to 8) (size 9 to 14) (size 15 to 20)
#    0.000    2.429    1.429    1.286    0.000    7.429 
#    0.000    2.857    0.000    0.857    0.000    6.000 
#    0.000    0.000    0.000    0.000    0.000    0.000 
#
# Total GULP energy -346884.881152 kJ/mol
# GULP energy per Si atom -12388.745755 kJ/mol
# Density = 1.744998 g / cm^3
# Si number density = 17.489784 Si / 1000 Ang^3
#
#
#
# Elastic Constant Matrix: (Units=GPa)
#
#
# Indices 1 2 3 4 5 6 
#
# 1 83.7887 37.6177 45.6527 0.0000 0.1415 0.0000
# 2 37.6177 102.1180 42.0824 0.0000 -6.4372 0.0000
# 3 45.6527 42.0824 65.9194 0.0000 -5.2893 0.0000
# 4 0.0000 0.0000 0.0000 14.9356 0.0000 6.9883
# 5 0.1415 -6.4372 -5.2893 0.0000 29.5817 0.0000
# 6 0.0000 0.0000 0.0000 6.9883 0.0000 -4.2162
#
#
#
# Elastic Compliance Matrix: (Units=1/GPa)
#
#
# Indices 1 2 3 4 5 6 
#
# 1 0.019753 -0.002339 -0.012413 0.000000 -0.002823 0.000000
# 2 -0.002339 0.013622 -0.006937 0.000000 0.001735 0.000000
# 3 -0.012413 -0.006937 0.028488 0.000000 0.003643 0.000000
# 4 0.000000 0.000000 0.000000 0.037709 0.000000 0.062503
# 5 -0.002823 0.001735 0.003643 0.000000 0.034847 0.000000
# 6 0.000000 0.000000 0.000000 0.062503 0.000000 -0.133583
#
#
# Mechanical properties :
#
#
# Convention : Reuss Voigt Hill
#
# Bulk Modulus (GPa) = 54.10042 55.83686 54.96864
# Shear Modulus (GPa) = 99.24943 16.49179 57.87061
#
# Velocity S-wave (km/s) = 7.54124 3.07406 5.75848
# Velocity P-wave (km/s) = 10.33570 6.67791 8.70119
#
# Compressibility (1/GPa) = 0.01848414
#
# Stress axis : x y z
#
# Youngs Moduli (GPa) = 50.62470 73.40820 35.10241
#
# Poissons Ratio (x) = 0.17170 0.43574
# Poissons Ratio (y) = 0.11841 0.24352
# Poissons Ratio (z) = 0.62843 0.50926
#
# Static dielectric constant tensor:
#      x y z
#    x 3.373290 0.000000 -0.204320 
#    y 0.000000 3.254770 0.000000 
#    z -0.204320 0.000000 3.104540 
# 
# 
# High freq. dielectric constant tensor:
#      x y z
#    x 1.660730 0.000000 -0.019640 
#    y 0.000000 1.671250 0.000000 
#    z -0.019640 0.000000 1.658500 
# 
# From -- ./inp_files/54989.got.cif
#   From: 2010.06.25/outbox.cif.g09.slc.cpg/sg10_28_cif.got.tgz:54989.got - 2010.06.27 22:07:45.
