data_PCOD8057701
_publ_section_title
;
Structure prediction by ZEFSAII (Michael W. Deem and Ramdas Pophale) SiO2 
 PCOD8057701
Probable space group: P 2/M
;
_chemical_formula_sum "Si O2"
_cell_formula_units_Z 28
_cell_length_a 23.430022
_cell_length_b 7.949631
_cell_length_c 19.318752
_cell_angle_alpha 90.000000
_cell_angle_beta 25.951166
_cell_angle_gamma 90.000000
_cell_volume 1574.638780
_symmetry_space_group_name_H-M "P 2/M"
_symmetry_group_IT_number 10
_symmetry_cell_setting 'monoclinic'
loop_
_space_group_symop_operation_xyz
x,y,z
-x,y,-z
-x,-y,-z
x,-y,z
loop_
_atom_site_type_symbol
_atom_site_label
_atom_site_fract_x
_atom_site_fract_y
_atom_site_fract_z
Si Si1 0.172924 0.000000 0.244054
Si Si2 0.072422 0.194939 0.740112
Si Si3 0.885120 0.313995 0.450839
Si Si4 0.781040 0.805162 0.038385
Si Si5 0.358467 0.300562 0.676259
Si Si6 0.192542 0.685994 0.136113
Si Si7 0.863806 0.000000 0.560528
Si Si8 0.866855 0.300605 0.178500
O O1 0.237013 0.831736 0.140868
O O2 0.206583 0.000000 0.288496
O O3 0.018750 0.000000 0.400253
O O4 0.144342 0.289458 0.598552
O O5 0.150236 0.231894 0.725413
O O6 0.075429 0.000000 0.718257
O O7 0.922434 0.258021 0.911798
O O8 0.834825 0.500000 0.528314
O O9 0.038794 0.299158 0.293654
O O10 0.817234 0.168246 0.570625
O O11 0.672545 0.769651 0.214109
O O12 0.787741 0.000000 0.012471
O O13 0.740849 0.710435 0.011617
O O14 0.500000 0.232711 0.500000
O O15 0.354989 0.500000 0.682827
O O16 0.253590 0.231850 0.735312
O O17 0.230687 0.500000 0.123084
O O18 0.869209 0.500000 0.177922
O O19 0.000000 0.229126 0.000000
#
# Coordination Sequence:
#
# PCOD8057701 Si02
#       8
#     2   4   4   4   4   4   2   4
#     4   9  16  26  38  58  86 117 156 195 233 283
#     4  10  18  28  45  66  90 116 156 206 245 281
#     4   9  16  26  40  59  85 120 156 190 238 289
#     4  10  18  29  46  65  88 118 157 203 244 287
#     4  10  21  35  48  65  93 127 161 201 251 297
#     4   9  16  26  41  60  84 116 156 198 237 279
#     4   9  16  26  38  56  88 120 152 194 235 283
#     4  10  19  31  47  68  91 118 160 207 245 284
#
# _framework density 17.781856999999999
#
# number of rings (size 3 to 8) (size 9 to 14) (size 15 to 20)
#    0.000    2.429    2.857    0.857    0.000    2.857 
#    0.000    2.857    0.000    0.000    0.000    0.000 
#    0.000    0.000    0.000    2.571    0.000   16.571 
#
# Total GULP energy -347133.348065 kJ/mol
# GULP energy per Si atom -12397.619574 kJ/mol
# Density = 1.774138 g / cm^3
# Si number density = 17.781857 Si / 1000 Ang^3
#
#
#
# Elastic Constant Matrix: (Units=GPa)
#
#
# Indices 1 2 3 4 5 6 
#
# 1 79.0287 45.8467 49.7874 0.0000 27.6172 0.0000
# 2 45.8467 105.4892 40.1815 0.0000 23.0463 0.0000
# 3 49.7874 40.1815 65.3291 0.0000 19.0299 0.0000
# 4 0.0000 0.0000 0.0000 15.0117 0.0000 9.8458
# 5 27.6172 23.0463 19.0299 0.0000 34.4778 0.0000
# 6 0.0000 0.0000 0.0000 9.8458 0.0000 19.0520
#
#
#
# Elastic Compliance Matrix: (Units=1/GPa)
#
#
# Indices 1 2 3 4 5 6 
#
# 1 0.029578 -0.003907 -0.016679 0.000000 -0.011874 0.000000
# 2 -0.003907 0.013617 -0.004359 0.000000 -0.003567 0.000000
# 3 -0.016679 -0.004359 0.030932 0.000000 -0.000799 0.000000
# 4 0.000000 0.000000 0.000000 0.100771 0.000000 -0.052077
# 5 -0.011874 -0.003567 -0.000799 0.000000 0.041341 0.000000
# 6 0.000000 0.000000 0.000000 -0.052077 0.000000 0.079400
#
#
# Mechanical properties :
#
#
# Convention : Reuss Voigt Hill
#
# Bulk Modulus (GPa) = 41.25994 57.94203 49.60099
# Shear Modulus (GPa) = 14.13998 21.31041 17.72519
#
# Velocity S-wave (km/s) = 2.82297 3.46560 3.16066
# Velocity P-wave (km/s) = 5.82060 6.97635 6.42452
#
# Compressibility (1/GPa) = 0.02423658
#
# Stress axis : x y z
#
# Youngs Moduli (GPa) = 33.80938 73.43583 32.32917
#
# Poissons Ratio (x) = 0.28694 0.53922
# Poissons Ratio (y) = 0.13211 0.14091
# Poissons Ratio (z) = 0.56390 0.32009
#
# Static dielectric constant tensor:
#      x y z
#    x 3.151680 0.000000 0.279750 
#    y 0.000000 3.409040 0.000000 
#    z 0.279750 0.000000 2.992500 
# 
# 
# High freq. dielectric constant tensor:
#      x y z
#    x 1.657660 0.000000 0.044780 
#    y 0.000000 1.700420 0.000000 
#    z 0.044780 0.000000 1.637580 
# 
# From -- ./inp_files/79862.got.cif
#   From: 2010.06.25/outbox.cif.g09.slc.cpg/sg10_40_cif.got.tgz:79862.got - 2010.06.27 22:07:45.
