data_PCOD8057588
_publ_section_title
;
Structure prediction by ZEFSAII (Michael W. Deem and Ramdas Pophale) SiO2 
 PCOD8057588
Probable space group: P 2/M
;
_chemical_formula_sum "Si O2"
_cell_formula_units_Z 28
_cell_length_a 13.996615
_cell_length_b 8.881407
_cell_length_c 17.641159
_cell_angle_alpha 90.000000
_cell_angle_beta 51.313234
_cell_angle_gamma 90.000000
_cell_volume 1711.774024
_symmetry_space_group_name_H-M "P 2/M"
_symmetry_group_IT_number 10
_symmetry_cell_setting 'monoclinic'
loop_
_space_group_symop_operation_xyz
x,y,z
-x,y,-z
-x,-y,-z
x,-y,z
loop_
_atom_site_type_symbol
_atom_site_label
_atom_site_fract_x
_atom_site_fract_y
_atom_site_fract_z
Si Si1 0.858963 0.669884 0.592097
Si Si2 0.201966 0.825158 0.525659
Si Si3 0.805903 0.822890 0.223133
Si Si4 0.356774 0.325490 0.577213
Si Si5 0.922192 0.174603 0.708230
Si Si6 0.142242 0.666258 0.948538
Si Si7 0.057812 0.321782 0.147953
O O1 0.808325 0.500000 0.622395
O O2 0.783281 0.761304 0.566601
O O3 0.842337 0.751244 0.681030
O O4 0.000000 0.670495 0.500000
O O5 0.294890 0.735691 0.532046
O O6 0.065677 0.798642 0.623922
O O7 0.236587 0.000000 0.508318
O O8 0.688374 0.764617 0.326652
O O9 0.790149 0.780461 0.142018
O O10 0.925070 0.749212 0.200850
O O11 0.817574 0.000000 0.226101
O O12 0.500000 0.298132 0.500000
O O13 0.323183 0.500000 0.603383
O O14 0.882738 0.254009 0.805901
O O15 0.889061 0.000000 0.728440
O O16 0.200180 0.500000 0.909198
O O17 0.150131 0.718492 0.032558
O O18 0.000000 0.659298 0.000000
O O19 0.040611 0.500000 0.163928
#
# Coordination Sequence:
#
# PCOD8057588 Si02
#       7
#     4   4   4   4   4   4   4
#     4   9  17  28  43  62  86 119 153 183 218 268
#     4  10  19  31  46  64  88 117 149 190 233 269
#     4  11  20  30  45  64  87 117 149 189 233 270
#     4  11  23  36  50  66  86 118 159 197 230 270
#     4  10  18  27  42  66  93 120 151 186 225 268
#     4   8  16  29  43  61  85 117 151 183 219 266
#     4  10  18  28  44  64  90 122 154 184 219 268
#
# _framework density 16.357299999999999
#
# number of rings (size 3 to 8) (size 9 to 14) (size 15 to 20)
#    0.000    2.143    1.429    4.286    0.000    7.143 
#    0.000    0.000    0.000    0.000    0.000    0.000 
#    0.000    1.143    0.000   12.000    0.000    5.714 
#
# Total GULP energy -347179.274160 kJ/mol
# GULP energy per Si atom -12399.259791 kJ/mol
# Density = 1.632007 g / cm^3
# Si number density = 16.357300 Si / 1000 Ang^3
#
#
#
# Elastic Constant Matrix: (Units=GPa)
#
#
# Indices 1 2 3 4 5 6 
#
# 1 56.3892 28.8761 46.5908 0.0000 28.4016 0.0000
# 2 28.8761 93.4530 47.0491 0.0000 20.1352 0.0000
# 3 46.5908 47.0491 82.6849 0.0000 35.0055 0.0000
# 4 0.0000 0.0000 0.0000 19.5461 0.0000 9.7362
# 5 28.4016 20.1352 35.0055 0.0000 32.9921 0.0000
# 6 0.0000 0.0000 0.0000 9.7362 0.0000 22.7645
#
#
#
# Elastic Compliance Matrix: (Units=1/GPa)
#
#
# Indices 1 2 3 4 5 6 
#
# 1 0.038585 -0.001309 -0.013204 0.000000 -0.018408 0.000000
# 2 -0.001309 0.015042 -0.008010 0.000000 0.000446 0.000000
# 3 -0.013204 -0.008010 0.031245 0.000000 -0.016897 0.000000
# 4 0.000000 0.000000 0.000000 0.065011 0.000000 -0.027805
# 5 -0.018408 0.000446 -0.016897 0.000000 0.063813 0.000000
# 6 0.000000 0.000000 0.000000 -0.027805 0.000000 0.055820
#
#
# Mechanical properties :
#
#
# Convention : Reuss Voigt Hill
#
# Bulk Modulus (GPa) = 25.10860 53.06211 39.08535
# Shear Modulus (GPa) = 15.25145 22.39464 18.82304
#
# Velocity S-wave (km/s) = 3.05683 3.70414 3.39594
# Velocity P-wave (km/s) = 5.27658 7.12769 6.27082
#
# Compressibility (1/GPa) = 0.03982700
#
# Stress axis : x y z
#
# Youngs Moduli (GPa) = 25.91668 66.48190 32.00462
#
# Poissons Ratio (x) = 0.08702 0.42258
# Poissons Ratio (y) = 0.03392 0.25636
# Poissons Ratio (z) = 0.34220 0.53253
#
# Static dielectric constant tensor:
#      x y z
#    x 2.926230 0.000000 0.499340 
#    y 0.000000 3.237120 0.000000 
#    z 0.499340 0.000000 3.118930 
# 
# 
# High freq. dielectric constant tensor:
#      x y z
#    x 1.595490 0.000000 0.048970 
#    y 0.000000 1.647690 0.000000 
#    z 0.048970 0.000000 1.603690 
# 
# From -- ./inp_files/68615.got.cif
#   From: 2010.06.25/outbox.cif.g09.slc.cpg/sg10_35_cif.got.tgz:68615.got - 2010.06.27 22:07:45.
