data_PCOD8057423
_publ_section_title
;
Structure prediction by ZEFSAII (Michael W. Deem and Ramdas Pophale) SiO2 
 PCOD8057423
Probable space group: P 2/M
;
_chemical_formula_sum "Si O2"
_cell_formula_units_Z 28
_cell_length_a 13.721035
_cell_length_b 14.407833
_cell_length_c 8.783618
_cell_angle_alpha 90.000000
_cell_angle_beta 51.720574
_cell_angle_gamma 90.000000
_cell_volume 1363.100921
_symmetry_space_group_name_H-M "P 2/M"
_symmetry_group_IT_number 10
_symmetry_cell_setting 'monoclinic'
loop_
_space_group_symop_operation_xyz
x,y,z
-x,y,-z
-x,-y,-z
x,-y,z
loop_
_atom_site_type_symbol
_atom_site_label
_atom_site_fract_x
_atom_site_fract_y
_atom_site_fract_z
Si Si1 0.137645 0.604029 0.423564
Si Si2 0.951257 0.102185 0.376511
Si Si3 0.469576 0.675802 0.193286
Si Si4 0.740657 0.211385 0.708560
Si Si5 0.628747 0.250405 0.288092
Si Si6 0.731236 0.398619 0.407140
Si Si7 0.783090 0.890856 0.970212
O O1 0.182464 0.500000 0.332433
O O2 0.218188 0.686113 0.269694
O O3 0.149534 0.615168 0.597043
O O4 0.000000 0.621202 0.500000
O O5 0.836431 0.173991 0.485509
O O6 0.000000 0.095733 0.500000
O O7 0.069542 0.134411 0.160115
O O8 0.905600 0.000000 0.367087
O O9 0.391716 0.772692 0.244885
O O10 0.595783 0.701739 0.159013
O O11 0.390418 0.602590 0.366679
O O12 0.500000 0.631266 0.000000
O O13 0.728905 0.140630 0.859231
O O14 0.500000 0.227562 0.500000
O O15 0.719413 0.319343 0.292269
O O16 0.708607 0.158012 0.179483
O O17 0.736763 0.500000 0.322588
O O18 0.762112 0.000000 0.005428
#
# Coordination Sequence:
#
# PCOD8057423 Si02
#       7
#     4   4   4   4   4   4   4
#     4   9  17  31  56  89 118 144 183 232 284 348
#     4   8  15  28  50  81 109 141 188 244 297 344
#     4  10  19  33  54  85 118 150 199 249 281 338
#     4  10  17  31  55  83 119 150 185 241 300 340
#     4  10  21  37  56  79 120 164 196 241 286 348
#     4   9  20  37  58  84 115 157 193 233 293 350
#     4  10  19  33  56  84 114 151 202 248 292 349
#
# _framework density 20.541399999999999
#
# number of rings (size 3 to 8) (size 9 to 14) (size 15 to 20)
#    0.000    2.571    1.429    2.571    0.000    3.143 
#    0.000    2.857    0.000   24.857    0.000   39.000 
#    0.000    0.000    0.000    0.000    0.000    0.000 
#
# Total GULP energy -346897.459142 kJ/mol
# GULP energy per Si atom -12389.194969 kJ/mol
# Density = 2.049465 g / cm^3
# Si number density = 20.541400 Si / 1000 Ang^3
#
#
#
# Elastic Constant Matrix: (Units=GPa)
#
#
# Indices 1 2 3 4 5 6 
#
# 1 103.1107 39.7549 23.9666 0.0000 2.8982 0.0000
# 2 39.7549 118.8842 44.8570 0.0000 2.5851 0.0000
# 3 23.9666 44.8570 77.7371 0.0000 1.5294 0.0000
# 4 0.0000 0.0000 0.0000 32.0660 0.0000 3.9820
# 5 2.8982 2.5851 1.5294 0.0000 22.1150 0.0000
# 6 0.0000 0.0000 0.0000 3.9820 0.0000 19.0879
#
#
#
# Elastic Compliance Matrix: (Units=1/GPa)
#
#
# Indices 1 2 3 4 5 6 
#
# 1 0.011322 -0.003138 -0.001660 0.000000 -0.001002 0.000000
# 2 -0.003138 0.011638 -0.005737 0.000000 -0.000552 0.000000
# 3 -0.001660 -0.005737 0.016691 0.000000 -0.000266 0.000000
# 4 0.000000 0.000000 0.000000 0.032015 0.000000 -0.006679
# 5 -0.001002 -0.000552 -0.000266 0.000000 0.045432 0.000000
# 6 0.000000 0.000000 0.000000 -0.006679 0.000000 0.053782
#
#
# Mechanical properties :
#
#
# Convention : Reuss Voigt Hill
#
# Bulk Modulus (GPa) = 53.81883 57.43210 55.62547
# Shear Modulus (GPa) = 25.23405 27.39736 26.31571
#
# Velocity S-wave (km/s) = 3.50873 3.65603 3.58314
# Velocity P-wave (km/s) = 6.53238 6.77067 6.65259
#
# Compressibility (1/GPa) = 0.01858086
#
# Stress axis : x y z
#
# Youngs Moduli (GPa) = 88.32183 85.92893 59.91115
#
# Poissons Ratio (x) = 0.26964 0.09947
# Poissons Ratio (y) = 0.27715 0.34371
# Poissons Ratio (z) = 0.14664 0.49297
#
# Static dielectric constant tensor:
#      x y z
#    x 3.814850 0.000000 -0.161350 
#    y 0.000000 3.813890 0.000000 
#    z -0.161350 0.000000 3.664990 
# 
# 
# High freq. dielectric constant tensor:
#      x y z
#    x 1.793560 0.000000 -0.008170 
#    y 0.000000 1.799660 0.000000 
#    z -0.008170 0.000000 1.774350 
# 
# From -- ./inp_files/29419.got.cif
#   From: 2010.06.25/outbox.cif.g09.slc.cpg/sg10_15_cif.got.tgz:29419.got - 2010.06.27 22:07:45.
