data_PCOD8057631
_publ_section_title
;
Structure prediction by ZEFSAII (Michael W. Deem and Ramdas Pophale) SiO2 
 PCOD8057631
Probable space group: P 2/M
;
_chemical_formula_sum "Si O2"
_cell_formula_units_Z 32
_cell_length_a 13.609801
_cell_length_b 8.912483
_cell_length_c 17.058302
_cell_angle_alpha 90.000000
_cell_angle_beta 100.529100
_cell_angle_gamma 90.000000
_cell_volume 2034.283480
_symmetry_space_group_name_H-M "P 2/M"
_symmetry_group_IT_number 10
_symmetry_cell_setting 'monoclinic'
loop_
_space_group_symop_operation_xyz
x,y,z
-x,y,-z
-x,-y,-z
x,-y,z
loop_
_atom_site_type_symbol
_atom_site_label
_atom_site_fract_x
_atom_site_fract_y
_atom_site_fract_z
Si Si1 0.077717 0.669078 0.412829
Si Si2 0.891682 0.828146 0.315166
Si Si3 0.883494 0.169889 0.001213
Si Si4 0.849942 0.321350 0.841612
Si Si5 0.384986 0.678745 0.479345
Si Si6 0.075689 0.676634 0.839465
Si Si7 0.221380 0.173375 0.551160
Si Si8 0.255667 0.666911 0.321759
O O1 0.041855 0.500000 0.427257
O O2 0.132585 0.737505 0.495843
O O3 0.149843 0.664390 0.349218
O O4 0.985221 0.773042 0.378982
O O5 0.876020 0.732147 0.234525
O O6 0.794577 0.811640 0.357384
O O7 0.909180 0.000000 0.293344
O O8 0.861161 0.252997 0.079683
O O9 0.845971 0.000000 0.002377
O O10 0.823859 0.249706 0.921767
O O11 0.000000 0.180931 0.000000
O O12 0.844840 0.500000 0.847759
O O13 0.767510 0.258591 0.766628
O O14 0.960134 0.272432 0.828360
O O15 0.500000 0.724822 0.500000
O O16 0.368262 0.500000 0.482014
O O17 0.328236 0.754724 0.544031
O O18 0.338578 0.744108 0.390413
O O19 0.086740 0.500000 0.845958
O O20 0.218778 0.000000 0.524425
O O21 0.294920 0.500000 0.311236
#
# Coordination Sequence:
#
# PCOD8057631 Si02
#       8
#     4   4   4   4   4   4   4   4
#     4  10  18  30  45  62  85 117 153 187 221 257
#     4  11  21  30  41  60  90 120 150 186 221 261
#     4   9  17  27  38  56  82 113 147 183 221 255
#     4   9  15  26  41  58  82 113 149 184 215 255
#     4   9  18  33  52  70  88 113 147 188 230 270
#     4  10  18  28  42  59  81 116 156 185 216 256
#     4  10  21  33  44  63  88 117 148 182 226 269
#     4   8  14  26  43  64  87 111 143 182 221 259
#
# _framework density 15.730352999999999
#
# number of rings (size 3 to 8) (size 9 to 14) (size 15 to 20)
#    0.000    2.500    1.250    3.000    0.000    5.750 
#    0.000    0.625    0.000    0.000    0.000    0.000 
#    0.000    1.000    0.000   11.500    0.000    2.875 
#
# Total GULP energy -396608.392633 kJ/mol
# GULP energy per Si atom -12394.012270 kJ/mol
# Density = 1.569455 g / cm^3
# Si number density = 15.730353 Si / 1000 Ang^3
#
#
#
# Elastic Constant Matrix: (Units=GPa)
#
#
# Indices 1 2 3 4 5 6 
#
# 1 53.5315 15.9738 44.9562 0.0000 5.8582 0.0000
# 2 15.9738 58.8902 39.4561 0.0000 -0.5375 0.0000
# 3 44.9562 39.4561 120.6968 0.0000 -0.4339 0.0000
# 4 0.0000 0.0000 0.0000 27.3297 0.0000 -2.3726
# 5 5.8582 -0.5375 -0.4339 0.0000 12.4032 0.0000
# 6 0.0000 0.0000 0.0000 -2.3726 0.0000 11.8514
#
#
#
# Elastic Compliance Matrix: (Units=1/GPa)
#
#
# Indices 1 2 3 4 5 6 
#
# 1 0.029570 -0.000945 -0.010757 0.000000 -0.014384 0.000000
# 2 -0.000945 0.021779 -0.006764 0.000000 0.001154 0.000000
# 3 -0.010757 -0.006764 0.014522 0.000000 0.005296 0.000000
# 4 0.000000 0.000000 0.000000 0.037237 0.000000 0.007455
# 5 -0.014384 0.001154 0.005296 0.000000 0.087653 0.000000
# 6 0.000000 0.000000 0.000000 0.007455 0.000000 0.085871
#
#
# Mechanical properties :
#
#
# Convention : Reuss Voigt Hill
#
# Bulk Modulus (GPa) = 34.55367 48.21009 41.38188
# Shear Modulus (GPa) = 15.46980 19.16570 17.31775
#
# Velocity S-wave (km/s) = 3.13938 3.49433 3.32160
# Velocity P-wave (km/s) = 5.92915 6.85528 6.40897
#
# Compressibility (1/GPa) = 0.02894048
#
# Stress axis : x y z
#
# Youngs Moduli (GPa) = 33.81752 45.91549 68.86131
#
# Poissons Ratio (x) = 0.04339 0.74074
# Poissons Ratio (y) = 0.03196 0.46574
# Poissons Ratio (z) = 0.36377 0.31055
#
# Static dielectric constant tensor:
#      x y z
#    x 2.623710 0.000000 0.027310 
#    y 0.000000 2.995850 0.000000 
#    z 0.027310 0.000000 3.220300 
# 
# 
# High freq. dielectric constant tensor:
#      x y z
#    x 1.540340 0.000000 0.001290 
#    y 0.000000 1.604890 0.000000 
#    z 0.001290 0.000000 1.613140 
# 
# From -- ./inp_files/55242.got.cif
#   From: 2010.06.25/outbox.cif.g09.slc.cpg/sg10_28_cif.got.tgz:55242.got - 2010.06.27 22:07:45.
