data_PCOD8057655
_publ_section_title
;
Structure prediction by ZEFSAII (Michael W. Deem and Ramdas Pophale) SiO2 
 PCOD8057655
Probable space group: P 2/M
;
_chemical_formula_sum "Si O2"
_cell_formula_units_Z 32
_cell_length_a 16.779529
_cell_length_b 8.803442
_cell_length_c 23.822518
_cell_angle_alpha 90.000000
_cell_angle_beta 145.630182
_cell_angle_gamma 90.000000
_cell_volume 1986.592144
_symmetry_space_group_name_H-M "P 2/M"
_symmetry_group_IT_number 10
_symmetry_cell_setting 'monoclinic'
loop_
_space_group_symop_operation_xyz
x,y,z
-x,y,-z
-x,-y,-z
x,-y,z
loop_
_atom_site_type_symbol
_atom_site_label
_atom_site_fract_x
_atom_site_fract_y
_atom_site_fract_z
Si Si1 0.181180 0.823453 0.341574
Si Si2 0.006081 0.174353 0.410803
Si Si3 0.610494 0.670828 0.614392
Si Si4 0.369370 0.678506 0.886143
Si Si5 0.280590 0.679212 0.608059
Si Si6 0.398086 0.822661 0.566610
Si Si7 0.062214 0.677083 0.742047
Si Si8 0.691365 0.826383 0.264220
O O1 0.243189 0.741195 0.322615
O O2 0.273564 0.784572 0.450354
O O3 0.020838 0.765980 0.257288
O O4 0.181504 0.000000 0.328735
O O5 0.008515 0.279935 0.357821
O O6 0.859913 0.189197 0.358260
O O7 0.130824 0.234090 0.522602
O O8 0.035503 0.000000 0.409935
O O9 0.500000 0.674099 0.500000
O O10 0.637655 0.500000 0.651396
O O11 0.548839 0.770530 0.629530
O O12 0.369559 0.500000 0.873936
O O13 0.226754 0.725450 0.836439
O O14 0.382461 0.763004 0.834556
O O15 0.500000 0.730226 0.000000
O O16 0.257800 0.500000 0.594063
O O17 0.372811 0.729358 0.608568
O O18 0.359372 0.729773 0.711300
O O19 0.403634 0.000000 0.583853
O O20 0.043059 0.500000 0.741889
O O21 0.644544 0.000000 0.244692
#
# Coordination Sequence:
#
# PCOD8057655 Si02
#       8
#     4   4   4   4   4   4   4   4
#     4  10  18  28  43  62  89 122 156 193 230 269
#     4  10  19  31  44  61  88 121 153 190 230 268
#     4   9  17  28  42  60  85 117 157 196 227 265
#     4   9  19  36  54  71  93 119 149 190 239 284
#     4  12  22  30  44  64  90 122 158 193 226 268
#     4  10  19  30  43  60  88 124 159 191 229 269
#     4  10  18  28  46  69  91 119 155 192 230 274
#     4  10  21  34  48  66  89 117 153 191 231 276
#
# _framework density 16.107987000000001
#
# number of rings (size 3 to 8) (size 9 to 14) (size 15 to 20)
#    0.000    2.000    1.250    3.750    0.000    6.250 
#    0.000    0.000    0.000    0.000    0.000    0.000 
#    0.000    1.000    0.000   10.750    0.000    4.750 
#
# Total GULP energy -396824.450289 kJ/mol
# GULP energy per Si atom -12400.764072 kJ/mol
# Density = 1.607132 g / cm^3
# Si number density = 16.107987 Si / 1000 Ang^3
#
#
#
# Elastic Constant Matrix: (Units=GPa)
#
#
# Indices 1 2 3 4 5 6 
#
# 1 89.6738 37.5296 38.5565 0.0000 -0.4361 0.0000
# 2 37.5296 65.8639 23.3010 0.0000 0.0997 0.0000
# 3 38.5565 23.3010 61.8186 0.0000 -0.9440 0.0000
# 4 0.0000 0.0000 0.0000 15.5221 0.0000 -0.2384
# 5 -0.4361 0.0997 -0.9440 0.0000 12.4886 0.0000
# 6 0.0000 0.0000 0.0000 -0.2384 0.0000 31.3848
#
#
#
# Elastic Compliance Matrix: (Units=1/GPa)
#
#
# Indices 1 2 3 4 5 6 
#
# 1 0.017743 -0.007148 -0.008371 0.000000 0.000044 0.000000
# 2 -0.007148 0.020404 -0.003242 0.000000 -0.000658 0.000000
# 3 -0.008371 -0.003242 0.022642 0.000000 0.001445 0.000000
# 4 0.000000 0.000000 0.000000 0.064432 0.000000 0.000489
# 5 0.000044 -0.000658 0.001445 0.000000 0.080189 0.000000
# 6 0.000000 0.000000 0.000000 0.000489 0.000000 0.031866
#
#
# Mechanical properties :
#
#
# Convention : Reuss Voigt Hill
#
# Bulk Modulus (GPa) = 42.98370 46.23674 44.61022
# Shear Modulus (GPa) = 17.69571 19.74371 18.71971
#
# Velocity S-wave (km/s) = 3.31806 3.50481 3.41271
# Velocity P-wave (km/s) = 6.43599 6.71899 6.57901
#
# Compressibility (1/GPa) = 0.02326463
#
# Stress axis : x y z
#
# Youngs Moduli (GPa) = 56.36107 49.00970 44.16648
#
# Poissons Ratio (x) = 0.35035 0.36972
# Poissons Ratio (y) = 0.40290 0.14320
# Poissons Ratio (z) = 0.47180 0.15891
#
# Static dielectric constant tensor:
#      x y z
#    x 3.170720 0.000000 0.076060 
#    y 0.000000 3.149300 0.000000 
#    z 0.076060 0.000000 2.648030 
# 
# 
# High freq. dielectric constant tensor:
#      x y z
#    x 1.624170 0.000000 0.001530 
#    y 0.000000 1.636520 0.000000 
#    z 0.001530 0.000000 1.555660 
# 
# From -- ./inp_files/49889.got.cif
#   From: 2010.06.25/outbox.cif.g09.slc.cpg/sg10_25_cif.got.tgz:49889.got - 2010.06.27 22:07:45.
