data_PCOD8057569
_publ_section_title
;
Structure prediction by ZEFSAII (Michael W. Deem and Ramdas Pophale) SiO2 
 PCOD8057569
Probable space group: P 2/M
;
_chemical_formula_sum "Si O2"
_cell_formula_units_Z 32
_cell_length_a 23.449646
_cell_length_b 15.928528
_cell_length_c 23.072692
_cell_angle_alpha 90.000000
_cell_angle_beta 167.466658
_cell_angle_gamma 90.000000
_cell_volume 1870.188442
_symmetry_space_group_name_H-M "P 2/M"
_symmetry_group_IT_number 10
_symmetry_cell_setting 'monoclinic'
loop_
_space_group_symop_operation_xyz
x,y,z
-x,y,-z
-x,-y,-z
x,-y,z
loop_
_atom_site_type_symbol
_atom_site_label
_atom_site_fract_x
_atom_site_fract_y
_atom_site_fract_z
Si Si1 0.591381 0.095403 0.463580
Si Si2 0.095414 0.845893 0.031971
Si Si3 0.101303 0.701999 0.351826
Si Si4 0.693442 0.674534 0.795424
Si Si5 0.603181 0.777390 0.818950
Si Si6 0.815114 0.595940 0.681645
Si Si7 0.047346 0.400672 0.412038
Si Si8 0.467743 0.400546 0.032331
O O1 0.848005 0.146205 0.741870
O O2 0.484917 0.135026 0.297875
O O3 0.679232 0.000000 0.539822
O O4 0.343827 0.096318 0.261802
O O5 0.000000 0.875675 0.000000
O O6 0.207859 0.750989 0.146989
O O7 0.375251 0.748837 0.637175
O O8 0.145058 0.647553 0.337654
O O9 0.017959 0.640879 0.320476
O O10 0.882767 0.776645 0.129297
O O11 0.645851 0.708006 0.812457
O O12 0.412406 0.633164 0.501184
O O13 0.915676 0.602695 0.014887
O O14 0.750765 0.500000 0.602287
O O15 0.049941 0.500000 0.404641
O O16 0.808634 0.372172 0.215877
O O17 0.306297 0.367039 0.700964
O O18 0.490443 0.500000 0.050625
O O19 0.500000 0.361688 0.000000
#
# Coordination Sequence:
#
# PCOD8057569 Si02
#       8
#     4   4   4   4   4   4   4   4
#     4  11  22  36  54  76  98 119 149 181 214 271
#     4  11  22  36  54  73  95 122 148 182 228 270
#     4  10  18  29  45  66  92 118 150 189 234 274
#     4   9  18  32  47  64  88 119 149 176 219 281
#     4   9  18  32  47  64  90 121 146 172 218 283
#     4  10  18  29  47  67  88 114 149 193 233 268
#     4  10  18  27  41  63  89 117 159 207 237 259
#     4   9  17  28  40  55  82 123 165 201 236 272
#
# _framework density 17.110576999999999
#
# number of rings (size 3 to 8) (size 9 to 14) (size 15 to 20)
#    0.000    2.125    0.000    6.375    0.000    3.000 
#    0.000    3.750    0.000    2.250    0.000    0.000 
#    0.000    0.000    0.000    0.000    0.000   43.750 
#
# Total GULP energy -396525.136391 kJ/mol
# GULP energy per Si atom -12391.410512 kJ/mol
# Density = 1.707163 g / cm^3
# Si number density = 17.110577 Si / 1000 Ang^3
#
#
#
# Elastic Constant Matrix: (Units=GPa)
#
#
# Indices 1 2 3 4 5 6 
#
# 1 50.7385 22.9544 17.0087 0.0000 9.4414 0.0000
# 2 22.9544 67.6140 27.4164 0.0000 3.8904 0.0000
# 3 17.0087 27.4164 86.1928 0.0000 2.8272 0.0000
# 4 0.0000 0.0000 0.0000 20.2548 0.0000 2.2901
# 5 9.4414 3.8904 2.8272 0.0000 20.9027 0.0000
# 6 0.0000 0.0000 0.0000 2.2901 0.0000 9.2672
#
#
#
# Elastic Compliance Matrix: (Units=1/GPa)
#
#
# Indices 1 2 3 4 5 6 
#
# 1 0.025599 -0.007123 -0.002461 0.000000 -0.009904 0.000000
# 2 -0.007123 0.019087 -0.004675 0.000000 0.000297 0.000000
# 3 -0.002461 -0.004675 0.013570 0.000000 0.000146 0.000000
# 4 0.000000 0.000000 0.000000 0.050790 0.000000 -0.012551
# 5 -0.009904 0.000297 0.000146 0.000000 0.052239 0.000000
# 6 0.000000 0.000000 0.000000 -0.012551 0.000000 0.111009
#
#
# Mechanical properties :
#
#
# Convention : Reuss Voigt Hill
#
# Bulk Modulus (GPa) = 33.62784 37.70046 35.66415
# Shear Modulus (GPa) = 16.09141 19.22933 17.66037
#
# Velocity S-wave (km/s) = 3.06998 3.35599 3.21617
# Velocity P-wave (km/s) = 5.67999 6.09083 5.88899
#
# Compressibility (1/GPa) = 0.02973726
#
# Stress axis : x y z
#
# Youngs Moduli (GPa) = 39.06356 52.39260 73.69269
#
# Poissons Ratio (x) = 0.37319 0.18136
# Poissons Ratio (y) = 0.27825 0.34453
# Poissons Ratio (z) = 0.09614 0.24495
#
# Static dielectric constant tensor:
#      x y z
#    x 2.955720 0.000000 0.173830 
#    y 0.000000 2.827260 0.000000 
#    z 0.173830 0.000000 3.765010 
# 
# 
# High freq. dielectric constant tensor:
#      x y z
#    x 1.623520 0.000000 0.018370 
#    y 0.000000 1.616440 0.000000 
#    z 0.018370 0.000000 1.691660 
# 
# From -- ./inp_files/91158.got.cif
#   From: 2010.06.25/outbox.cif.g09.slc.cpg/sg10_46_cif.got.tgz:91158.got - 2010.06.27 22:07:45.
