data_PCOD8057069
_publ_section_title
;
Structure prediction by ZEFSAII (Michael W. Deem and Ramdas Pophale) SiO2 
 PCOD8057069
Probable space group: P 2/M
;
_chemical_formula_sum "Si O2"
_cell_formula_units_Z 32
_cell_length_a 33.748725
_cell_length_b 9.103566
_cell_length_c 24.231388
_cell_angle_alpha 90.000000
_cell_angle_beta 163.893275
_cell_angle_gamma 90.000000
_cell_volume 2065.363949
_symmetry_space_group_name_H-M "P 2/M"
_symmetry_group_IT_number 10
_symmetry_cell_setting 'monoclinic'
loop_
_space_group_symop_operation_xyz
x,y,z
-x,y,-z
-x,-y,-z
x,-y,z
loop_
_atom_site_type_symbol
_atom_site_label
_atom_site_fract_x
_atom_site_fract_y
_atom_site_fract_z
Si Si1 0.160310 0.326444 0.654799
Si Si2 0.573088 0.173812 0.837233
Si Si3 0.444901 0.327528 0.983513
Si Si4 0.855445 0.165048 0.694339
Si Si5 0.088999 0.335301 0.062883
Si Si6 0.845140 0.326755 0.226946
Si Si7 0.393342 0.327330 0.690041
Si Si8 0.318165 0.162556 0.424947
O O1 0.175487 0.500000 0.678251
O O2 0.289785 0.258861 0.791922
O O3 0.171990 0.270595 0.733172
O O4 0.005905 0.285811 0.422091
O O5 0.509157 0.254697 0.804949
O O6 0.478836 0.210794 0.656532
O O7 0.573225 0.000000 0.848537
O O8 0.731832 0.236085 0.038572
O O9 0.424506 0.500000 0.947836
O O10 0.500000 0.255683 0.000000
O O11 0.560066 0.295052 0.185082
O O12 0.763603 0.257675 0.527442
O O13 0.771937 0.162042 0.639738
O O14 0.879099 0.000000 0.703677
O O15 0.009276 0.240834 0.909274
O O16 0.105930 0.500000 0.063334
O O17 0.247617 0.271480 0.286107
O O18 0.000000 0.331448 0.000000
O O19 0.815887 0.500000 0.181762
O O20 0.386954 0.500000 0.668320
O O21 0.317202 0.000000 0.397474
#
# Coordination Sequence:
#
# PCOD8057069 Si02
#       8
#     4   4   4   4   4   4   4   4
#     4   8  14  25  40  59  78  99 128 164 204 242
#     4  10  18  26  37  55  79 104 131 163 199 236
#     4   9  16  26  42  62  80 100 130 169 208 242
#     4   9  16  25  36  49  70  99 128 161 197 232
#     4   9  15  22  33  50  69  93 128 163 190 224
#     4   9  15  25  42  58  76 101 131 165 200 236
#     4  10  17  26  40  56  74  98 132 169 200 236
#     4   8  15  24  32  45  69 100 127 154 190 230
#
# _framework density 15.493637
#
# number of rings (size 3 to 8) (size 9 to 14) (size 15 to 20)
#    0.000    3.000    1.250    3.000    0.000    5.000 
#    0.000    1.250    0.000    1.500    0.000    0.000 
#    0.000    0.000    0.000    1.125    0.000   24.375 
#
# Total GULP energy -396572.552696 kJ/mol
# GULP energy per Si atom -12392.892272 kJ/mol
# Density = 1.545837 g / cm^3
# Si number density = 15.493637 Si / 1000 Ang^3
#
#
#
# Elastic Constant Matrix: (Units=GPa)
#
#
# Indices 1 2 3 4 5 6 
#
# 1 42.3590 16.0418 34.8688 0.0000 4.3568 0.0000
# 2 16.0418 84.8255 62.2034 0.0000 -6.3573 0.0000
# 3 34.8688 62.2034 152.8374 0.0000 -4.4200 0.0000
# 4 0.0000 0.0000 0.0000 23.5830 0.0000 -0.8659
# 5 4.3568 -6.3573 -4.4200 0.0000 11.7903 0.0000
# 6 0.0000 0.0000 0.0000 -0.8659 0.0000 4.3373
#
#
#
# Elastic Compliance Matrix: (Units=1/GPa)
#
#
# Indices 1 2 3 4 5 6 
#
# 1 0.031580 -0.002160 -0.006770 0.000000 -0.015372 0.000000
# 2 -0.002160 0.017470 -0.006391 0.000000 0.007822 0.000000
# 3 -0.006770 -0.006391 0.010778 0.000000 0.003096 0.000000
# 4 0.000000 0.000000 0.000000 0.042717 0.000000 0.008528
# 5 -0.015372 0.007822 0.003096 0.000000 0.095874 0.000000
# 6 0.000000 0.000000 0.000000 0.008528 0.000000 0.232262
#
#
# Mechanical properties :
#
#
# Convention : Reuss Voigt Hill
#
# Bulk Modulus (GPa) = 34.26305 56.24999 45.25652
# Shear Modulus (GPa) = 10.61453 19.06930 14.84192
#
# Velocity S-wave (km/s) = 2.62026 3.51206 3.09841
# Velocity P-wave (km/s) = 5.59613 7.26843 6.48640
#
# Compressibility (1/GPa) = 0.02918596
#
# Stress axis : x y z
#
# Youngs Moduli (GPa) = 31.66576 57.23968 92.77903
#
# Poissons Ratio (x) = 0.12361 0.62815
# Poissons Ratio (y) = 0.06838 0.59299
# Poissons Ratio (z) = 0.21439 0.36584
#
# Static dielectric constant tensor:
#      x y z
#    x 2.543660 0.000000 0.021490 
#    y 0.000000 2.897300 0.000000 
#    z 0.021490 0.000000 3.344290 
# 
# 
# High freq. dielectric constant tensor:
#      x y z
#    x 1.510550 0.000000 -0.008980 
#    y 0.000000 1.583980 0.000000 
#    z -0.008980 0.000000 1.614670 
# 
# From -- ./inp_files/87204.got.cif
#   From: 2010.06.25/outbox.cif.g09.slc.cpg/sg10_44_cif.got.tgz:87204.got - 2010.06.27 22:07:45.
