data_PCOD8057599
_publ_section_title
;
Structure prediction by ZEFSAII (Michael W. Deem and Ramdas Pophale) SiO2 
 PCOD8057599
Probable space group: P 2/M
;
_chemical_formula_sum "Si O2"
_cell_formula_units_Z 28
_cell_length_a 21.343972
_cell_length_b 9.549327
_cell_length_c 11.054739
_cell_angle_alpha 90.000000
_cell_angle_beta 130.949923
_cell_angle_gamma 90.000000
_cell_volume 1701.790263
_symmetry_space_group_name_H-M "P 2/M"
_symmetry_group_IT_number 10
_symmetry_cell_setting 'monoclinic'
loop_
_space_group_symop_operation_xyz
x,y,z
-x,y,-z
-x,-y,-z
x,-y,z
loop_
_atom_site_type_symbol
_atom_site_label
_atom_site_fract_x
_atom_site_fract_y
_atom_site_fract_z
Si Si1 0.396491 0.843354 0.493609
Si Si2 0.127834 0.160133 0.727573
Si Si3 0.923175 0.665022 0.821953
Si Si4 0.247291 0.338341 0.271038
Si Si5 0.422141 0.157823 0.241125
Si Si6 0.043582 0.159573 0.368288
Si Si7 0.729864 0.664062 0.980514
O O1 0.320887 0.742463 0.434084
O O2 0.482695 0.797013 0.667516
O O3 0.409556 0.838130 0.367734
O O4 0.373105 0.000000 0.505271
O O5 0.104265 0.179168 0.558296
O O6 0.049870 0.199655 0.712915
O O7 0.155342 0.000000 0.787829
O O8 0.201689 0.266320 0.848048
O O9 0.927291 0.500000 0.804967
O O10 0.840014 0.710856 0.785658
O O11 0.924866 0.738454 0.695235
O O12 0.000000 0.716515 0.000000
O O13 0.264134 0.500000 0.316783
O O14 0.245633 0.305039 0.126749
O O15 0.358929 0.266516 0.099121
O O16 0.405395 0.000000 0.172093
O O17 0.046688 0.000000 0.326019
O O18 0.724741 0.500000 0.002232
#
# Coordination Sequence:
#
# PCOD8057599 Si02
#       7
#     4   4   4   4   4   4   4
#     4   8  14  25  41  60  84 117 153 183 215 262
#     4   9  18  33  49  65  89 116 144 186 232 264
#     4  10  20  33  47  65  93 124 150 181 221 261
#     4   9  18  29  41  62  93 124 150 181 221 260
#     4   8  14  25  40  60  88 118 146 181 224 261
#     4   9  19  34  50  67  86 114 152 188 223 263
#     4  10  18  27  43  68  93 119 152 182 214 264
#
# _framework density 16.453261999999999
#
# number of rings (size 3 to 8) (size 9 to 14) (size 15 to 20)
#    0.000    3.000    0.000    3.000    0.000    4.286 
#    0.000    4.286    0.000    0.000    0.000    1.000 
#    0.000    8.000    0.000    0.000    0.000    0.000 
#
# Total GULP energy -347123.896571 kJ/mol
# GULP energy per Si atom -12397.282020 kJ/mol
# Density = 1.641581 g / cm^3
# Si number density = 16.453262 Si / 1000 Ang^3
#
#
#
# Elastic Constant Matrix: (Units=GPa)
#
#
# Indices 1 2 3 4 5 6 
#
# 1 76.6547 44.3883 46.9378 0.0000 22.4698 0.0000
# 2 44.3883 82.2672 60.6336 0.0000 21.8636 0.0000
# 3 46.9378 60.6336 92.1455 0.0000 31.5849 0.0000
# 4 0.0000 0.0000 0.0000 30.2360 0.0000 4.9701
# 5 22.4698 21.8636 31.5849 0.0000 31.1807 0.0000
# 6 0.0000 0.0000 0.0000 4.9701 0.0000 27.1744
#
#
#
# Elastic Compliance Matrix: (Units=1/GPa)
#
#
# Indices 1 2 3 4 5 6 
#
# 1 0.021436 -0.006669 -0.004349 0.000000 -0.006366 0.000000
# 2 -0.006669 0.025709 -0.013769 0.000000 0.000727 0.000000
# 3 -0.004349 -0.013769 0.027182 0.000000 -0.014746 0.000000
# 4 0.000000 0.000000 0.000000 0.034098 0.000000 -0.006237
# 5 -0.006366 0.000727 -0.014746 0.000000 0.051087 0.000000
# 6 0.000000 0.000000 0.000000 -0.006237 0.000000 0.037940
#
#
# Mechanical properties :
#
#
# Convention : Reuss Voigt Hill
#
# Bulk Modulus (GPa) = 40.39725 61.66518 51.03121
# Shear Modulus (GPa) = 19.58649 24.32541 21.95595
#
# Velocity S-wave (km/s) = 3.45401 3.84924 3.65697
# Velocity P-wave (km/s) = 6.36498 7.57073 6.99388
#
# Compressibility (1/GPa) = 0.02475416
#
# Stress axis : x y z
#
# Youngs Moduli (GPa) = 46.64948 38.89705 36.78846
#
# Poissons Ratio (x) = 0.25941 0.15999
# Poissons Ratio (y) = 0.31111 0.50653
# Poissons Ratio (z) = 0.20287 0.53557
#
# Static dielectric constant tensor:
#      x y z
#    x 2.984070 0.000000 0.356930 
#    y 0.000000 3.125910 0.000000 
#    z 0.356930 0.000000 3.064080 
# 
# 
# High freq. dielectric constant tensor:
#      x y z
#    x 1.606560 0.000000 0.029830 
#    y 0.000000 1.635420 0.000000 
#    z 0.029830 0.000000 1.622660 
# 
# From -- ./inp_files/54978.got.cif
#   From: 2010.06.25/outbox.cif.g09.slc.cpg/sg10_28_cif.got.tgz:54978.got - 2010.06.27 22:07:45.
