data_PCOD8057874
_publ_section_title
;
Structure prediction by ZEFSAII (Michael W. Deem and Ramdas Pophale) SiO2 
 PCOD8057874
Probable space group: P 2/M
;
_chemical_formula_sum "Si O2"
_cell_formula_units_Z 32
_cell_length_a 16.453494
_cell_length_b 23.035259
_cell_length_c 15.868026
_cell_angle_alpha 90.000000
_cell_angle_beta 18.031362
_cell_angle_gamma 90.000000
_cell_volume 1861.604629
_symmetry_space_group_name_H-M "P 2/M"
_symmetry_group_IT_number 10
_symmetry_cell_setting 'monoclinic'
loop_
_space_group_symop_operation_xyz
x,y,z
-x,y,-z
-x,-y,-z
x,-y,z
loop_
_atom_site_type_symbol
_atom_site_label
_atom_site_fract_x
_atom_site_fract_y
_atom_site_fract_z
Si Si1 0.346245 0.654885 0.456995
Si Si2 0.836519 0.689047 0.883506
Si Si3 0.234959 0.433691 0.710299
Si Si4 0.910068 0.127201 0.747295
Si Si5 0.108897 0.192733 0.069458
Si Si6 0.576358 0.066723 0.829682
Si Si7 0.762752 0.242854 0.794629
Si Si8 0.596666 0.226301 0.498399
O O1 0.267277 0.600732 0.592051
O O2 0.374653 0.711674 0.486137
O O3 0.121247 0.659192 0.607181
O O4 0.620170 0.645999 0.137702
O O5 0.748707 0.704677 0.875480
O O6 0.865751 0.747066 0.907896
O O7 0.500000 0.427908 0.500000
O O8 0.170060 0.500000 0.750187
O O9 0.000000 0.407950 0.000000
O O10 0.804263 0.182185 0.800535
O O11 0.180067 0.105818 0.439646
O O12 0.957290 0.142191 0.798559
O O13 0.683125 0.078498 0.969750
O O14 0.386568 0.183257 0.749651
O O15 0.877268 0.194228 0.228096
O O16 0.661220 0.000000 0.736997
O O17 0.500000 0.082933 0.000000
O O18 0.000000 0.257460 0.500000
O O19 0.500000 0.239642 0.000000
O O20 0.500000 0.238229 0.500000
#
# Coordination Sequence:
#
# PCOD8057874 Si02
#       8
#     4   4   4   4   4   4   4   4
#     4  10  18  31  47  65  95 131 158 187 236 278
#     4   9  19  31  45  67  94 123 157 195 229 276
#     4  10  20  32  47  70  98 128 166 204 231 268
#     4  11  20  34  50  67  96 130 157 185 233 277
#     4   9  19  31  45  67  94 123 154 191 226 274
#     4  11  22  34  49  71  97 124 159 196 224 263
#     4  11  20  31  49  71  96 126 160 191 229 282
#     4  10  18  29  46  69  96 124 155 188 228 279
#
# _framework density 17.189471999999999
#
# number of rings (size 3 to 8) (size 9 to 14) (size 15 to 20)
#    0.000    1.875    0.000    5.625    0.000    7.000 
#    0.000    0.000    0.000    0.000    0.000    0.000 
#    0.000   45.000    0.000    0.000    0.000    0.000 
#
# Total GULP energy -396741.203835 kJ/mol
# GULP energy per Si atom -12398.162620 kJ/mol
# Density = 1.715035 g / cm^3
# Si number density = 17.189472 Si / 1000 Ang^3
#
#
#
# Elastic Constant Matrix: (Units=GPa)
#
#
# Indices 1 2 3 4 5 6 
#
# 1 86.1766 26.6582 41.6844 0.0000 -8.5598 0.0000
# 2 26.6582 47.0374 27.9797 0.0000 4.3663 0.0000
# 3 41.6844 27.9797 127.5553 0.0000 -7.7433 0.0000
# 4 0.0000 0.0000 0.0000 26.3047 0.0000 2.0658
# 5 -8.5598 4.3663 -7.7433 0.0000 28.9867 0.0000
# 6 0.0000 0.0000 0.0000 2.0658 0.0000 27.6452
#
#
#
# Elastic Compliance Matrix: (Units=1/GPa)
#
#
# Indices 1 2 3 4 5 6 
#
# 1 0.016036 -0.007610 -0.003267 0.000000 0.005009 0.000000
# 2 -0.007610 0.028857 -0.004313 0.000000 -0.007746 0.000000
# 3 -0.003267 -0.004313 0.009997 0.000000 0.002355 0.000000
# 4 0.000000 0.000000 0.000000 0.038240 0.000000 -0.002858
# 5 0.005009 -0.007746 0.002355 0.000000 0.037774 0.000000
# 6 0.000000 0.000000 0.000000 -0.002858 0.000000 0.036386
#
#
# Mechanical properties :
#
#
# Convention : Reuss Voigt Hill
#
# Bulk Modulus (GPa) = 40.80105 50.37933 45.59019
# Shear Modulus (GPa) = 24.29063 27.55046 25.92054
#
# Velocity S-wave (km/s) = 3.76321 4.00778 3.88742
# Velocity P-wave (km/s) = 6.53223 7.12659 6.83587
#
# Compressibility (1/GPa) = 0.02450918
#
# Stress axis : x y z
#
# Youngs Moduli (GPa) = 62.35950 34.65327 100.03445
#
# Poissons Ratio (x) = 0.26371 0.32683
# Poissons Ratio (y) = 0.47455 0.43148
# Poissons Ratio (z) = 0.20374 0.14947
#
# Static dielectric constant tensor:
#      x y z
#    x 3.210840 0.000000 -0.072560 
#    y 0.000000 2.953800 0.000000 
#    z -0.072560 0.000000 3.531170 
# 
# 
# High freq. dielectric constant tensor:
#      x y z
#    x 1.655670 0.000000 -0.010780 
#    y 0.000000 1.618710 0.000000 
#    z -0.010780 0.000000 1.688860 
# 
# From -- ./inp_files/67948.got.cif
#   From: 2010.06.25/outbox.cif.g09.slc.cpg/sg10_34_cif.got.tgz:67948.got - 2010.06.27 22:07:45.
