data_PCOD8057120
_publ_section_title
;
Structure prediction by ZEFSAII (Michael W. Deem and Ramdas Pophale) SiO2 
 PCOD8057120
Probable space group: P 2/M
;
_chemical_formula_sum "Si O2"
_cell_formula_units_Z 28
_cell_length_a 11.553750
_cell_length_b 13.258631
_cell_length_c 12.211234
_cell_angle_alpha 90.000000
_cell_angle_beta 71.091569
_cell_angle_gamma 90.000000
_cell_volume 1769.659207
_symmetry_space_group_name_H-M "P 2/M"
_symmetry_group_IT_number 10
_symmetry_cell_setting 'monoclinic'
loop_
_space_group_symop_operation_xyz
x,y,z
-x,y,-z
-x,-y,-z
x,-y,z
loop_
_atom_site_type_symbol
_atom_site_label
_atom_site_fract_x
_atom_site_fract_y
_atom_site_fract_z
Si Si1 0.848191 0.118463 0.245517
Si Si2 0.895661 0.613103 0.940614
Si Si3 0.720955 0.117307 0.683292
Si Si4 0.900070 0.203720 0.797318
Si Si5 0.474990 0.115906 0.887403
Si Si6 0.774197 0.207453 0.051871
Si Si7 0.638301 0.880284 0.471777
O O1 0.859753 0.172832 0.125112
O O2 0.728602 0.157725 0.348101
O O3 0.973961 0.146017 0.268469
O O4 0.837436 0.000000 0.232078
O O5 0.859531 0.500000 0.915965
O O6 0.929090 0.678462 0.820430
O O7 0.781862 0.670913 0.033865
O O8 0.000000 0.611428 0.000000
O O9 0.818512 0.189850 0.713177
O O10 0.589404 0.133679 0.776458
O O11 0.703757 0.153904 0.564176
O O12 0.762032 0.000000 0.679885
O O13 0.825515 0.154778 0.923869
O O14 0.362424 0.177995 0.873665
O O15 0.434432 0.000000 0.904104
O O16 0.500000 0.158433 0.000000
O O17 0.500000 0.835533 0.500000
O O18 0.627969 0.000000 0.474912
#
# Coordination Sequence:
#
# PCOD8057120 Si02
#       7
#     4   4   4   4   4   4   4
#     4  11  20  29  44  68 100 133 160 194 235 277
#     4   9  17  33  50  68  98 127 154 195 250 301
#     4  10  19  31  47  68 100 138 168 194 229 275
#     4  10  19  31  45  73  99 121 157 203 241 292
#     4  10  17  26  43  67  96 130 159 189 228 277
#     4  10  18  30  45  72  98 121 158 199 237 289
#     4   9  19  34  47  63  92 135 177 199 218 266
#
# _framework density 15.822255
#
# number of rings (size 3 to 8) (size 9 to 14) (size 15 to 20)
#    0.857    1.286    2.857    2.143    0.000    5.143 
#    0.000    2.143    0.000    3.857    0.000    3.000 
#    0.000    4.000    0.000    0.000    0.000    0.000 
#
# Total GULP energy -346926.695951 kJ/mol
# GULP energy per Si atom -12390.239141 kJ/mol
# Density = 1.578624 g / cm^3
# Si number density = 15.822255 Si / 1000 Ang^3
#
#
#
# Elastic Constant Matrix: (Units=GPa)
#
#
# Indices 1 2 3 4 5 6 
#
# 1 92.2904 26.9554 28.7680 0.0000 6.1728 0.0000
# 2 26.9554 63.1408 20.7686 0.0000 1.4325 0.0000
# 3 28.7680 20.7686 74.6858 0.0000 6.8564 0.0000
# 4 0.0000 0.0000 0.0000 8.0986 0.0000 5.6632
# 5 6.1728 1.4325 6.8564 0.0000 25.5930 0.0000
# 6 0.0000 0.0000 0.0000 5.6632 0.0000 10.4636
#
#
#
# Elastic Compliance Matrix: (Units=1/GPa)
#
#
# Indices 1 2 3 4 5 6 
#
# 1 0.013441 -0.004458 -0.003755 0.000000 -0.001986 0.000000
# 2 -0.004458 0.018913 -0.003633 0.000000 0.000990 0.000000
# 3 -0.003755 -0.003633 0.016141 0.000000 -0.003215 0.000000
# 4 0.000000 0.000000 0.000000 0.198668 0.000000 -0.107524
# 5 -0.001986 0.000990 -0.003215 0.000000 0.040358 0.000000
# 6 0.000000 0.000000 0.000000 -0.107524 0.000000 0.153765
#
#
# Mechanical properties :
#
#
# Convention : Reuss Voigt Hill
#
# Bulk Modulus (GPa) = 40.31768 42.56679 41.44224
# Shear Modulus (GPa) = 10.56532 19.07268 14.81900
#
# Velocity S-wave (km/s) = 2.58689 3.47570 3.06370
# Velocity P-wave (km/s) = 5.87023 6.56269 6.22609
#
# Compressibility (1/GPa) = 0.02480301
#
# Stress axis : x y z
#
# Youngs Moduli (GPa) = 74.40068 52.87294 61.95247
#
# Poissons Ratio (x) = 0.23569 0.23265
# Poissons Ratio (y) = 0.33166 0.22509
# Poissons Ratio (z) = 0.27939 0.19210
#
# Static dielectric constant tensor:
#      x y z
#    x 3.069410 0.000000 0.041100 
#    y 0.000000 2.710460 0.000000 
#    z 0.041100 0.000000 3.036690 
# 
# 
# High freq. dielectric constant tensor:
#      x y z
#    x 1.617810 0.000000 0.005920 
#    y 0.000000 1.553060 0.000000 
#    z 0.005920 0.000000 1.601960 
# 
# From -- ./inp_files/46014.got.cif
#   From: 2010.06.25/outbox.cif.g09.slc.cpg/sg10_24_cif.got.tgz:46014.got - 2010.06.27 22:07:45.
