data_PCOD8057928
_publ_section_title
;
Structure prediction by ZEFSAII (Michael W. Deem and Ramdas Pophale) SiO2 
 PCOD8057928
Probable space group: P 2/M
;
_chemical_formula_sum "Si O2"
_cell_formula_units_Z 28
_cell_length_a 28.806716
_cell_length_b 9.006230
_cell_length_c 9.672129
_cell_angle_alpha 90.000000
_cell_angle_beta 38.569551
_cell_angle_gamma 90.000000
_cell_volume 1564.481286
_symmetry_space_group_name_H-M "P 2/M"
_symmetry_group_IT_number 10
_symmetry_cell_setting 'monoclinic'
loop_
_space_group_symop_operation_xyz
x,y,z
-x,y,-z
-x,-y,-z
x,-y,z
loop_
_atom_site_type_symbol
_atom_site_label
_atom_site_fract_x
_atom_site_fract_y
_atom_site_fract_z
Si Si1 0.955069 0.674251 0.782996
Si Si2 0.094249 0.825072 0.382280
Si Si3 0.584420 0.174392 0.811750
Si Si4 0.698703 0.827632 0.317327
Si Si5 0.302456 0.674930 0.255288
Si Si6 0.807789 0.671604 0.257747
Si Si7 0.261076 0.172160 0.075462
O O1 0.972837 0.500000 0.725942
O O2 0.917100 0.733831 0.731640
O O3 0.030988 0.765466 0.636650
O O4 0.896622 0.702252 0.044979
O O5 0.174292 0.788783 0.259635
O O6 0.084422 0.000000 0.376972
O O7 0.623467 0.214910 0.574525
O O8 0.624494 0.256917 0.844202
O O9 0.588208 0.000000 0.833453
O O10 0.500000 0.231364 0.000000
O O11 0.770231 0.751014 0.215855
O O12 0.716393 0.000000 0.287671
O O13 0.692986 0.783243 0.169599
O O14 0.311875 0.500000 0.230364
O O15 0.228519 0.725534 0.513118
O O16 0.296097 0.732128 0.115275
O O17 0.790097 0.500000 0.278402
O O18 0.271476 0.000000 0.087553
#
# Coordination Sequence:
#
# PCOD8057928 Si02
#       7
#     4   4   4   4   4   4   4
#     4  10  18  29  47  71  98 129 168 212 256 299
#     4  10  19  30  46  70 100 131 167 212 254 294
#     4   9  18  35  59  83 104 129 163 203 248 299
#     4   9  17  31  53  77 100 130 168 207 247 293
#     4  10  21  35  53  76 103 136 168 205 251 298
#     4   9  18  32  49  72  99 129 171 213 251 298
#     4  10  20  34  50  73 103 135 170 208 250 298
#
# _framework density 17.897307000000001
#
# number of rings (size 3 to 8) (size 9 to 14) (size 15 to 20)
#    0.000    2.429    1.429    2.143    0.000    3.143 
#    0.000    1.429    0.000    8.571    0.000    0.000 
#    0.000    0.000    0.000    0.000    0.000    0.000 
#
# Total GULP energy -347099.068448 kJ/mol
# GULP energy per Si atom -12396.395302 kJ/mol
# Density = 1.785657 g / cm^3
# Si number density = 17.897307 Si / 1000 Ang^3
#
#
#
# Elastic Constant Matrix: (Units=GPa)
#
#
# Indices 1 2 3 4 5 6 
#
# 1 98.1843 38.1395 59.1087 0.0000 -0.1720 0.0000
# 2 38.1395 52.9036 33.7227 0.0000 -3.7319 0.0000
# 3 59.1087 33.7227 113.0923 0.0000 -11.2920 0.0000
# 4 0.0000 0.0000 0.0000 23.5558 0.0000 -4.9700
# 5 -0.1720 -3.7319 -11.2920 0.0000 24.9520 0.0000
# 6 0.0000 0.0000 0.0000 -4.9700 0.0000 -163.2805
#
#
#
# Elastic Compliance Matrix: (Units=1/GPa)
#
#
# Indices 1 2 3 4 5 6 
#
# 1 0.017855 -0.008586 -0.007214 0.000000 -0.004426 0.000000
# 2 -0.008586 0.027470 -0.003455 0.000000 0.002486 0.000000
# 3 -0.007214 -0.003455 0.014229 0.000000 0.005873 0.000000
# 4 0.000000 0.000000 0.000000 0.042181 0.000000 -0.001284
# 5 -0.004426 0.002486 0.005873 0.000000 0.043076 0.000000
# 6 0.000000 0.000000 0.000000 -0.001284 0.000000 -0.006085
#
#
# Mechanical properties :
#
#
# Convention : Reuss Voigt Hill
#
# Bulk Modulus (GPa) = 47.51925 58.45800 52.98863
# Shear Modulus (GPa) = 27.13662 -14.07391 6.53136
#
# Velocity S-wave (km/s) = 3.89812 -2.80727 1.91240
# Velocity P-wave (km/s) = 6.84610 4.71447 5.87773
#
# Compressibility (1/GPa) = 0.02104410
#
# Stress axis : x y z
#
# Youngs Moduli (GPa) = 56.00578 36.40304 70.27655
#
# Poissons Ratio (x) = 0.31256 0.50696
# Poissons Ratio (y) = 0.48087 0.24284
# Poissons Ratio (z) = 0.40402 0.12579
#
# Static dielectric constant tensor:
#      x y z
#    x 3.022530 0.000000 -0.061120 
#    y 0.000000 3.314390 0.000000 
#    z -0.061120 0.000000 3.746830 
# 
# 
# High freq. dielectric constant tensor:
#      x y z
#    x 1.659260 0.000000 -0.003160 
#    y 0.000000 1.696070 0.000000 
#    z -0.003160 0.000000 1.702620 
# 
# From -- ./inp_files/36987.got.cif
#   From: 2010.06.25/outbox.cif.g09.slc.cpg/sg10_19_cif.got.tgz:36987.got - 2010.06.27 22:07:45.
