data_PCOD8057883
_publ_section_title
;
Structure prediction by ZEFSAII (Michael W. Deem and Ramdas Pophale) SiO2 
 PCOD8057883
Probable space group: P 2/M
;
_chemical_formula_sum "Si O2"
_cell_formula_units_Z 32
_cell_length_a 18.063611
_cell_length_b 13.588882
_cell_length_c 21.090920
_cell_angle_alpha 90.000000
_cell_angle_beta 160.358057
_cell_angle_gamma 90.000000
_cell_volume 1740.225185
_symmetry_space_group_name_H-M "P 2/M"
_symmetry_group_IT_number 10
_symmetry_cell_setting 'monoclinic'
loop_
_space_group_symop_operation_xyz
x,y,z
-x,y,-z
-x,-y,-z
x,-y,z
loop_
_atom_site_type_symbol
_atom_site_label
_atom_site_fract_x
_atom_site_fract_y
_atom_site_fract_z
Si Si1 0.700952 0.390697 0.708699
Si Si2 0.960623 0.613026 0.117114
Si Si3 0.139216 0.383872 0.469230
Si Si4 0.122076 0.731912 0.829830
Si Si5 0.364719 0.233377 0.729338
Si Si6 0.101261 0.888851 0.427601
Si Si7 0.708133 0.111402 0.208493
Si Si8 0.529840 0.388766 0.698281
O O1 0.500000 0.394927 0.500000
O O2 0.781292 0.500000 0.793296
O O3 0.623386 0.333382 0.710403
O O4 0.905120 0.342256 0.835122
O O5 0.037122 0.500000 0.192855
O O6 0.002789 0.679927 0.212281
O O7 0.703237 0.616657 0.894998
O O8 0.122682 0.500000 0.466670
O O9 0.228763 0.334922 0.606645
O O10 0.305585 0.348210 0.547205
O O11 0.907393 0.338125 0.257106
O O12 0.000303 0.835116 0.716292
O O13 0.377012 0.748159 0.051753
O O14 0.321896 0.163330 0.633088
O O15 0.261726 0.183270 0.708067
O O16 0.924779 0.883778 0.341405
O O17 0.157057 0.000000 0.452475
O O18 0.668073 0.000000 0.201138
O O19 0.500000 0.147489 0.000000
O O20 0.482426 0.500000 0.638547
#
# Coordination Sequence:
#
# PCOD8057883 Si02
#       8
#     4   4   4   4   4   4   4   4
#     4   9  16  25  40  65  97 137 179 218 259 298
#     4  10  18  29  46  70 105 145 179 212 251 297
#     4  10  21  35  51  73 106 148 187 218 250 295
#     4  11  21  33  52  78 107 140 175 212 254 312
#     4  11  21  34  55  81 106 138 173 212 254 311
#     4  10  22  38  58  84 108 130 160 206 268 328
#     4  10  19  35  60  86 108 129 157 204 271 331
#     4   9  16  28  45  67  98 140 183 217 256 299
#
# _framework density 18.388424000000001
#
# number of rings (size 3 to 8) (size 9 to 14) (size 15 to 20)
#    0.000    2.000    2.500    2.250    0.000    5.500 
#    0.000    0.000    0.000    7.125    0.000    0.000 
#    0.000   15.500    0.000    1.125    0.000    0.000 
#
# Total GULP energy -396489.703028 kJ/mol
# GULP energy per Si atom -12390.303220 kJ/mol
# Density = 1.834657 g / cm^3
# Si number density = 18.388424 Si / 1000 Ang^3
#
#
#
# Elastic Constant Matrix: (Units=GPa)
#
#
# Indices 1 2 3 4 5 6 
#
# 1 71.6225 29.5756 13.5532 0.0000 -13.2170 0.0000
# 2 29.5756 107.6712 35.2623 0.0000 -16.6720 0.0000
# 3 13.5532 35.2623 106.5378 0.0000 -18.1478 0.0000
# 4 0.0000 0.0000 0.0000 21.2552 0.0000 -5.6802
# 5 -13.2170 -16.6720 -18.1478 0.0000 26.4991 0.0000
# 6 0.0000 0.0000 0.0000 -5.6802 0.0000 16.1515
#
#
#
# Elastic Compliance Matrix: (Units=1/GPa)
#
#
# Indices 1 2 3 4 5 6 
#
# 1 0.016564 -0.003656 0.000134 0.000000 0.006053 0.000000
# 2 -0.003656 0.011779 -0.002810 0.000000 0.003663 0.000000
# 3 0.000134 -0.002810 0.011331 0.000000 0.006060 0.000000
# 4 0.000000 0.000000 0.000000 0.051928 0.000000 0.018262
# 5 0.006053 0.003663 0.006060 0.000000 0.047211 0.000000
# 6 0.000000 0.000000 0.000000 0.018262 0.000000 0.068336
#
#
# Mechanical properties :
#
#
# Convention : Reuss Voigt Hill
#
# Bulk Modulus (GPa) = 37.02282 49.17930 43.10106
# Shear Modulus (GPa) = 21.85162 26.61052 24.23107
#
# Velocity S-wave (km/s) = 3.45096 3.80825 3.63400
# Velocity P-wave (km/s) = 6.00469 6.79263 6.41078
#
# Compressibility (1/GPa) = 0.02701037
#
# Stress axis : x y z
#
# Youngs Moduli (GPa) = 60.37347 84.89500 88.25035
#
# Poissons Ratio (x) = 0.31041 -0.01184
# Poissons Ratio (y) = 0.22075 0.24795
# Poissons Ratio (z) = -0.00810 0.23852
#
# Static dielectric constant tensor:
#      x y z
#    x 3.457650 0.000000 -0.116880 
#    y 0.000000 3.283710 0.000000 
#    z -0.116880 0.000000 3.599300 
# 
# 
# High freq. dielectric constant tensor:
#      x y z
#    x 1.698330 0.000000 -0.016580 
#    y 0.000000 1.668640 0.000000 
#    z -0.016580 0.000000 1.736030 
# 
# From -- ./inp_files/85971.got.cif
#   From: 2010.06.25/outbox.cif.g09.slc.cpg/sg10_43_cif.got.tgz:85971.got - 2010.06.27 22:07:45.
