data_PCOD8057857
_publ_section_title
;
Structure prediction by ZEFSAII (Michael W. Deem and Ramdas Pophale) SiO2 
 PCOD8057857
Probable space group: P 2/M
;
_chemical_formula_sum "Si O2"
_cell_formula_units_Z 32
_cell_length_a 24.046093
_cell_length_b 8.954634
_cell_length_c 16.817141
_cell_angle_alpha 90.000000
_cell_angle_beta 145.964083
_cell_angle_gamma 90.000000
_cell_volume 2026.793616
_symmetry_space_group_name_H-M "P 2/M"
_symmetry_group_IT_number 10
_symmetry_cell_setting 'monoclinic'
loop_
_space_group_symop_operation_xyz
x,y,z
-x,y,-z
-x,-y,-z
x,-y,z
loop_
_atom_site_type_symbol
_atom_site_label
_atom_site_fract_x
_atom_site_fract_y
_atom_site_fract_z
Si Si1 0.890617 0.325103 0.226499
Si Si2 0.761764 0.324935 0.440011
Si Si3 0.883243 0.334968 0.877217
Si Si4 0.759668 0.829079 0.186996
Si Si5 0.153048 0.824604 0.319169
Si Si6 0.912201 0.171826 0.507745
Si Si7 0.948305 0.325946 0.118646
Si Si8 0.613790 0.675196 0.128518
O O1 0.900607 0.500000 0.256339
O O2 0.787111 0.262719 0.139714
O O3 0.892525 0.290506 0.134728
O O4 0.978081 0.236056 0.374935
O O5 0.767178 0.500000 0.460617
O O6 0.758215 0.243786 0.521481
O O7 0.862085 0.272532 0.515823
O O8 0.666878 0.279139 0.274237
O O9 0.838229 0.500000 0.810420
O O10 0.829685 0.224010 0.752075
O O11 0.871459 0.284895 0.955727
O O12 0.000000 0.335965 0.000000
O O13 0.852748 0.813074 0.355883
O O14 0.661407 0.761098 0.110668
O O15 0.737788 0.000000 0.138905
O O16 0.048022 0.769794 0.229288
O O17 0.158376 0.000000 0.330348
O O18 0.916277 0.000000 0.540889
O O19 0.979034 0.500000 0.148736
O O20 0.626149 0.500000 0.127192
O O21 0.500000 0.724405 0.000000
#
# Coordination Sequence:
#
# PCOD8057857 Si02
#       8
#     4   4   4   4   4   4   4   4
#     4  11  20  29  44  63  87 120 156 187 217 257
#     4  10  18  29  46  66  88 116 148 182 224 269
#     4   8  15  28  42  55  79 115 152 187 222 259
#     4  10  21  33  45  64  90 117 147 182 223 267
#     4  11  19  26  40  62  88 116 150 188 220 257
#     4  10  19  30  42  60  87 118 150 186 222 256
#     4   9  18  30  42  58  83 119 156 188 223 259
#     4   9  19  36  55  71  87 110 145 188 229 270
#
# _framework density 15.788484
#
# number of rings (size 3 to 8) (size 9 to 14) (size 15 to 20)
#    0.000    2.250    1.250    3.750    0.000    6.500 
#    0.000    0.000    0.000    0.000    0.000    0.000 
#    0.000    1.000    0.000   11.500    0.000    4.500 
#
# Total GULP energy -396726.986700 kJ/mol
# GULP energy per Si atom -12397.718334 kJ/mol
# Density = 1.575255 g / cm^3
# Si number density = 15.788484 Si / 1000 Ang^3
#
#
#
# Elastic Constant Matrix: (Units=GPa)
#
#
# Indices 1 2 3 4 5 6 
#
# 1 92.0478 44.9598 47.3331 0.0000 -7.2723 0.0000
# 2 44.9598 90.3825 36.5566 0.0000 -5.8824 0.0000
# 3 47.3331 36.5566 61.9902 0.0000 -1.6763 0.0000
# 4 0.0000 0.0000 0.0000 15.3173 0.0000 -2.5395
# 5 -7.2723 -5.8824 -1.6763 0.0000 19.3809 0.0000
# 6 0.0000 0.0000 0.0000 -2.5395 0.0000 17.6255
#
#
#
# Elastic Compliance Matrix: (Units=1/GPa)
#
#
# Indices 1 2 3 4 5 6 
#
# 1 0.019810 -0.004552 -0.012307 0.000000 0.004987 0.000000
# 2 -0.004552 0.015842 -0.005796 0.000000 0.002599 0.000000
# 3 -0.012307 -0.005796 0.028842 0.000000 -0.003882 0.000000
# 4 0.000000 0.000000 0.000000 0.066883 0.000000 0.009636
# 5 0.004987 0.002599 -0.003882 0.000000 0.053922 0.000000
# 6 0.000000 0.000000 0.000000 0.009636 0.000000 0.058124
#
#
# Mechanical properties :
#
#
# Convention : Reuss Voigt Hill
#
# Bulk Modulus (GPa) = 52.12816 55.79105 53.95960
# Shear Modulus (GPa) = 16.94189 18.16947 17.55568
#
# Velocity S-wave (km/s) = 3.27930 3.39603 3.33818
# Velocity P-wave (km/s) = 6.88670 7.12675 7.00776
#
# Compressibility (1/GPa) = 0.01918349
#
# Stress axis : x y z
#
# Youngs Moduli (GPa) = 50.48060 63.12355 34.67214
#
# Poissons Ratio (x) = 0.28733 0.42670
# Poissons Ratio (y) = 0.22978 0.20097
# Poissons Ratio (z) = 0.62124 0.36589
#
# Static dielectric constant tensor:
#      x y z
#    x 3.102190 0.000000 -0.382730 
#    y 0.000000 3.047490 0.000000 
#    z -0.382730 0.000000 2.872360 
# 
# 
# High freq. dielectric constant tensor:
#      x y z
#    x 1.592740 0.000000 -0.032700 
#    y 0.000000 1.616300 0.000000 
#    z -0.032700 0.000000 1.563970 
# 
# From -- ./inp_files/79959.got.cif
#   From: 2010.06.25/outbox.cif.g09.slc.cpg/sg10_40_cif.got.tgz:79959.got - 2010.06.27 22:07:45.
