data_PCOD8057910
_publ_section_title
;
Structure prediction by ZEFSAII (Michael W. Deem and Ramdas Pophale) SiO2 
 PCOD8057910
Probable space group: P 2/M
;
_chemical_formula_sum "Si O2"
_cell_formula_units_Z 28
_cell_length_a 22.686846
_cell_length_b 16.929167
_cell_length_c 13.888992
_cell_angle_alpha 90.000000
_cell_angle_beta 17.704406
_cell_angle_gamma 90.000000
_cell_volume 1622.205555
_symmetry_space_group_name_H-M "P 2/M"
_symmetry_group_IT_number 10
_symmetry_cell_setting 'monoclinic'
loop_
_space_group_symop_operation_xyz
x,y,z
-x,y,-z
-x,-y,-z
x,-y,z
loop_
_atom_site_type_symbol
_atom_site_label
_atom_site_fract_x
_atom_site_fract_y
_atom_site_fract_z
Si Si1 0.919721 0.817792 0.908649
Si Si2 0.688444 0.500000 0.982132
Si Si3 0.828208 0.089470 0.343570
Si Si4 0.016422 0.328757 0.314905
Si Si5 0.576514 0.817790 0.595018
Si Si6 0.671747 0.087782 0.156540
Si Si7 0.321029 0.671231 0.010220
Si Si8 0.029537 0.500000 0.300013
O O1 0.980651 0.731387 0.778327
O O2 0.102088 0.863286 0.670722
O O3 0.748499 0.808298 0.251455
O O4 0.854475 0.867630 0.917381
O O5 0.579234 0.583530 0.134140
O O6 0.756581 0.500000 0.986822
O O7 0.877611 0.500000 0.622441
O O8 0.647647 0.136673 0.579485
O O9 0.765666 0.000000 0.468633
O O10 0.000000 0.084986 0.000000
O O11 0.207394 0.321326 0.085222
O O12 0.005913 0.416475 0.280831
O O13 0.826407 0.312173 0.673633
O O14 0.398170 0.867614 0.829918
O O15 0.498710 0.731393 0.742219
O O16 0.500000 0.083958 0.500000
O O17 0.737451 0.000000 0.025081
#
# Coordination Sequence:
#
# PCOD8057910 Si02
#       8
#     4   2   4   4   4   4   4   2
#     4  10  18  29  47  70  94 118 152 195 233 270
#     4   7  12  24  43  66  91 122 154 182 217 272
#     4   9  18  32  49  68  91 124 162 193 225 273
#     4   9  16  28  47  70  96 123 152 186 229 277
#     4  10  18  29  47  70  94 118 152 195 233 270
#     4   9  16  26  43  66  89 114 146 187 229 267
#     4   9  16  28  47  70  96 123 152 186 229 277
#     4   7  12  24  43  66  91 122 154 182 217 272
#
# _framework density 17.260452000000001
#
# number of rings (size 3 to 8) (size 9 to 14) (size 15 to 20)
#    0.000    3.000    1.429    2.571    0.000    3.429 
#    0.000    1.429    0.000    8.571    0.000    6.000 
#    0.000    0.000    0.000    0.000    0.000    0.000 
#
# Total GULP energy -346934.220957 kJ/mol
# GULP energy per Si atom -12390.507891 kJ/mol
# Density = 1.722117 g / cm^3
# Si number density = 17.260452 Si / 1000 Ang^3
#
#
#
# Elastic Constant Matrix: (Units=GPa)
#
#
# Indices 1 2 3 4 5 6 
#
# 1 102.0739 71.2996 24.3154 0.0000 -18.6862 0.0000
# 2 71.2996 195.0514 38.9607 0.0000 -11.0009 0.0000
# 3 24.3154 38.9607 26.3863 0.0000 -7.1101 0.0000
# 4 0.0000 0.0000 0.0000 12.8783 0.0000 -3.7210
# 5 -18.6862 -11.0009 -7.1101 0.0000 15.4023 0.0000
# 6 0.0000 0.0000 0.0000 -3.7210 0.0000 23.7924
#
#
#
# Elastic Compliance Matrix: (Units=1/GPa)
#
#
# Indices 1 2 3 4 5 6 
#
# 1 0.016703 -0.004245 -0.005118 0.000000 0.014870 0.000000
# 2 -0.004245 0.008351 -0.009365 0.000000 -0.003508 0.000000
# 3 -0.005118 -0.009365 0.060491 0.000000 0.015027 0.000000
# 4 0.000000 0.000000 0.000000 0.081325 0.000000 0.012719
# 5 0.014870 -0.003508 0.015027 0.000000 0.087397 0.000000
# 6 0.000000 0.000000 0.000000 0.012719 0.000000 0.044019
#
#
# Mechanical properties :
#
#
# Convention : Reuss Voigt Hill
#
# Bulk Modulus (GPa) = 20.79381 65.85144 43.32263
# Shear Modulus (GPa) = 14.21379 23.01033 18.61206
#
# Velocity S-wave (km/s) = 2.87276 3.65516 3.28732
# Velocity P-wave (km/s) = 4.80384 7.48652 6.28987
#
# Compressibility (1/GPa) = 0.04809123
#
# Stress axis : x y z
#
# Youngs Moduli (GPa) = 59.86876 119.74338 16.53144
#
# Poissons Ratio (x) = 0.50829 0.08460
# Poissons Ratio (y) = 0.25413 0.15481
# Poissons Ratio (z) = 0.30638 1.12134
#
# Static dielectric constant tensor:
#      x y z
#    x 3.017660 0.000000 -0.097710 
#    y 0.000000 3.629940 0.000000 
#    z -0.097710 0.000000 2.730440 
# 
# 
# High freq. dielectric constant tensor:
#      x y z
#    x 1.633810 0.000000 -0.005520 
#    y 0.000000 1.691210 0.000000 
#    z -0.005520 0.000000 1.617530 
# 
# From -- ./inp_files/56103.got.cif
#   From: 2010.06.25/outbox.cif.g09.slc.cpg/sg10_29_cif.got.tgz:56103.got - 2010.06.27 22:07:45.
