data_PCOD8057152
_publ_section_title
;
Structure prediction by ZEFSAII (Michael W. Deem and Ramdas Pophale) SiO2 
 PCOD8057152
Probable space group: P 2/M
;
_chemical_formula_sum "Si O2"
_cell_formula_units_Z 32
_cell_length_a 17.158580
_cell_length_b 18.182472
_cell_length_c 20.166094
_cell_angle_alpha 90.000000
_cell_angle_beta 158.743817
_cell_angle_gamma 90.000000
_cell_volume 2280.921438
_symmetry_space_group_name_H-M "P 2/M"
_symmetry_group_IT_number 10
_symmetry_cell_setting 'monoclinic'
loop_
_space_group_symop_operation_xyz
x,y,z
-x,y,-z
-x,-y,-z
x,-y,z
loop_
_atom_site_type_symbol
_atom_site_label
_atom_site_fract_x
_atom_site_fract_y
_atom_site_fract_z
Si Si1 0.340907 0.581535 0.245956
Si Si2 0.577877 0.912506 0.991007
Si Si3 0.319043 0.856433 0.439679
Si Si4 0.947404 0.913009 0.649132
Si Si5 0.789120 0.912475 0.789120
Si Si6 0.817261 0.087494 0.404132
Si Si7 0.642785 0.688776 0.547598
Si Si8 0.943959 0.581535 0.849005
O O1 0.443790 0.500000 0.319089
O O2 0.520966 0.644260 0.393020
O O3 0.204294 0.581887 0.204295
O O4 0.188720 0.599875 0.062911
O O5 0.810578 0.881386 0.155030
O O6 0.584644 0.000000 0.001109
O O7 0.500000 0.880788 0.000000
O O8 0.413896 0.885578 0.804634
O O9 0.189049 0.890321 0.396350
O O10 0.567515 0.881679 0.644266
O O11 0.202220 0.881683 0.278975
O O12 0.301926 0.769251 0.433972
O O13 0.843923 0.881386 0.499472
O O14 0.953622 0.000000 0.651205
O O15 0.777512 0.000000 0.777512
O O16 0.000000 0.887706 0.000000
O O17 0.000000 0.119210 0.500000
O O18 0.834037 0.000000 0.417572
O O19 0.500000 0.695942 0.500000
O O20 0.862884 0.644260 0.734936
O O21 0.930327 0.500000 0.805624
#
# Coordination Sequence:
#
# PCOD8057152 Si02
#       8
#     4   4   4   4   4   4   4   4
#     4   8  14  24  39  59  80 101 129 165 201 242
#     4   9  15  25  42  63  82 101 125 157 204 257
#     4  11  21  34  44  64  84 107 144 186 229 260
#     4  10  19  29  44  61  84 108 133 178 218 258
#     4  10  21  37  52  57  69 104 152 202 236 258
#     4   9  15  25  42  63  82 101 125 157 204 257
#     4  10  17  27  40  58  77 108 138 172 210 249
#     4   8  14  24  39  59  80 101 129 165 201 242
#
# _framework density 14.029418
#
# number of rings (size 3 to 8) (size 9 to 14) (size 15 to 20)
#    0.000    2.625    2.500    2.625    0.000    3.500 
#    0.000    2.500    0.000    0.000    0.000    0.000 
#    0.000    0.000    0.000    0.000    0.000    5.000 
#
# Total GULP energy -396551.137332 kJ/mol
# GULP energy per Si atom -12392.223042 kJ/mol
# Density = 1.399749 g / cm^3
# Si number density = 14.029418 Si / 1000 Ang^3
#
#
#
# Elastic Constant Matrix: (Units=GPa)
#
#
# Indices 1 2 3 4 5 6 
#
# 1 79.3825 3.4015 50.3285 0.0000 1.7510 0.0000
# 2 3.4015 52.3962 34.5056 0.0000 -7.3701 0.0000
# 3 50.3285 34.5056 127.5328 0.0000 -13.1672 0.0000
# 4 0.0000 0.0000 0.0000 8.8468 0.0000 -3.0516
# 5 1.7510 -7.3701 -13.1672 0.0000 14.3603 0.0000
# 6 0.0000 0.0000 0.0000 -3.0516 0.0000 -4.0338
#
#
#
# Elastic Compliance Matrix: (Units=1/GPa)
#
#
# Indices 1 2 3 4 5 6 
#
# 1 0.018446 0.003598 -0.009161 0.000000 -0.008803 0.000000
# 2 0.003598 0.024542 -0.007516 0.000000 0.005265 0.000000
# 3 -0.009161 -0.007516 0.014588 0.000000 0.010636 0.000000
# 4 0.000000 0.000000 0.000000 0.089643 0.000000 -0.067816
# 5 -0.008803 0.005265 0.010636 0.000000 0.083164 0.000000
# 6 0.000000 0.000000 0.000000 -0.067816 0.000000 -0.196601
#
#
# Mechanical properties :
#
#
# Convention : Reuss Voigt Hill
#
# Bulk Modulus (GPa) = 31.83118 48.42033 40.12575
# Shear Modulus (GPa) = 71.00787 15.23971 43.12379
#
# Velocity S-wave (km/s) = 7.12204 3.29943 5.55021
# Velocity P-wave (km/s) = 9.50628 7.00738 8.35083
#
# Compressibility (1/GPa) = 0.03141574
#
# Stress axis : x y z
#
# Youngs Moduli (GPa) = 54.21339 40.74593 68.54824
#
# Poissons Ratio (x) = -0.14659 0.62800
# Poissons Ratio (y) = -0.19504 0.51523
# Poissons Ratio (z) = 0.49668 0.30626
#
# Static dielectric constant tensor:
#      x y z
#    x 2.380810 0.000000 -0.182090 
#    y 0.000000 2.620870 0.000000 
#    z -0.182090 0.000000 3.149140 
# 
# 
# High freq. dielectric constant tensor:
#      x y z
#    x 1.492710 0.000000 -0.014460 
#    y 0.000000 1.501030 0.000000 
#    z -0.014460 0.000000 1.553740 
# 
# From -- ./inp_files/86000.got.cif
#   From: 2010.06.25/outbox.cif.g09.slc.cpg/sg10_43_cif.got.tgz:86000.got - 2010.06.27 22:07:45.
