data_PCOD8057205
_publ_section_title
;
Structure prediction by ZEFSAII (Michael W. Deem and Ramdas Pophale) SiO2 
 PCOD8057205
Probable space group: P 2/M
;
_chemical_formula_sum "Si O2"
_cell_formula_units_Z 24
_cell_length_a 28.111992
_cell_length_b 12.450960
_cell_length_c 11.725447
_cell_angle_alpha 90.000000
_cell_angle_beta 159.864504
_cell_angle_gamma 90.000000
_cell_volume 1412.820503
_symmetry_space_group_name_H-M "P 2/M"
_symmetry_group_IT_number 10
_symmetry_cell_setting 'monoclinic'
loop_
_space_group_symop_operation_xyz
x,y,z
-x,y,-z
-x,-y,-z
x,-y,z
loop_
_atom_site_type_symbol
_atom_site_label
_atom_site_fract_x
_atom_site_fract_y
_atom_site_fract_z
Si Si1 0.369234 0.711362 0.452933
Si Si2 0.638854 0.876168 0.374504
Si Si3 0.304546 0.301699 0.833202
Si Si4 0.336840 0.621323 0.148602
Si Si5 0.317315 0.500000 0.713389
Si Si6 0.157342 0.123380 0.370569
Si Si7 0.646372 0.500000 0.456190
O O1 0.325356 0.815347 0.427099
O O2 0.304190 0.704084 0.179175
O O3 0.308123 0.606868 0.377050
O O4 0.533322 0.714871 0.813778
O O5 0.766077 0.857896 0.576618
O O6 0.615968 0.000000 0.355258
O O7 0.500000 0.830561 0.000000
O O8 0.256607 0.395868 0.639976
O O9 0.225399 0.192856 0.623922
O O10 0.264508 0.333060 0.872298
O O11 0.500000 0.613922 0.500000
O O12 0.282666 0.500000 0.052110
O O13 0.272312 0.500000 0.480648
O O14 0.481805 0.500000 0.081152
O O15 0.169315 0.000000 0.436716
O O16 0.000000 0.158893 0.000000
#
# Coordination Sequence:
#
# PCOD8057205 Si02
#       7
#     4   4   4   4   2   4   2
#     4  10  17  27  46  75 104 132 167 199 248 300
#     4  10  19  32  51  74 102 130 160 210 264 296
#     4  10  17  29  48  70 102 136 168 202 246 296
#     4   9  16  28  44  71 106 140 165 199 246 296
#     4   9  16  23  40  69  96 128 161 198 247 294
#     4  10  21  36  53  73  99 134 171 206 252 306
#     4   9  16  21  37  69 104 125 155 203 240 294
#
# _framework density 16.987297000000002
#
# number of rings (size 3 to 8) (size 9 to 14) (size 15 to 20)
#    0.000    2.333    3.333    1.000    2.333    0.000 
#    0.000    1.250    0.000    4.000    0.000    4.667 
#    0.000    0.000    0.000    0.000    0.000    0.000 
#
# Total GULP energy -297493.701572 kJ/mol
# GULP energy per Si atom -12395.570899 kJ/mol
# Density = 1.694863 g / cm^3
# Si number density = 16.987297 Si / 1000 Ang^3
#
#
#
# Elastic Constant Matrix: (Units=GPa)
#
#
# Indices 1 2 3 4 5 6 
#
# 1 116.6795 55.8836 46.4188 0.0000 -29.1888 0.0000
# 2 55.8836 96.2018 33.8704 0.0000 -20.2106 0.0000
# 3 46.4188 33.8704 43.5500 0.0000 -8.4442 0.0000
# 4 0.0000 0.0000 0.0000 14.5209 0.0000 -5.4847
# 5 -29.1888 -20.2106 -8.4442 0.0000 27.7917 0.0000
# 6 0.0000 0.0000 0.0000 -5.4847 0.0000 26.8356
#
#
#
# Elastic Compliance Matrix: (Units=1/GPa)
#
#
# Indices 1 2 3 4 5 6 
#
# 1 0.019898 -0.002934 -0.016246 0.000000 0.013829 0.000000
# 2 -0.002934 0.016371 -0.008388 0.000000 0.006275 0.000000
# 3 -0.016246 -0.008388 0.044960 0.000000 -0.009502 0.000000
# 4 0.000000 0.000000 0.000000 0.074627 0.000000 0.015253
# 5 0.013829 0.006275 -0.009502 0.000000 0.052182 0.000000
# 6 0.000000 0.000000 0.000000 0.015253 0.000000 0.040381
#
#
# Mechanical properties :
#
#
# Convention : Reuss Voigt Hill
#
# Bulk Modulus (GPa) = 38.32510 58.75298 48.53904
# Shear Modulus (GPa) = 16.01268 21.84688 18.92978
#
# Velocity S-wave (km/s) = 3.07355 3.59007 3.34181
# Velocity P-wave (km/s) = 5.93344 7.20044 6.59742
#
# Compressibility (1/GPa) = 0.02609256
#
# Stress axis : x y z
#
# Youngs Moduli (GPa) = 50.25577 61.08480 22.24220
#
# Poissons Ratio (x) = 0.17921 0.36134
# Poissons Ratio (y) = 0.14744 0.18657
# Poissons Ratio (z) = 0.81645 0.51239
#
# Static dielectric constant tensor:
#      x y z
#    x 3.373620 0.000000 -0.226360 
#    y 0.000000 3.233610 0.000000 
#    z -0.226360 0.000000 2.775650 
# 
# 
# High freq. dielectric constant tensor:
#      x y z
#    x 1.657110 0.000000 -0.017590 
#    y 0.000000 1.657430 0.000000 
#    z -0.017590 0.000000 1.598350 
# 
# From -- ./inp_files/36222.got.cif
#   From: 2010.06.25/outbox.cif.g09.slc.cpg/sg10_19_cif.got.tgz:36222.got - 2010.06.27 22:07:45.
