data_PCOD8057649
_publ_section_title
;
Structure prediction by ZEFSAII (Michael W. Deem and Ramdas Pophale) SiO2 
 PCOD8057649
Probable space group: P 2/M
;
_chemical_formula_sum "Si O2"
_cell_formula_units_Z 28
_cell_length_a 5.243664
_cell_length_b 13.883092
_cell_length_c 26.193273
_cell_angle_alpha 90.000000
_cell_angle_beta 95.383926
_cell_angle_gamma 90.000000
_cell_volume 1898.412665
_symmetry_space_group_name_H-M "P 2/M"
_symmetry_group_IT_number 10
_symmetry_cell_setting 'monoclinic'
loop_
_space_group_symop_operation_xyz
x,y,z
-x,y,-z
-x,-y,-z
x,-y,z
loop_
_atom_site_type_symbol
_atom_site_label
_atom_site_fract_x
_atom_site_fract_y
_atom_site_fract_z
Si Si1 0.235537 0.885395 0.971666
Si Si2 0.087952 0.892265 0.240250
Si Si3 0.236874 0.384996 0.470858
Si Si4 0.409699 0.791411 0.766683
Si Si5 0.330866 0.612348 0.705741
Si Si6 0.191149 0.612529 0.356413
Si Si7 0.241934 0.891028 0.856664
O O1 0.208509 0.849673 0.912870
O O2 0.228682 0.000000 0.973550
O O3 0.500000 0.845637 0.000000
O O4 0.000000 0.842672 0.000000
O O5 0.338083 0.829816 0.257146
O O6 0.838724 0.844844 0.262712
O O7 0.032275 0.894004 0.177718
O O8 0.129192 0.000000 0.262096
O O9 0.500000 0.345606 0.500000
O O10 0.240546 0.500000 0.469834
O O11 0.209106 0.341703 0.413231
O O12 0.000000 0.346953 0.500000
O O13 0.385858 0.676418 0.757334
O O14 0.426160 0.818858 0.827462
O O15 0.330050 0.500000 0.721759
O O16 0.550377 0.636333 0.669011
O O17 0.061366 0.648640 0.677784
O O18 0.156929 0.500000 0.362833
O O19 0.359664 0.000000 0.859839
#
# Coordination Sequence:
#
# PCOD8057649 Si02
#       7
#     4   4   4   4   4   4   4
#     4   9  17  25  36  55  80 108 130 152 189 239
#     4   9  17  28  43  61  81 105 136 168 203 246
#     4   9  15  23  37  56  75  99 137 175 202 237
#     4  10  18  28  43  60  79 110 146 174 203 241
#     4  10  19  30  42  58  83 114 148 179 208 240
#     4   9  17  28  40  55  80 111 140 176 212 240
#     4   8  17  28  42  59  83 108 136 164 197 247
#
# _framework density 14.749164
#
# number of rings (size 3 to 8) (size 9 to 14) (size 15 to 20)
#    0.857    2.000    0.000    2.571    2.000    3.429 
#    0.000    0.000    0.000    0.000    0.000    0.000 
#    0.000    1.143    0.000    0.143    0.000  294.286 
#
# Total GULP energy -346868.162958 kJ/mol
# GULP energy per Si atom -12388.148677 kJ/mol
# Density = 1.471559 g / cm^3
# Si number density = 14.749164 Si / 1000 Ang^3
#
#
#
# Elastic Constant Matrix: (Units=GPa)
#
#
# Indices 1 2 3 4 5 6 
#
# 1 103.6940 18.6316 10.3410 0.0000 3.7976 0.0000
# 2 18.6316 48.8229 26.0345 0.0000 4.2839 0.0000
# 3 10.3410 26.0345 56.9940 0.0000 0.9548 0.0000
# 4 0.0000 0.0000 0.0000 8.9557 0.0000 2.8967
# 5 3.7976 4.2839 0.9548 0.0000 14.2152 0.0000
# 6 0.0000 0.0000 0.0000 2.8967 0.0000 10.5040
#
#
#
# Elastic Compliance Matrix: (Units=1/GPa)
#
#
# Indices 1 2 3 4 5 6 
#
# 1 0.010391 -0.003743 -0.000148 0.000000 -0.001638 0.000000
# 2 -0.003743 0.029213 -0.012548 0.000000 -0.006961 0.000000
# 3 -0.000148 -0.012548 0.023267 0.000000 0.002259 0.000000
# 4 0.000000 0.000000 0.000000 0.122596 0.000000 -0.033809
# 5 -0.001638 -0.006961 0.002259 0.000000 0.072731 0.000000
# 6 0.000000 0.000000 0.000000 -0.033809 0.000000 0.104525
#
#
# Mechanical properties :
#
#
# Convention : Reuss Voigt Hill
#
# Bulk Modulus (GPa) = 33.34250 35.50279 34.42265
# Shear Modulus (GPa) = 12.32745 17.03523 14.68134
#
# Velocity S-wave (km/s) = 2.89417 3.40221 3.15842
# Velocity P-wave (km/s) = 5.81582 6.28941 6.05724
#
# Compressibility (1/GPa) = 0.02999175
#
# Stress axis : x y z
#
# Youngs Moduli (GPa) = 96.23716 34.23189 42.97967
#
# Poissons Ratio (x) = 0.12811 0.00638
# Poissons Ratio (y) = 0.36017 0.53933
# Poissons Ratio (z) = 0.01428 0.42956
#
# Static dielectric constant tensor:
#      x y z
#    x 2.996570 0.000000 0.012440 
#    y 0.000000 2.435230 0.000000 
#    z 0.012440 0.000000 2.789420 
# 
# 
# High freq. dielectric constant tensor:
#      x y z
#    x 1.581730 0.000000 -0.002030 
#    y 0.000000 1.503580 0.000000 
#    z -0.002030 0.000000 1.544250 
# 
# From -- ./inp_files/91573.got.cif
#   From: 2010.06.25/outbox.cif.g09.slc.cpg/sg10_46_cif.got.tgz:91573.got - 2010.06.27 22:07:45.
