data_PCOD8057421
_publ_section_title
;
Structure prediction by ZEFSAII (Michael W. Deem and Ramdas Pophale) SiO2 
 PCOD8057421
Probable space group: P 2/M
;
_chemical_formula_sum "Si O2"
_cell_formula_units_Z 28
_cell_length_a 17.456885
_cell_length_b 15.752396
_cell_length_c 12.527170
_cell_angle_alpha 90.000000
_cell_angle_beta 26.106504
_cell_angle_gamma 90.000000
_cell_volume 1515.861742
_symmetry_space_group_name_H-M "P 2/M"
_symmetry_group_IT_number 10
_symmetry_cell_setting 'monoclinic'
loop_
_space_group_symop_operation_xyz
x,y,z
-x,y,-z
-x,-y,-z
x,-y,z
loop_
_atom_site_type_symbol
_atom_site_label
_atom_site_fract_x
_atom_site_fract_y
_atom_site_fract_z
Si Si1 0.684481 0.782013 0.002974
Si Si2 0.583852 0.093989 0.748626
Si Si3 0.313117 0.749337 0.235366
Si Si4 0.015617 0.731724 0.222936
Si Si5 0.409295 0.726376 0.505450
Si Si6 0.858789 0.146447 0.250667
Si Si7 0.149375 0.596919 0.900230
O O1 0.586897 0.871541 0.101085
O O2 0.542088 0.721363 0.239072
O O3 0.751777 0.748638 0.804939
O O4 0.856093 0.785952 0.860929
O O5 0.644742 0.156433 0.768131
O O6 0.742639 0.083501 0.466130
O O7 0.543700 0.000000 0.844018
O O8 0.163279 0.704864 0.492351
O O9 0.500000 0.699797 0.000000
O O10 0.973705 0.791887 0.178601
O O11 0.103738 0.646453 0.067132
O O12 0.500000 0.757551 0.500000
O O13 0.261621 0.795445 0.672234
O O14 0.325679 0.633587 0.627209
O O15 0.000000 0.096688 0.000000
O O16 0.182094 0.500000 0.891616
O O17 0.000000 0.606332 0.000000
#
# Coordination Sequence:
#
# PCOD8057421 Si02
#       7
#     4   4   4   4   4   4   4
#     4  10  20  32  55  82 104 148 186 224 268 323
#     4   9  20  35  53  80 113 143 180 234 280 318
#     4   9  20  34  57  80 101 143 190 225 267 321
#     4  11  18  36  56  78 112 141 187 229 261 328
#     4  11  18  33  55  82 112 141 180 226 267 325
#     4  10  17  31  55  77 106 148 188 217 272 326
#     4  11  22  35  57  87 115 145 176 224 281 320
#
# _framework density 18.471342
#
# number of rings (size 3 to 8) (size 9 to 14) (size 15 to 20)
#    0.000    1.857    4.286    1.286    0.000    3.143 
#    0.000    2.857    0.000   24.429    0.000    0.000 
#    0.000    0.000    0.000    0.000    0.000    0.000 
#
# Total GULP energy -346893.066997 kJ/mol
# GULP energy per Si atom -12389.038107 kJ/mol
# Density = 1.842930 g / cm^3
# Si number density = 18.471342 Si / 1000 Ang^3
#
#
#
# Elastic Constant Matrix: (Units=GPa)
#
#
# Indices 1 2 3 4 5 6 
#
# 1 119.7186 30.1451 20.6170 0.0000 -3.2256 0.0000
# 2 30.1451 74.3502 18.9345 0.0000 1.9493 0.0000
# 3 20.6170 18.9345 127.1282 0.0000 11.3531 0.0000
# 4 0.0000 0.0000 0.0000 9.7674 0.0000 -1.5523
# 5 -3.2256 1.9493 11.3531 0.0000 32.8908 0.0000
# 6 0.0000 0.0000 0.0000 -1.5523 0.0000 14.0587
#
#
#
# Elastic Compliance Matrix: (Units=1/GPa)
#
#
# Indices 1 2 3 4 5 6 
#
# 1 0.009498 -0.003600 -0.001141 0.000000 0.001539 0.000000
# 2 -0.003600 0.015345 -0.001639 0.000000 -0.000697 0.000000
# 3 -0.001141 -0.001639 0.008561 0.000000 -0.002970 0.000000
# 4 0.000000 0.000000 0.000000 0.104210 0.000000 0.011506
# 5 0.001539 -0.000697 -0.002970 0.000000 0.031621 0.000000
# 6 0.000000 0.000000 0.000000 0.011506 0.000000 0.072401
#
#
# Mechanical properties :
#
#
# Convention : Reuss Voigt Hill
#
# Bulk Modulus (GPa) = 48.44738 51.17668 49.81203
# Shear Modulus (GPa) = 19.13668 28.11006 23.62337
#
# Velocity S-wave (km/s) = 3.22222 3.90528 3.58008
# Velocity P-wave (km/s) = 6.33474 6.93550 6.64191
#
# Compressibility (1/GPa) = 0.02064095
#
# Stress axis : x y z
#
# Youngs Moduli (GPa) = 105.29053 65.16607 116.81457
#
# Poissons Ratio (x) = 0.23462 0.13334
# Poissons Ratio (y) = 0.37909 0.19151
# Poissons Ratio (z) = 0.12018 0.10684
#
# Static dielectric constant tensor:
#      x y z
#    x 3.527010 0.000000 0.007710 
#    y 0.000000 2.962190 0.000000 
#    z 0.007710 0.000000 3.894380 
# 
# 
# High freq. dielectric constant tensor:
#      x y z
#    x 1.725950 0.000000 0.003500 
#    y 0.000000 1.655930 0.000000 
#    z 0.003500 0.000000 1.745370 
# 
# From -- ./inp_files/54102.got.cif
#   From: 2010.06.25/outbox.cif.g09.slc.cpg/sg10_28_cif.got.tgz:54102.got - 2010.06.27 22:07:45.
