data_PCOD8057270
_publ_section_title
;
Structure prediction by ZEFSAII (Michael W. Deem and Ramdas Pophale) SiO2 
 PCOD8057270
Probable space group: P 2/M
;
_chemical_formula_sum "Si O2"
_cell_formula_units_Z 24
_cell_length_a 19.839510
_cell_length_b 13.912220
_cell_length_c 12.184387
_cell_angle_alpha 90.000000
_cell_angle_beta 23.988485
_cell_angle_gamma 90.000000
_cell_volume 1367.251067
_symmetry_space_group_name_H-M "P 2/M"
_symmetry_group_IT_number 10
_symmetry_cell_setting 'monoclinic'
loop_
_space_group_symop_operation_xyz
x,y,z
-x,y,-z
-x,-y,-z
x,-y,z
loop_
_atom_site_type_symbol
_atom_site_label
_atom_site_fract_x
_atom_site_fract_y
_atom_site_fract_z
Si Si1 0.451455 0.393980 0.446755
Si Si2 0.049169 0.198067 0.799297
Si Si3 0.740239 0.112044 0.157550
Si Si4 0.067125 0.397161 0.020100
Si Si5 0.538012 0.808232 0.271860
Si Si6 0.592847 0.111049 0.749319
O O1 0.500000 0.391767 0.500000
O O2 0.493832 0.500000 0.333286
O O3 0.258661 0.371030 0.725016
O O4 0.548802 0.307858 0.240451
O O5 0.238683 0.170790 0.502164
O O6 0.000000 0.191915 0.000000
O O7 0.932667 0.128127 0.900781
O O8 0.026406 0.306765 0.785636
O O9 0.627435 0.166359 0.414058
O O10 0.699370 0.152897 0.096787
O O11 0.698050 0.000000 0.223865
O O12 0.042093 0.500000 0.121454
O O13 0.000000 0.412271 0.000000
O O14 0.530418 0.856440 0.164098
O O15 0.638345 0.000000 0.666173
O O16 0.500000 0.131586 0.000000
#
# Coordination Sequence:
#
# PCOD8057270 Si02
#       6
#     4   4   4   4   4   4
#     4  10  17  28  48  78 111 137 167 214 270 317
#     4  11  19  33  54  79 104 134 180 224 259 312
#     4  11  20  29  50  81 106 134 173 225 265 303
#     4   9  16  27  44  70 101 131 164 210 263 305
#     4  11  18  34  51  76 110 139 172 216 269 316
#     4  11  24  39  54  74 107 147 180 216 267 321
#
# _framework density 17.553470000000001
#
# number of rings (size 3 to 8) (size 9 to 14) (size 15 to 20)
#    0.000    1.500    5.000    3.500    0.000    0.667 
#    0.000    0.833    0.000    5.000    0.000    0.000 
#    0.000    6.667    0.000    0.000    0.000    0.000 
#
# Total GULP energy -297479.261027 kJ/mol
# GULP energy per Si atom -12394.969209 kJ/mol
# Density = 1.751352 g / cm^3
# Si number density = 17.553470 Si / 1000 Ang^3
#
#
#
# Elastic Constant Matrix: (Units=GPa)
#
#
# Indices 1 2 3 4 5 6 
#
# 1 110.4405 25.8410 27.0820 0.0000 -13.1259 0.0000
# 2 25.8410 139.8595 25.9188 0.0000 1.6865 0.0000
# 3 27.0820 25.9188 36.6852 0.0000 -5.8639 0.0000
# 4 0.0000 0.0000 0.0000 13.1706 0.0000 -9.2196
# 5 -13.1259 1.6865 -5.8639 0.0000 25.3804 0.0000
# 6 0.0000 0.0000 0.0000 -9.2196 0.0000 25.6686
#
#
#
# Elastic Compliance Matrix: (Units=1/GPa)
#
#
# Indices 1 2 3 4 5 6 
#
# 1 0.011542 -0.000846 -0.007227 0.000000 0.004356 0.000000
# 2 -0.000846 0.008384 -0.005668 0.000000 -0.002304 0.000000
# 3 -0.007227 -0.005668 0.037444 0.000000 0.005290 0.000000
# 4 0.000000 0.000000 0.000000 0.101429 0.000000 0.036431
# 5 0.004356 -0.002304 0.005290 0.000000 0.043028 0.000000
# 6 0.000000 0.000000 0.000000 0.036431 0.000000 0.052043
#
#
# Mechanical properties :
#
#
# Convention : Reuss Voigt Hill
#
# Bulk Modulus (GPa) = 33.45621 49.40764 41.43192
# Shear Modulus (GPa) = 17.16351 26.72014 21.94183
#
# Velocity S-wave (km/s) = 3.13035 3.90579 3.53937
# Velocity P-wave (km/s) = 5.67154 6.96766 6.35274
#
# Compressibility (1/GPa) = 0.02988982
#
# Stress axis : x y z
#
# Youngs Moduli (GPa) = 86.63659 119.26883 26.70649
#
# Poissons Ratio (x) = 0.10088 0.19301
# Poissons Ratio (y) = 0.07328 0.15136
# Poissons Ratio (z) = 0.62613 0.67597
#
# Static dielectric constant tensor:
#      x y z
#    x 3.444900 0.000000 -0.279380 
#    y 0.000000 3.956060 0.000000 
#    z -0.279380 0.000000 2.726050 
# 
# 
# High freq. dielectric constant tensor:
#      x y z
#    x 1.687900 0.000000 -0.043170 
#    y 0.000000 1.709580 0.000000 
#    z -0.043170 0.000000 1.608770 
# 
# From -- ./inp_files/56021.got.cif
#   From: 2010.06.25/outbox.cif.g09.slc.cpg/sg10_29_cif.got.tgz:56021.got - 2010.06.27 22:07:45.
