data_PCOD8057073
_publ_section_title
;
Structure prediction by ZEFSAII (Michael W. Deem and Ramdas Pophale) SiO2 
 PCOD8057073
Probable space group: P 2/M
;
_chemical_formula_sum "Si O2"
_cell_formula_units_Z 32
_cell_length_a 16.459325
_cell_length_b 8.802298
_cell_length_c 14.026033
_cell_angle_alpha 90.000000
_cell_angle_beta 85.927440
_cell_angle_gamma 90.000000
_cell_volume 2026.958817
_symmetry_space_group_name_H-M "P 2/M"
_symmetry_group_IT_number 10
_symmetry_cell_setting 'monoclinic'
loop_
_space_group_symop_operation_xyz
x,y,z
-x,y,-z
-x,-y,-z
x,-y,z
loop_
_atom_site_type_symbol
_atom_site_label
_atom_site_fract_x
_atom_site_fract_y
_atom_site_fract_z
Si Si1 0.592499 0.332276 0.026348
Si Si2 0.521157 0.679170 0.221432
Si Si3 0.424252 0.676776 0.573718
Si Si4 0.641526 0.821111 0.840649
Si Si5 0.221960 0.820902 0.308714
Si Si6 0.261521 0.179313 0.516179
Si Si7 0.897458 0.320536 0.434093
Si Si8 0.049672 0.821498 0.372129
O O1 0.631426 0.500000 0.018837
O O2 0.644804 0.226824 0.951557
O O3 0.500000 0.337006 0.000000
O O4 0.588997 0.272092 0.136139
O O5 0.504998 0.500000 0.215319
O O6 0.553756 0.727611 0.321333
O O7 0.435905 0.759940 0.209676
O O8 0.500000 0.713752 0.500000
O O9 0.400335 0.500000 0.570543
O O10 0.349658 0.778862 0.547346
O O11 0.722039 0.755387 0.781025
O O12 0.638480 0.000000 0.836921
O O13 0.253350 0.758822 0.408367
O O14 0.126669 0.778651 0.297520
O O15 0.231718 0.000000 0.311835
O O16 0.193118 0.264978 0.587036
O O17 0.247720 0.000000 0.525062
O O18 0.900023 0.500000 0.450729
O O19 0.921158 0.226092 0.525520
O O20 0.967182 0.271334 0.350741
O O21 0.031079 0.000000 0.370494
#
# Coordination Sequence:
#
# PCOD8057073 Si02
#       8
#     4   4   4   4   4   4   4   4
#     4   8  15  28  42  56  77 106 135 163 204 253
#     4   9  18  31  43  56  80 111 138 168 209 250
#     4  10  20  32  45  62  83 108 141 179 212 239
#     4  10  17  26  42  63  83 104 136 174 206 238
#     4   8  16  27  39  58  85 112 135 164 204 246
#     4  10  19  31  44  58  80 113 146 172 204 246
#     4  10  17  26  40  59  81 105 138 176 207 236
#     4   9  15  26  41  57  80 110 139 165 202 250
#
# _framework density 15.787198999999999
#
# number of rings (size 3 to 8) (size 9 to 14) (size 15 to 20)
#    0.000    2.750    0.000    5.250    0.000    3.000 
#    0.000    6.875    0.000    0.000    0.000    0.000 
#    0.000    1.000    0.000   11.500    0.000    3.750 
#
# Total GULP energy -396505.190311 kJ/mol
# GULP energy per Si atom -12390.787197 kJ/mol
# Density = 1.575127 g / cm^3
# Si number density = 15.787199 Si / 1000 Ang^3
#
#
#
# Elastic Constant Matrix: (Units=GPa)
#
#
# Indices 1 2 3 4 5 6 
#
# 1 96.3922 35.4963 50.9529 0.0000 -26.9860 0.0000
# 2 35.4963 51.6636 25.5203 0.0000 -11.3353 0.0000
# 3 50.9529 25.5203 103.6275 0.0000 -18.3641 0.0000
# 4 0.0000 0.0000 0.0000 16.7820 0.0000 -1.3018
# 5 -26.9860 -11.3353 -18.3641 0.0000 22.5715 0.0000
# 6 0.0000 0.0000 0.0000 -1.3018 0.0000 20.5303
#
#
#
# Elastic Compliance Matrix: (Units=1/GPa)
#
#
# Indices 1 2 3 4 5 6 
#
# 1 0.020737 -0.008017 -0.005307 0.000000 0.016449 0.000000
# 2 -0.008017 0.026368 -0.002224 0.000000 0.001847 0.000000
# 3 -0.005307 -0.002224 0.013420 0.000000 0.003456 0.000000
# 4 0.000000 0.000000 0.000000 0.059882 0.000000 0.003797
# 5 0.016449 0.001847 0.003456 0.000000 0.067709 0.000000
# 6 0.000000 0.000000 0.000000 0.003797 0.000000 0.048949
#
#
# Mechanical properties :
#
#
# Convention : Reuss Voigt Hill
#
# Bulk Modulus (GPa) = 33.98141 52.84692 43.41416
# Shear Modulus (GPa) = 17.98749 21.29102 19.63925
#
# Velocity S-wave (km/s) = 3.37912 3.67635 3.53086
# Velocity P-wave (km/s) = 6.06597 7.18108 6.64695
#
# Compressibility (1/GPa) = 0.02942786
#
# Stress axis : x y z
#
# Youngs Moduli (GPa) = 48.22359 37.92423 74.51798
#
# Poissons Ratio (x) = 0.30405 0.39545
# Poissons Ratio (y) = 0.38662 0.16576
# Poissons Ratio (z) = 0.25591 0.08436
#
# Static dielectric constant tensor:
#      x y z
#    x 3.327700 0.000000 -0.467460 
#    y 0.000000 2.911330 0.000000 
#    z -0.467460 0.000000 3.225070 
# 
# 
# High freq. dielectric constant tensor:
#      x y z
#    x 1.592260 0.000000 -0.032740 
#    y 0.000000 1.605070 0.000000 
#    z -0.032740 0.000000 1.575400 
# 
# From -- ./inp_files/65988.got.cif
#   From: 2010.06.25/outbox.cif.g09.slc.cpg/sg10_33_cif.got.tgz:65988.got - 2010.06.27 22:07:45.
