data_PCOD8057713
_publ_section_title
;
Structure prediction by ZEFSAII (Michael W. Deem and Ramdas Pophale) SiO2 
 PCOD8057713
Probable space group: P 2/M
;
_chemical_formula_sum "Si O2"
_cell_formula_units_Z 32
_cell_length_a 16.090054
_cell_length_b 9.131091
_cell_length_c 16.869700
_cell_angle_alpha 90.000000
_cell_angle_beta 50.315325
_cell_angle_gamma 90.000000
_cell_volume 1907.374076
_symmetry_space_group_name_H-M "P 2/M"
_symmetry_group_IT_number 10
_symmetry_cell_setting 'monoclinic'
loop_
_space_group_symop_operation_xyz
x,y,z
-x,y,-z
-x,-y,-z
x,-y,z
loop_
_atom_site_type_symbol
_atom_site_label
_atom_site_fract_x
_atom_site_fract_y
_atom_site_fract_z
Si Si1 0.929512 0.837690 0.120563
Si Si2 0.924936 0.669465 0.718055
Si Si3 0.147239 0.826244 0.557599
Si Si4 0.128407 0.662332 0.415530
Si Si5 0.888931 0.331765 0.912690
Si Si6 0.578798 0.826840 0.338293
Si Si7 0.749224 0.327307 0.144416
Si Si8 0.650186 0.826920 0.466179
O O1 0.826484 0.738227 0.165323
O O2 0.002300 0.761692 0.142772
O O3 0.892763 0.000000 0.172409
O O4 0.000000 0.853803 0.000000
O O5 0.959850 0.500000 0.686219
O O6 0.033985 0.763202 0.656077
O O7 0.849040 0.715077 0.689305
O O8 0.855561 0.691015 0.841067
O O9 0.177838 0.772387 0.450062
O O10 0.240023 0.767765 0.560813
O O11 0.140719 0.000000 0.560229
O O12 0.176344 0.500000 0.401387
O O13 0.000000 0.660188 0.500000
O O14 0.917818 0.500000 0.914065
O O15 0.792103 0.282581 0.030382
O O16 0.632062 0.744357 0.230543
O O17 0.640317 0.775188 0.381209
O O18 0.454334 0.775129 0.419769
O O19 0.589120 0.000000 0.318879
O O20 0.742473 0.500000 0.158703
O O21 0.648903 0.000000 0.467821
#
# Coordination Sequence:
#
# PCOD8057713 Si02
#       8
#     4   4   4   4   4   4   4   4
#     4   9  17  28  41  58  82 114 151 183 209 250
#     4   9  18  31  45  63  90 124 152 174 211 264
#     4  10  18  28  45  69  92 114 145 183 224 262
#     4   8  15  29  45  62  87 118 149 176 212 266
#     4   9  18  31  44  61  89 120 148 181 220 260
#     4   9  17  33  51  63  84 118 152 184 221 263
#     4  10  19  30  44  64  89 116 146 184 227 260
#     4   8  17  32  48  66  87 114 148 185 224 266
#
# _framework density 16.776990999999999
#
# number of rings (size 3 to 8) (size 9 to 14) (size 15 to 20)
#    0.000    3.000    0.000    2.625    1.750    4.750 
#    0.000    3.125    0.000    0.000    0.000    0.875 
#    0.000    7.000    0.000    0.000    0.000    0.000 
#
# Total GULP energy -396542.006237 kJ/mol
# GULP energy per Si atom -12391.937695 kJ/mol
# Density = 1.673881 g / cm^3
# Si number density = 16.776991 Si / 1000 Ang^3
#
#
#
# Elastic Constant Matrix: (Units=GPa)
#
#
# Indices 1 2 3 4 5 6 
#
# 1 51.8685 19.0969 25.7592 0.0000 7.8337 0.0000
# 2 19.0969 59.4363 29.7045 0.0000 1.1958 0.0000
# 3 25.7592 29.7045 97.3556 0.0000 8.5966 0.0000
# 4 0.0000 0.0000 0.0000 22.7618 0.0000 0.9724
# 5 7.8337 1.1958 8.5966 0.0000 23.2385 0.0000
# 6 0.0000 0.0000 0.0000 0.9724 0.0000 14.0995
#
#
#
# Elastic Compliance Matrix: (Units=1/GPa)
#
#
# Indices 1 2 3 4 5 6 
#
# 1 0.024386 -0.005621 -0.004173 0.000000 -0.006388 0.000000
# 2 -0.005621 0.021183 -0.005218 0.000000 0.002735 0.000000
# 3 -0.004173 -0.005218 0.013253 0.000000 -0.003227 0.000000
# 4 0.000000 0.000000 0.000000 0.044063 0.000000 -0.003039
# 5 -0.006388 0.002735 -0.003227 0.000000 0.046238 0.000000
# 6 0.000000 0.000000 0.000000 -0.003039 0.000000 0.071134
#
#
# Mechanical properties :
#
#
# Convention : Reuss Voigt Hill
#
# Bulk Modulus (GPa) = 34.72394 39.75351 37.23873
# Shear Modulus (GPa) = 19.23953 20.95994 20.09973
#
# Velocity S-wave (km/s) = 3.39009 3.53842 3.46505
# Velocity P-wave (km/s) = 6.00549 6.35929 6.18492
#
# Compressibility (1/GPa) = 0.02879858
#
# Stress axis : x y z
#
# Youngs Moduli (GPa) = 41.00653 47.20688 75.45621
#
# Poissons Ratio (x) = 0.26536 0.31490
# Poissons Ratio (y) = 0.23051 0.39369
# Poissons Ratio (z) = 0.17113 0.24630
#
# Static dielectric constant tensor:
#      x y z
#    x 3.253170 0.000000 0.262800 
#    y 0.000000 3.095760 0.000000 
#    z 0.262800 0.000000 3.288440 
# 
# 
# High freq. dielectric constant tensor:
#      x y z
#    x 1.609210 0.000000 0.018760 
#    y 0.000000 1.639500 0.000000 
#    z 0.018760 0.000000 1.643060 
# 
# From -- ./inp_files/78523.got.cif
#   From: 2010.06.25/outbox.cif.g09.slc.cpg/sg10_40_cif.got.tgz:78523.got - 2010.06.27 22:07:45.
