data_PCOD8057661
_publ_section_title
;
Structure prediction by ZEFSAII (Michael W. Deem and Ramdas Pophale) SiO2 
 PCOD8057661
Probable space group: P 2/M
;
_chemical_formula_sum "Si O2"
_cell_formula_units_Z 32
_cell_length_a 29.066425
_cell_length_b 9.096742
_cell_length_c 19.721612
_cell_angle_alpha 90.000000
_cell_angle_beta 156.693096
_cell_angle_gamma 90.000000
_cell_volume 2063.183472
_symmetry_space_group_name_H-M "P 2/M"
_symmetry_group_IT_number 10
_symmetry_cell_setting 'monoclinic'
loop_
_space_group_symop_operation_xyz
x,y,z
-x,y,-z
-x,-y,-z
x,-y,z
loop_
_atom_site_type_symbol
_atom_site_label
_atom_site_fract_x
_atom_site_fract_y
_atom_site_fract_z
Si Si1 0.075372 0.828121 0.037952
Si Si2 0.939949 0.668544 0.118755
Si Si3 0.982812 0.174339 0.310540
Si Si4 0.331040 0.333197 0.248807
Si Si5 0.751786 0.174481 0.080923
Si Si6 0.885803 0.828676 0.386653
Si Si7 0.448086 0.672303 0.266071
Si Si8 0.657680 0.827798 0.601280
O O1 0.025437 0.743303 0.905277
O O2 0.062976 0.000000 0.006002
O O3 0.208953 0.786197 0.234234
O O4 0.000000 0.778122 0.000000
O O5 0.979076 0.500000 0.169014
O O6 0.004442 0.747241 0.268274
O O7 0.804100 0.687576 0.948314
O O8 0.089938 0.231191 0.504221
O O9 0.858407 0.217330 0.175351
O O10 0.987898 0.000000 0.306811
O O11 0.359575 0.500000 0.309768
O O12 0.396845 0.289056 0.270047
O O13 0.374694 0.226644 0.367123
O O14 0.779160 0.230024 0.195750
O O15 0.731652 0.000000 0.051092
O O16 0.634340 0.257061 0.901983
O O17 0.000000 0.791349 0.500000
O O18 0.867809 0.000000 0.369247
O O19 0.457432 0.500000 0.264909
O O20 0.576115 0.745351 0.436106
O O21 0.634630 0.000000 0.565146
#
# Coordination Sequence:
#
# PCOD8057661 Si02
#       8
#     4   4   4   4   4   4   4   4
#     4   9  19  36  53  66  83 107 137 178 225 265
#     4  10  18  28  43  65  90 115 145 177 212 255
#     4   9  15  25  42  61  84 114 149 184 216 249
#     4   9  18  30  40  54  83 118 144 171 209 246
#     4   9  16  26  41  59  82 115 154 187 212 242
#     4   7  12  23  38  57  80 110 147 185 218 244
#     4  11  20  29  40  57  87 120 146 174 210 250
#     4  10  20  31  45  64  80 102 141 180 213 253
#
# _framework density 15.510011
#
# number of rings (size 3 to 8) (size 9 to 14) (size 15 to 20)
#    0.000    2.750    1.250    3.000    0.000    3.750 
#    0.000    0.625    0.000    2.250    0.000    0.000 
#    0.000    1.000    0.000   11.500    0.000    4.500 
#
# Total GULP energy -396547.615654 kJ/mol
# GULP energy per Si atom -12392.112989 kJ/mol
# Density = 1.547471 g / cm^3
# Si number density = 15.510011 Si / 1000 Ang^3
#
#
#
# Elastic Constant Matrix: (Units=GPa)
#
#
# Indices 1 2 3 4 5 6 
#
# 1 85.1424 39.7134 54.9589 0.0000 -22.4572 0.0000
# 2 39.7134 60.4249 44.3942 0.0000 -19.3313 0.0000
# 3 54.9589 44.3942 101.3493 0.0000 -33.5426 0.0000
# 4 0.0000 0.0000 0.0000 9.5233 0.0000 2.7440
# 5 -22.4572 -19.3313 -33.5426 0.0000 23.5294 0.0000
# 6 0.0000 0.0000 0.0000 2.7440 0.0000 12.0132
#
#
#
# Elastic Compliance Matrix: (Units=1/GPa)
#
#
# Indices 1 2 3 4 5 6 
#
# 1 0.020472 -0.007327 -0.006470 0.000000 0.004296 0.000000
# 2 -0.007327 0.028102 -0.005698 0.000000 0.007972 0.000000
# 3 -0.006470 -0.005698 0.023246 0.000000 0.022281 0.000000
# 4 0.000000 0.000000 0.000000 0.112404 0.000000 -0.025675
# 5 0.004296 0.007972 0.022281 0.000000 0.084913 0.000000
# 6 0.000000 0.000000 0.000000 -0.025675 0.000000 0.089106
#
#
# Mechanical properties :
#
#
# Convention : Reuss Voigt Hill
#
# Bulk Modulus (GPa) = 30.46054 58.33885 44.39970
# Shear Modulus (GPa) = 12.24962 16.20318 14.22640
#
# Velocity S-wave (km/s) = 2.81337 3.23568 3.03188
# Velocity P-wave (km/s) = 5.49866 7.18713 6.39883
#
# Compressibility (1/GPa) = 0.03282936
#
# Stress axis : x y z
#
# Youngs Moduli (GPa) = 48.84668 35.58513 43.01893
#
# Poissons Ratio (x) = 0.26073 0.27835
# Poissons Ratio (y) = 0.35790 0.24511
# Poissons Ratio (z) = 0.31605 0.20275
#
# Static dielectric constant tensor:
#      x y z
#    x 2.794080 0.000000 -0.322140 
#    y 0.000000 2.862950 0.000000 
#    z -0.322140 0.000000 3.098980 
# 
# 
# High freq. dielectric constant tensor:
#      x y z
#    x 1.556630 0.000000 -0.032510 
#    y 0.000000 1.589210 0.000000 
#    z -0.032510 0.000000 1.586830 
# 
# From -- ./inp_files/87208.got.cif
#   From: 2010.06.25/outbox.cif.g09.slc.cpg/sg10_44_cif.got.tgz:87208.got - 2010.06.27 22:07:45.
