data_PCOD8057180
_publ_section_title
;
Structure prediction by ZEFSAII (Michael W. Deem and Ramdas Pophale) SiO2 
 PCOD8057180
Probable space group: P 2/M
;
_chemical_formula_sum "Si O2"
_cell_formula_units_Z 32
_cell_length_a 11.905728
_cell_length_b 8.791096
_cell_length_c 20.984681
_cell_angle_alpha 90.000000
_cell_angle_beta 60.335355
_cell_angle_gamma 90.000000
_cell_volume 1908.489081
_symmetry_space_group_name_H-M "P 2/M"
_symmetry_group_IT_number 10
_symmetry_cell_setting 'monoclinic'
loop_
_space_group_symop_operation_xyz
x,y,z
-x,y,-z
-x,-y,-z
x,-y,z
loop_
_atom_site_type_symbol
_atom_site_label
_atom_site_fract_x
_atom_site_fract_y
_atom_site_fract_z
Si Si1 0.337621 0.674010 0.772811
Si Si2 0.137452 0.172202 0.399944
Si Si3 0.923556 0.320748 0.224590
Si Si4 0.175655 0.676874 0.933750
Si Si5 0.765846 0.321653 0.510065
Si Si6 0.941705 0.179279 0.924061
Si Si7 0.923904 0.179764 0.362234
Si Si8 0.413786 0.828778 0.350520
O O1 0.370292 0.500000 0.748466
O O2 0.215009 0.727596 0.765507
O O3 0.308430 0.697319 0.856654
O O4 0.461056 0.771814 0.720799
O O5 0.123852 0.270371 0.469282
O O6 0.290033 0.178765 0.337046
O O7 0.049971 0.233532 0.366929
O O8 0.096149 0.000000 0.428283
O O9 0.942537 0.500000 0.214754
O O10 0.040963 0.242720 0.152375
O O11 0.932057 0.265363 0.293796
O O12 0.135280 0.500000 0.945411
O O13 0.068475 0.774419 0.927320
O O14 0.181643 0.743102 0.004435
O O15 0.769132 0.500000 0.497508
O O16 0.796021 0.235937 0.435366
O O17 0.623896 0.270232 0.575818
O O18 0.921563 0.000000 0.927641
O O19 0.918648 0.000000 0.352461
O O20 0.439506 0.000000 0.366400
#
# Coordination Sequence:
#
# PCOD8057180 Si02
#       8
#     4   4   4   4   4   4   4   4
#     4   9  18  32  48  69  96 126 157 193 232 275
#     4   8  18  33  49  71  95 121 150 195 243 276
#     4  10  21  34  47  67  99 130 158 191 235 283
#     4   9  16  27  45  66  93 124 153 192 237 273
#     4  10  19  31  49  72  95 120 156 196 237 280
#     4  10  17  27  43  67  93 121 159 192 229 276
#     4  11  20  33  50  70  97 124 157 193 236 285
#     4   9  18  32  49  69  94 123 155 195 239 276
#
# _framework density 16.767191
#
# number of rings (size 3 to 8) (size 9 to 14) (size 15 to 20)
#    0.750    1.750    0.000    5.250    0.000    5.500 
#    0.000    0.625    0.000    3.750    0.000    0.875 
#    0.000    7.000    0.000    0.000    0.000    0.000 
#
# Total GULP energy -396460.420331 kJ/mol
# GULP energy per Si atom -12389.388135 kJ/mol
# Density = 1.672903 g / cm^3
# Si number density = 16.767191 Si / 1000 Ang^3
#
#
#
# Elastic Constant Matrix: (Units=GPa)
#
#
# Indices 1 2 3 4 5 6 
#
# 1 32.7507 19.4762 39.5152 0.0000 1.9446 0.0000
# 2 19.4762 78.7684 40.5268 0.0000 1.1884 0.0000
# 3 39.5152 40.5268 137.7164 0.0000 9.5527 0.0000
# 4 0.0000 0.0000 0.0000 33.4093 0.0000 0.3121
# 5 1.9446 1.1884 9.5527 0.0000 -7.7559 0.0000
# 6 0.0000 0.0000 0.0000 0.3121 0.0000 19.0777
#
#
#
# Elastic Compliance Matrix: (Units=1/GPa)
#
#
# Indices 1 2 3 4 5 6 
#
# 1 0.048699 -0.005802 -0.012024 0.000000 -0.003489 0.000000
# 2 -0.005802 0.015582 -0.002750 0.000000 -0.002455 0.000000
# 3 -0.012024 -0.002750 0.010833 0.000000 0.009907 0.000000
# 4 0.000000 0.000000 0.000000 0.029936 0.000000 -0.000490
# 5 -0.003489 -0.002455 0.009907 0.000000 -0.117983 0.000000
# 6 0.000000 0.000000 0.000000 -0.000490 0.000000 0.052425
#
#
# Mechanical properties :
#
#
# Convention : Reuss Voigt Hill
#
# Bulk Modulus (GPa) = 29.44511 49.80798 39.62654
# Shear Modulus (GPa) = 54.36780 18.92737 36.64759
#
# Velocity S-wave (km/s) = 5.70048 3.36346 4.68019
# Velocity P-wave (km/s) = 7.80555 6.69731 7.27257
#
# Compressibility (1/GPa) = 0.03396150
#
# Stress axis : x y z
#
# Youngs Moduli (GPa) = 20.53451 64.17565 92.30686
#
# Poissons Ratio (x) = 0.37237 1.10987
# Poissons Ratio (y) = 0.11915 0.25388
# Poissons Ratio (z) = 0.24690 0.17651
#
# Static dielectric constant tensor:
#      x y z
#    x 2.771390 0.000000 -0.054210 
#    y 0.000000 3.137040 0.000000 
#    z -0.054210 0.000000 3.528190 
# 
# 
# High freq. dielectric constant tensor:
#      x y z
#    x 1.586420 0.000000 -0.008480 
#    y 0.000000 1.658320 0.000000 
#    z -0.008480 0.000000 1.657060 
# 
# From -- ./inp_files/83358.got.cif
#   From: 2010.06.25/outbox.cif.g09.slc.cpg/sg10_42_cif.got.tgz:83358.got - 2010.06.27 22:07:45.
