data_PCOD8057144
_publ_section_title
;
Structure prediction by ZEFSAII (Michael W. Deem and Ramdas Pophale) SiO2 
 PCOD8057144
Probable space group: P 2/M
;
_chemical_formula_sum "Si O2"
_cell_formula_units_Z 24
_cell_length_a 11.383879
_cell_length_b 9.240191
_cell_length_c 20.000498
_cell_angle_alpha 90.000000
_cell_angle_beta 136.743632
_cell_angle_gamma 90.000000
_cell_volume 1441.683431
_symmetry_space_group_name_H-M "P 2/M"
_symmetry_group_IT_number 10
_symmetry_cell_setting 'monoclinic'
loop_
_space_group_symop_operation_xyz
x,y,z
-x,y,-z
-x,-y,-z
x,-y,z
loop_
_atom_site_type_symbol
_atom_site_label
_atom_site_fract_x
_atom_site_fract_y
_atom_site_fract_z
Si Si1 0.380616 0.171321 0.177033
Si Si2 0.112579 0.828501 0.447450
Si Si3 0.240388 0.170576 0.641615
Si Si4 0.871074 0.340438 0.008343
Si Si5 0.695423 0.669797 0.589347
Si Si6 0.808877 0.669549 0.783948
O O1 0.578407 0.221094 0.252969
O O2 0.307096 0.238063 0.214282
O O3 0.359702 0.000000 0.171648
O O4 0.282506 0.228795 0.070154
O O5 0.216666 0.772557 0.555821
O O6 0.184743 0.751191 0.412654
O O7 0.914297 0.778515 0.374496
O O8 0.128766 0.000000 0.444252
O O9 0.230709 0.000000 0.632193
O O10 0.790775 0.500000 0.985765
O O11 0.988132 0.295029 0.120566
O O12 0.000000 0.342626 0.000000
O O13 0.500000 0.721382 0.500000
O O14 0.712776 0.500000 0.583679
O O15 0.759733 0.714637 0.689165
O O16 0.774005 0.500000 0.783575
#
# Coordination Sequence:
#
# PCOD8057144 Si02
#       6
#     4   4   4   4   4   4
#     4  10  17  26  45  71  92 110 144 189 223 253
#     4   9  17  32  50  65  87 120 152 176 211 266
#     4   8  16  30  47  67  91 117 143 180 224 260
#     4   8  15  28  43  60  86 120 150 175 215 266
#     4  10  20  32  46  67  94 118 143 181 223 257
#     4   9  18  31  44  61  92 126 146 171 219 270
#
# _framework density 16.647205
#
# number of rings (size 3 to 8) (size 9 to 14) (size 15 to 20)
#    0.000    3.000    0.000    3.500    0.000    4.000 
#    0.000    4.167    0.000    1.000    0.000    7.000 
#    0.000    0.000    0.000    0.000    0.000    0.000 
#
# Total GULP energy -297461.938605 kJ/mol
# GULP energy per Si atom -12394.247442 kJ/mol
# Density = 1.660932 g / cm^3
# Si number density = 16.647205 Si / 1000 Ang^3
#
#
#
# Elastic Constant Matrix: (Units=GPa)
#
#
# Indices 1 2 3 4 5 6 
#
# 1 89.9971 40.8331 69.6914 0.0000 6.7374 0.0000
# 2 40.8331 53.8726 49.0779 0.0000 6.8851 0.0000
# 3 69.6914 49.0779 167.9088 0.0000 10.2001 0.0000
# 4 0.0000 0.0000 0.0000 24.7446 0.0000 -5.2960
# 5 6.7374 6.8851 10.2001 0.0000 24.9511 0.0000
# 6 0.0000 0.0000 0.0000 -5.2960 0.0000 -4.1650
#
#
#
# Elastic Compliance Matrix: (Units=1/GPa)
#
#
# Indices 1 2 3 4 5 6 
#
# 1 0.019814 -0.010218 -0.005213 0.000000 -0.000400 0.000000
# 2 -0.010218 0.030976 -0.004575 0.000000 -0.003918 0.000000
# 3 -0.005213 -0.004575 0.009531 0.000000 -0.001226 0.000000
# 4 0.000000 0.000000 0.000000 0.031768 0.000000 -0.040394
# 5 -0.000400 -0.003918 -0.001226 0.000000 0.041769 0.000000
# 6 0.000000 0.000000 0.000000 -0.040394 0.000000 -0.188732
#
#
# Mechanical properties :
#
#
# Convention : Reuss Voigt Hill
#
# Bulk Modulus (GPa) = 49.23950 70.10925 59.67438
# Shear Modulus (GPa) = -617.80622 19.25120 -299.27751
#
# Velocity S-wave (km/s) = -19.28530 3.40431 -13.42262
# Velocity P-wave (km/s) = 21.59293 7.59333 14.29328
#
# Compressibility (1/GPa) = 0.02030890
#
# Stress axis : x y z
#
# Youngs Moduli (GPa) = 50.46811 32.28350 104.92115
#
# Poissons Ratio (x) = 0.32988 0.54697
# Poissons Ratio (y) = 0.51570 0.47998
# Poissons Ratio (z) = 0.26310 0.14769
#
# Static dielectric constant tensor:
#      x y z
#    x 2.928210 0.000000 0.183620 
#    y 0.000000 2.968250 0.000000 
#    z 0.183620 0.000000 3.707230 
# 
# 
# High freq. dielectric constant tensor:
#      x y z
#    x 1.608890 0.000000 0.009360 
#    y 0.000000 1.627280 0.000000 
#    z 0.009360 0.000000 1.656300 
# 
# From -- ./inp_files/48656.got.cif
#   From: 2010.06.25/outbox.cif.g09.slc.cpg/sg10_25_cif.got.tgz:48656.got - 2010.06.27 22:07:45.
