data_PCOD8057067
_publ_section_title
;
Structure prediction by ZEFSAII (Michael W. Deem and Ramdas Pophale) SiO2 
 PCOD8057067
Probable space group: P 2/M
;
_chemical_formula_sum "Si O2"
_cell_formula_units_Z 24
_cell_length_a 13.658674
_cell_length_b 13.269116
_cell_length_c 9.601784
_cell_angle_alpha 90.000000
_cell_angle_beta 110.934852
_cell_angle_gamma 90.000000
_cell_volume 1625.337049
_symmetry_space_group_name_H-M "P 2/M"
_symmetry_group_IT_number 10
_symmetry_cell_setting 'monoclinic'
loop_
_space_group_symop_operation_xyz
x,y,z
-x,y,-z
-x,-y,-z
x,-y,z
loop_
_atom_site_type_symbol
_atom_site_label
_atom_site_fract_x
_atom_site_fract_y
_atom_site_fract_z
Si Si1 0.620229 0.882833 0.057254
Si Si2 0.215321 0.787576 0.052198
Si Si3 0.771524 0.883593 0.380680
Si Si4 0.885310 0.386143 0.874717
Si Si5 0.065668 0.884229 0.765168
Si Si6 0.844408 0.204390 0.682338
O O1 0.676696 0.815192 0.968599
O O2 0.633779 0.000000 0.023018
O O3 0.500000 0.849667 0.000000
O O4 0.670035 0.861981 0.233516
O O5 0.198336 0.666154 0.061112
O O6 0.211302 0.837260 0.205152
O O7 0.113502 0.824566 0.918455
O O8 0.876072 0.854697 0.348176
O O9 0.765048 0.810019 0.512053
O O10 0.773026 0.000000 0.429605
O O11 0.849875 0.500000 0.824905
O O12 0.881242 0.320743 0.728165
O O13 0.000000 0.383184 0.000000
O O14 0.943391 0.863505 0.690553
O O15 0.088368 0.000000 0.807773
#
# Coordination Sequence:
#
# PCOD8057067 Si02
#       6
#     4   4   4   4   4   4
#     4   9  18  33  49  66  93 124 150 182 228 275
#     4   9  17  29  45  69  83 124 157 187 216 260
#     4   9  18  28  42  64  96 127 147 176 221 271
#     4   9  17  31  47  66  93 122 153 188 232 266
#     4  10  17  26  39  64 100 129 148 169 213 270
#     4  10  17  27  42  70  89 121 150 185 223 261
#
# _framework density 14.766168
#
# number of rings (size 3 to 8) (size 9 to 14) (size 15 to 20)
#    1.000    1.667    1.667    3.000    0.000    4.667 
#    0.000    0.833    0.000    9.500    0.000    1.167 
#    0.000    0.000    0.000    0.000    0.000    0.000 
#
# Total GULP energy -297345.525107 kJ/mol
# GULP energy per Si atom -12389.396879 kJ/mol
# Density = 1.473256 g / cm^3
# Si number density = 14.766168 Si / 1000 Ang^3
#
#
#
# Elastic Constant Matrix: (Units=GPa)
#
#
# Indices 1 2 3 4 5 6 
#
# 1 82.9182 28.5671 43.0305 0.0000 5.9274 0.0000
# 2 28.5671 72.9693 43.8284 0.0000 -8.6857 0.0000
# 3 43.0305 43.8284 105.8172 0.0000 -10.3167 0.0000
# 4 0.0000 0.0000 0.0000 6.7337 0.0000 2.7237
# 5 5.9274 -8.6857 -10.3167 0.0000 17.8678 0.0000
# 6 0.0000 0.0000 0.0000 2.7237 0.0000 11.5968
#
#
#
# Elastic Compliance Matrix: (Units=1/GPa)
#
#
# Indices 1 2 3 4 5 6 
#
# 1 0.017857 -0.004457 -0.006574 0.000000 -0.011886 0.000000
# 2 -0.004457 0.019748 -0.005602 0.000000 0.007843 0.000000
# 3 -0.006574 -0.005602 0.015250 0.000000 0.008263 0.000000
# 4 0.000000 0.000000 0.000000 0.164095 0.000000 -0.038540
# 5 -0.011886 0.007843 0.008263 0.000000 0.068493 0.000000
# 6 0.000000 0.000000 0.000000 -0.038540 0.000000 0.095283
#
#
# Mechanical properties :
#
#
# Convention : Reuss Voigt Hill
#
# Bulk Modulus (GPa) = 51.05319 54.72853 52.89086
# Shear Modulus (GPa) = 11.88998 16.99158 14.44078
#
# Velocity S-wave (km/s) = 2.84071 3.39589 3.13063
# Velocity P-wave (km/s) = 6.73862 7.24707 6.99747
#
# Compressibility (1/GPa) = 0.01958742
#
# Stress axis : x y z
#
# Youngs Moduli (GPa) = 56.00008 50.63846 65.57504
#
# Poissons Ratio (x) = 0.22569 0.43112
# Poissons Ratio (y) = 0.24959 0.36737
# Poissons Ratio (z) = 0.36817 0.28369
#
# Static dielectric constant tensor:
#      x y z
#    x 2.686080 0.000000 -0.030910 
#    y 0.000000 2.700300 0.000000 
#    z -0.030910 0.000000 2.826590 
# 
# 
# High freq. dielectric constant tensor:
#      x y z
#    x 1.543200 0.000000 -0.004820 
#    y 0.000000 1.538260 0.000000 
#    z -0.004820 0.000000 1.564810 
# 
# From -- ./inp_files/28753.got.cif
#   From: 2010.06.25/outbox.cif.g09.slc.cpg/sg10_15_cif.got.tgz:28753.got - 2010.06.27 22:07:45.
