data_PCOD8057990
_publ_section_title
;
Structure prediction by ZEFSAII (Michael W. Deem and Ramdas Pophale) SiO2 
 PCOD8057990
Probable space group: P 2/M
;
_chemical_formula_sum "Si O2"
_cell_formula_units_Z 28
_cell_length_a 22.725075
_cell_length_b 13.279232
_cell_length_c 5.103995
_cell_angle_alpha 90.000000
_cell_angle_beta 103.552630
_cell_angle_gamma 90.000000
_cell_volume 1497.352568
_symmetry_space_group_name_H-M "P 2/M"
_symmetry_group_IT_number 10
_symmetry_cell_setting 'monoclinic'
loop_
_space_group_symop_operation_xyz
x,y,z
-x,y,-z
-x,-y,-z
x,-y,z
loop_
_atom_site_type_symbol
_atom_site_label
_atom_site_fract_x
_atom_site_fract_y
_atom_site_fract_z
Si Si1 0.172187 0.614979 0.116406
Si Si2 0.751135 0.382867 0.312087
Si Si3 0.071273 0.768673 0.083811
Si Si4 0.928537 0.110249 0.415922
Si Si5 0.582458 0.000000 0.520658
Si Si6 0.565568 0.783867 0.598161
Si Si7 0.352863 0.777250 0.818842
Si Si8 0.652380 0.000000 0.092078
O O1 0.157466 0.500000 0.156888
O O2 0.220381 0.652224 0.382721
O O3 0.107301 0.666875 0.074460
O O4 0.198704 0.633922 0.857672
O O5 0.729757 0.500000 0.295428
O O6 0.695258 0.310882 0.192632
O O7 0.093175 0.814657 0.381126
O O8 0.091195 0.848604 0.885605
O O9 0.000000 0.744006 0.000000
O O10 0.000000 0.099751 0.500000
O O11 0.898893 0.000000 0.424122
O O12 0.546692 0.901051 0.565508
O O13 0.593212 0.000000 0.218761
O O14 0.643120 0.000000 0.769655
O O15 0.500000 0.726804 0.500000
O O16 0.613917 0.758901 0.422496
O O17 0.596148 0.760601 0.907381
O O18 0.319361 0.888835 0.802879
#
# Coordination Sequence:
#
# PCOD8057990 Si02
#       8
#     4   4   4   4   2   4   4   2
#     4  10  21  37  57  80 103 132 174 227 270 312
#     4  10  21  38  59  76  96 137 188 226 256 304
#     4  10  19  32  54  82 110 140 168 213 276 324
#     4   9  17  30  50  75 106 144 180 207 239 301
#     4   8  15  26  42  70 104 134 164 194 237 308
#     4  10  18  29  48  77 108 134 166 209 259 313
#     4  10  19  33  53  74 101 138 172 211 258 312
#     4   8  16  28  47  72  98 132 161 200 260 300
#
# _framework density 18.699672
#
# number of rings (size 3 to 8) (size 9 to 14) (size 15 to 20)
#    0.000    2.429    0.000    2.786    0.000    2.000 
#    0.000    4.286    9.429    7.714    0.000    0.000 
#    0.000    0.000    0.000    0.000    0.000    0.000 
#
# Total GULP energy -346880.950331 kJ/mol
# GULP energy per Si atom -12388.605369 kJ/mol
# Density = 1.865711 g / cm^3
# Si number density = 18.699672 Si / 1000 Ang^3
#
#
#
# Elastic Constant Matrix: (Units=GPa)
#
#
# Indices 1 2 3 4 5 6 
#
# 1 59.4141 45.7072 14.9690 0.0000 1.3968 0.0000
# 2 45.7072 81.4027 13.8733 0.0000 8.8682 0.0000
# 3 14.9690 13.8733 77.3608 0.0000 -13.2213 0.0000
# 4 0.0000 0.0000 0.0000 43.4739 0.0000 -0.5002
# 5 1.3968 8.8682 -13.2213 0.0000 24.0381 0.0000
# 6 0.0000 0.0000 0.0000 -0.5002 0.0000 12.7973
#
#
#
# Elastic Compliance Matrix: (Units=1/GPa)
#
#
# Indices 1 2 3 4 5 6 
#
# 1 0.030461 -0.017074 -0.002272 0.000000 0.003279 0.000000
# 2 -0.017074 0.023247 -0.002386 0.000000 -0.008896 0.000000
# 3 -0.002272 -0.002386 0.015416 0.000000 0.009491 0.000000
# 4 0.000000 0.000000 0.000000 0.023013 0.000000 0.000900
# 5 0.003279 -0.008896 0.009491 0.000000 0.049912 0.000000
# 6 0.000000 0.000000 0.000000 0.000900 0.000000 0.078177
#
#
# Mechanical properties :
#
#
# Convention : Reuss Voigt Hill
#
# Bulk Modulus (GPa) = 38.96856 40.80851 39.88853
# Shear Modulus (GPa) = 18.36597 25.63707 22.00152
#
# Velocity S-wave (km/s) = 3.13733 3.70671 3.43384
# Velocity P-wave (km/s) = 5.83166 6.33956 6.09091
#
# Compressibility (1/GPa) = 0.02566171
#
# Stress axis : x y z
#
# Youngs Moduli (GPa) = 32.82863 43.01576 64.86795
#
# Poissons Ratio (x) = 0.73445 0.14736
# Poissons Ratio (y) = 0.56051 0.15476
# Poissons Ratio (z) = 0.07458 0.10262
#
# Static dielectric constant tensor:
#      x y z
#    x 3.070550 0.000000 -0.138490 
#    y 0.000000 3.470880 0.000000 
#    z -0.138490 0.000000 3.767750 
# 
# 
# High freq. dielectric constant tensor:
#      x y z
#    x 1.695910 0.000000 -0.018960 
#    y 0.000000 1.714440 0.000000 
#    z -0.018960 0.000000 1.742520 
# 
# From -- ./inp_files/12478.got.cif
#   From: 2010.06.25/outbox.cif.g09.slc.cpg/sg10_7_cif.got.tgz:12478.got - 2010.06.27 22:07:45.
