data_PCOD8057257
_publ_section_title
;
Structure prediction by ZEFSAII (Michael W. Deem and Ramdas Pophale) SiO2 
 PCOD8057257
Probable space group: P 2/M
;
_chemical_formula_sum "Si O2"
_cell_formula_units_Z 32
_cell_length_a 11.724620
_cell_length_b 9.099384
_cell_length_c 17.120125
_cell_angle_alpha 90.000000
_cell_angle_beta 85.937042
_cell_angle_gamma 90.000000
_cell_volume 1821.901345
_symmetry_space_group_name_H-M "P 2/M"
_symmetry_group_IT_number 10
_symmetry_cell_setting 'monoclinic'
loop_
_space_group_symop_operation_xyz
x,y,z
-x,y,-z
-x,-y,-z
x,-y,z
loop_
_atom_site_type_symbol
_atom_site_label
_atom_site_fract_x
_atom_site_fract_y
_atom_site_fract_z
Si Si1 0.591697 0.674411 0.737287
Si Si2 0.750981 0.173088 0.605216
Si Si3 0.963001 0.172790 0.918164
Si Si4 0.382507 0.172205 0.537726
Si Si5 0.633383 0.827843 0.286425
Si Si6 0.886180 0.170747 0.234289
Si Si7 0.059596 0.665050 0.321402
Si Si8 0.783859 0.662455 0.838231
O O1 0.593855 0.500000 0.721417
O O2 0.651213 0.756232 0.662191
O O3 0.463610 0.734855 0.753057
O O4 0.657546 0.711289 0.815620
O O5 0.721258 0.206734 0.516338
O O6 0.875158 0.243869 0.614493
O O7 0.755175 0.000000 0.623110
O O8 0.837193 0.231269 0.900869
O O9 0.057790 0.221624 0.850217
O O10 0.951809 0.000000 0.924168
O O11 0.000000 0.238985 0.000000
O O12 0.500000 0.244815 0.500000
O O13 0.354025 0.231799 0.625385
O O14 0.401912 0.000000 0.543677
O O15 0.751767 0.796085 0.236070
O O16 0.601982 0.000000 0.285057
O O17 0.940325 0.258112 0.304664
O O18 0.910689 0.000000 0.248759
O O19 0.035761 0.500000 0.352376
O O20 0.139537 0.664687 0.242433
O O21 0.780579 0.500000 0.875097
#
# Coordination Sequence:
#
# PCOD8057257 Si02
#       8
#     4   4   4   4   4   4   4   4
#     4  10  19  30  45  69  98 125 157 197 238 275
#     4  10  17  28  48  68  90 121 160 203 242 277
#     4   9  17  30  50  76 100 118 143 187 236 276
#     4   9  16  28  45  67  92 119 157 202 239 272
#     4  10  19  32  49  68  92 125 163 198 232 278
#     4   9  18  32  50  71  94 123 159 191 228 284
#     4   9  17  30  47  67  94 123 155 198 241 278
#     4   8  16  29  45  68  95 121 152 188 222 269
#
# _framework density 17.564069
#
# number of rings (size 3 to 8) (size 9 to 14) (size 15 to 20)
#    0.000    2.750    1.250    1.875    0.000    4.250 
#    0.000    2.500    0.000    4.500    0.000    5.250 
#    0.000    0.000    0.000    0.000    0.000    0.000 
#
# Total GULP energy -396678.175847 kJ/mol
# GULP energy per Si atom -12396.192995 kJ/mol
# Density = 1.752409 g / cm^3
# Si number density = 17.564069 Si / 1000 Ang^3
#
#
#
# Elastic Constant Matrix: (Units=GPa)
#
#
# Indices 1 2 3 4 5 6 
#
# 1 114.9970 48.0692 54.5071 0.0000 25.3190 0.0000
# 2 48.0692 68.7044 33.8289 0.0000 14.3944 0.0000
# 3 54.5071 33.8289 82.0561 0.0000 23.3625 0.0000
# 4 0.0000 0.0000 0.0000 11.1429 0.0000 5.8030
# 5 25.3190 14.3944 23.3625 0.0000 27.1609 0.0000
# 6 0.0000 0.0000 0.0000 5.8030 0.0000 26.2171
#
#
#
# Elastic Compliance Matrix: (Units=1/GPa)
#
#
# Indices 1 2 3 4 5 6 
#
# 1 0.015633 -0.006795 -0.005905 0.000000 -0.005892 0.000000
# 2 -0.006795 0.021593 -0.003885 0.000000 -0.001767 0.000000
# 3 -0.005905 -0.003885 0.020603 0.000000 -0.010158 0.000000
# 4 0.000000 0.000000 0.000000 0.101436 0.000000 -0.022452
# 5 -0.005892 -0.001767 -0.010158 0.000000 0.051984 0.000000
# 6 0.000000 0.000000 0.000000 -0.022452 0.000000 0.043113
#
#
# Mechanical properties :
#
#
# Convention : Reuss Voigt Hill
#
# Bulk Modulus (GPa) = 40.55543 59.84089 50.19816
# Shear Modulus (GPa) = 16.90611 21.52767 19.21689
#
# Velocity S-wave (km/s) = 3.10585 3.50475 3.31131
# Velocity P-wave (km/s) = 6.00015 7.10786 6.57737
#
# Compressibility (1/GPa) = 0.02465761
#
# Stress axis : x y z
#
# Youngs Moduli (GPa) = 63.96916 46.31230 48.53617
#
# Poissons Ratio (x) = 0.31471 0.28662
# Poissons Ratio (y) = 0.43469 0.18855
# Poissons Ratio (z) = 0.37775 0.17991
#
# Static dielectric constant tensor:
#      x y z
#    x 3.336800 0.000000 0.282480 
#    y 0.000000 3.218780 0.000000 
#    z 0.282480 0.000000 3.160520 
# 
# 
# High freq. dielectric constant tensor:
#      x y z
#    x 1.675450 0.000000 0.027870 
#    y 0.000000 1.669730 0.000000 
#    z 0.027870 0.000000 1.646670 
# 
# From -- ./inp_files/52778.got.cif
#   From: 2010.06.25/outbox.cif.g09.slc.cpg/sg10_27_cif.got.tgz:52778.got - 2010.06.27 22:07:45.
