data_PCOD8057936
_publ_section_title
;
Structure prediction by ZEFSAII (Michael W. Deem and Ramdas Pophale) SiO2 
 PCOD8057936
Probable space group: P 2/M
;
_chemical_formula_sum "Si O2"
_cell_formula_units_Z 32
_cell_length_a 8.236700
_cell_length_b 17.980979
_cell_length_c 21.550839
_cell_angle_alpha 90.000000
_cell_angle_beta 144.912113
_cell_angle_gamma 90.000000
_cell_volume 1834.728922
_symmetry_space_group_name_H-M "P 2/M"
_symmetry_group_IT_number 10
_symmetry_cell_setting 'monoclinic'
loop_
_space_group_symop_operation_xyz
x,y,z
-x,y,-z
-x,-y,-z
x,-y,z
loop_
_atom_site_type_symbol
_atom_site_label
_atom_site_fract_x
_atom_site_fract_y
_atom_site_fract_z
Si Si1 0.075294 0.684804 0.137112
Si Si2 0.778527 0.178319 0.050665
Si Si3 0.723677 0.580437 0.954645
Si Si4 0.250498 0.413187 0.298789
Si Si5 0.824830 0.652052 0.263253
Si Si6 0.428535 0.775952 0.148769
Si Si7 0.808071 0.918720 0.879896
Si Si8 0.116467 0.414990 0.470379
O O1 0.270743 0.630527 0.239698
O O2 0.252034 0.715697 0.133696
O O3 0.951321 0.754791 0.138118
O O4 0.792476 0.639410 0.029757
O O5 0.721068 0.210902 0.963852
O O6 0.500000 0.154267 0.000000
O O7 0.982427 0.106572 0.110288
O O8 0.653563 0.500000 0.962345
O O9 0.461741 0.604958 0.830493
O O10 0.000000 0.573373 0.000000
O O11 0.171851 0.500000 0.263474
O O12 0.546796 0.407275 0.426679
O O13 0.017976 0.370499 0.266066
O O14 0.740389 0.740356 0.236225
O O15 0.984772 0.636913 0.377112
O O16 0.437360 0.856315 0.186628
O O17 0.675176 0.000000 0.822460
O O18 0.000000 0.926052 0.000000
O O19 0.024493 0.500000 0.428847
O O20 0.000000 0.387974 0.500000
#
# Coordination Sequence:
#
# PCOD8057936 Si02
#       8
#     4   4   4   4   4   4   4   4
#     4  11  19  34  48  69 101 137 180 213 253 313
#     4  10  18  29  47  73 104 136 169 212 263 306
#     4  11  21  30  47  70  96 135 176 217 254 307
#     4  11  24  37  52  74 103 136 177 232 277 310
#     4  12  21  36  52  73 102 133 172 221 273 313
#     4  10  19  33  52  72 101 137 174 207 256 306
#     4   8  16  30  49  71 101 138 173 203 242 308
#     4  10  22  39  56  71  92 131 181 228 273 316
#
# _framework density 17.441268000000001
#
# number of rings (size 3 to 8) (size 9 to 14) (size 15 to 20)
#    0.000    1.625    2.500    4.500    0.000    1.250 
#    0.000    1.250    0.000    0.000    0.000    0.000 
#    0.000   14.500    0.000    0.000    0.000    3.250 
#
# Total GULP energy -396533.932672 kJ/mol
# GULP energy per Si atom -12391.685396 kJ/mol
# Density = 1.740157 g / cm^3
# Si number density = 17.441268 Si / 1000 Ang^3
#
#
#
# Elastic Constant Matrix: (Units=GPa)
#
#
# Indices 1 2 3 4 5 6 
#
# 1 75.2088 38.8870 16.3728 0.0000 8.1193 0.0000
# 2 38.8870 143.7477 32.7424 0.0000 5.8275 0.0000
# 3 16.3728 32.7424 65.0110 0.0000 -0.8796 0.0000
# 4 0.0000 0.0000 0.0000 15.4589 0.0000 6.7394
# 5 8.1193 5.8275 -0.8796 0.0000 25.0819 0.0000
# 6 0.0000 0.0000 0.0000 6.7394 0.0000 16.7457
#
#
#
# Elastic Compliance Matrix: (Units=1/GPa)
#
#
# Indices 1 2 3 4 5 6 
#
# 1 0.016175 -0.003675 -0.002283 0.000000 -0.004462 0.000000
# 2 -0.003675 0.008791 -0.003515 0.000000 -0.000976 0.000000
# 3 -0.002283 -0.003515 0.017757 0.000000 0.002179 0.000000
# 4 0.000000 0.000000 0.000000 0.078452 0.000000 -0.031573
# 5 -0.004462 -0.000976 0.002179 0.000000 0.041617 0.000000
# 6 0.000000 0.000000 0.000000 -0.031573 0.000000 0.072424
#
#
# Mechanical properties :
#
#
# Convention : Reuss Voigt Hill
#
# Bulk Modulus (GPa) = 42.05825 51.10801 46.58313
# Shear Modulus (GPa) = 19.07754 24.52165 21.79959
#
# Velocity S-wave (km/s) = 3.31088 3.75368 3.53921
# Velocity P-wave (km/s) = 6.22755 6.93926 6.59302
#
# Compressibility (1/GPa) = 0.02377655
#
# Stress axis : x y z
#
# Youngs Moduli (GPa) = 61.82311 113.75249 56.31595
#
# Poissons Ratio (x) = 0.41801 0.12858
# Poissons Ratio (y) = 0.22719 0.19797
# Poissons Ratio (z) = 0.14116 0.39987
#
# Static dielectric constant tensor:
#      x y z
#    x 3.220190 0.000000 0.114510 
#    y 0.000000 3.641200 0.000000 
#    z 0.114510 0.000000 3.073840 
# 
# 
# High freq. dielectric constant tensor:
#      x y z
#    x 1.674240 0.000000 0.009020 
#    y 0.000000 1.666470 0.000000 
#    z 0.009020 0.000000 1.636200 
# 
# From -- ./inp_files/25695.got.cif
#   From: 2010.06.25/outbox.cif.g09.slc.cpg/sg10_13_cif.got.tgz:25695.got - 2010.06.27 22:07:45.
