data_PCOD8057107
_publ_section_title
;
Structure prediction by ZEFSAII (Michael W. Deem and Ramdas Pophale) SiO2 
 PCOD8057107
Probable space group: P 2/M
;
_chemical_formula_sum "Si O2"
_cell_formula_units_Z 32
_cell_length_a 11.542126
_cell_length_b 8.651987
_cell_length_c 18.169320
_cell_angle_alpha 90.000000
_cell_angle_beta 87.779167
_cell_angle_gamma 90.000000
_cell_volume 1813.067690
_symmetry_space_group_name_H-M "P 2/M"
_symmetry_group_IT_number 10
_symmetry_cell_setting 'monoclinic'
loop_
_space_group_symop_operation_xyz
x,y,z
-x,y,-z
-x,-y,-z
x,-y,z
loop_
_atom_site_type_symbol
_atom_site_label
_atom_site_fract_x
_atom_site_fract_y
_atom_site_fract_z
Si Si1 0.371988 0.817558 0.511581
Si Si2 0.658016 0.682214 0.213937
Si Si3 0.395436 0.316986 0.235628
Si Si4 0.007121 0.677903 0.584291
Si Si5 0.372159 0.819154 0.932217
Si Si6 0.775048 0.818656 0.348325
Si Si7 0.623717 0.319726 0.923970
Si Si8 0.747553 0.678384 0.623431
O O1 0.500000 0.744159 0.500000
O O2 0.316483 0.757750 0.588790
O O3 0.290738 0.768973 0.447277
O O4 0.379268 0.000000 0.512406
O O5 0.660237 0.500000 0.201337
O O6 0.528467 0.742779 0.238452
O O7 0.700853 0.766491 0.137466
O O8 0.749042 0.728263 0.274116
O O9 0.397391 0.500000 0.240300
O O10 0.335602 0.268180 0.159196
O O11 0.317744 0.249259 0.303892
O O12 0.048530 0.500000 0.584291
O O13 0.884965 0.698860 0.628716
O O14 0.000000 0.735721 0.500000
O O15 0.096122 0.781908 0.627402
O O16 0.487289 0.715890 0.928340
O O17 0.400018 0.000000 0.928868
O O18 0.310878 0.775829 0.012296
O O19 0.763026 0.000000 0.334463
O O20 0.645786 0.500000 0.936549
O O21 0.713987 0.500000 0.613820
#
# Coordination Sequence:
#
# PCOD8057107 Si02
#       8
#     4   4   4   4   4   4   4   4
#     4  10  21  34  47  68  98 128 156 191 241 294
#     4  10  19  32  49  70  99 129 161 198 242 289
#     4   8  16  29  47  72  98 127 160 200 240 282
#     4  10  20  35  53  72  92 121 163 209 246 283
#     4  10  17  26  42  67  98 130 164 194 233 283
#     4  11  22  34  50  70  95 126 161 201 245 290
#     4   9  15  26  43  65  96 131 166 196 233 280
#     4  10  19  33  52  71  93 123 164 204 240 280
#
# _framework density 17.649643000000001
#
# number of rings (size 3 to 8) (size 9 to 14) (size 15 to 20)
#    0.000    2.250    1.250    4.500    0.000    1.500 
#    0.000    3.125    0.000    0.000    0.000    0.875 
#    0.000    7.000    0.000    0.000    0.000    0.000 
#
# Total GULP energy -396665.351015 kJ/mol
# GULP energy per Si atom -12395.792219 kJ/mol
# Density = 1.760947 g / cm^3
# Si number density = 17.649643 Si / 1000 Ang^3
#
#
#
# Elastic Constant Matrix: (Units=GPa)
#
#
# Indices 1 2 3 4 5 6 
#
# 1 53.8894 11.9895 23.2661 0.0000 11.9181 0.0000
# 2 11.9895 31.8937 31.5005 0.0000 2.5430 0.0000
# 3 23.2661 31.5005 127.8463 0.0000 23.5408 0.0000
# 4 0.0000 0.0000 0.0000 22.8729 0.0000 5.5417
# 5 11.9181 2.5430 23.5408 0.0000 15.0570 0.0000
# 6 0.0000 0.0000 0.0000 5.5417 0.0000 16.5714
#
#
#
# Elastic Compliance Matrix: (Units=1/GPa)
#
#
# Indices 1 2 3 4 5 6 
#
# 1 0.024365 -0.009029 0.001490 0.000000 -0.020090 0.000000
# 2 -0.009029 0.046556 -0.013616 0.000000 0.020572 0.000000
# 3 0.001490 -0.013616 0.015025 0.000000 -0.022370 0.000000
# 4 0.000000 0.000000 0.000000 0.047574 0.000000 -0.015909
# 5 -0.020090 0.020572 -0.022370 0.000000 0.113816 0.000000
# 6 0.000000 0.000000 0.000000 -0.015909 0.000000 0.065665
#
#
# Mechanical properties :
#
#
# Convention : Reuss Voigt Hill
#
# Bulk Modulus (GPa) = 22.91692 38.57130 30.74411
# Shear Modulus (GPa) = 13.51872 20.69181 17.10526
#
# Velocity S-wave (km/s) = 2.77058 3.42770 3.11650
# Velocity P-wave (km/s) = 4.82155 6.12917 5.51426
#
# Compressibility (1/GPa) = 0.04363588
#
# Stress axis : x y z
#
# Youngs Moduli (GPa) = 41.04209 21.47939 66.55707
#
# Poissons Ratio (x) = 0.19394 -0.09916
# Poissons Ratio (y) = 0.37057 0.90624
# Poissons Ratio (z) = -0.06115 0.29246
#
# Static dielectric constant tensor:
#      x y z
#    x 3.013040 0.000000 -0.123860 
#    y 0.000000 3.095640 0.000000 
#    z -0.123860 0.000000 3.980110 
# 
# 
# High freq. dielectric constant tensor:
#      x y z
#    x 1.633170 0.000000 0.005830 
#    y 0.000000 1.674540 0.000000 
#    z 0.005830 0.000000 1.700500 
# 
# From -- ./inp_files/75981.got.cif
#   From: 2010.06.25/outbox.cif.g09.slc.cpg/sg10_38_cif.got.tgz:75981.got - 2010.06.27 22:07:45.
