data_PCOD8057395
_publ_section_title
;
Structure prediction by ZEFSAII (Michael W. Deem and Ramdas Pophale) SiO2 
 PCOD8057395
Probable space group: P 2/M
;
_chemical_formula_sum "Si O2"
_cell_formula_units_Z 30
_cell_length_a 9.671372
_cell_length_b 18.234660
_cell_length_c 10.705362
_cell_angle_alpha 90.000000
_cell_angle_beta 123.725074
_cell_angle_gamma 90.000000
_cell_volume 1570.217021
_symmetry_space_group_name_H-M "P 2/M"
_symmetry_group_IT_number 10
_symmetry_cell_setting 'monoclinic'
loop_
_space_group_symop_operation_xyz
x,y,z
-x,y,-z
-x,-y,-z
x,-y,z
loop_
_atom_site_type_symbol
_atom_site_label
_atom_site_fract_x
_atom_site_fract_y
_atom_site_fract_z
Si Si1 0.190386 0.223273 0.779843
Si Si2 0.000000 0.315784 0.500000
Si Si3 0.327421 0.643019 0.965845
Si Si4 0.186612 0.083058 0.635803
Si Si5 0.679777 0.915626 0.565116
Si Si6 0.970842 0.415298 0.707753
Si Si7 0.818157 0.662895 0.852295
Si Si8 0.092817 0.189656 0.172335
O O1 0.143736 0.264187 0.627701
O O2 0.329508 0.271823 0.920159
O O3 0.246082 0.140065 0.773421
O O4 0.034994 0.223848 0.793816
O O5 0.085136 0.367304 0.438489
O O6 0.165414 0.600765 0.833234
O O7 0.500000 0.607500 0.000000
O O8 0.317271 0.637438 0.112364
O O9 0.297844 0.094886 0.570755
O O10 0.000000 0.100238 0.500000
O O11 0.202100 0.000000 0.696801
O O12 0.500000 0.881088 0.500000
O O13 0.818272 0.878804 0.720253
O O14 0.688050 0.000000 0.608427
O O15 0.949972 0.500000 0.665216
O O16 0.841257 0.396893 0.754632
O O17 0.772032 0.745115 0.782694
O O18 0.000000 0.675372 0.000000
O O19 0.000000 0.162300 0.000000
#
# Coordination Sequence:
#
# PCOD8057395 Si02
#       8
#     4   2   4   4   4   4   4   4
#     4  11  18  33  57  80 108 141 185 231 274 322
#     4  10  17  30  55  84 104 132 184 226 269 326
#     4  10  21  35  54  81 110 142 181 230 278 333
#     4  10  19  32  54  79 105 144 190 227 266 331
#     4  10  22  37  53  80 115 146 182 232 288 336
#     4  10  20  34  56  81 109 141 177 228 276 332
#     4   9  17  34  53  77 105 140 183 225 268 332
#     4  11  18  34  59  80 106 144 190 234 269 330
#
# _framework density 19.105640000000001
#
# number of rings (size 3 to 8) (size 9 to 14) (size 15 to 20)
#    0.000    1.867    7.333    0.200    0.000    4.000 
#    0.000    0.000    0.000    0.400    0.000    4.667 
#    0.000    0.000    0.000    0.000    0.000    0.000 
#
# Total GULP energy -371797.142845 kJ/mol
# GULP energy per Si atom -12393.238095 kJ/mol
# Density = 1.906215 g / cm^3
# Si number density = 19.105640 Si / 1000 Ang^3
#
#
#
# Elastic Constant Matrix: (Units=GPa)
#
#
# Indices 1 2 3 4 5 6 
#
# 1 107.3943 11.9972 23.4824 0.0000 -16.2040 0.0000
# 2 11.9972 89.2600 22.1070 0.0000 -15.1672 0.0000
# 3 23.4824 22.1070 52.3098 0.0000 -17.6259 0.0000
# 4 0.0000 0.0000 0.0000 43.4729 0.0000 -39.2246
# 5 -16.2040 -15.1672 -17.6259 0.0000 24.5322 0.0000
# 6 0.0000 0.0000 0.0000 -39.2246 0.0000 74.7394
#
#
#
# Elastic Compliance Matrix: (Units=1/GPa)
#
#
# Indices 1 2 3 4 5 6 
#
# 1 0.010738 0.000192 -0.003261 0.000000 0.004868 0.000000
# 2 0.000192 0.013039 -0.003744 0.000000 0.005498 0.000000
# 3 -0.003261 -0.003744 0.027256 0.000000 0.015114 0.000000
# 4 0.000000 0.000000 0.000000 0.043693 0.000000 0.022931
# 5 0.004868 0.005498 0.015114 0.000000 0.058237 0.000000
# 6 0.000000 0.000000 0.000000 0.022931 0.000000 0.025414
#
#
# Mechanical properties :
#
#
# Convention : Reuss Voigt Hill
#
# Bulk Modulus (GPa) = 26.73385 40.45969 33.59677
# Shear Modulus (GPa) = 24.45336 41.30740 32.88038
#
# Velocity S-wave (km/s) = 3.58145 4.65483 4.15297
# Velocity P-wave (km/s) = 5.57902 7.07904 6.37331
#
# Compressibility (1/GPa) = 0.03740576
#
# Stress axis : x y z
#
# Youngs Moduli (GPa) = 93.13072 76.69323 36.68954
#
# Poissons Ratio (x) = -0.01469 0.11964
# Poissons Ratio (y) = -0.01784 0.13736
# Poissons Ratio (z) = 0.30369 0.28713
#
# Static dielectric constant tensor:
#      x y z
#    x 3.562900 0.000000 -0.339930 
#    y 0.000000 3.553920 0.000000 
#    z -0.339930 0.000000 3.749730 
# 
# 
# High freq. dielectric constant tensor:
#      x y z
#    x 1.735260 0.000000 -0.034090 
#    y 0.000000 1.745770 0.000000 
#    z -0.034090 0.000000 1.708940 
# 
# From -- ./inp_files/43422.got.cif
#   From: 2010.06.25/outbox.cif.g09.slc.cpg/sg10_22_cif.got.tgz:43422.got - 2010.06.27 22:07:45.
