data_PCOD8057209
_publ_section_title
;
Structure prediction by ZEFSAII (Michael W. Deem and Ramdas Pophale) SiO2 
 PCOD8057209
Probable space group: P 2/M
;
_chemical_formula_sum "Si O2"
_cell_formula_units_Z 28
_cell_length_a 14.523560
_cell_length_b 8.905359
_cell_length_c 13.815950
_cell_angle_alpha 90.000000
_cell_angle_beta 103.295997
_cell_angle_gamma 90.000000
_cell_volume 1739.022141
_symmetry_space_group_name_H-M "P 2/M"
_symmetry_group_IT_number 10
_symmetry_cell_setting 'monoclinic'
loop_
_space_group_symop_operation_xyz
x,y,z
-x,y,-z
-x,-y,-z
x,-y,z
loop_
_atom_site_type_symbol
_atom_site_label
_atom_site_fract_x
_atom_site_fract_y
_atom_site_fract_z
Si Si1 0.383795 0.171709 0.082899
Si Si2 0.104720 0.678000 0.917251
Si Si3 0.423284 0.169751 0.769309
Si Si4 0.298886 0.677488 0.880461
Si Si5 0.898669 0.322039 0.866309
Si Si6 0.702210 0.676775 0.754494
Si Si7 0.462919 0.822144 0.387815
O O1 0.495460 0.176719 0.129942
O O2 0.330712 0.273743 0.147765
O O3 0.347359 0.000000 0.080329
O O4 0.365227 0.240136 0.973713
O O5 0.105212 0.500000 0.920194
O O6 0.190150 0.732465 0.868740
O O7 0.001699 0.734759 0.853067
O O8 0.120090 0.741330 0.029725
O O9 0.335172 0.271610 0.783126
O O10 0.463869 0.232726 0.677139
O O11 0.386786 0.000000 0.746663
O O12 0.309115 0.500000 0.894617
O O13 0.899831 0.500000 0.874658
O O14 0.813278 0.274232 0.773560
O O15 0.688777 0.500000 0.740619
O O16 0.641530 0.755639 0.655730
O O17 0.500000 0.764796 0.500000
O O18 0.452718 0.000000 0.380976
#
# Coordination Sequence:
#
# PCOD8057209 Si02
#       7
#     4   4   4   4   4   4   4
#     4  10  19  30  42  58  88 127 157 179 211 262
#     4   8  14  24  39  60  88 122 154 180 211 256
#     4   9  19  32  44  60  84 116 148 177 217 269
#     4  11  19  27  42  65  89 117 153 188 218 251
#     4   8  13  24  41  61  88 120 151 181 216 258
#     4  10  17  27  47  72  92 113 147 190 228 258
#     4   9  19  36  53  67  87 117 147 176 221 280
#
# _framework density 16.101002999999999
#
# number of rings (size 3 to 8) (size 9 to 14) (size 15 to 20)
#    0.000    2.714    1.429    3.429    0.000    4.857 
#    0.000    0.000    0.000    4.286    0.000    1.000 
#    0.000    8.000    0.000    0.000    0.000    0.000 
#
# Total GULP energy -346965.304452 kJ/mol
# GULP energy per Si atom -12391.618016 kJ/mol
# Density = 1.606436 g / cm^3
# Si number density = 16.101003 Si / 1000 Ang^3
#
#
#
# Elastic Constant Matrix: (Units=GPa)
#
#
# Indices 1 2 3 4 5 6 
#
# 1 133.0711 30.2865 61.9904 0.0000 3.3442 0.0000
# 2 30.2865 29.4727 22.8204 0.0000 3.5172 0.0000
# 3 61.9904 22.8204 86.6225 0.0000 6.8930 0.0000
# 4 0.0000 0.0000 0.0000 17.1461 0.0000 -5.3168
# 5 3.3442 3.5172 6.8930 0.0000 16.1353 0.0000
# 6 0.0000 0.0000 0.0000 -5.3168 0.0000 4.9062
#
#
#
# Elastic Compliance Matrix: (Units=1/GPa)
#
#
# Indices 1 2 3 4 5 6 
#
# 1 0.012505 -0.007591 -0.007116 0.000000 0.002103 0.000000
# 2 -0.007591 0.047572 -0.006626 0.000000 -0.005966 0.000000
# 3 -0.007116 -0.006626 0.018789 0.000000 -0.005107 0.000000
# 4 0.000000 0.000000 0.000000 0.087840 0.000000 0.095190
# 5 0.002103 -0.005966 -0.005107 0.000000 0.065023 0.000000
# 6 0.000000 0.000000 0.000000 0.095190 0.000000 0.306980
#
#
# Mechanical properties :
#
#
# Convention : Reuss Voigt Hill
#
# Bulk Modulus (GPa) = 27.62413 53.26232 40.44323
# Shear Modulus (GPa) = 8.42544 16.57544 12.50044
#
# Velocity S-wave (km/s) = 2.29003 3.21201 2.78938
# Velocity P-wave (km/s) = 4.91796 6.84894 5.96214
#
# Compressibility (1/GPa) = 0.03620023
#
# Stress axis : x y z
#
# Youngs Moduli (GPa) = 79.96984 21.02057 53.22229
#
# Poissons Ratio (x) = 0.15956 0.37875
# Poissons Ratio (y) = 0.60704 0.35264
# Poissons Ratio (z) = 0.56910 0.13928
#
# Static dielectric constant tensor:
#      x y z
#    x 3.433120 0.000000 0.098070 
#    y 0.000000 2.860030 0.000000 
#    z 0.098070 0.000000 2.837360 
# 
# 
# High freq. dielectric constant tensor:
#      x y z
#    x 1.624230 0.000000 0.003040 
#    y 0.000000 1.602260 0.000000 
#    z 0.003040 0.000000 1.573260 
# 
# From -- ./inp_files/65729.got.cif
#   From: 2010.06.25/outbox.cif.g09.slc.cpg/sg10_33_cif.got.tgz:65729.got - 2010.06.27 22:07:45.
