data_PCOD8057224
_publ_section_title
;
Structure prediction by ZEFSAII (Michael W. Deem and Ramdas Pophale) SiO2 
 PCOD8057224
Probable space group: P 2/M
;
_chemical_formula_sum "Si O2"
_cell_formula_units_Z 30
_cell_length_a 13.459783
_cell_length_b 18.957997
_cell_length_c 8.074009
_cell_angle_alpha 90.000000
_cell_angle_beta 121.939612
_cell_angle_gamma 90.000000
_cell_volume 1748.340062
_symmetry_space_group_name_H-M "P 2/M"
_symmetry_group_IT_number 10
_symmetry_cell_setting 'monoclinic'
loop_
_space_group_symop_operation_xyz
x,y,z
-x,y,-z
-x,-y,-z
x,-y,z
loop_
_atom_site_type_symbol
_atom_site_label
_atom_site_fract_x
_atom_site_fract_y
_atom_site_fract_z
Si Si1 0.869794 0.417112 0.553787
Si Si2 0.799237 0.924053 0.057487
Si Si3 0.192429 0.193792 0.350197
Si Si4 0.000000 0.882927 0.000000
Si Si5 0.365377 0.080010 0.375925
Si Si6 0.125356 0.198313 0.649395
Si Si7 0.141100 0.666565 0.139470
Si Si8 0.125412 0.646987 0.768673
O O1 0.852938 0.500000 0.535999
O O2 0.819301 0.387891 0.682398
O O3 0.805994 0.384124 0.332143
O O4 0.004559 0.395185 0.667315
O O5 0.801958 0.859433 0.185675
O O6 0.903650 0.927465 0.014215
O O7 0.801340 0.000000 0.152986
O O8 0.677814 0.915781 0.851696
O O9 0.294060 0.136172 0.421713
O O10 0.194079 0.218121 0.542300
O O11 0.207442 0.260435 0.240950
O O12 0.064499 0.162881 0.196806
O O13 0.500000 0.102445 0.500000
O O14 0.347979 0.000000 0.430177
O O15 0.104024 0.269381 0.734097
O O16 0.000000 0.163626 0.500000
O O17 0.188868 0.637423 0.003500
O O18 0.000000 0.676545 0.000000
#
# Coordination Sequence:
#
# PCOD8057224 Si02
#       8
#     4   4   4   2   4   4   4   4
#     4  10  19  28  41  64  96 138 182 208 238 294
#     4  10  21  32  47  71  99 128 167 211 253 307
#     4  11  19  31  52  72  98 133 171 210 255 310
#     4  10  17  30  48  68  95 128 166 202 253 302
#     4   9  20  39  57  71  93 130 176 221 264 307
#     4  12  19  31  46  72 106 138 167 205 257 309
#     4  10  18  29  46  67  98 136 172 209 251 299
#     4  10  17  28  44  59  93 137 176 204 239 292
#
# _framework density 17.159134000000002
#
# number of rings (size 3 to 8) (size 9 to 14) (size 15 to 20)
#    0.000    1.733    4.667    3.400    0.000    4.267 
#    0.000    0.667    0.000    2.400    0.000    0.000 
#    0.000    0.533    0.000    4.000    0.000    1.333 
#
# Total GULP energy -371718.641652 kJ/mol
# GULP energy per Si atom -12390.621388 kJ/mol
# Density = 1.712008 g / cm^3
# Si number density = 17.159134 Si / 1000 Ang^3
#
#
#
# Elastic Constant Matrix: (Units=GPa)
#
#
# Indices 1 2 3 4 5 6 
#
# 1 45.8238 25.7685 47.8845 0.0000 -10.4094 0.0000
# 2 25.7685 107.9686 46.7580 0.0000 -8.4844 0.0000
# 3 47.8845 46.7580 98.1783 0.0000 -24.6989 0.0000
# 4 0.0000 0.0000 0.0000 19.4584 0.0000 -11.0384
# 5 -10.4094 -8.4844 -24.6989 0.0000 37.9178 0.0000
# 6 0.0000 0.0000 0.0000 -11.0384 0.0000 13.7006
#
#
#
# Elastic Compliance Matrix: (Units=1/GPa)
#
#
# Indices 1 2 3 4 5 6 
#
# 1 0.044857 -0.001468 -0.021723 0.000000 -0.002164 0.000000
# 2 -0.001468 0.011763 -0.005173 0.000000 -0.001141 0.000000
# 3 -0.021723 -0.005173 0.025657 0.000000 0.009592 0.000000
# 4 0.000000 0.000000 0.000000 0.094653 0.000000 0.076260
# 5 -0.002164 -0.001141 0.009592 0.000000 0.031771 0.000000
# 6 0.000000 0.000000 0.000000 0.076260 0.000000 0.134431
#
#
# Mechanical properties :
#
#
# Convention : Reuss Voigt Hill
#
# Bulk Modulus (GPa) = 39.14182 54.75474 46.94828
# Shear Modulus (GPa) = 12.24358 22.98600 17.61479
#
# Velocity S-wave (km/s) = 2.67410 3.66400 3.20747
# Velocity P-wave (km/s) = 5.69166 7.06251 6.41382
#
# Compressibility (1/GPa) = 0.02554812
#
# Stress axis : x y z
#
# Youngs Moduli (GPa) = 22.29315 85.01204 38.97531
#
# Poissons Ratio (x) = 0.12482 0.84667
# Poissons Ratio (y) = 0.03273 0.20162
# Poissons Ratio (z) = 0.48428 0.43977
#
# Static dielectric constant tensor:
#      x y z
#    x 2.864800 0.000000 -0.467370 
#    y 0.000000 3.205610 0.000000 
#    z -0.467370 0.000000 3.476680 
# 
# 
# High freq. dielectric constant tensor:
#      x y z
#    x 1.604340 0.000000 -0.043990 
#    y 0.000000 1.668970 0.000000 
#    z -0.043990 0.000000 1.654750 
# 
# From -- ./inp_files/30000.got.cif
#   From: 2010.06.25/outbox.cif.g09.slc.cpg/sg10_15_cif.got.tgz:30000.got - 2010.06.27 22:07:45.
