data_PCOD8057759
_publ_section_title
;
Structure prediction by ZEFSAII (Michael W. Deem and Ramdas Pophale) SiO2 
 PCOD8057759
Probable space group: P 2/M
;
_chemical_formula_sum "Si O2"
_cell_formula_units_Z 32
_cell_length_a 11.701369
_cell_length_b 8.842320
_cell_length_c 19.671397
_cell_angle_alpha 90.000000
_cell_angle_beta 120.252932
_cell_angle_gamma 90.000000
_cell_volume 1758.151092
_symmetry_space_group_name_H-M "P 2/M"
_symmetry_group_IT_number 10
_symmetry_cell_setting 'monoclinic'
loop_
_space_group_symop_operation_xyz
x,y,z
-x,y,-z
-x,-y,-z
x,-y,z
loop_
_atom_site_type_symbol
_atom_site_label
_atom_site_fract_x
_atom_site_fract_y
_atom_site_fract_z
Si Si1 0.077680 0.827318 0.453150
Si Si2 0.662985 0.174803 0.405636
Si Si3 0.611243 0.323663 0.832465
Si Si4 0.091651 0.172027 0.230013
Si Si5 0.656185 0.179249 0.249091
Si Si6 0.919666 0.323494 0.286606
Si Si7 0.878183 0.823090 0.919003
Si Si8 0.620762 0.827190 0.694399
O O1 0.225182 0.756971 0.510916
O O2 0.000000 0.818147 0.500000
O O3 0.008721 0.724998 0.376697
O O4 0.080900 0.000000 0.426725
O O5 0.671302 0.239258 0.331349
O O6 0.513237 0.200240 0.390250
O O7 0.701218 0.000000 0.412198
O O8 0.602332 0.500000 0.844421
O O9 0.479678 0.244708 0.823593
O O10 0.745332 0.258498 0.906208
O O11 0.618729 0.291090 0.754682
O O12 0.092800 0.214271 0.150994
O O13 0.241968 0.192527 0.305500
O O14 0.994361 0.284556 0.239191
O O15 0.043957 0.000000 0.227047
O O16 0.779697 0.238851 0.243164
O O17 0.651484 0.000000 0.243810
O O18 0.892948 0.500000 0.282426
O O19 0.857125 0.000000 0.923806
O O20 0.000000 0.761516 0.000000
O O21 0.615189 0.000000 0.722651
#
# Coordination Sequence:
#
# PCOD8057759 Si02
#       8
#     4   4   4   4   4   4   4   4
#     4  10  18  32  51  72  97 132 176 219 265 314
#     4   8  14  27  50  74  93 119 167 223 264 298
#     4  10  18  28  47  80 113 136 163 204 257 308
#     4   9  18  34  54  75 101 135 174 210 251 307
#     4  10  18  33  53  72  97 134 179 219 255 300
#     4  12  24  34  47  72 105 139 173 214 268 316
#     4   9  18  35  60  86 108 134 172 213 249 294
#     4   8  15  30  51  72  95 131 176 218 255 300
#
# _framework density 18.200939000000002
#
# number of rings (size 3 to 8) (size 9 to 14) (size 15 to 20)
#    0.000    2.500    1.250    4.125    0.000    2.500 
#    0.000    1.250    0.000    4.500    0.000    5.250 
#    0.000    0.000    0.000    0.000    0.000    0.000 
#
# Total GULP energy -396577.702926 kJ/mol
# GULP energy per Si atom -12393.053216 kJ/mol
# Density = 1.815951 g / cm^3
# Si number density = 18.200939 Si / 1000 Ang^3
#
#
#
# Elastic Constant Matrix: (Units=GPa)
#
#
# Indices 1 2 3 4 5 6 
#
# 1 128.1137 47.5881 54.1703 0.0000 34.0074 0.0000
# 2 47.5881 83.3491 30.3276 0.0000 15.0728 0.0000
# 3 54.1703 30.3276 75.8736 0.0000 32.8301 0.0000
# 4 0.0000 0.0000 0.0000 15.4854 0.0000 1.7755
# 5 34.0074 15.0728 32.8301 0.0000 35.6337 0.0000
# 6 0.0000 0.0000 0.0000 1.7755 0.0000 22.6640
#
#
#
# Elastic Compliance Matrix: (Units=1/GPa)
#
#
# Indices 1 2 3 4 5 6 
#
# 1 0.013254 -0.004659 -0.004956 0.000000 -0.006113 0.000000
# 2 -0.004659 0.015712 -0.003330 0.000000 0.000868 0.000000
# 3 -0.004956 -0.003330 0.025597 0.000000 -0.017446 0.000000
# 4 0.000000 0.000000 0.000000 0.065162 0.000000 -0.005105
# 5 -0.006113 0.000868 -0.017446 0.000000 0.049603 0.000000
# 6 0.000000 0.000000 0.000000 -0.005105 0.000000 0.044523
#
#
# Mechanical properties :
#
#
# Convention : Reuss Voigt Hill
#
# Bulk Modulus (GPa) = 34.87288 61.27870 48.07579
# Shear Modulus (GPa) = 20.05625 25.10665 22.58145
#
# Velocity S-wave (km/s) = 3.32314 3.71808 3.52614
# Velocity P-wave (km/s) = 5.82459 7.22309 6.56121
#
# Compressibility (1/GPa) = 0.02867558
#
# Stress axis : x y z
#
# Youngs Moduli (GPa) = 75.44816 63.64445 39.06639
#
# Poissons Ratio (x) = 0.29651 0.19360
# Poissons Ratio (y) = 0.35150 0.13008
# Poissons Ratio (z) = 0.37390 0.21191
#
# Static dielectric constant tensor:
#      x y z
#    x 3.555610 0.000000 0.471500 
#    y 0.000000 3.108450 0.000000 
#    z 0.471500 0.000000 3.307980 
# 
# 
# High freq. dielectric constant tensor:
#      x y z
#    x 1.708790 0.000000 0.038500 
#    y 0.000000 1.684930 0.000000 
#    z 0.038500 0.000000 1.670780 
# 
# From -- ./inp_files/83397.got.cif
#   From: 2010.06.25/outbox.cif.g09.slc.cpg/sg10_42_cif.got.tgz:83397.got - 2010.06.27 22:07:45.
