data_PCOD8057965
_publ_section_title
;
Structure prediction by ZEFSAII (Michael W. Deem and Ramdas Pophale) SiO2 
 PCOD8057965
Probable space group: P 2/M
;
_chemical_formula_sum "Si O2"
_cell_formula_units_Z 32
_cell_length_a 23.957728
_cell_length_b 8.920046
_cell_length_c 11.856866
_cell_angle_alpha 90.000000
_cell_angle_beta 136.124733
_cell_angle_gamma 90.000000
_cell_volume 1756.194937
_symmetry_space_group_name_H-M "P 2/M"
_symmetry_group_IT_number 10
_symmetry_cell_setting 'monoclinic'
loop_
_space_group_symop_operation_xyz
x,y,z
-x,y,-z
-x,-y,-z
x,-y,z
loop_
_atom_site_type_symbol
_atom_site_label
_atom_site_fract_x
_atom_site_fract_y
_atom_site_fract_z
Si Si1 0.030335 0.175546 0.742767
Si Si2 0.479375 0.168466 0.339303
Si Si3 0.322345 0.676362 0.166136
Si Si4 0.638022 0.676782 0.522492
Si Si5 0.148763 0.177637 0.534128
Si Si6 0.774294 0.178291 0.585487
Si Si7 0.817774 0.824987 0.171044
Si Si8 0.921310 0.178123 0.947288
O O1 0.088528 0.208867 0.722042
O O2 0.941620 0.248518 0.599741
O O3 0.017246 0.000000 0.740271
O O4 0.075489 0.237659 0.920026
O O5 0.500000 0.168128 0.500000
O O6 0.393361 0.247477 0.196860
O O7 0.548151 0.259832 0.373883
O O8 0.474894 0.000000 0.284358
O O9 0.332240 0.500000 0.168611
O O10 0.326579 0.724939 0.303679
O O11 0.238222 0.728580 0.991879
O O12 0.635016 0.500000 0.505232
O O13 0.690946 0.746073 0.499461
O O14 0.201422 0.233253 0.504807
O O15 0.193456 0.224404 0.715142
O O16 0.140187 0.000000 0.517426
O O17 0.841844 0.239601 0.770154
O O18 0.764664 0.000000 0.576536
O O19 0.797942 0.000000 0.122903
O O20 0.919721 0.000000 0.936889
O O21 0.000000 0.241815 0.000000
#
# Coordination Sequence:
#
# PCOD8057965 Si02
#       8
#     4   4   4   4   4   4   4   4
#     4   9  15  25  43  69  98 127 164 213 262 298
#     4   9  17  31  54  81 105 127 156 195 241 295
#     4  10  20  34  51  73 104 136 162 195 246 299
#     4  10  20  33  50  75 106 134 161 195 243 300
#     4   9  17  29  45  69 100 132 168 215 260 291
#     4  10  18  29  48  72 100 133 170 208 250 298
#     4  10  19  30  48  73  98 128 172 217 251 290
#     4   9  14  22  39  66  96 124 159 205 252 293
#
# _framework density 18.221212000000001
#
# number of rings (size 3 to 8) (size 9 to 14) (size 15 to 20)
#    0.000    2.500    1.250    2.250    0.000    5.500 
#    0.000    0.625    0.000    3.375    0.000    5.250 
#    0.000    0.000    0.000    0.000    0.000    0.000 
#
# Total GULP energy -396707.635718 kJ/mol
# GULP energy per Si atom -12397.113616 kJ/mol
# Density = 1.817974 g / cm^3
# Si number density = 18.221212 Si / 1000 Ang^3
#
#
#
# Elastic Constant Matrix: (Units=GPa)
#
#
# Indices 1 2 3 4 5 6 
#
# 1 126.6516 32.5493 37.9462 0.0000 2.8663 0.0000
# 2 32.5493 47.5881 18.4881 0.0000 2.4506 0.0000
# 3 37.9462 18.4881 51.2218 0.0000 -4.8155 0.0000
# 4 0.0000 0.0000 0.0000 13.7726 0.0000 -2.0276
# 5 2.8663 2.4506 -4.8155 0.0000 29.2780 0.0000
# 6 0.0000 0.0000 0.0000 -2.0276 0.0000 3.3316
#
#
#
# Elastic Compliance Matrix: (Units=1/GPa)
#
#
# Indices 1 2 3 4 5 6 
#
# 1 0.011218 -0.004987 -0.006678 0.000000 -0.001779 0.000000
# 2 -0.004987 0.027027 -0.006325 0.000000 -0.002814 0.000000
# 3 -0.006678 -0.006325 0.027286 0.000000 0.005671 0.000000
# 4 0.000000 0.000000 0.000000 0.079754 0.000000 0.048539
# 5 -0.001779 -0.002814 0.005671 0.000000 0.035498 0.000000
# 6 0.000000 0.000000 0.000000 0.048539 0.000000 0.329698
#
#
# Mechanical properties :
#
#
# Convention : Reuss Voigt Hill
#
# Bulk Modulus (GPa) = 33.83969 44.82540 39.33254
# Shear Modulus (GPa) = 8.98775 18.37495 13.68135
#
# Velocity S-wave (km/s) = 2.22335 3.17904 2.74313
# Velocity P-wave (km/s) = 5.02025 6.17488 5.62726
#
# Compressibility (1/GPa) = 0.02955110
#
# Stress axis : x y z
#
# Youngs Moduli (GPa) = 89.13885 36.99999 36.64827
#
# Poissons Ratio (x) = 0.18452 0.24474
# Poissons Ratio (y) = 0.44455 0.23181
# Poissons Ratio (z) = 0.59528 0.23403
#
# Static dielectric constant tensor:
#      x y z
#    x 3.489670 0.000000 0.008960 
#    y 0.000000 2.951430 0.000000 
#    z 0.008960 0.000000 3.273910 
# 
# 
# High freq. dielectric constant tensor:
#      x y z
#    x 1.711500 0.000000 0.008270 
#    y 0.000000 1.663570 0.000000 
#    z 0.008270 0.000000 1.686820 
# 
# From -- ./inp_files/56442.got.cif
#   From: 2010.06.25/outbox.cif.g09.slc.cpg/sg10_29_cif.got.tgz:56442.got - 2010.06.27 22:07:45.
