data_PCOD8057287
_publ_section_title
;
Structure prediction by ZEFSAII (Michael W. Deem and Ramdas Pophale) SiO2 
 PCOD8057287
Probable space group: P 2/M
;
_chemical_formula_sum "Si O2"
_cell_formula_units_Z 28
_cell_length_a 9.276209
_cell_length_b 13.989515
_cell_length_c 18.387083
_cell_angle_alpha 90.000000
_cell_angle_beta 142.608349
_cell_angle_gamma 90.000000
_cell_volume 1448.974516
_symmetry_space_group_name_H-M "P 2/M"
_symmetry_group_IT_number 10
_symmetry_cell_setting 'monoclinic'
loop_
_space_group_symop_operation_xyz
x,y,z
-x,y,-z
-x,-y,-z
x,-y,z
loop_
_atom_site_type_symbol
_atom_site_label
_atom_site_fract_x
_atom_site_fract_y
_atom_site_fract_z
Si Si1 0.282836 0.271216 0.957806
Si Si2 0.995066 0.889783 0.224265
Si Si3 0.830481 0.388629 0.812260
Si Si4 0.269737 0.198981 0.458761
Si Si5 0.546457 0.108520 0.691781
Si Si6 0.260194 0.235855 0.110348
Si Si7 0.390773 0.602679 0.533851
O O1 0.221111 0.170140 0.895245
O O2 0.059407 0.342524 0.864853
O O3 0.500000 0.317826 0.000000
O O4 0.370599 0.251798 0.075204
O O5 0.056159 0.850176 0.329433
O O6 0.215876 0.876630 0.259038
O O7 0.919240 0.000000 0.200756
O O8 0.876590 0.500000 0.842982
O O9 0.781269 0.339468 0.869796
O O10 0.603504 0.366759 0.672065
O O11 0.500000 0.202072 0.500000
O O12 0.321929 0.138860 0.552613
O O13 0.204980 0.308810 0.456436
O O14 0.562036 0.171100 0.771218
O O15 0.510408 0.000000 0.701631
O O16 0.000000 0.185243 0.000000
O O17 0.500000 0.584129 0.500000
O O18 0.274867 0.500000 0.512337
#
# Coordination Sequence:
#
# PCOD8057287 Si02
#       7
#     4   4   4   4   4   4   4
#     4  11  23  37  52  73 105 143 184 220 257 308
#     4  10  19  32  51  76 106 143 176 216 268 314
#     4  10  19  35  56  81 109 137 172 217 264 312
#     4   9  15  27  46  75 112 132 165 214 266 319
#     4  10  17  28  50  79 104 131 169 221 272 315
#     4  10  19  34  51  76 105 137 174 218 264 310
#     4   9  15  24  47  80 112 137 161 206 265 313
#
# _framework density 19.324010999999999
#
# number of rings (size 3 to 8) (size 9 to 14) (size 15 to 20)
#    0.000    2.143    4.286    2.143    0.000    5.714 
#    0.000    0.000    0.000    0.857    0.000    2.000 
#    0.000    6.857    0.000    0.000    0.000    0.000 
#
# Total GULP energy -347077.665927 kJ/mol
# GULP energy per Si atom -12395.630926 kJ/mol
# Density = 1.928003 g / cm^3
# Si number density = 19.324011 Si / 1000 Ang^3
#
#
#
# Elastic Constant Matrix: (Units=GPa)
#
#
# Indices 1 2 3 4 5 6 
#
# 1 67.3259 26.6795 32.7115 0.0000 -16.2101 0.0000
# 2 26.6795 143.5174 46.5875 0.0000 -10.4004 0.0000
# 3 32.7115 46.5875 87.6693 0.0000 -34.3639 0.0000
# 4 0.0000 0.0000 0.0000 31.5989 0.0000 -4.9298
# 5 -16.2101 -10.4004 -34.3639 0.0000 23.4236 0.0000
# 6 0.0000 0.0000 0.0000 -4.9298 0.0000 10.2974
#
#
#
# Elastic Compliance Matrix: (Units=1/GPa)
#
#
# Indices 1 2 3 4 5 6 
#
# 1 0.018978 -0.002019 -0.002851 0.000000 0.008054 0.000000
# 2 -0.002019 0.009099 -0.007168 0.000000 -0.007873 0.000000
# 3 -0.002851 -0.007168 0.033553 0.000000 0.044069 0.000000
# 4 0.000000 0.000000 0.000000 0.034201 0.000000 0.016373
# 5 0.008054 -0.007873 0.044069 0.000000 0.109422 0.000000
# 6 0.000000 0.000000 0.000000 0.016373 0.000000 0.104950
#
#
# Mechanical properties :
#
#
# Convention : Reuss Voigt Hill
#
# Bulk Modulus (GPa) = 26.62848 56.71886 41.67367
# Shear Modulus (GPa) = 14.41763 25.89957 20.15860
#
# Velocity S-wave (km/s) = 2.73444 3.66495 3.23335
# Velocity P-wave (km/s) = 4.87642 6.87927 5.96255
#
# Compressibility (1/GPa) = 0.03755378
#
# Stress axis : x y z
#
# Youngs Moduli (GPa) = 52.69378 109.89732 29.80333
#
# Poissons Ratio (x) = 0.22184 0.08498
# Poissons Ratio (y) = 0.10637 0.21364
# Poissons Ratio (z) = 0.15025 0.78776
#
# Static dielectric constant tensor:
#      x y z
#    x 2.957920 0.000000 -0.281590 
#    y 0.000000 3.807610 0.000000 
#    z -0.281590 0.000000 3.251800 
# 
# 
# High freq. dielectric constant tensor:
#      x y z
#    x 1.689470 0.000000 -0.039630 
#    y 0.000000 1.763960 0.000000 
#    z -0.039630 0.000000 1.756500 
# 
# From -- ./inp_files/75329.got.cif
#   From: 2010.06.25/outbox.cif.g09.slc.cpg/sg10_38_cif.got.tgz:75329.got - 2010.06.27 22:07:45.
