data_PCOD8057466
_publ_section_title
;
Structure prediction by ZEFSAII (Michael W. Deem and Ramdas Pophale) SiO2 
 PCOD8057466
Probable space group: P 2/M
;
_chemical_formula_sum "Si O2"
_cell_formula_units_Z 26
_cell_length_a 14.332040
_cell_length_b 17.196039
_cell_length_c 7.823182
_cell_angle_alpha 90.000000
_cell_angle_beta 134.934636
_cell_angle_gamma 90.000000
_cell_volume 1364.896609
_symmetry_space_group_name_H-M "P 2/M"
_symmetry_group_IT_number 10
_symmetry_cell_setting 'monoclinic'
loop_
_space_group_symop_operation_xyz
x,y,z
-x,y,-z
-x,-y,-z
x,-y,z
loop_
_atom_site_type_symbol
_atom_site_label
_atom_site_fract_x
_atom_site_fract_y
_atom_site_fract_z
Si Si1 0.349018 0.632008 0.001849
Si Si2 0.828077 0.415394 0.920560
Si Si3 0.553407 0.913833 0.382116
Si Si4 0.751789 0.793752 0.534494
Si Si5 0.617441 0.204348 0.034757
Si Si6 0.646874 0.628938 0.386311
Si Si7 0.000000 0.285535 0.000000
O O1 0.340629 0.724952 0.034572
O O2 0.304672 0.615907 0.747614
O O3 0.255387 0.589499 0.013454
O O4 0.497372 0.600885 0.219929
O O5 0.899926 0.500000 0.020249
O O6 0.738179 0.418242 0.634565
O O7 0.930191 0.343245 0.046081
O O8 0.500000 0.921945 0.500000
O O9 0.690468 0.865597 0.561963
O O10 0.578887 0.000000 0.338471
O O11 0.437052 0.872557 0.124947
O O12 0.740103 0.817416 0.318256
O O13 0.660513 0.719354 0.455678
O O14 0.901434 0.773258 0.776280
O O15 0.500000 0.240971 0.000000
#
# Coordination Sequence:
#
# PCOD8057466 Si02
#       7
#     4   4   4   4   4   4   2
#     4  10  17  33  58  84 110 146 184 234 299 353
#     4  11  24  37  54  78 108 152 196 242 300 340
#     4  10  20  31  56  96 124 139 167 226 293 344
#     4   9  18  35  55  79 107 152 192 223 274 325
#     4   9  16  32  56  84 115 141 181 226 277 340
#     4   9  18  34  55  84 115 140 185 241 288 357
#     4  10  23  40  59  74 108 156 210 246 265 318
#
# _framework density 19.049064000000001
#
# number of rings (size 3 to 8) (size 9 to 14) (size 15 to 20)
#    0.000    2.308    4.615    0.692    4.308    4.615 
#    0.000    8.846    0.000    9.231    0.000    2.154 
#    0.000    0.000    0.000    0.000    0.000    0.000 
#
# Total GULP energy -322134.546133 kJ/mol
# GULP energy per Si atom -12389.790236 kJ/mol
# Density = 1.900571 g / cm^3
# Si number density = 19.049064 Si / 1000 Ang^3
#
#
#
# Elastic Constant Matrix: (Units=GPa)
#
#
# Indices 1 2 3 4 5 6 
#
# 1 80.5197 30.0413 38.5840 0.0000 -3.0712 0.0000
# 2 30.0413 119.7371 46.5139 0.0000 0.9107 0.0000
# 3 38.5840 46.5139 113.7277 0.0000 5.7391 0.0000
# 4 0.0000 0.0000 0.0000 52.5872 0.0000 -8.7431
# 5 -3.0712 0.9107 5.7391 0.0000 19.4807 0.0000
# 6 0.0000 0.0000 0.0000 -8.7431 0.0000 13.2711
#
#
#
# Elastic Compliance Matrix: (Units=1/GPa)
#
#
# Indices 1 2 3 4 5 6 
#
# 1 0.015576 -0.002150 -0.004603 0.000000 0.003912 0.000000
# 2 -0.002150 0.010236 -0.003468 0.000000 0.000204 0.000000
# 3 -0.004603 -0.003468 0.011979 0.000000 -0.004093 0.000000
# 4 0.000000 0.000000 0.000000 0.021355 0.000000 0.014069
# 5 0.003912 0.000204 -0.004093 0.000000 0.053146 0.000000
# 6 0.000000 0.000000 0.000000 0.014069 0.000000 0.084621
#
#
# Mechanical properties :
#
#
# Convention : Reuss Voigt Hill
#
# Bulk Modulus (GPa) = 57.63083 60.47365 59.05224
# Shear Modulus (GPa) = 22.40771 30.32416 26.36593
#
# Velocity S-wave (km/s) = 3.43347 3.99419 3.72439
# Velocity P-wave (km/s) = 6.78512 7.28605 7.04004
#
# Compressibility (1/GPa) = 0.01735182
#
# Stress axis : x y z
#
# Youngs Moduli (GPa) = 64.20085 97.68979 83.47787
#
# Poissons Ratio (x) = 0.21001 0.38422
# Poissons Ratio (y) = 0.13801 0.28947
# Poissons Ratio (z) = 0.29549 0.33875
#
# Static dielectric constant tensor:
#      x y z
#    x 3.339770 0.000000 -0.375150 
#    y 0.000000 3.597760 0.000000 
#    z -0.375150 0.000000 4.129680 
# 
# 
# High freq. dielectric constant tensor:
#      x y z
#    x 1.711780 0.000000 -0.016980 
#    y 0.000000 1.735730 0.000000 
#    z -0.016980 0.000000 1.733600 
# 
# From -- ./inp_files/29829.got.cif
#   From: 2010.06.25/outbox.cif.g09.slc.cpg/sg10_15_cif.got.tgz:29829.got - 2010.06.27 22:07:45.
