data_PCOD8057868
_publ_section_title
;
Structure prediction by ZEFSAII (Michael W. Deem and Ramdas Pophale) SiO2 
 PCOD8057868
Probable space group: P 2/M
;
_chemical_formula_sum "Si O2"
_cell_formula_units_Z 28
_cell_length_a 26.161282
_cell_length_b 12.260936
_cell_length_c 26.161321
_cell_angle_alpha 90.000000
_cell_angle_beta 168.608708
_cell_angle_gamma 90.000000
_cell_volume 1657.401721
_symmetry_space_group_name_H-M "P 2/M"
_symmetry_group_IT_number 10
_symmetry_cell_setting 'monoclinic'
loop_
_space_group_symop_operation_xyz
x,y,z
-x,y,-z
-x,-y,-z
x,-y,z
loop_
_atom_site_type_symbol
_atom_site_label
_atom_site_fract_x
_atom_site_fract_y
_atom_site_fract_z
Si Si1 0.887156 0.749658 0.112863
Si Si2 0.371713 0.128825 0.628302
Si Si3 0.940832 0.370364 0.059204
Si Si4 0.734197 0.128063 0.265796
Si Si5 0.319218 0.250378 0.680785
Si Si6 0.471235 0.629499 0.528814
Si Si7 0.165331 0.371388 0.834664
O O1 0.864432 0.661579 0.135569
O O2 0.136086 0.825370 0.364080
O O3 0.635975 0.825393 0.863975
O O4 0.913030 0.682057 0.086929
O O5 0.341880 0.161693 0.658121
O O6 0.373683 0.000000 0.626277
O O7 0.937473 0.500000 0.062552
O O8 0.707892 0.328808 0.795233
O O9 0.204841 0.328810 0.292194
O O10 0.707159 0.186619 0.292849
O O11 0.000000 0.164487 0.500000
O O12 0.728791 0.000000 0.271188
O O13 0.500000 0.164494 0.000000
O O14 0.070478 0.325918 0.429639
O O15 0.570365 0.325917 0.929527
O O16 0.500000 0.678320 0.500000
O O17 0.472635 0.500000 0.527407
O O18 0.167362 0.500000 0.832629
#
# Coordination Sequence:
#
# PCOD8057868 Si02
#       7
#     4   4   4   4   4   4   4
#     4  10  20  32  49  74  99 128 163 196 237 286
#     4  10  20  34  51  72 100 127 156 197 242 292
#     4  10  18  29  46  68 100 132 159 196 234 279
#     4  10  20  34  54  78 101 124 156 203 253 295
#     4  10  20  34  54  75  98 130 162 196 239 290
#     4   9  17  28  43  65  95 132 165 194 235 282
#     4  10  20  34  52  73 100 133 167 198 229 278
#
# _framework density 16.893913000000001
#
# number of rings (size 3 to 8) (size 9 to 14) (size 15 to 20)
#    0.000    2.143    0.000    3.857    0.000    1.714 
#    0.000    8.571    0.000    8.571    0.000    0.000 
#    0.000   40.000    0.000    0.000    0.000    0.000 
#
# Total GULP energy -347283.806497 kJ/mol
# GULP energy per Si atom -12402.993089 kJ/mol
# Density = 1.685546 g / cm^3
# Si number density = 16.893913 Si / 1000 Ang^3
#
#
#
# Elastic Constant Matrix: (Units=GPa)
#
#
# Indices 1 2 3 4 5 6 
#
# 1 126.9345 43.0493 69.0168 0.0000 -0.1916 0.0000
# 2 43.0493 66.0795 45.1236 0.0000 0.1964 0.0000
# 3 69.0168 45.1236 178.2432 0.0000 4.7276 0.0000
# 4 0.0000 0.0000 0.0000 14.4287 0.0000 -0.8952
# 5 -0.1916 0.1964 4.7276 0.0000 28.3103 0.0000
# 6 0.0000 0.0000 0.0000 -0.8952 0.0000 24.5146
#
#
#
# Elastic Compliance Matrix: (Units=1/GPa)
#
#
# Indices 1 2 3 4 5 6 
#
# 1 0.011344 -0.005297 -0.003068 0.000000 0.000626 0.000000
# 2 -0.005297 0.020782 -0.003219 0.000000 0.000358 0.000000
# 3 -0.003068 -0.003219 0.007647 0.000000 -0.001275 0.000000
# 4 0.000000 0.000000 0.000000 0.069464 0.000000 0.002537
# 5 0.000626 0.000358 -0.001275 0.000000 0.035538 0.000000
# 6 0.000000 0.000000 0.000000 0.002537 0.000000 0.040885
#
#
# Mechanical properties :
#
#
# Convention : Reuss Voigt Hill
#
# Bulk Modulus (GPa) = 60.22831 76.18185 68.20508
# Shear Modulus (GPa) = 23.32512 27.72190 25.52351
#
# Velocity S-wave (km/s) = 3.71978 4.05525 3.89113
# Velocity P-wave (km/s) = 7.36053 8.19261 7.78769
#
# Compressibility (1/GPa) = 0.01660349
#
# Stress axis : x y z
#
# Youngs Moduli (GPa) = 88.15582 48.11966 130.76853
#
# Poissons Ratio (x) = 0.25489 0.40119
# Poissons Ratio (y) = 0.46696 0.42101
# Poissons Ratio (z) = 0.27046 0.15492
#
# Static dielectric constant tensor:
#      x y z
#    x 3.141910 0.000000 0.023630 
#    y 0.000000 2.864730 0.000000 
#    z 0.023630 0.000000 3.410390 
# 
# 
# High freq. dielectric constant tensor:
#      x y z
#    x 1.653580 0.000000 0.002160 
#    y 0.000000 1.623750 0.000000 
#    z 0.002160 0.000000 1.678100 
# 
# From -- ./inp_files/12259.got.cif
#   From: 2010.06.25/outbox.cif.g09.slc.cpg/sg10_7_cif.got.tgz:12259.got - 2010.06.27 22:07:45.
