data_PCOD8057906
_publ_section_title
;
Structure prediction by ZEFSAII (Michael W. Deem and Ramdas Pophale) SiO2 
 PCOD8057906
Probable space group: P 2/M
;
_chemical_formula_sum "Si O2"
_cell_formula_units_Z 24
_cell_length_a 25.347835
_cell_length_b 9.129404
_cell_length_c 9.422258
_cell_angle_alpha 90.000000
_cell_angle_beta 138.489262
_cell_angle_gamma 90.000000
_cell_volume 1445.089820
_symmetry_space_group_name_H-M "P 2/M"
_symmetry_group_IT_number 10
_symmetry_cell_setting 'monoclinic'
loop_
_space_group_symop_operation_xyz
x,y,z
-x,y,-z
-x,-y,-z
x,-y,z
loop_
_atom_site_type_symbol
_atom_site_label
_atom_site_fract_x
_atom_site_fract_y
_atom_site_fract_z
Si Si1 0.155874 0.826628 0.477544
Si Si2 0.724027 0.828063 0.809838
Si Si3 0.586905 0.666167 0.644957
Si Si4 0.001968 0.826019 0.344122
Si Si5 0.857728 0.827910 0.867562
Si Si6 0.262658 0.333639 0.893326
O O1 0.140055 0.765361 0.287475
O O2 0.235331 0.748583 0.696059
O O3 0.083108 0.778430 0.430805
O O4 0.169679 0.000000 0.504765
O O5 0.634222 0.760730 0.620291
O O6 0.771984 0.791283 0.763374
O O7 0.719378 0.000000 0.829227
O O8 0.771603 0.753337 0.037606
O O9 0.500000 0.734857 0.500000
O O10 0.577587 0.500000 0.569632
O O11 0.640393 0.669602 0.897384
O O12 0.000000 0.761571 0.500000
O O13 0.994695 0.000000 0.335478
O O14 0.928586 0.759504 0.105307
O O15 0.872138 0.000000 0.889223
O O16 0.230862 0.500000 0.829712
#
# Coordination Sequence:
#
# PCOD8057906 Si02
#       6
#     4   4   4   4   4   4
#     4  10  18  29  47  69  95 128 162 195 233 275
#     4   9  16  28  48  72  95 119 155 195 234 275
#     4   8  16  31  50  71  95 121 152 192 235 280
#     4   9  16  26  44  69  95 124 161 200 234 269
#     4   9  17  28  44  70 100 126 156 196 236 276
#     4   9  18  31  47  68  94 122 155 193 237 281
#
# _framework density 16.607963000000002
#
# number of rings (size 3 to 8) (size 9 to 14) (size 15 to 20)
#    1.000    2.000    0.000    2.000    0.000    5.000 
#    0.000    1.667    0.000    8.500    0.000    7.000 
#    0.000    0.000    0.000    0.000    0.000    0.000 
#
# Total GULP energy -297338.281510 kJ/mol
# GULP energy per Si atom -12389.095063 kJ/mol
# Density = 1.657016 g / cm^3
# Si number density = 16.607963 Si / 1000 Ang^3
#
#
#
# Elastic Constant Matrix: (Units=GPa)
#
#
# Indices 1 2 3 4 5 6 
#
# 1 105.9987 33.7645 73.0439 0.0000 -3.1082 0.0000
# 2 33.7645 50.8974 28.2319 0.0000 1.6148 0.0000
# 3 73.0439 28.2319 104.9377 0.0000 -10.3217 0.0000
# 4 0.0000 0.0000 0.0000 18.7236 0.0000 4.8863
# 5 -3.1082 1.6148 -10.3217 0.0000 29.4404 0.0000
# 6 0.0000 0.0000 0.0000 4.8863 0.0000 7.4478
#
#
#
# Elastic Compliance Matrix: (Units=1/GPa)
#
#
# Indices 1 2 3 4 5 6 
#
# 1 0.019879 -0.006288 -0.012330 0.000000 -0.001879 0.000000
# 2 -0.006288 0.025450 -0.002768 0.000000 -0.003030 0.000000
# 3 -0.012330 -0.002768 0.019413 0.000000 0.005656 0.000000
# 4 0.000000 0.000000 0.000000 0.064442 0.000000 -0.042278
# 5 -0.001879 -0.003030 0.005656 0.000000 0.035918 0.000000
# 6 0.000000 0.000000 0.000000 -0.042278 0.000000 0.162005
#
#
# Mechanical properties :
#
#
# Convention : Reuss Voigt Hill
#
# Bulk Modulus (GPa) = 45.51768 59.10160 52.30964
# Shear Modulus (GPa) = 13.25549 19.57527 16.41538
#
# Velocity S-wave (km/s) = 2.82820 3.43690 3.14730
# Velocity P-wave (km/s) = 6.17508 7.17030 6.69122
#
# Compressibility (1/GPa) = 0.02196949
#
# Stress axis : x y z
#
# Youngs Moduli (GPa) = 50.30523 39.29210 51.51185
#
# Poissons Ratio (x) = 0.24708 0.63514
# Poissons Ratio (y) = 0.31634 0.14258
# Poissons Ratio (z) = 0.62026 0.10876
#
# Static dielectric constant tensor:
#      x y z
#    x 3.040270 0.000000 0.000650 
#    y 0.000000 2.815780 0.000000 
#    z 0.000650 0.000000 3.134570 
# 
# 
# High freq. dielectric constant tensor:
#      x y z
#    x 1.625450 0.000000 0.004990 
#    y 0.000000 1.611410 0.000000 
#    z 0.004990 0.000000 1.628710 
# 
# From -- ./inp_files/36553.got.cif
#   From: 2010.06.25/outbox.cif.g09.slc.cpg/sg10_19_cif.got.tgz:36553.got - 2010.06.27 22:07:45.
