data_PCOD8057926
_publ_section_title
;
Structure prediction by ZEFSAII (Michael W. Deem and Ramdas Pophale) SiO2 
 PCOD8057926
Probable space group: P 2/M
;
_chemical_formula_sum "Si O2"
_cell_formula_units_Z 26
_cell_length_a 25.120599
_cell_length_b 12.267793
_cell_length_c 8.546002
_cell_angle_alpha 90.000000
_cell_angle_beta 28.122309
_cell_angle_gamma 90.000000
_cell_volume 1241.388818
_symmetry_space_group_name_H-M "P 2/M"
_symmetry_group_IT_number 10
_symmetry_cell_setting 'monoclinic'
loop_
_space_group_symop_operation_xyz
x,y,z
-x,y,-z
-x,-y,-z
x,-y,z
loop_
_atom_site_type_symbol
_atom_site_label
_atom_site_fract_x
_atom_site_fract_y
_atom_site_fract_z
Si Si1 0.185735 0.000000 0.776591
Si Si2 0.701678 0.377024 0.732124
Si Si3 0.224614 0.622238 0.799385
Si Si4 0.444966 0.377214 0.426258
Si Si5 0.708813 0.000000 0.825327
Si Si6 0.063851 0.000000 0.560873
Si Si7 0.836885 0.169178 0.904923
Si Si8 0.669956 0.216216 0.067703
O O1 0.273246 0.000000 0.407521
O O2 0.206911 0.105426 0.829003
O O3 0.057148 0.000000 0.040997
O O4 0.722754 0.500000 0.737271
O O5 0.773947 0.355256 0.389384
O O6 0.569364 0.358390 0.033680
O O7 0.742579 0.293264 0.760897
O O8 0.182355 0.500000 0.945561
O O9 0.351445 0.641079 0.534814
O O10 0.136764 0.706470 0.109292
O O11 0.432794 0.500000 0.525884
O O12 0.431301 0.291527 0.604760
O O13 0.833047 0.000000 0.584922
O O14 0.635179 0.893144 0.062127
O O15 0.063158 0.106707 0.447048
O O16 0.736644 0.171768 0.041581
#
# Coordination Sequence:
#
# PCOD8057926 Si02
#       8
#     2   4   4   4   2   2   4   4
#     4  11  19  35  59  75  91 116 152 195 239 283
#     4  10  18  29  47  71  97 129 171 210 236 260
#     4   9  17  29  47  72 101 130 160 197 240 281
#     4   9  17  30  48  69  95 130 171 208 235 265
#     4  10  21  34  51  76 100 119 145 190 244 295
#     4   9  19  35  57  79  94 113 149 195 234 282
#     4   9  18  31  49  73  98 125 155 189 233 286
#     4  10  19  31  45  68 100 128 158 196 240 282
#
# _framework density 20.944284
#
# number of rings (size 3 to 8) (size 9 to 14) (size 15 to 20)
#    0.000    2.462    0.000    3.923    0.000    3.692 
#    0.000    1.538    0.000    1.846    0.000   18.308 
#    0.000   28.308    0.000    0.000    0.000    0.000 
#
# Total GULP energy -322110.683667 kJ/mol
# GULP energy per Si atom -12388.872449 kJ/mol
# Density = 2.089661 g / cm^3
# Si number density = 20.944284 Si / 1000 Ang^3
#
#
#
# Elastic Constant Matrix: (Units=GPa)
#
#
# Indices 1 2 3 4 5 6 
#
# 1 65.8492 17.2166 1.6228 0.0000 13.0840 0.0000
# 2 17.2166 147.3885 33.7621 0.0000 21.2449 0.0000
# 3 1.6228 33.7621 45.5124 0.0000 16.1960 0.0000
# 4 0.0000 0.0000 0.0000 10.1679 0.0000 4.5196
# 5 13.0840 21.2449 16.1960 0.0000 29.7373 0.0000
# 6 0.0000 0.0000 0.0000 4.5196 0.0000 17.2332
#
#
#
# Elastic Compliance Matrix: (Units=1/GPa)
#
#
# Indices 1 2 3 4 5 6 
#
# 1 0.017179 -0.001619 0.003556 0.000000 -0.008338 0.000000
# 2 -0.001619 0.008571 -0.005427 0.000000 -0.002455 0.000000
# 3 0.003556 -0.005427 0.031070 0.000000 -0.014609 0.000000
# 4 0.000000 0.000000 0.000000 0.111326 0.000000 -0.029197
# 5 -0.008338 -0.002455 -0.014609 0.000000 0.047007 0.000000
# 6 0.000000 0.000000 0.000000 -0.029197 0.000000 0.065685
#
#
# Mechanical properties :
#
#
# Convention : Reuss Voigt Hill
#
# Bulk Modulus (GPa) = 20.06446 40.43922 30.25184
# Shear Modulus (GPa) = 16.42409 25.17091 20.79750
#
# Velocity S-wave (km/s) = 2.80336 3.47046 3.15460
# Velocity P-wave (km/s) = 4.48098 5.95052 5.26725
#
# Compressibility (1/GPa) = 0.04983937
#
# Stress axis : x y z
#
# Youngs Moduli (GPa) = 58.21149 116.67355 32.18562
#
# Poissons Ratio (x) = 0.18893 -0.11445
# Poissons Ratio (y) = 0.09426 0.17466
# Poissons Ratio (z) = -0.20700 0.63315
#
# Static dielectric constant tensor:
#      x y z
#    x 3.699460 0.000000 0.259660 
#    y 0.000000 4.344680 0.000000 
#    z 0.259660 0.000000 3.401690 
# 
# 
# High freq. dielectric constant tensor:
#      x y z
#    x 1.819680 0.000000 0.026570 
#    y 0.000000 1.836580 0.000000 
#    z 0.026570 0.000000 1.773010 
# 
# From -- ./inp_files/27876.got.cif
#   From: 2010.06.25/outbox.cif.g09.slc.cpg/sg10_14_cif.got.tgz:27876.got - 2010.06.27 22:07:45.
