data_PCOD8057406
_publ_section_title
;
Structure prediction by ZEFSAII (Michael W. Deem and Ramdas Pophale) SiO2 
 PCOD8057406
Probable space group: P 2/M
;
_chemical_formula_sum "Si O2"
_cell_formula_units_Z 30
_cell_length_a 11.220731
_cell_length_b 12.337738
_cell_length_c 11.664779
_cell_angle_alpha 90.000000
_cell_angle_beta 77.548349
_cell_angle_gamma 90.000000
_cell_volume 1576.869695
_symmetry_space_group_name_H-M "P 2/M"
_symmetry_group_IT_number 10
_symmetry_cell_setting 'monoclinic'
loop_
_space_group_symop_operation_xyz
x,y,z
-x,y,-z
-x,-y,-z
x,-y,z
loop_
_atom_site_type_symbol
_atom_site_label
_atom_site_fract_x
_atom_site_fract_y
_atom_site_fract_z
Si Si1 0.116229 0.119998 0.054650
Si Si2 0.935899 0.123046 0.272760
Si Si3 0.501895 0.874815 0.869403
Si Si4 0.696296 0.624233 0.353123
Si Si5 0.738358 0.217690 0.160058
Si Si6 0.500000 0.224201 0.500000
Si Si7 0.685462 0.125496 0.637869
Si Si8 0.126673 0.725673 0.513555
O O1 0.060453 0.166252 0.185113
O O2 0.179617 0.000000 0.056589
O O3 0.208569 0.208926 0.981115
O O4 0.000000 0.101802 0.000000
O O5 0.814453 0.132889 0.220443
O O6 0.917999 0.180616 0.394711
O O7 0.958085 0.000000 0.297559
O O8 0.402994 0.812630 0.813442
O O9 0.630906 0.856879 0.777645
O O10 0.464987 0.000000 0.879245
O O11 0.500000 0.828878 0.000000
O O12 0.657152 0.500000 0.349616
O O13 0.752027 0.664637 0.218873
O O14 0.579683 0.698076 0.402487
O O15 0.793966 0.636111 0.435908
O O16 0.584619 0.147978 0.560591
O O17 0.795447 0.212427 0.601289
O O18 0.728263 0.000000 0.615461
O O19 0.000000 0.668766 0.500000
#
# Coordination Sequence:
#
# PCOD8057406 Si02
#       8
#     4   4   4   4   4   2   4   4
#     4   8  14  25  45  73 100 131 172 206 245 307
#     4   9  17  29  48  75 105 140 180 215 254 315
#     4  10  20  32  48  76 113 149 177 206 256 327
#     4  10  21  36  58  80  99 132 184 240 285 322
#     4  10  17  31  50  73 102 135 175 224 267 311
#     4  10  18  36  56  84 108 136 176 230 282 322
#     4  10  20  33  52  82 117 148 179 212 263 329
#     4  10  22  36  51  75 110 145 179 221 277 326
#
# _framework density 19.025034000000002
#
# number of rings (size 3 to 8) (size 9 to 14) (size 15 to 20)
#    0.000    2.400    1.333    2.800    0.000    2.400 
#    0.000    2.667    0.000   10.400    0.000    1.867 
#    0.000    0.000    0.000    0.000    0.000    0.000 
#
# Total GULP energy -371713.578615 kJ/mol
# GULP energy per Si atom -12390.452620 kJ/mol
# Density = 1.898173 g / cm^3
# Si number density = 19.025034 Si / 1000 Ang^3
#
#
#
# Elastic Constant Matrix: (Units=GPa)
#
#
# Indices 1 2 3 4 5 6 
#
# 1 64.1141 6.9575 7.8700 0.0000 -7.5928 0.0000
# 2 6.9575 61.6226 24.0533 0.0000 -7.7958 0.0000
# 3 7.8700 24.0533 95.0836 0.0000 -19.9349 0.0000
# 4 0.0000 0.0000 0.0000 9.2334 0.0000 -3.6346
# 5 -7.5928 -7.7958 -19.9349 0.0000 24.3673 0.0000
# 6 0.0000 0.0000 0.0000 -3.6346 0.0000 9.1868
#
#
#
# Elastic Compliance Matrix: (Units=1/GPa)
#
#
# Indices 1 2 3 4 5 6 
#
# 1 0.016287 -0.001227 -0.000068 0.000000 0.004627 0.000000
# 2 -0.001227 0.018221 -0.004063 0.000000 0.002123 0.000000
# 3 -0.000068 -0.004063 0.013607 0.000000 0.009811 0.000000
# 4 0.000000 0.000000 0.000000 0.128280 0.000000 0.050752
# 5 0.004627 0.002123 0.009811 0.000000 0.051187 0.000000
# 6 0.000000 0.000000 0.000000 0.050752 0.000000 0.128931
#
#
# Mechanical properties :
#
#
# Convention : Reuss Voigt Hill
#
# Bulk Modulus (GPa) = 26.73769 33.17576 29.95672
# Shear Modulus (GPa) = 13.16850 20.68680 16.92765
#
# Velocity S-wave (km/s) = 2.63376 3.30107 2.98611
# Velocity P-wave (km/s) = 4.83046 5.65732 5.26016
#
# Compressibility (1/GPa) = 0.03740039
#
# Stress axis : x y z
#
# Youngs Moduli (GPa) = 61.40015 54.88251 73.48943
#
# Poissons Ratio (x) = 0.06735 0.00496
# Poissons Ratio (y) = 0.07535 0.29855
# Poissons Ratio (z) = 0.00414 0.22296
#
# Static dielectric constant tensor:
#      x y z
#    x 3.587890 0.000000 -0.208900 
#    y 0.000000 2.965180 0.000000 
#    z -0.208900 0.000000 3.992090 
# 
# 
# High freq. dielectric constant tensor:
#      x y z
#    x 1.741720 0.000000 -0.013390 
#    y 0.000000 1.680100 0.000000 
#    z -0.013390 0.000000 1.749970 
# 
# From -- ./inp_files/46645.got.cif
#   From: 2010.06.25/outbox.cif.g09.slc.cpg/sg10_24_cif.got.tgz:46645.got - 2010.06.27 22:07:45.
