data_PCOD8057419
_publ_section_title
;
Structure prediction by ZEFSAII (Michael W. Deem and Ramdas Pophale) SiO2 
 PCOD8057419
Probable space group: P 2/M
;
_chemical_formula_sum "Si O2"
_cell_formula_units_Z 32
_cell_length_a 21.179582
_cell_length_b 8.453393
_cell_length_c 12.019085
_cell_angle_alpha 90.000000
_cell_angle_beta 52.567008
_cell_angle_gamma 90.000000
_cell_volume 1708.739144
_symmetry_space_group_name_H-M "P 2/M"
_symmetry_group_IT_number 10
_symmetry_cell_setting 'monoclinic'
loop_
_space_group_symop_operation_xyz
x,y,z
-x,y,-z
-x,-y,-z
x,-y,z
loop_
_atom_site_type_symbol
_atom_site_label
_atom_site_fract_x
_atom_site_fract_y
_atom_site_fract_z
Si Si1 0.736684 0.683064 0.129136
Si Si2 0.055607 0.315807 0.793182
Si Si3 0.787453 0.686230 0.476259
Si Si4 0.898820 0.182095 0.024205
Si Si5 0.366457 0.182568 0.948919
Si Si6 0.660424 0.313274 0.437764
Si Si7 0.546949 0.184673 0.725943
Si Si8 0.337354 0.684019 0.216355
O O1 0.758835 0.500000 0.116942
O O2 0.818142 0.781029 0.045352
O O3 0.693922 0.714218 0.058652
O O4 0.677502 0.735012 0.292255
O O5 0.037134 0.500000 0.796024
O O6 0.121663 0.252572 0.633353
O O7 0.092722 0.290822 0.876050
O O8 0.974133 0.218862 0.863080
O O9 0.788811 0.500000 0.459094
O O10 0.733571 0.753126 0.433342
O O11 0.747688 0.731413 0.636885
O O12 0.901037 0.000000 0.057708
O O13 0.455620 0.238072 0.826737
O O14 0.354325 0.000000 0.931690
O O15 0.347802 0.208272 0.097986
O O16 0.648102 0.500000 0.465074
O O17 0.580867 0.226609 0.567137
O O18 0.592686 0.283996 0.770828
O O19 0.556053 0.000000 0.743029
O O20 0.339469 0.500000 0.180943
#
# Coordination Sequence:
#
# PCOD8057419 Si02
#       8
#     4   4   4   4   4   4   4   4
#     4  11  22  38  57  76 104 145 185 220 263 321
#     4  10  17  31  54  79 109 144 179 215 260 312
#     4   8  15  30  53  80 107 133 171 223 265 304
#     4  11  21  32  48  79 115 143 174 216 263 316
#     4  11  24  39  53  76 108 143 180 221 271 324
#     4   9  18  34  54  78 106 137 179 222 264 315
#     4  10  21  36  55  79 109 140 173 220 277 323
#     4  10  20  36  58  82 105 136 182 229 266 308
#
# _framework density 18.727259
#
# number of rings (size 3 to 8) (size 9 to 14) (size 15 to 20)
#    0.000    2.000    1.250    4.875    0.000    5.000 
#    0.000    4.375    0.000    0.750    0.000    5.250 
#    0.000    0.000    0.000    0.000    0.000    0.000 
#
# Total GULP energy -396795.023899 kJ/mol
# GULP energy per Si atom -12399.844497 kJ/mol
# Density = 1.868464 g / cm^3
# Si number density = 18.727259 Si / 1000 Ang^3
#
#
#
# Elastic Constant Matrix: (Units=GPa)
#
#
# Indices 1 2 3 4 5 6 
#
# 1 78.2326 14.2054 54.8816 0.0000 -12.7635 0.0000
# 2 14.2054 47.9402 25.8085 0.0000 -6.4943 0.0000
# 3 54.8816 25.8085 104.6102 0.0000 -33.3873 0.0000
# 4 0.0000 0.0000 0.0000 15.0683 0.0000 -4.1499
# 5 -12.7635 -6.4943 -33.3873 0.0000 24.2150 0.0000
# 6 0.0000 0.0000 0.0000 -4.1499 0.0000 24.4476
#
#
#
# Elastic Compliance Matrix: (Units=1/GPa)
#
#
# Indices 1 2 3 4 5 6 
#
# 1 0.020932 -0.000028 -0.013315 0.000000 -0.007333 0.000000
# 2 -0.000028 0.024184 -0.006941 0.000000 -0.003099 0.000000
# 3 -0.013315 -0.006941 0.027544 0.000000 0.029097 0.000000
# 4 0.000000 0.000000 0.000000 0.069619 0.000000 0.011817
# 5 -0.007333 -0.003099 0.029097 0.000000 0.076719 0.000000
# 6 0.000000 0.000000 0.000000 0.011817 0.000000 0.042910
#
#
# Mechanical properties :
#
#
# Convention : Reuss Voigt Hill
#
# Bulk Modulus (GPa) = 31.15977 46.73046 38.94511
# Shear Modulus (GPa) = 15.96565 21.80536 18.88551
#
# Velocity S-wave (km/s) = 2.92299 3.41598 3.17906
# Velocity P-wave (km/s) = 5.29780 6.36914 5.85801
#
# Compressibility (1/GPa) = 0.03209266
#
# Stress axis : x y z
#
# Youngs Moduli (GPa) = 47.77438 41.34893 36.30596
#
# Poissons Ratio (x) = 0.00115 0.48341
# Poissons Ratio (y) = 0.00132 0.25200
# Poissons Ratio (z) = 0.63611 0.28700
#
# Static dielectric constant tensor:
#      x y z
#    x 3.172240 0.000000 -0.320460 
#    y 0.000000 3.277140 0.000000 
#    z -0.320460 0.000000 3.769340 
# 
# 
# High freq. dielectric constant tensor:
#      x y z
#    x 1.694520 0.000000 -0.021630 
#    y 0.000000 1.723030 0.000000 
#    z -0.021630 0.000000 1.734860 
# 
# From -- ./inp_files/55210.got.cif
#   From: 2010.06.25/outbox.cif.g09.slc.cpg/sg10_28_cif.got.tgz:55210.got - 2010.06.27 22:07:45.
