data_PCOD8057396
_publ_section_title
;
Structure prediction by ZEFSAII (Michael W. Deem and Ramdas Pophale) SiO2 
 PCOD8057396
Probable space group: P 2/M
;
_chemical_formula_sum "Si O2"
_cell_formula_units_Z 32
_cell_length_a 18.346417
_cell_length_b 14.470213
_cell_length_c 12.908278
_cell_angle_alpha 90.000000
_cell_angle_beta 152.011634
_cell_angle_gamma 90.000000
_cell_volume 1608.191989
_symmetry_space_group_name_H-M "P 2/M"
_symmetry_group_IT_number 10
_symmetry_cell_setting 'monoclinic'
loop_
_space_group_symop_operation_xyz
x,y,z
-x,y,-z
-x,-y,-z
x,-y,z
loop_
_atom_site_type_symbol
_atom_site_label
_atom_site_fract_x
_atom_site_fract_y
_atom_site_fract_z
Si Si1 0.341869 0.801318 0.341824
Si Si2 0.740005 0.397665 0.739980
Si Si3 0.016975 0.230329 0.399664
Si Si4 0.365637 0.769726 0.748320
Si Si5 0.221381 0.107909 0.001612
Si Si6 0.284990 0.400696 0.527003
Si Si7 0.559096 0.107902 0.339440
Si Si8 0.957018 0.400700 0.198948
O O1 0.500000 0.848474 0.500000
O O2 0.366420 0.690209 0.366390
O O3 0.209712 0.838410 0.097715
O O4 0.321542 0.838394 0.433399
O O5 0.662682 0.500000 0.662649
O O6 0.782137 0.386113 0.672568
O O7 0.891786 0.386139 0.001266
O O8 0.196415 0.225480 0.589316
O O9 0.000000 0.241065 0.500000
O O10 0.919406 0.316419 0.228386
O O11 0.927725 0.137885 0.252580
O O12 0.389629 0.683587 0.698727
O O13 0.396813 0.862143 0.721517
O O14 0.500000 0.759195 0.000000
O O15 0.379342 0.132977 0.137830
O O16 0.209121 0.000000 0.008336
O O17 0.375510 0.500000 0.646208
O O18 0.141228 0.405498 0.423665
O O19 0.590319 0.000000 0.389684
O O20 0.895171 0.500000 0.165776
#
# Coordination Sequence:
#
# PCOD8057396 Si02
#       8
#     4   4   4   4   4   4   4   4
#     4  10  19  34  57  85 119 152 185 226 279 346
#     4  10  17  30  55  86 118 147 181 226 281 340
#     4  11  23  39  60  84 114 150 194 243 289 336
#     4  11  23  39  60  84 114 150 194 243 289 336
#     4  10  21  39  62  86 114 151 192 234 285 343
#     4   9  18  33  55  83 115 151 188 227 278 341
#     4  10  21  39  62  86 114 151 192 234 285 343
#     4   9  18  33  55  83 115 151 188 227 278 341
#
# _framework density 19.898121
#
# number of rings (size 3 to 8) (size 9 to 14) (size 15 to 20)
#    0.000    2.000    2.500    1.500    0.000    4.750 
#    0.000    0.625    0.000    3.750    0.000    0.000 
#    0.000    0.000    0.000    0.000    0.000    0.000 
#
# Total GULP energy -396467.514441 kJ/mol
# GULP energy per Si atom -12389.609826 kJ/mol
# Density = 1.985283 g / cm^3
# Si number density = 19.898121 Si / 1000 Ang^3
#
#
#
# Elastic Constant Matrix: (Units=GPa)
#
#
# Indices 1 2 3 4 5 6 
#
# 1 77.8598 46.4093 53.7692 0.0000 -14.8770 0.0000
# 2 46.4093 144.3870 54.8732 0.0000 -15.7578 0.0000
# 3 53.7692 54.8732 98.8202 0.0000 -23.9665 0.0000
# 4 0.0000 0.0000 0.0000 25.1730 0.0000 -2.5268
# 5 -14.8770 -15.7578 -23.9665 0.0000 32.7119 0.0000
# 6 0.0000 0.0000 0.0000 -2.5268 0.0000 23.7735
#
#
#
# Elastic Compliance Matrix: (Units=1/GPa)
#
#
# Indices 1 2 3 4 5 6 
#
# 1 0.021684 -0.003125 -0.009773 0.000000 0.001196 0.000000
# 2 -0.003125 0.009246 -0.003281 0.000000 0.000629 0.000000
# 3 -0.009773 -0.003281 0.019212 0.000000 0.008050 0.000000
# 4 0.000000 0.000000 0.000000 0.040154 0.000000 0.004268
# 5 0.001196 0.000629 0.008050 0.000000 0.037314 0.000000
# 6 0.000000 0.000000 0.000000 0.004268 0.000000 0.042517
#
#
# Mechanical properties :
#
#
# Convention : Reuss Voigt Hill
#
# Bulk Modulus (GPa) = 56.23534 70.13004 63.18269
# Shear Modulus (GPa) = 23.99078 27.39937 25.69507
#
# Velocity S-wave (km/s) = 3.47606 3.71480 3.59741
# Velocity P-wave (km/s) = 6.66586 7.32944 7.00551
#
# Compressibility (1/GPa) = 0.01778241
#
# Stress axis : x y z
#
# Youngs Moduli (GPa) = 46.11670 108.15587 52.05204
#
# Poissons Ratio (x) = 0.33799 0.50872
# Poissons Ratio (y) = 0.14411 0.17080
# Poissons Ratio (z) = 0.45071 0.35489
#
# Static dielectric constant tensor:
#      x y z
#    x 3.355240 0.000000 -0.210320 
#    y 0.000000 3.897250 0.000000 
#    z -0.210320 0.000000 3.470560 
# 
# 
# High freq. dielectric constant tensor:
#      x y z
#    x 1.750390 0.000000 -0.021090 
#    y 0.000000 1.792880 0.000000 
#    z -0.021090 0.000000 1.761970 
# 
# From -- ./inp_files/54059.got.cif
#   From: 2010.06.25/outbox.cif.g09.slc.cpg/sg10_28_cif.got.tgz:54059.got - 2010.06.27 22:07:45.
