data_PCOD8057036
_publ_section_title
;
Structure prediction by ZEFSAII (Michael W. Deem and Ramdas Pophale) SiO2 
 PCOD8057036
Probable space group: P 2/M
;
_chemical_formula_sum "Si O2"
_cell_formula_units_Z 32
_cell_length_a 9.326038
_cell_length_b 13.318575
_cell_length_c 21.138009
_cell_angle_alpha 90.000000
_cell_angle_beta 49.803186
_cell_angle_gamma 90.000000
_cell_volume 2005.473014
_symmetry_space_group_name_H-M "P 2/M"
_symmetry_group_IT_number 10
_symmetry_cell_setting 'monoclinic'
loop_
_space_group_symop_operation_xyz
x,y,z
-x,y,-z
-x,-y,-z
x,-y,z
loop_
_atom_site_type_symbol
_atom_site_label
_atom_site_fract_x
_atom_site_fract_y
_atom_site_fract_z
Si Si1 0.180810 0.381918 0.987386
Si Si2 0.708132 0.712717 0.918436
Si Si3 0.406322 0.383655 0.174194
Si Si4 0.856208 0.116225 0.798800
Si Si5 0.106665 0.883984 0.556767
Si Si6 0.405049 0.117269 0.370995
Si Si7 0.736097 0.206173 0.708759
Si Si8 0.737289 0.883801 0.358864
O O1 0.172618 0.500000 0.999926
O O2 0.374197 0.353187 0.896347
O O3 0.168778 0.333482 0.060309
O O4 0.000000 0.343010 0.000000
O O5 0.707076 0.638248 0.858345
O O6 0.789826 0.821460 0.878065
O O7 0.500000 0.731784 0.000000
O O8 0.384298 0.500000 0.198013
O O9 0.312933 0.320476 0.258002
O O10 0.724886 0.137682 0.775011
O O11 0.064351 0.155739 0.723609
O O12 0.846961 0.000000 0.819256
O O13 0.200686 0.865555 0.461800
O O14 0.269149 0.865996 0.563583
O O15 0.939134 0.805984 0.617430
O O16 0.032011 0.000000 0.584070
O O17 0.415469 0.170470 0.299916
O O18 0.564953 0.167347 0.370255
O O19 0.437657 0.000000 0.351209
O O20 0.720852 0.000000 0.348432
#
# Coordination Sequence:
#
# PCOD8057036 Si02
#       8
#     4   4   4   4   4   4   4   4
#     4   9  17  30  49  70  87 103 131 177 223 252
#     4   9  17  29  47  67  85 111 144 172 203 248
#     4   9  18  32  47  63  85 110 136 171 213 255
#     4   9  17  29  42  59  89 121 144 169 201 243
#     4   9  16  27  42  61  87 114 140 173 209 246
#     4  10  17  25  41  64  87 111 141 176 210 244
#     4  10  18  27  42  63  85 109 140 174 211 247
#     4   8  15  26  39  58  85 116 144 170 205 245
#
# _framework density 15.956336
#
# number of rings (size 3 to 8) (size 9 to 14) (size 15 to 20)
#    0.000    2.875    0.000    3.000    0.000    5.250 
#    0.000    0.000    0.000    1.875    0.000    0.000 
#    0.000   10.000    0.000    0.000    0.000    0.000 
#
# Total GULP energy -396610.610308 kJ/mol
# GULP energy per Si atom -12394.081572 kJ/mol
# Density = 1.592002 g / cm^3
# Si number density = 15.956336 Si / 1000 Ang^3
#
#
#
# Elastic Constant Matrix: (Units=GPa)
#
#
# Indices 1 2 3 4 5 6 
#
# 1 89.3499 32.0547 35.4833 0.0000 12.3554 0.0000
# 2 32.0547 70.9447 44.9453 0.0000 3.0878 0.0000
# 3 35.4833 44.9453 69.8020 0.0000 16.5756 0.0000
# 4 0.0000 0.0000 0.0000 23.9614 0.0000 3.5798
# 5 12.3554 3.0878 16.5756 0.0000 16.5737 0.0000
# 6 0.0000 0.0000 0.0000 3.5798 0.0000 16.3724
#
#
#
# Elastic Compliance Matrix: (Units=1/GPa)
#
#
# Indices 1 2 3 4 5 6 
#
# 1 0.015033 -0.004642 -0.002881 0.000000 -0.007461 0.000000
# 2 -0.004642 0.028135 -0.020109 0.000000 0.018330 0.000000
# 3 -0.002881 -0.020109 0.035854 0.000000 -0.029964 0.000000
# 4 0.000000 0.000000 0.000000 0.043143 0.000000 -0.009433
# 5 -0.007461 0.018330 -0.029964 0.000000 0.092451 0.000000
# 6 0.000000 0.000000 0.000000 -0.009433 0.000000 0.063141
#
#
# Mechanical properties :
#
#
# Convention : Reuss Voigt Hill
#
# Bulk Modulus (GPa) = 42.09172 50.56257 46.32715
# Shear Modulus (GPa) = 14.66532 19.22239 16.94385
#
# Velocity S-wave (km/s) = 3.03494 3.47463 3.26220
# Velocity P-wave (km/s) = 6.22236 6.91768 6.57921
#
# Compressibility (1/GPa) = 0.02375764
#
# Stress axis : x y z
#
# Youngs Moduli (GPa) = 66.51897 35.54346 27.89078
#
# Poissons Ratio (x) = 0.16501 0.08036
# Poissons Ratio (y) = 0.30881 0.56084
# Poissons Ratio (z) = 0.19165 0.71473
#
# Static dielectric constant tensor:
#      x y z
#    x 3.367640 0.000000 0.058350 
#    y 0.000000 2.715400 0.000000 
#    z 0.058350 0.000000 2.987460 
# 
# 
# High freq. dielectric constant tensor:
#      x y z
#    x 1.623460 0.000000 0.008400 
#    y 0.000000 1.570690 0.000000 
#    z 0.008400 0.000000 1.605280 
# 
# From -- ./inp_files/29050.got.cif
#   From: 2010.06.25/outbox.cif.g09.slc.cpg/sg10_15_cif.got.tgz:29050.got - 2010.06.27 22:07:45.
