data_PCOD8057653
_publ_section_title
;
Structure prediction by ZEFSAII (Michael W. Deem and Ramdas Pophale) SiO2 
 PCOD8057653
Probable space group: P 2/M
;
_chemical_formula_sum "Si O2"
_cell_formula_units_Z 28
_cell_length_a 13.180427
_cell_length_b 9.240349
_cell_length_c 14.499927
_cell_angle_alpha 90.000000
_cell_angle_beta 100.750645
_cell_angle_gamma 90.000000
_cell_volume 1734.975614
_symmetry_space_group_name_H-M "P 2/M"
_symmetry_group_IT_number 10
_symmetry_cell_setting 'monoclinic'
loop_
_space_group_symop_operation_xyz
x,y,z
-x,y,-z
-x,-y,-z
x,-y,z
loop_
_atom_site_type_symbol
_atom_site_label
_atom_site_fract_x
_atom_site_fract_y
_atom_site_fract_z
Si Si1 0.632491 0.828993 0.105345
Si Si2 0.700193 0.334357 0.547246
Si Si3 0.598179 0.170807 0.896630
Si Si4 0.111903 0.330279 0.547524
Si Si5 0.764616 0.838015 0.291209
Si Si6 0.429114 0.837197 0.607954
Si Si7 0.382360 0.667082 0.276278
O O1 0.519986 0.772171 0.117817
O O2 0.724154 0.769741 0.186953
O O3 0.627315 0.000000 0.116341
O O4 0.654787 0.788543 0.002549
O O5 0.674321 0.500000 0.515953
O O6 0.809554 0.288636 0.521729
O O7 0.606305 0.234610 0.494642
O O8 0.704937 0.315781 0.658942
O O9 0.655982 0.254256 0.823574
O O10 0.603343 0.000000 0.878580
O O11 0.107818 0.500000 0.564485
O O12 0.144878 0.258976 0.650140
O O13 0.000000 0.269809 0.500000
O O14 0.668970 0.840912 0.343277
O O15 0.808257 0.000000 0.283966
O O16 0.513345 0.740573 0.671856
O O17 0.470290 0.000000 0.596975
O O18 0.404479 0.500000 0.258509
#
# Coordination Sequence:
#
# PCOD8057653 Si02
#       7
#     4   4   4   4   4   4   4
#     4   8  14  27  45  63  85 116 149 181 215 248
#     4   9  19  32  43  59  86 116 142 175 222 265
#     4   9  16  28  45  61  84 119 155 182 205 245
#     4   9  18  33  50  66  84 109 143 181 221 265
#     4   9  16  28  46  67  89 113 142 176 218 259
#     4  10  18  28  43  62  85 116 152 181 203 246
#     4  11  20  28  39  59  90 122 146 174 214 253
#
# _framework density 16.138553999999999
#
# number of rings (size 3 to 8) (size 9 to 14) (size 15 to 20)
#    0.000    2.714    1.429    2.143    0.000    3.714 
#    0.000    2.143    0.000    0.000    0.000    1.000 
#    0.000    8.000    0.000    0.000    0.000    0.000 
#
# Total GULP energy -347049.556412 kJ/mol
# GULP energy per Si atom -12394.627015 kJ/mol
# Density = 1.610182 g / cm^3
# Si number density = 16.138554 Si / 1000 Ang^3
#
#
#
# Elastic Constant Matrix: (Units=GPa)
#
#
# Indices 1 2 3 4 5 6 
#
# 1 48.8206 25.1883 39.8688 0.0000 13.2200 0.0000
# 2 25.1883 63.4462 47.2854 0.0000 1.8391 0.0000
# 3 39.8688 47.2854 145.0452 0.0000 9.1669 0.0000
# 4 0.0000 0.0000 0.0000 24.3558 0.0000 0.4550
# 5 13.2200 1.8391 9.1669 0.0000 22.0092 0.0000
# 6 0.0000 0.0000 0.0000 0.4550 0.0000 14.2951
#
#
#
# Elastic Compliance Matrix: (Units=1/GPa)
#
#
# Indices 1 2 3 4 5 6 
#
# 1 0.034338 -0.009137 -0.005345 0.000000 -0.017636 0.000000
# 2 -0.009137 0.023278 -0.005444 0.000000 0.005811 0.000000
# 3 -0.005345 -0.005444 0.010175 0.000000 -0.000572 0.000000
# 4 0.000000 0.000000 0.000000 0.041082 0.000000 -0.001308
# 5 -0.017636 0.005811 -0.000572 0.000000 0.055781 0.000000
# 6 0.000000 0.000000 0.000000 -0.001308 0.000000 0.069995
#
#
# Mechanical properties :
#
#
# Convention : Reuss Voigt Hill
#
# Bulk Modulus (GPa) = 35.79496 53.55523 44.67509
# Shear Modulus (GPa) = 17.61701 21.79665 19.70683
#
# Velocity S-wave (km/s) = 3.30754 3.67903 3.49822
# Velocity P-wave (km/s) = 6.06748 7.16266 6.63770
#
# Compressibility (1/GPa) = 0.02793690
#
# Stress axis : x y z
#
# Youngs Moduli (GPa) = 29.12221 42.95867 98.28302
#
# Poissons Ratio (x) = 0.39253 0.52533
# Poissons Ratio (y) = 0.26610 0.53509
# Poissons Ratio (z) = 0.15566 0.23389
#
# Static dielectric constant tensor:
#      x y z
#    x 2.772720 0.000000 0.012450 
#    y 0.000000 3.074810 0.000000 
#    z 0.012450 0.000000 3.437700 
# 
# 
# High freq. dielectric constant tensor:
#      x y z
#    x 1.568940 0.000000 -0.004770 
#    y 0.000000 1.612170 0.000000 
#    z -0.004770 0.000000 1.628910 
# 
# From -- ./inp_files/54709.got.cif
#   From: 2010.06.25/outbox.cif.g09.slc.cpg/sg10_28_cif.got.tgz:54709.got - 2010.06.27 22:07:45.
