data_PCOD8057214
_publ_section_title
;
Structure prediction by ZEFSAII (Michael W. Deem and Ramdas Pophale) SiO2 
 PCOD8057214
Probable space group: P 2/M
;
_chemical_formula_sum "Si O2"
_cell_formula_units_Z 20
_cell_length_a 16.619494
_cell_length_b 8.768288
_cell_length_c 14.741153
_cell_angle_alpha 90.000000
_cell_angle_beta 25.481313
_cell_angle_gamma 90.000000
_cell_volume 924.168832
_symmetry_space_group_name_H-M "P 2/M"
_symmetry_group_IT_number 10
_symmetry_cell_setting 'monoclinic'
loop_
_space_group_symop_operation_xyz
x,y,z
-x,y,-z
-x,-y,-z
x,-y,z
loop_
_atom_site_type_symbol
_atom_site_label
_atom_site_fract_x
_atom_site_fract_y
_atom_site_fract_z
Si Si1 0.137418 0.825336 0.065400
Si Si2 0.544467 0.676605 0.352077
Si Si3 0.168085 0.176448 0.234173
Si Si4 0.714896 0.178448 0.530736
Si Si5 0.762419 0.679527 0.663754
O O1 0.244903 0.807392 0.053299
O O2 0.924046 0.770254 0.290450
O O3 0.147096 0.000000 0.022470
O O4 0.239703 0.718236 0.888052
O O5 0.500000 0.721115 0.500000
O O6 0.505496 0.500000 0.372790
O O7 0.417557 0.778895 0.416883
O O8 0.308449 0.247325 0.167644
O O9 0.976145 0.270153 0.434172
O O10 0.127718 0.000000 0.297157
O O11 0.649495 0.259661 0.690873
O O12 0.707085 0.000000 0.557638
O O13 0.739706 0.500000 0.693250
#
# Coordination Sequence:
#
# PCOD8057214 Si02
#       5
#     4   4   4   4   4
#     4   9  20  38  61  87 114 151 194 236 282 333
#     4  11  25  42  60  85 116 148 185 237 297 349
#     4   9  16  29  50  79 115 153 193 231 273 329
#     4  10  21  39  62  86 115 152 194 237 282 337
#     4  10  17  27  49  82 117 152 189 229 279 334
#
# _framework density 21.641068000000001
#
# number of rings (size 3 to 8) (size 9 to 14) (size 15 to 20)
#    0.000    2.200    0.000    6.000    0.000    7.200 
#    0.000    5.000    0.000    6.000    0.000    0.000 
#    0.000    0.000    0.000    0.000    0.000    0.000 
#
# Total GULP energy -247949.507630 kJ/mol
# GULP energy per Si atom -12397.475381 kJ/mol
# Density = 2.159181 g / cm^3
# Si number density = 21.641068 Si / 1000 Ang^3
#
#
#
# Elastic Constant Matrix: (Units=GPa)
#
#
# Indices 1 2 3 4 5 6 
#
# 1 76.1473 20.1191 9.6541 0.0000 10.1893 0.0000
# 2 20.1191 83.1986 24.6971 0.0000 12.3529 0.0000
# 3 9.6541 24.6971 49.4342 0.0000 24.1532 0.0000
# 4 0.0000 0.0000 0.0000 6.3050 0.0000 17.6298
# 5 10.1893 12.3529 24.1532 0.0000 30.0629 0.0000
# 6 0.0000 0.0000 0.0000 17.6298 0.0000 29.5885
#
#
#
# Elastic Compliance Matrix: (Units=1/GPa)
#
#
# Indices 1 2 3 4 5 6 
#
# 1 0.014418 -0.003095 0.000818 0.000000 -0.004272 0.000000
# 2 -0.003095 0.014778 -0.007118 0.000000 0.000696 0.000000
# 3 0.000818 -0.007118 0.036763 0.000000 -0.026889 0.000000
# 4 0.000000 0.000000 0.000000 -0.238128 0.000000 0.141884
# 5 -0.004272 0.000696 -0.026889 0.000000 0.056028 0.000000
# 6 0.000000 0.000000 0.000000 0.141884 0.000000 -0.050742
#
#
# Mechanical properties :
#
#
# Convention : Reuss Voigt Hill
#
# Bulk Modulus (GPa) = 21.20105 35.30231 28.25168
# Shear Modulus (GPa) = -37.77325 23.47860 -7.14733
#
# Velocity S-wave (km/s) = -4.18238 3.29737 -1.81930
# Velocity P-wave (km/s) = 3.67494 5.55382 2.94447
#
# Compressibility (1/GPa) = 0.04716748
#
# Stress axis : x y z
#
# Youngs Moduli (GPa) = 69.35702 67.66989 27.20120
#
# Poissons Ratio (x) = 0.20944 -0.02225
# Poissons Ratio (y) = 0.21466 0.19363
# Poissons Ratio (z) = -0.05672 0.48170
#
# Static dielectric constant tensor:
#      x y z
#    x 4.151370 0.000000 0.337390 
#    y 0.000000 3.740300 0.000000 
#    z 0.337390 0.000000 3.832820 
# 
# 
# High freq. dielectric constant tensor:
#      x y z
#    x 1.849870 0.000000 0.012950 
#    y 0.000000 1.848660 0.000000 
#    z 0.012950 0.000000 1.838900 
# 
# From -- ./inp_files/26667.got.cif
#   From: 2010.06.25/outbox.cif.g09.slc.cpg/sg10_14_cif.got.tgz:26667.got - 2010.06.27 22:07:45.
