data_PCOD8057988
_publ_section_title
;
Structure prediction by ZEFSAII (Michael W. Deem and Ramdas Pophale) SiO2 
 PCOD8057988
Probable space group: P 2/M
;
_chemical_formula_sum "Si O2"
_cell_formula_units_Z 28
_cell_length_a 9.419086
_cell_length_b 14.236816
_cell_length_c 15.219877
_cell_angle_alpha 90.000000
_cell_angle_beta 43.103902
_cell_angle_gamma 90.000000
_cell_volume 1394.630416
_symmetry_space_group_name_H-M "P 2/M"
_symmetry_group_IT_number 10
_symmetry_cell_setting 'monoclinic'
loop_
_space_group_symop_operation_xyz
x,y,z
-x,y,-z
-x,-y,-z
x,-y,z
loop_
_atom_site_type_symbol
_atom_site_label
_atom_site_fract_x
_atom_site_fract_y
_atom_site_fract_z
Si Si1 0.055426 0.608843 0.381176
Si Si2 0.898888 0.209095 0.239540
Si Si3 0.516134 0.389510 0.890995
Si Si4 0.205899 0.753612 0.966275
Si Si5 0.739227 0.394663 0.370741
Si Si6 0.403787 0.890583 0.750316
Si Si7 0.298607 0.894714 0.529757
O O1 0.100703 0.500000 0.376645
O O2 0.264806 0.651122 0.243856
O O3 0.000000 0.656647 0.500000
O O4 0.862469 0.624366 0.404373
O O5 0.805175 0.315109 0.270910
O O6 0.777287 0.133590 0.236321
O O7 0.879405 0.175003 0.350602
O O8 0.133471 0.211645 0.096286
O O9 0.493405 0.500000 0.887901
O O10 0.329281 0.343420 0.920266
O O11 0.500000 0.361768 0.000000
O O12 0.366439 0.830122 0.854738
O O13 0.000000 0.738535 0.000000
O O14 0.500000 0.382309 0.500000
O O15 0.786511 0.500000 0.312625
O O16 0.627075 0.867582 0.602872
O O17 0.389032 0.000000 0.781094
O O18 0.500000 0.886313 0.500000
O O19 0.208527 0.000000 0.570990
#
# Coordination Sequence:
#
# PCOD8057988 Si02
#       7
#     4   4   4   4   4   4   4
#     4   9  19  35  54  76 102 141 189 226 267 323
#     4  10  18  29  48  76 109 140 179 220 265 321
#     4  10  21  39  58  74 106 154 192 222 263 325
#     4  10  22  34  51  83 114 143 183 231 278 319
#     4  10  20  33  52  81 116 146 177 226 277 319
#     4   9  18  33  51  75 110 144 175 223 285 337
#     4   8  14  26  46  70  98 135 175 215 263 321
#
# _framework density 20.077003999999999
#
# number of rings (size 3 to 8) (size 9 to 14) (size 15 to 20)
#    0.000    2.571    0.000    3.429    0.000    8.571 
#    0.000    5.000    0.000    0.429    0.000    2.000 
#    0.000   17.714    0.000    0.000    0.000    0.000 
#
# Total GULP energy -346947.576936 kJ/mol
# GULP energy per Si atom -12390.984891 kJ/mol
# Density = 2.003131 g / cm^3
# Si number density = 20.077004 Si / 1000 Ang^3
#
#
#
# Elastic Constant Matrix: (Units=GPa)
#
#
# Indices 1 2 3 4 5 6 
#
# 1 60.6241 24.3812 41.2988 0.0000 -10.0681 0.0000
# 2 24.3812 97.8919 68.8202 0.0000 4.8003 0.0000
# 3 41.2988 68.8202 191.8300 0.0000 -0.3898 0.0000
# 4 0.0000 0.0000 0.0000 20.4565 0.0000 5.5072
# 5 -10.0681 4.8003 -0.3898 0.0000 16.7909 0.0000
# 6 0.0000 0.0000 0.0000 5.5072 0.0000 10.8343
#
#
#
# Elastic Compliance Matrix: (Units=1/GPa)
#
#
# Indices 1 2 3 4 5 6 
#
# 1 0.022927 -0.003995 -0.003473 0.000000 0.014809 0.000000
# 2 -0.003995 0.014634 -0.004403 0.000000 -0.006681 0.000000
# 3 -0.003473 -0.004403 0.007539 0.000000 -0.000648 0.000000
# 4 0.000000 0.000000 0.000000 0.056634 0.000000 -0.028788
# 5 0.014809 -0.006681 -0.000648 0.000000 0.070331 0.000000
# 6 0.000000 0.000000 0.000000 -0.028788 0.000000 0.106933
#
#
# Mechanical properties :
#
#
# Convention : Reuss Voigt Hill
#
# Bulk Modulus (GPa) = 46.82228 68.81629 57.81928
# Shear Modulus (GPa) = 16.13639 24.00605 20.07122
#
# Velocity S-wave (km/s) = 2.83808 3.46164 3.16525
# Velocity P-wave (km/s) = 5.84051 7.09421 6.49767
#
# Compressibility (1/GPa) = 0.02135736
#
# Stress axis : x y z
#
# Youngs Moduli (GPa) = 43.61720 68.33531 132.64406
#
# Poissons Ratio (x) = 0.27301 0.46061
# Poissons Ratio (y) = 0.17426 0.58409
# Poissons Ratio (z) = 0.15146 0.30091
#
# Static dielectric constant tensor:
#      x y z
#    x 3.074890 0.000000 0.115480 
#    y 0.000000 3.670610 0.000000 
#    z 0.115480 0.000000 4.477680 
# 
# 
# High freq. dielectric constant tensor:
#      x y z
#    x 1.723270 0.000000 0.003570 
#    y 0.000000 1.777350 0.000000 
#    z 0.003570 0.000000 1.806890 
# 
# From -- ./inp_files/61778.got.cif
#   From: 2010.06.25/outbox.cif.g09.slc.cpg/sg10_31_cif.got.tgz:61778.got - 2010.06.27 22:07:45.
