data_PCOD8057102
_publ_section_title
;
Structure prediction by ZEFSAII (Michael W. Deem and Ramdas Pophale) SiO2 
 PCOD8057102
Probable space group: P 2/M
;
_chemical_formula_sum "Si O2"
_cell_formula_units_Z 32
_cell_length_a 11.618473
_cell_length_b 8.857339
_cell_length_c 23.027524
_cell_angle_alpha 90.000000
_cell_angle_beta 131.136650
_cell_angle_gamma 90.000000
_cell_volume 1784.747808
_symmetry_space_group_name_H-M "P 2/M"
_symmetry_group_IT_number 10
_symmetry_cell_setting 'monoclinic'
loop_
_space_group_symop_operation_xyz
x,y,z
-x,y,-z
-x,-y,-z
x,-y,z
loop_
_atom_site_type_symbol
_atom_site_label
_atom_site_fract_x
_atom_site_fract_y
_atom_site_fract_z
Si Si1 0.151920 0.177256 0.522445
Si Si2 0.587176 0.679204 0.608947
Si Si3 0.472947 0.178802 0.678282
Si Si4 0.593718 0.170924 0.118171
Si Si5 0.709222 0.177269 0.547383
Si Si6 0.734039 0.169300 0.049914
Si Si7 0.464797 0.323832 0.179600
Si Si8 0.145985 0.323370 0.015504
O O1 0.303900 0.239255 0.604813
O O2 0.155132 0.211556 0.453943
O O3 0.000000 0.252798 0.500000
O O4 0.148074 0.000000 0.532289
O O5 0.569910 0.500000 0.600856
O O6 0.599266 0.737639 0.679265
O O7 0.443125 0.764871 0.534256
O O8 0.730666 0.733026 0.615848
O O9 0.505590 0.223823 0.754593
O O10 0.488637 0.000000 0.675345
O O11 0.717484 0.228723 0.111151
O O12 0.592220 0.280120 0.173571
O O13 0.633243 0.000000 0.150846
O O14 0.430042 0.174154 0.034045
O O15 0.696499 0.000000 0.555873
O O16 0.850731 0.266500 0.050076
O O17 0.797887 0.000000 0.072616
O O18 0.478320 0.500000 0.198656
O O19 0.297570 0.278351 0.100984
O O20 0.127401 0.500000 0.005277
O O21 0.000000 0.251750 0.000000
#
# Coordination Sequence:
#
# PCOD8057102 Si02
#       8
#     4   4   4   4   4   4   4   4
#     4   8  15  28  47  70  92 116 147 182 220 263
#     4  10  17  26  42  64  91 118 149 188 226 265
#     4  10  19  31  48  68  92 120 149 184 226 270
#     4   8  14  26  43  64  90 116 145 184 226 264
#     4   9  15  25  43  66  91 117 149 187 225 264
#     4   8  14  25  43  66  89 114 147 187 225 260
#     4  10  19  30  46  68  93 120 151 185 221 267
#     4   9  18  31  46  66  93 123 151 182 225 271
#
# _framework density 17.929704000000001
#
# number of rings (size 3 to 8) (size 9 to 14) (size 15 to 20)
#    0.000    3.000    0.000    4.500    0.000    1.250 
#    0.000    2.500    0.000   15.000    0.000    1.750 
#    0.000    0.000    0.000    0.000    0.000    0.000 
#
# Total GULP energy -396449.240800 kJ/mol
# GULP energy per Si atom -12389.038775 kJ/mol
# Density = 1.788889 g / cm^3
# Si number density = 17.929704 Si / 1000 Ang^3
#
#
#
# Elastic Constant Matrix: (Units=GPa)
#
#
# Indices 1 2 3 4 5 6 
#
# 1 158.5135 38.7276 45.6665 0.0000 -31.7669 0.0000
# 2 38.7276 47.7236 24.8329 0.0000 -11.1048 0.0000
# 3 45.6665 24.8329 43.4129 0.0000 -21.5807 0.0000
# 4 0.0000 0.0000 0.0000 16.6347 0.0000 -9.9449
# 5 -31.7669 -11.1048 -21.5807 0.0000 27.2774 0.0000
# 6 0.0000 0.0000 0.0000 -9.9449 0.0000 23.8985
#
#
#
# Elastic Compliance Matrix: (Units=1/GPa)
#
#
# Indices 1 2 3 4 5 6 
#
# 1 0.009977 -0.003965 -0.005362 0.000000 0.005763 0.000000
# 2 -0.003965 0.031493 -0.016096 0.000000 -0.004531 0.000000
# 3 -0.005362 -0.016096 0.051953 0.000000 0.028306 0.000000
# 4 0.000000 0.000000 0.000000 0.080023 0.000000 0.033300
# 5 0.005763 -0.004531 0.028306 0.000000 0.063921 0.000000
# 6 0.000000 0.000000 0.000000 0.033300 0.000000 0.055701
#
#
# Mechanical properties :
#
#
# Convention : Reuss Voigt Hill
#
# Bulk Modulus (GPa) = 23.48722 52.01156 37.74939
# Shear Modulus (GPa) = 13.96232 22.92365 18.44298
#
# Velocity S-wave (km/s) = 2.79359 3.57953 3.21070
# Velocity P-wave (km/s) = 4.85114 6.79379 5.90293
#
# Compressibility (1/GPa) = 0.04257635
#
# Stress axis : x y z
#
# Youngs Moduli (GPa) = 100.23015 31.75326 19.24814
#
# Poissons Ratio (x) = 0.12591 0.10321
# Poissons Ratio (y) = 0.39744 0.30981
# Poissons Ratio (z) = 0.53745 0.51109
#
# Static dielectric constant tensor:
#      x y z
#    x 4.290820 0.000000 -0.477130 
#    y 0.000000 3.190180 0.000000 
#    z -0.477130 0.000000 3.002920 
# 
# 
# High freq. dielectric constant tensor:
#      x y z
#    x 1.707590 0.000000 -0.040230 
#    y 0.000000 1.683970 0.000000 
#    z -0.040230 0.000000 1.638820 
# 
# From -- ./inp_files/88556.got.cif
#   From: 2010.06.25/outbox.cif.g09.slc.cpg/sg10_45_cif.got.tgz:88556.got - 2010.06.27 22:07:45.
