data_PCOD8057138
_publ_section_title
;
Structure prediction by ZEFSAII (Michael W. Deem and Ramdas Pophale) SiO2 
 PCOD8057138
Probable space group: P 2/M
;
_chemical_formula_sum "Si O2"
_cell_formula_units_Z 32
_cell_length_a 18.580531
_cell_length_b 22.686285
_cell_length_c 13.060563
_cell_angle_alpha 90.000000
_cell_angle_beta 18.919657
_cell_angle_gamma 90.000000
_cell_volume 1785.059300
_symmetry_space_group_name_H-M "P 2/M"
_symmetry_group_IT_number 10
_symmetry_cell_setting 'monoclinic'
loop_
_space_group_symop_operation_xyz
x,y,z
-x,y,-z
-x,-y,-z
x,-y,z
loop_
_atom_site_type_symbol
_atom_site_label
_atom_site_fract_x
_atom_site_fract_y
_atom_site_fract_z
Si Si1 0.539211 0.784120 0.217640
Si Si2 0.014995 0.066752 0.857789
Si Si3 0.969755 0.229868 0.772242
Si Si4 0.357743 0.851292 0.282684
Si Si5 0.646831 0.342679 0.494558
Si Si6 0.959682 0.650893 0.885444
Si Si7 0.283818 0.166825 0.733011
Si Si8 0.344280 0.565005 0.806546
O O1 0.533979 0.813559 0.113205
O O2 0.472350 0.716015 0.305607
O O3 0.341799 0.822826 0.536844
O O4 0.782819 0.789292 0.940942
O O5 0.230488 0.097754 0.517915
O O6 0.006097 0.000000 0.829205
O O7 0.000000 0.070312 0.000000
O O8 0.788198 0.101076 0.134088
O O9 0.001262 0.299833 0.741563
O O10 0.194469 0.195049 0.444930
O O11 0.910389 0.210287 0.968752
O O12 0.500000 0.881621 0.000000
O O13 0.462571 0.393685 0.731857
O O14 0.820028 0.364021 0.347354
O O15 0.763509 0.329958 0.228074
O O16 0.887932 0.593117 0.918805
O O17 0.500000 0.187776 0.500000
O O18 0.500000 0.558104 0.500000
O O19 0.297829 0.500000 0.916124
#
# Coordination Sequence:
#
# PCOD8057138 Si02
#       8
#     4   4   4   4   4   4   4   4
#     4  11  18  31  53  78 110 137 175 226 275 325
#     4  10  20  36  58  82 107 142 189 226 258 313
#     4  10  19  30  52  80 105 134 182 217 275 330
#     4  11  24  38  54  79 114 147 174 220 283 329
#     4  10  18  25  46  73 102 141 179 225 273 326
#     4  10  17  26  44  73 101 138 183 221 269 327
#     4   9  18  29  51  84 106 132 171 231 274 312
#     4   9  18  29  39  62 108 153 183 218 268 329
#
# _framework density 17.926577000000002
#
# number of rings (size 3 to 8) (size 9 to 14) (size 15 to 20)
#    0.000    2.000    5.000    0.000    0.000    1.500 
#    0.000    2.500    0.000    0.000    0.000    3.500 
#    0.000    3.000    0.000    0.000    0.000    0.000 
#
# Total GULP energy -396445.265367 kJ/mol
# GULP energy per Si atom -12388.914543 kJ/mol
# Density = 1.788578 g / cm^3
# Si number density = 17.926577 Si / 1000 Ang^3
#
#
#
# Elastic Constant Matrix: (Units=GPa)
#
#
# Indices 1 2 3 4 5 6 
#
# 1 77.9559 33.3832 33.3840 0.0000 -16.7382 0.0000
# 2 33.3832 128.2833 27.8625 0.0000 -2.0445 0.0000
# 3 33.3840 27.8625 53.4080 0.0000 1.5849 0.0000
# 4 0.0000 0.0000 0.0000 12.4600 0.0000 -7.3555
# 5 -16.7382 -2.0445 1.5849 0.0000 26.6875 0.0000
# 6 0.0000 0.0000 0.0000 -7.3555 0.0000 17.6141
#
#
#
# Elastic Compliance Matrix: (Units=1/GPa)
#
#
# Indices 1 2 3 4 5 6 
#
# 1 0.022963 -0.002845 -0.013314 0.000000 0.014975 0.000000
# 2 -0.002845 0.009168 -0.002977 0.000000 -0.000905 0.000000
# 3 -0.013314 -0.002977 0.028905 0.000000 -0.010295 0.000000
# 4 0.000000 0.000000 0.000000 0.106514 0.000000 0.044479
# 5 0.014975 -0.000905 -0.010295 0.000000 0.047405 0.000000
# 6 0.000000 0.000000 0.000000 0.044479 0.000000 0.075347
#
#
# Mechanical properties :
#
#
# Convention : Reuss Voigt Hill
#
# Bulk Modulus (GPa) = 43.93131 49.87850 46.90491
# Shear Modulus (GPa) = 14.87381 22.35349 18.61365
#
# Velocity S-wave (km/s) = 2.88359 3.53504 3.22580
# Velocity P-wave (km/s) = 5.97045 6.67430 6.33216
#
# Compressibility (1/GPa) = 0.02276281
#
# Stress axis : x y z
#
# Youngs Moduli (GPa) = 43.54842 109.07569 34.59665
#
# Poissons Ratio (x) = 0.31036 0.46060
# Poissons Ratio (y) = 0.12391 0.10301
# Poissons Ratio (z) = 0.57978 0.32476
#
# Static dielectric constant tensor:
#      x y z
#    x 3.241950 0.000000 -0.182060 
#    y 0.000000 3.398900 0.000000 
#    z -0.182060 0.000000 3.151200 
# 
# 
# High freq. dielectric constant tensor:
#      x y z
#    x 1.685590 0.000000 -0.025900 
#    y 0.000000 1.686120 0.000000 
#    z -0.025900 0.000000 1.659920 
# 
# From -- ./inp_files/54264.got.cif
#   From: 2010.06.25/outbox.cif.g09.slc.cpg/sg10_28_cif.got.tgz:54264.got - 2010.06.27 22:07:45.
