data_PCOD8057481
_publ_section_title
;
Structure prediction by ZEFSAII (Michael W. Deem and Ramdas Pophale) SiO2 
 PCOD8057481
Probable space group: P 2/M
;
_chemical_formula_sum "Si O2"
_cell_formula_units_Z 30
_cell_length_a 12.113348
_cell_length_b 16.891851
_cell_length_c 9.000656
_cell_angle_alpha 90.000000
_cell_angle_beta 120.244903
_cell_angle_gamma 90.000000
_cell_volume 1590.996333
_symmetry_space_group_name_H-M "P 2/M"
_symmetry_group_IT_number 10
_symmetry_cell_setting 'monoclinic'
loop_
_space_group_symop_operation_xyz
x,y,z
-x,y,-z
-x,-y,-z
x,-y,z
loop_
_atom_site_type_symbol
_atom_site_label
_atom_site_fract_x
_atom_site_fract_y
_atom_site_fract_z
Si Si1 0.583851 0.793457 0.926085
Si Si2 0.190745 0.701241 0.765197
Si Si3 0.755894 0.408165 0.474551
Si Si4 0.824638 0.178606 0.631103
Si Si5 0.416980 0.719658 0.584501
Si Si6 0.967139 0.666097 0.812935
Si Si7 0.625857 0.908269 0.684416
Si Si8 0.000000 0.822441 0.500000
O O1 0.500795 0.726402 0.788267
O O2 0.622991 0.861650 0.837531
O O3 0.500000 0.833544 0.000000
O O4 0.699671 0.745223 0.071196
O O5 0.234232 0.635141 0.677693
O O6 0.113883 0.768311 0.630006
O O7 0.101661 0.658727 0.823121
O O8 0.734907 0.500000 0.431808
O O9 0.630423 0.370619 0.468668
O O10 0.875033 0.394675 0.664751
O O11 0.706515 0.224144 0.473077
O O12 0.907689 0.244815 0.774860
O O13 0.759448 0.113994 0.693852
O O14 0.924056 0.132544 0.583324
O O15 0.500000 0.747358 0.500000
O O16 0.000000 0.637293 0.000000
O O17 0.500000 0.889249 0.500000
O O18 0.630836 0.000000 0.727778
#
# Coordination Sequence:
#
# PCOD8057481 Si02
#       8
#     4   4   4   4   4   4   4   2
#     4  12  21  35  65  92 118 157 205 253 291 360
#     4  11  20  36  59  90 113 160 203 248 295 356
#     4  11  23  40  58  83 123 160 196 255 317 358
#     4  10  17  36  61  88 120 157 199 252 292 355
#     4  11  20  38  62  87 117 160 206 243 302 363
#     4  10  21  35  61  88 115 154 213 251 288 353
#     4  11  23  39  62  95 130 160 191 247 316 361
#     4  10  18  36  62  90 112 152 222 242 280 354
#
# _framework density 18.856109
#
# number of rings (size 3 to 8) (size 9 to 14) (size 15 to 20)
#    0.000    1.200    8.000    0.800    1.867    1.867 
#    0.000    1.667    0.000   10.000    0.000    0.000 
#    0.000    0.000    0.000    0.000    0.000    0.000 
#
# Total GULP energy -371674.895970 kJ/mol
# GULP energy per Si atom -12389.163199 kJ/mol
# Density = 1.881319 g / cm^3
# Si number density = 18.856109 Si / 1000 Ang^3
#
#
#
# Elastic Constant Matrix: (Units=GPa)
#
#
# Indices 1 2 3 4 5 6 
#
# 1 140.9732 45.3138 36.1881 0.0000 -12.0151 0.0000
# 2 45.3138 102.2556 51.2822 0.0000 -0.0020 0.0000
# 3 36.1881 51.2822 116.1452 0.0000 3.0472 0.0000
# 4 0.0000 0.0000 0.0000 30.7936 0.0000 -0.6737
# 5 -12.0151 -0.0020 3.0472 0.0000 32.9690 0.0000
# 6 0.0000 0.0000 0.0000 -0.6737 0.0000 20.0652
#
#
#
# Elastic Compliance Matrix: (Units=1/GPa)
#
#
# Indices 1 2 3 4 5 6 
#
# 1 0.008760 -0.003172 -0.001416 0.000000 0.003323 0.000000
# 2 -0.003172 0.013718 -0.005051 0.000000 -0.000688 0.000000
# 3 -0.001416 -0.005051 0.011322 0.000000 -0.001563 0.000000
# 4 0.000000 0.000000 0.000000 0.032498 0.000000 0.001091
# 5 0.003323 -0.000688 -0.001563 0.000000 0.031687 0.000000
# 6 0.000000 0.000000 0.000000 0.001091 0.000000 0.049874
#
#
# Mechanical properties :
#
#
# Convention : Reuss Voigt Hill
#
# Bulk Modulus (GPa) = 68.85616 69.43802 69.14709
# Shear Modulus (GPa) = 29.07371 31.87156 30.47264
#
# Velocity S-wave (km/s) = 3.93093 4.11573 4.02439
# Velocity P-wave (km/s) = 7.56299 7.71303 7.63838
#
# Compressibility (1/GPa) = 0.01452303
#
# Stress axis : x y z
#
# Youngs Moduli (GPa) = 114.15861 72.89802 88.32202
#
# Poissons Ratio (x) = 0.23120 0.12508
# Poissons Ratio (y) = 0.36206 0.44608
# Poissons Ratio (z) = 0.16167 0.36818
#
# Static dielectric constant tensor:
#      x y z
#    x 3.864740 0.000000 -0.051440 
#    y 0.000000 3.129260 0.000000 
#    z -0.051440 0.000000 3.420120 
# 
# 
# High freq. dielectric constant tensor:
#      x y z
#    x 1.757790 0.000000 -0.003350 
#    y 0.000000 1.688740 0.000000 
#    z -0.003350 0.000000 1.734750 
# 
# From -- ./inp_files/25862.got.cif
#   From: 2010.06.25/outbox.cif.g09.slc.cpg/sg10_13_cif.got.tgz:25862.got - 2010.06.27 22:07:45.
