data_PCOD8057453
_publ_section_title
;
Structure prediction by ZEFSAII (Michael W. Deem and Ramdas Pophale) SiO2 
 PCOD8057453
Probable space group: P 2/M
;
_chemical_formula_sum "Si O2"
_cell_formula_units_Z 30
_cell_length_a 14.122460
_cell_length_b 20.382622
_cell_length_c 14.152811
_cell_angle_alpha 90.000000
_cell_angle_beta 159.327107
_cell_angle_gamma 90.000000
_cell_volume 1438.227136
_symmetry_space_group_name_H-M "P 2/M"
_symmetry_group_IT_number 10
_symmetry_cell_setting 'monoclinic'
loop_
_space_group_symop_operation_xyz
x,y,z
-x,y,-z
-x,-y,-z
x,-y,z
loop_
_atom_site_type_symbol
_atom_site_label
_atom_site_fract_x
_atom_site_fract_y
_atom_site_fract_z
Si Si1 0.397919 0.740434 0.621670
Si Si2 0.280484 0.500000 0.717611
Si Si3 0.216938 0.922758 0.279426
Si Si4 0.909515 0.428749 0.065271
Si Si5 0.358006 0.599225 0.635635
Si Si6 0.392245 0.924567 0.002144
Si Si7 0.955255 0.285752 0.059889
Si Si8 0.169651 0.124312 0.450108
O O1 0.381274 0.677344 0.673911
O O2 0.278526 0.801939 0.566884
O O3 0.228856 0.726520 0.370101
O O4 0.708564 0.750427 0.881905
O O5 0.294448 0.567878 0.675388
O O6 0.000000 0.500000 0.500000
O O7 0.500000 0.500000 0.000000
O O8 0.500000 0.901568 0.500000
O O9 0.172207 0.890572 0.340340
O O10 0.196192 0.000000 0.276436
O O11 0.000000 0.898702 0.000000
O O12 0.958366 0.500000 0.058907
O O13 0.903680 0.363997 0.993998
O O14 0.130722 0.418792 0.350168
O O15 0.627007 0.434116 0.851663
O O16 0.626088 0.920630 0.299348
O O17 0.300124 0.000000 0.909188
O O18 0.500000 0.900248 0.000000
O O19 0.131329 0.882769 0.789996
O O20 0.000000 0.252830 0.000000
#
# Coordination Sequence:
#
# PCOD8057453 Si02
#       8
#     4   2   4   4   4   4   4   4
#     4  10  23  39  59  82 118 166 202 236 307 363
#     4  12  22  34  58  86 105 136 187 242 300 356
#     4  10  21  36  56  88 126 163 205 253 299 349
#     4  10  17  32  57  78 104 153 185 232 302 347
#     4  10  20  37  54  78 113 145 188 237 288 363
#     4  11  24  43  69  99 126 156 203 263 321 375
#     4  10  21  36  55  83 119 154 203 257 290 344
#     4  12  23  41  66  93 126 172 213 252 311 386
#
# _framework density 20.859013000000001
#
# number of rings (size 3 to 8) (size 9 to 14) (size 15 to 20)
#    0.000    1.467    1.333    4.400    0.000    4.000 
#    0.000    2.000    0.000    4.800    0.000    0.000 
#    0.000    0.000    0.000    0.000    0.000    0.000 
#
# Total GULP energy -371881.010892 kJ/mol
# GULP energy per Si atom -12396.033696 kJ/mol
# Density = 2.081154 g / cm^3
# Si number density = 20.859013 Si / 1000 Ang^3
#
#
#
# Elastic Constant Matrix: (Units=GPa)
#
#
# Indices 1 2 3 4 5 6 
#
# 1 132.9041 34.1741 51.0171 0.0000 2.8072 0.0000
# 2 34.1741 97.6538 9.6376 0.0000 6.1432 0.0000
# 3 51.0171 9.6376 135.1063 0.0000 10.0690 0.0000
# 4 0.0000 0.0000 0.0000 24.6756 0.0000 -0.3084
# 5 2.8072 6.1432 10.0690 0.0000 31.6360 0.0000
# 6 0.0000 0.0000 0.0000 -0.3084 0.0000 10.1657
#
#
#
# Elastic Compliance Matrix: (Units=1/GPa)
#
#
# Indices 1 2 3 4 5 6 
#
# 1 0.009635 -0.003082 -0.003482 0.000000 0.000852 0.000000
# 2 -0.003082 0.011401 0.000507 0.000000 -0.002102 0.000000
# 3 -0.003482 0.000507 0.008875 0.000000 -0.002614 0.000000
# 4 0.000000 0.000000 0.000000 0.040541 0.000000 0.001230
# 5 0.000852 -0.002102 -0.002614 0.000000 0.032774 0.000000
# 6 0.000000 0.000000 0.000000 0.001230 0.000000 0.098407
#
#
# Mechanical properties :
#
#
# Convention : Reuss Voigt Hill
#
# Bulk Modulus (GPa) = 56.18661 61.70241 58.94451
# Shear Modulus (GPa) = 22.76037 31.35115 27.05576
#
# Velocity S-wave (km/s) = 3.30684 3.88106 3.60540
# Velocity P-wave (km/s) = 6.44788 7.05184 6.75661
#
# Compressibility (1/GPa) = 0.01779783
#
# Stress axis : x y z
#
# Youngs Moduli (GPa) = 103.78527 87.71225 112.67525
#
# Poissons Ratio (x) = 0.27031 0.39233
# Poissons Ratio (y) = 0.31985 -0.05714
# Poissons Ratio (z) = 0.36138 -0.04448
#
# Static dielectric constant tensor:
#      x y z
#    x 3.624960 0.000000 0.078530 
#    y 0.000000 4.084860 0.000000 
#    z 0.078530 0.000000 3.940380 
# 
# 
# High freq. dielectric constant tensor:
#      x y z
#    x 1.797110 0.000000 0.009320 
#    y 0.000000 1.824430 0.000000 
#    z 0.009320 0.000000 1.837380 
# 
# From -- ./inp_files/67900.got.cif
#   From: 2010.06.25/outbox.cif.g09.slc.cpg/sg10_34_cif.got.tgz:67900.got - 2010.06.27 22:07:45.
