data_PCOD8057322
_publ_section_title
;
Structure prediction by ZEFSAII (Michael W. Deem and Ramdas Pophale) SiO2 
 PCOD8057322
Probable space group: P 2/M
;
_chemical_formula_sum "Si O2"
_cell_formula_units_Z 28
_cell_length_a 29.063742
_cell_length_b 9.183911
_cell_length_c 9.751928
_cell_angle_alpha 90.000000
_cell_angle_beta 38.471396
_cell_angle_gamma 90.000000
_cell_volume 1619.371666
_symmetry_space_group_name_H-M "P 2/M"
_symmetry_group_IT_number 10
_symmetry_cell_setting 'monoclinic'
loop_
_space_group_symop_operation_xyz
x,y,z
-x,y,-z
-x,-y,-z
x,-y,z
loop_
_atom_site_type_symbol
_atom_site_label
_atom_site_fract_x
_atom_site_fract_y
_atom_site_fract_z
Si Si1 0.918855 0.830741 0.689879
Si Si2 0.797789 0.831328 0.181300
Si Si3 0.601992 0.672155 0.879355
Si Si4 0.794363 0.170603 0.779589
Si Si5 0.303809 0.328432 0.790642
Si Si6 0.250971 0.168369 0.409367
Si Si7 0.443240 0.329394 0.310831
O O1 0.867493 0.768011 0.686312
O O2 0.000000 0.754767 0.500000
O O3 0.929792 0.000000 0.634859
O O4 0.879654 0.802791 0.928355
O O5 0.740260 0.728754 0.238532
O O6 0.796610 0.789627 0.344872
O O7 0.775647 0.000000 0.209195
O O8 0.614462 0.500000 0.856794
O O9 0.672975 0.745056 0.781439
O O10 0.591836 0.733025 0.748262
O O11 0.528005 0.721826 0.136361
O O12 0.799326 0.204652 0.606267
O O13 0.785218 0.000000 0.831537
O O14 0.722222 0.249852 0.010214
O O15 0.290853 0.500000 0.834664
O O16 0.390610 0.290397 0.562395
O O17 0.272450 0.000000 0.361695
O O18 0.445966 0.500000 0.279008
#
# Coordination Sequence:
#
# PCOD8057322 Si02
#       7
#     4   4   4   4   4   4   4
#     4   8  14  28  50  71  90 118 155 188 222 269
#     4   9  17  29  47  70  95 122 151 187 228 273
#     4   9  16  29  47  66  91 122 154 196 237 267
#     4   9  19  33  47  66  97 128 150 186 234 274
#     4  10  17  29  49  71  90 117 160 199 229 273
#     4  10  19  31  45  67  98 127 154 185 230 281
#     4   8  15  27  45  68  91 116 153 200 240 265
#
# _framework density 17.290655999999998
#
# number of rings (size 3 to 8) (size 9 to 14) (size 15 to 20)
#    0.000    3.000    1.429    2.143    0.000    0.571 
#    0.000    4.286    0.000   15.429    0.000    0.000 
#    0.000   10.286    0.000    0.000    0.000    0.000 
#
# Total GULP energy -346954.352018 kJ/mol
# GULP energy per Si atom -12391.226858 kJ/mol
# Density = 1.725130 g / cm^3
# Si number density = 17.290656 Si / 1000 Ang^3
#
#
#
# Elastic Constant Matrix: (Units=GPa)
#
#
# Indices 1 2 3 4 5 6 
#
# 1 91.3842 20.8552 64.2964 0.0000 2.7327 0.0000
# 2 20.8552 32.9973 27.3169 0.0000 -0.1560 0.0000
# 3 64.2964 27.3169 119.1458 0.0000 -3.0318 0.0000
# 4 0.0000 0.0000 0.0000 15.9756 0.0000 7.9244
# 5 2.7327 -0.1560 -3.0318 0.0000 32.3153 0.0000
# 6 0.0000 0.0000 0.0000 7.9244 0.0000 3.2532
#
#
#
# Elastic Compliance Matrix: (Units=1/GPa)
#
#
# Indices 1 2 3 4 5 6 
#
# 1 0.018272 -0.004130 -0.008975 0.000000 -0.002407 0.000000
# 2 -0.004130 0.038351 -0.006566 0.000000 -0.000082 0.000000
# 3 -0.008975 -0.006566 0.014795 0.000000 0.002115 0.000000
# 4 0.000000 0.000000 0.000000 -0.300552 0.000000 0.732106
# 5 -0.002407 -0.000082 0.002115 0.000000 0.031347 0.000000
# 6 0.000000 0.000000 0.000000 0.732106 0.000000 -1.475929
#
#
# Mechanical properties :
#
#
# Convention : Reuss Voigt Hill
#
# Bulk Modulus (GPa) = 31.17519 52.05161 41.61340
# Shear Modulus (GPa) = -3.07942 19.04607 7.98332
#
# Velocity S-wave (km/s) = -1.33598 3.32252 2.15108
# Velocity P-wave (km/s) = 3.96099 6.69986 5.50352
#
# Compressibility (1/GPa) = 0.03207679
#
# Stress axis : x y z
#
# Youngs Moduli (GPa) = 54.72953 26.07474 67.58830
#
# Poissons Ratio (x) = 0.10769 0.60658
# Poissons Ratio (y) = 0.22603 0.44380
# Poissons Ratio (z) = 0.49117 0.17121
#
# Static dielectric constant tensor:
#      x y z
#    x 3.172350 0.000000 -0.083790 
#    y 0.000000 2.947850 0.000000 
#    z -0.083790 0.000000 3.526200 
# 
# 
# High freq. dielectric constant tensor:
#      x y z
#    x 1.643070 0.000000 -0.000500 
#    y 0.000000 1.637450 0.000000 
#    z -0.000500 0.000000 1.673830 
# 
# From -- ./inp_files/37964.got.cif
#   From: 2010.06.25/outbox.cif.g09.slc.cpg/sg10_19_cif.got.tgz:37964.got - 2010.06.27 22:07:45.
