data_PCOD8057429
_publ_section_title
;
Structure prediction by ZEFSAII (Michael W. Deem and Ramdas Pophale) SiO2 
 PCOD8057429
Probable space group: P 2/M
;
_chemical_formula_sum "Si O2"
_cell_formula_units_Z 28
_cell_length_a 15.034831
_cell_length_b 21.560145
_cell_length_c 8.843601
_cell_angle_alpha 90.000000
_cell_angle_beta 30.077569
_cell_angle_gamma 90.000000
_cell_volume 1436.700241
_symmetry_space_group_name_H-M "P 2/M"
_symmetry_group_IT_number 10
_symmetry_cell_setting 'monoclinic'
loop_
_space_group_symop_operation_xyz
x,y,z
-x,y,-z
-x,-y,-z
x,-y,z
loop_
_atom_site_type_symbol
_atom_site_label
_atom_site_fract_x
_atom_site_fract_y
_atom_site_fract_z
Si Si1 0.806800 0.133941 0.353138
Si Si2 0.188084 0.429306 0.644637
Si Si3 0.183259 0.427462 0.300241
Si Si4 0.490379 0.220882 0.834604
Si Si5 0.191892 0.873268 0.292132
Si Si6 0.498164 0.645644 0.681678
Si Si7 0.320854 0.000000 0.160304
Si Si8 0.810458 0.000000 0.343720
O O1 0.665958 0.186119 0.513887
O O2 0.830437 0.133744 0.497139
O O3 0.723652 0.066278 0.422510
O O4 0.000000 0.148363 0.000000
O O5 0.256086 0.500000 0.563636
O O6 0.179866 0.411011 0.481481
O O7 0.317346 0.381663 0.533868
O O8 0.000000 0.420930 0.000000
O O9 0.208561 0.500000 0.234272
O O10 0.000000 0.403308 0.500000
O O11 0.340632 0.393841 0.983506
O O12 0.476219 0.284424 0.766886
O O13 0.500000 0.232026 0.000000
O O14 0.315657 0.181760 0.047857
O O15 0.295295 0.937843 0.098785
O O16 0.000000 0.869857 0.500000
O O17 0.500000 0.641582 0.500000
O O18 0.162074 0.000000 0.515702
O O19 0.500000 0.000000 0.000000
O O20 0.000000 0.000000 0.000000
#
# Coordination Sequence:
#
# PCOD8057429 Si02
#       8
#     4   4   4   4   4   4   2   2
#     4   9  18  34  57  80 106 144 184 227 282 346
#     4  10  21  39  64  93 122 151 187 235 290 347
#     4  10  21  39  64  92 120 150 187 235 289 343
#     4  10  22  39  55  75 108 153 196 233 282 341
#     4  10  20  34  55  83 112 142 181 235 289 337
#     4  12  25  39  58  84 117 158 200 241 285 339
#     4  10  17  31  56  83 109 140 182 226 279 347
#     4   8  14  27  50  79 102 126 169 220 272 329
#
# _framework density 19.489103
#
# number of rings (size 3 to 8) (size 9 to 14) (size 15 to 20)
#    0.000    2.000    0.000    4.929    0.000    5.714 
#    0.000    2.857    0.000    0.000    0.000   14.000 
#    0.000    0.000    0.000    0.000    0.000    0.000 
#
# Total GULP energy -347013.748285 kJ/mol
# GULP energy per Si atom -12393.348153 kJ/mol
# Density = 1.944474 g / cm^3
# Si number density = 19.489103 Si / 1000 Ang^3
#
#
#
# Elastic Constant Matrix: (Units=GPa)
#
#
# Indices 1 2 3 4 5 6 
#
# 1 105.9777 57.8397 50.6595 0.0000 -12.4508 0.0000
# 2 57.8397 107.7179 56.4718 0.0000 -3.3925 0.0000
# 3 50.6595 56.4718 123.1905 0.0000 0.1819 0.0000
# 4 0.0000 0.0000 0.0000 52.8291 0.0000 -15.6260
# 5 -12.4508 -3.3925 0.1819 0.0000 36.5891 0.0000
# 6 0.0000 0.0000 0.0000 -15.6260 0.0000 34.6247
#
#
#
# Elastic Compliance Matrix: (Units=1/GPa)
#
#
# Indices 1 2 3 4 5 6 
#
# 1 0.014893 -0.006108 -0.003331 0.000000 0.004518 0.000000
# 2 -0.006108 0.014775 -0.004260 0.000000 -0.000687 0.000000
# 3 -0.003331 -0.004260 0.011443 0.000000 -0.001585 0.000000
# 4 0.000000 0.000000 0.000000 0.021845 0.000000 0.009859
# 5 0.004518 -0.000687 -0.001585 0.000000 0.028812 0.000000
# 6 0.000000 0.000000 0.000000 0.009859 0.000000 0.033330
#
#
# Mechanical properties :
#
#
# Convention : Reuss Voigt Hill
#
# Bulk Modulus (GPa) = 72.93010 74.09201 73.51105
# Shear Modulus (GPa) = 31.83360 36.26958 34.05159
#
# Velocity S-wave (km/s) = 4.04593 4.31863 4.18450
# Velocity P-wave (km/s) = 7.70248 7.93518 7.81970
#
# Compressibility (1/GPa) = 0.01371176
#
# Stress axis : x y z
#
# Youngs Moduli (GPa) = 67.14724 67.68146 87.39319
#
# Poissons Ratio (x) = 0.41341 0.29110
# Poissons Ratio (y) = 0.41014 0.37231
# Poissons Ratio (z) = 0.22366 0.28834
#
# Static dielectric constant tensor:
#      x y z
#    x 3.410040 0.000000 0.001730 
#    y 0.000000 3.498170 0.000000 
#    z 0.001730 0.000000 3.796310 
# 
# 
# High freq. dielectric constant tensor:
#      x y z
#    x 1.736630 0.000000 -0.000970 
#    y 0.000000 1.768870 0.000000 
#    z -0.000970 0.000000 1.775690 
# 
# From -- ./inp_files/30441.got.cif
#   From: 2010.06.25/outbox.cif.g09.slc.cpg/sg10_16_cif.got.tgz:30441.got - 2010.06.27 22:07:45.
