data_PCOD8057459
_publ_section_title
;
Structure prediction by ZEFSAII (Michael W. Deem and Ramdas Pophale) SiO2 
 PCOD8057459
Probable space group: P 2/M
;
_chemical_formula_sum "Si O2"
_cell_formula_units_Z 26
_cell_length_a 12.165452
_cell_length_b 13.407211
_cell_length_c 19.666349
_cell_angle_alpha 90.000000
_cell_angle_beta 154.499272
_cell_angle_gamma 90.000000
_cell_volume 1380.976712
_symmetry_space_group_name_H-M "P 2/M"
_symmetry_group_IT_number 10
_symmetry_cell_setting 'monoclinic'
loop_
_space_group_symop_operation_xyz
x,y,z
-x,y,-z
-x,-y,-z
x,-y,z
loop_
_atom_site_type_symbol
_atom_site_label
_atom_site_fract_x
_atom_site_fract_y
_atom_site_fract_z
Si Si1 0.459437 0.297562 0.644514
Si Si2 0.750798 0.209330 0.010981
Si Si3 0.778194 0.387184 0.927923
Si Si4 0.024931 0.616449 0.319085
Si Si5 0.500000 0.718196 0.000000
Si Si6 0.257296 0.272959 0.328579
Si Si7 0.703550 0.113601 0.847767
O O1 0.515770 0.370283 0.739452
O O2 0.169880 0.317581 0.458106
O O3 0.655100 0.323963 0.692814
O O4 0.512917 0.182581 0.697305
O O5 0.042547 0.187101 0.197786
O O6 0.771292 0.321069 0.991507
O O7 0.569352 0.209645 0.975441
O O8 0.652969 0.131107 0.900245
O O9 0.806966 0.500000 0.968245
O O10 0.000000 0.352719 0.000000
O O11 0.048909 0.500000 0.350030
O O12 0.151742 0.637946 0.316934
O O13 0.730516 0.648196 0.152914
O O14 0.500000 0.219652 0.500000
O O15 0.641004 0.000000 0.794039
O O16 0.000000 0.140690 0.000000
#
# Coordination Sequence:
#
# PCOD8057459 Si02
#       7
#     4   4   4   4   2   4   4
#     4  10  17  33  51  79 114 135 174 228 282 324
#     4  10  18  36  52  76 109 143 182 224 268 325
#     4  10  18  27  47  75 104 138 174 220 274 323
#     4  10  21  33  51  77 111 154 194 222 252 310
#     4  10  23  38  55  70 106 160 193 222 259 310
#     4   9  17  28  48  73 107 142 173 220 266 316
#     4  10  19  34  63  90 109 134 171 226 290 344
#
# _framework density 18.827254
#
# number of rings (size 3 to 8) (size 9 to 14) (size 15 to 20)
#    0.000    2.154    3.077    1.615    0.000    6.462 
#    0.000    3.462    0.000   19.385    0.000    0.000 
#    0.000    0.000    0.000    0.000    0.000    0.000 
#
# Total GULP energy -322231.428616 kJ/mol
# GULP energy per Si atom -12393.516485 kJ/mol
# Density = 1.878440 g / cm^3
# Si number density = 18.827254 Si / 1000 Ang^3
#
#
#
# Elastic Constant Matrix: (Units=GPa)
#
#
# Indices 1 2 3 4 5 6 
#
# 1 89.0657 14.0254 35.5767 0.0000 -3.3113 0.0000
# 2 14.0254 85.4103 39.0962 0.0000 -1.5295 0.0000
# 3 35.5767 39.0962 132.0550 0.0000 2.1803 0.0000
# 4 0.0000 0.0000 0.0000 20.3448 0.0000 -2.4851
# 5 -3.3113 -1.5295 2.1803 0.0000 26.1209 0.0000
# 6 0.0000 0.0000 0.0000 -2.4851 0.0000 13.3548
#
#
#
# Elastic Compliance Matrix: (Units=1/GPa)
#
#
# Indices 1 2 3 4 5 6 
#
# 1 0.012696 -0.000546 -0.003289 0.000000 0.001852 0.000000
# 2 -0.000546 0.013600 -0.003897 0.000000 0.001052 0.000000
# 3 -0.003289 -0.003897 0.009636 0.000000 -0.001450 0.000000
# 4 0.000000 0.000000 0.000000 0.050296 0.000000 0.009359
# 5 0.001852 0.001052 -0.001450 0.000000 0.038701 0.000000
# 6 0.000000 0.000000 0.000000 0.009359 0.000000 0.076621
#
#
# Mechanical properties :
#
#
# Convention : Reuss Voigt Hill
#
# Bulk Modulus (GPa) = 48.85490 53.76970 51.31230
# Shear Modulus (GPa) = 22.33753 26.48629 24.41191
#
# Velocity S-wave (km/s) = 3.44822 3.75481 3.60478
# Velocity P-wave (km/s) = 6.46985 6.88619 6.68127
#
# Compressibility (1/GPa) = 0.02046878
#
# Stress axis : x y z
#
# Youngs Moduli (GPa) = 78.76214 73.52695 103.77282
#
# Poissons Ratio (x) = 0.04015 0.34136
# Poissons Ratio (y) = 0.04300 0.40438
# Poissons Ratio (z) = 0.25908 0.28652
#
# Static dielectric constant tensor:
#      x y z
#    x 3.365020 0.000000 -0.172950 
#    y 0.000000 2.996910 0.000000 
#    z -0.172950 0.000000 3.738920 
# 
# 
# High freq. dielectric constant tensor:
#      x y z
#    x 1.717090 0.000000 -0.020150 
#    y 0.000000 1.687790 0.000000 
#    z -0.020150 0.000000 1.743920 
# 
# From -- ./inp_files/76844.got.cif
#   From: 2010.06.25/outbox.cif.g09.slc.cpg/sg10_39_cif.got.tgz:76844.got - 2010.06.27 22:07:45.
