data_PCOD8057525
_publ_section_title
;
Structure prediction by ZEFSAII (Michael W. Deem and Ramdas Pophale) SiO2 
 PCOD8057525
Probable space group: P 2/M
;
_chemical_formula_sum "Si O2"
_cell_formula_units_Z 32
_cell_length_a 30.200807
_cell_length_b 9.405587
_cell_length_c 20.907799
_cell_angle_alpha 90.000000
_cell_angle_beta 160.104188
_cell_angle_gamma 90.000000
_cell_volume 2021.103369
_symmetry_space_group_name_H-M "P 2/M"
_symmetry_group_IT_number 10
_symmetry_cell_setting 'monoclinic'
loop_
_space_group_symop_operation_xyz
x,y,z
-x,y,-z
-x,-y,-z
x,-y,z
loop_
_atom_site_type_symbol
_atom_site_label
_atom_site_fract_x
_atom_site_fract_y
_atom_site_fract_z
Si Si1 0.296165 0.831725 0.198243
Si Si2 0.612925 0.342948 0.100920
Si Si3 0.343117 0.163863 0.516145
Si Si4 0.443438 0.163403 0.788048
Si Si5 0.080611 0.333764 0.171411
Si Si6 0.772913 0.334451 0.432796
Si Si7 0.959648 0.664451 0.141619
Si Si8 0.546782 0.168236 0.466606
O O1 0.346164 0.782402 0.336135
O O2 0.402789 0.779336 0.291019
O O3 0.274918 0.000000 0.166563
O O4 0.161298 0.756349 0.998996
O O5 0.627185 0.500000 0.089798
O O6 0.743690 0.300673 0.317958
O O7 0.500000 0.341783 0.000000
O O8 0.577470 0.232656 0.996608
O O9 0.443038 0.178264 0.710857
O O10 0.214376 0.250498 0.355933
O O11 0.414136 0.227917 0.549882
O O12 0.303404 0.000000 0.451356
O O13 0.316455 0.240806 0.642586
O O14 0.439512 0.000000 0.804588
O O15 0.113985 0.500000 0.215377
O O16 0.997250 0.293493 0.120440
O O17 0.000000 0.285794 0.000000
O O18 0.741924 0.500000 0.405696
O O19 0.922340 0.299011 0.650139
O O20 0.921130 0.500000 0.093249
O O21 0.542790 0.000000 0.460826
#
# Coordination Sequence:
#
# PCOD8057525 Si02
#       8
#     4   4   4   4   4   4   4   4
#     4   9  17  31  51  67  82 112 154 191 222 259
#     4   8  15  27  43  59  80 116 153 174 207 263
#     4  10  19  30  45  65  90 119 148 179 219 266
#     4  10  18  26  40  65  91 114 143 181 219 254
#     4  10  20  31  43  62  90 122 150 177 216 263
#     4   9  17  30  44  59  85 123 151 171 211 266
#     4  10  19  30  44  64  93 119 142 181 224 259
#     4   8  16  32  49  65  86 114 149 189 226 259
#
# _framework density 15.832935000000001
#
# number of rings (size 3 to 8) (size 9 to 14) (size 15 to 20)
#    0.000    2.750    1.250    2.625    0.000    4.000 
#    0.000    1.875    0.000    0.000    0.000    0.875 
#    0.000    7.000    0.000    0.000    0.000    0.000 
#
# Total GULP energy -396683.141378 kJ/mol
# GULP energy per Si atom -12396.348168 kJ/mol
# Density = 1.579690 g / cm^3
# Si number density = 15.832935 Si / 1000 Ang^3
#
#
#
# Elastic Constant Matrix: (Units=GPa)
#
#
# Indices 1 2 3 4 5 6 
#
# 1 45.9800 27.3172 37.7232 0.0000 -2.1913 0.0000
# 2 27.3172 54.9538 41.6136 0.0000 -2.0630 0.0000
# 3 37.7232 41.6136 114.1705 0.0000 -8.6664 0.0000
# 4 0.0000 0.0000 0.0000 28.9102 0.0000 -3.3331
# 5 -2.1913 -2.0630 -8.6664 0.0000 22.4289 0.0000
# 6 0.0000 0.0000 0.0000 -3.3331 0.0000 6.2255
#
#
#
# Elastic Compliance Matrix: (Units=1/GPa)
#
#
# Indices 1 2 3 4 5 6 
#
# 1 0.034620 -0.011793 -0.007177 0.000000 -0.000475 0.000000
# 2 -0.011793 0.029186 -0.006825 0.000000 -0.001105 0.000000
# 3 -0.007177 -0.006825 0.013925 0.000000 0.004052 0.000000
# 4 0.000000 0.000000 0.000000 0.036865 0.000000 0.019738
# 5 -0.000475 -0.001105 0.004052 0.000000 0.046003 0.000000
# 6 0.000000 0.000000 0.000000 0.019738 0.000000 0.171196
#
#
# Mechanical properties :
#
#
# Convention : Reuss Voigt Hill
#
# Bulk Modulus (GPa) = 38.25249 47.60138 42.92693
# Shear Modulus (GPa) = 12.75186 18.74295 15.74741
#
# Velocity S-wave (km/s) = 2.84104 3.44437 3.15715
# Velocity P-wave (km/s) = 5.91393 6.77851 6.36093
#
# Compressibility (1/GPa) = 0.02614209
#
# Stress axis : x y z
#
# Youngs Moduli (GPa) = 28.88504 34.26269 71.81125
#
# Poissons Ratio (x) = 0.40405 0.51536
# Poissons Ratio (y) = 0.34063 0.49014
# Poissons Ratio (z) = 0.20730 0.23386
#
# Static dielectric constant tensor:
#      x y z
#    x 3.112270 0.000000 -0.286300 
#    y 0.000000 2.918410 0.000000 
#    z -0.286300 0.000000 3.170720 
# 
# 
# High freq. dielectric constant tensor:
#      x y z
#    x 1.582320 0.000000 -0.021170 
#    y 0.000000 1.599670 0.000000 
#    z -0.021170 0.000000 1.605230 
# 
# From -- ./inp_files/54854.got.cif
#   From: 2010.06.25/outbox.cif.g09.slc.cpg/sg10_28_cif.got.tgz:54854.got - 2010.06.27 22:07:45.
