data_PCOD8057942
_publ_section_title
;
Structure prediction by ZEFSAII (Michael W. Deem and Ramdas Pophale) SiO2 
 PCOD8057942
Probable space group: P 2/M
;
_chemical_formula_sum "Si O2"
_cell_formula_units_Z 28
_cell_length_a 19.994322
_cell_length_b 12.944544
_cell_length_c 16.291213
_cell_angle_alpha 90.000000
_cell_angle_beta 20.387024
_cell_angle_gamma 90.000000
_cell_volume 1468.841225
_symmetry_space_group_name_H-M "P 2/M"
_symmetry_group_IT_number 10
_symmetry_cell_setting 'monoclinic'
loop_
_space_group_symop_operation_xyz
x,y,z
-x,y,-z
-x,-y,-z
x,-y,z
loop_
_atom_site_type_symbol
_atom_site_label
_atom_site_fract_x
_atom_site_fract_y
_atom_site_fract_z
Si Si1 0.287634 0.812035 0.713450
Si Si2 0.753073 0.380688 0.136409
Si Si3 0.506622 0.379758 0.707151
Si Si4 0.260254 0.620895 0.136398
Si Si5 0.174261 0.379520 0.409208
Si Si6 0.899379 0.117320 0.231348
Si Si7 0.136201 0.694937 0.626170
O O1 0.500000 0.847238 0.500000
O O2 0.245069 0.691558 0.785255
O O3 0.254543 0.831285 0.654867
O O4 0.120819 0.880809 0.947492
O O5 0.734184 0.500000 0.186403
O O6 0.572462 0.339734 0.289601
O O7 0.936614 0.365880 0.866327
O O8 0.457240 0.500000 0.764943
O O9 0.729937 0.356274 0.458045
O O10 0.400382 0.326747 0.908171
O O11 0.299236 0.500000 0.096034
O O12 0.294101 0.661116 0.191569
O O13 0.046156 0.643703 0.354864
O O14 0.213107 0.500000 0.380697
O O15 0.228706 0.319251 0.429685
O O16 0.884359 0.183024 0.332528
O O17 0.838457 0.000000 0.319140
#
# Coordination Sequence:
#
# PCOD8057942 Si02
#       7
#     4   4   4   4   4   4   4
#     4  10  20  37  59  78  98 127 162 198 246 302
#     4  10  20  33  48  73 110 139 160 191 232 288
#     4  10  18  29  47  74 107 139 169 197 228 280
#     4   8  15  26  44  70 103 140 170 196 226 271
#     4   9  15  27  46  71 104 138 167 195 233 280
#     4  10  23  40  55  75  97 118 162 221 263 295
#     4  11  20  32  51  72  98 135 171 203 246 294
#
# _framework density 19.062646000000001
#
# number of rings (size 3 to 8) (size 9 to 14) (size 15 to 20)
#    0.000    2.286    1.429    3.857    0.000    2.000 
#    0.000    9.286    0.000    0.000    0.000    4.000 
#    0.000    0.000    0.000    0.000    0.000    0.000 
#
# Total GULP energy -346975.410096 kJ/mol
# GULP energy per Si atom -12391.978932 kJ/mol
# Density = 1.901926 g / cm^3
# Si number density = 19.062646 Si / 1000 Ang^3
#
#
#
# Elastic Constant Matrix: (Units=GPa)
#
#
# Indices 1 2 3 4 5 6 
#
# 1 78.1025 49.1329 11.5828 0.0000 -5.7673 0.0000
# 2 49.1329 79.7636 4.7616 0.0000 -0.0147 0.0000
# 3 11.5828 4.7616 31.8503 0.0000 -18.4558 0.0000
# 4 0.0000 0.0000 0.0000 11.8085 0.0000 -0.4347
# 5 -5.7673 -0.0147 -18.4558 0.0000 29.8369 0.0000
# 6 0.0000 0.0000 0.0000 -0.4347 0.0000 15.7513
#
#
#
# Elastic Compliance Matrix: (Units=1/GPa)
#
#
# Indices 1 2 3 4 5 6 
#
# 1 0.022006 -0.013224 -0.005557 0.000000 0.000810 0.000000
# 2 -0.013224 0.020659 0.000382 0.000000 -0.002309 0.000000
# 3 -0.005557 0.000382 0.051028 0.000000 0.030490 0.000000
# 4 0.000000 0.000000 0.000000 0.084771 0.000000 0.002340
# 5 0.000810 -0.002309 0.030490 0.000000 0.052531 0.000000
# 6 0.000000 0.000000 0.000000 0.002340 0.000000 0.063551
#
#
# Mechanical properties :
#
#
# Convention : Reuss Voigt Hill
#
# Bulk Modulus (GPa) = 17.57551 35.63012 26.60281
# Shear Modulus (GPa) = 14.27315 19.76194 17.01755
#
# Velocity S-wave (km/s) = 2.73930 3.22325 2.99108
# Velocity P-wave (km/s) = 4.38690 5.70825 5.09063
#
# Compressibility (1/GPa) = 0.05689735
#
# Stress axis : x y z
#
# Youngs Moduli (GPa) = 45.44152 48.40431 19.59719
#
# Poissons Ratio (x) = 0.64008 0.10889
# Poissons Ratio (y) = 0.60090 -0.00749
# Poissons Ratio (z) = 0.25250 -0.01850
#
# Static dielectric constant tensor:
#      x y z
#    x 3.712870 0.000000 0.034950 
#    y 0.000000 3.002460 0.000000 
#    z 0.034950 0.000000 3.560480 
# 
# 
# High freq. dielectric constant tensor:
#      x y z
#    x 1.749680 0.000000 -0.007750 
#    y 0.000000 1.677690 0.000000 
#    z -0.007750 0.000000 1.746800 
# 
# From -- ./inp_files/79515.got.cif
#   From: 2010.06.25/outbox.cif.g09.slc.cpg/sg10_40_cif.got.tgz:79515.got - 2010.06.27 22:07:45.
