data_PCOD8057302
_publ_section_title
;
Structure prediction by ZEFSAII (Michael W. Deem and Ramdas Pophale) SiO2 
 PCOD8057302
Probable space group: P 2/M
;
_chemical_formula_sum "Si O2"
_cell_formula_units_Z 28
_cell_length_a 19.444304
_cell_length_b 8.305875
_cell_length_c 24.708270
_cell_angle_alpha 90.000000
_cell_angle_beta 21.902995
_cell_angle_gamma 90.000000
_cell_volume 1488.576663
_symmetry_space_group_name_H-M "P 2/M"
_symmetry_group_IT_number 10
_symmetry_cell_setting 'monoclinic'
loop_
_space_group_symop_operation_xyz
x,y,z
-x,y,-z
-x,-y,-z
x,-y,z
loop_
_atom_site_type_symbol
_atom_site_label
_atom_site_fract_x
_atom_site_fract_y
_atom_site_fract_z
Si Si1 0.373215 0.808053 0.545102
Si Si2 0.961636 0.191250 0.834671
Si Si3 0.598768 0.808462 0.155423
Si Si4 0.890203 0.186249 0.654551
Si Si5 0.003056 0.808656 0.309947
Si Si6 0.593490 0.190989 0.598430
Si Si7 0.258713 0.685100 0.339731
O O1 0.500000 0.733771 0.500000
O O2 0.454644 0.750063 0.427428
O O3 0.162967 0.744293 0.705813
O O4 0.374387 0.000000 0.547285
O O5 0.914819 0.250541 0.807529
O O6 0.966704 0.000000 0.831516
O O7 0.803318 0.254820 0.990760
O O8 0.553515 0.747451 0.249506
O O9 0.458539 0.734271 0.214742
O O10 0.586096 0.000000 0.160510
O O11 0.875116 0.250516 0.727810
O O12 0.751567 0.286740 0.717763
O O13 0.102926 0.205253 0.481082
O O14 0.835162 0.000000 0.690770
O O15 0.794377 0.741726 0.468253
O O16 0.993532 0.000000 0.318399
O O17 0.596885 0.000000 0.595982
O O18 0.217594 0.500000 0.382760
#
# Coordination Sequence:
#
# PCOD8057302 Si02
#       7
#     4   4   4   4   4   4   4
#     4   8  13  23  39  63  97 127 144 174 231 279
#     4   8  15  25  41  65  91 119 152 187 223 268
#     4  10  17  29  46  65  88 121 160 192 221 264
#     4  10  17  29  49  68  87 118 159 194 227 269
#     4   8  13  24  42  64  85 110 151 195 224 255
#     4   8  13  22  39  62  86 117 153 185 217 262
#     4  11  21  30  42  65  96 121 147 193 242 273
#
# _framework density 18.809913999999999
#
# number of rings (size 3 to 8) (size 9 to 14) (size 15 to 20)
#    0.000    3.000    1.429    4.286    0.000    0.000 
#    0.000    1.429    0.000   10.286    0.000    0.000 
#    0.000    3.429    0.000    0.000    0.000    0.000 
#
# Total GULP energy -346912.209768 kJ/mol
# GULP energy per Si atom -12389.721777 kJ/mol
# Density = 1.876710 g / cm^3
# Si number density = 18.809914 Si / 1000 Ang^3
#
#
#
# Elastic Constant Matrix: (Units=GPa)
#
#
# Indices 1 2 3 4 5 6 
#
# 1 171.1882 8.4625 79.8551 0.0000 5.6913 0.0000
# 2 8.4625 21.5869 6.2304 0.0000 -0.3252 0.0000
# 3 79.8551 6.2304 124.3974 0.0000 15.6820 0.0000
# 4 0.0000 0.0000 0.0000 2.6255 0.0000 -1.1648
# 5 5.6913 -0.3252 15.6820 0.0000 28.1426 0.0000
# 6 0.0000 0.0000 0.0000 -1.1648 0.0000 -0.8064
#
#
#
# Elastic Compliance Matrix: (Units=1/GPa)
#
#
# Indices 1 2 3 4 5 6 
#
# 1 0.008451 -0.001703 -0.005509 0.000000 0.001341 0.000000
# 2 -0.001703 0.047451 -0.001502 0.000000 0.001729 0.000000
# 3 -0.005509 -0.001502 0.012382 0.000000 -0.005803 0.000000
# 4 0.000000 0.000000 0.000000 0.232121 0.000000 -0.335306
# 5 0.001341 0.001729 -0.005803 0.000000 0.038516 0.000000
# 6 0.000000 0.000000 0.000000 -0.335306 0.000000 -0.755781
#
#
# Mechanical properties :
#
#
# Convention : Reuss Voigt Hill
#
# Bulk Modulus (GPa) = 19.66258 56.25205 37.95731
# Shear Modulus (GPa) = -13.07248 20.83399 3.88075
#
# Velocity S-wave (km/s) = -2.63910 3.33168 1.43792
# Velocity P-wave (km/s) = 1.09064 6.69108 4.79375
#
# Compressibility (1/GPa) = 0.05085803
#
# Stress axis : x y z
#
# Youngs Moduli (GPa) = 118.33295 21.07419 80.76486
#
# Poissons Ratio (x) = 0.03588 0.44490
# Poissons Ratio (y) = 0.20149 0.12127
# Poissons Ratio (z) = 0.65185 0.03164
#
# Static dielectric constant tensor:
#      x y z
#    x 3.936490 0.000000 0.189720 
#    y 0.000000 2.838390 0.000000 
#    z 0.189720 0.000000 3.493730 
# 
# 
# High freq. dielectric constant tensor:
#      x y z
#    x 1.738900 0.000000 0.011660 
#    y 0.000000 1.675760 0.000000 
#    z 0.011660 0.000000 1.701470 
# 
# From -- ./inp_files/37917.got.cif
#   From: 2010.06.25/outbox.cif.g09.slc.cpg/sg10_19_cif.got.tgz:37917.got - 2010.06.27 22:07:45.
