data_PCOD8057041
_publ_section_title
;
Structure prediction by ZEFSAII (Michael W. Deem and Ramdas Pophale) SiO2 
 PCOD8057041
Probable space group: P 2/M
;
_chemical_formula_sum "Si O2"
_cell_formula_units_Z 28
_cell_length_a 20.329150
_cell_length_b 11.624729
_cell_length_c 11.702666
_cell_angle_alpha 90.000000
_cell_angle_beta 40.019922
_cell_angle_gamma 90.000000
_cell_volume 1778.419711
_symmetry_space_group_name_H-M "P 2/M"
_symmetry_group_IT_number 10
_symmetry_cell_setting 'monoclinic'
loop_
_space_group_symop_operation_xyz
x,y,z
-x,y,-z
-x,-y,-z
x,-y,z
loop_
_atom_site_type_symbol
_atom_site_label
_atom_site_fract_x
_atom_site_fract_y
_atom_site_fract_z
Si Si1 0.540775 0.500000 0.763759
Si Si2 0.882372 0.136477 0.639572
Si Si3 0.381026 0.738568 0.377892
Si Si4 0.341744 0.500000 0.155716
Si Si5 0.727632 0.128694 0.030258
Si Si6 0.611154 0.862514 0.397174
Si Si7 0.734525 0.260462 0.687186
Si Si8 0.429751 0.870773 0.952907
O O1 0.578869 0.611251 0.643152
O O2 0.590289 0.500000 0.822097
O O3 0.417343 0.500000 0.944719
O O4 0.842414 0.201762 0.578901
O O5 0.000000 0.167044 0.500000
O O6 0.863409 0.000000 0.649591
O O7 0.818613 0.186375 0.834284
O O8 0.358216 0.807277 0.523293
O O9 0.279343 0.733817 0.432460
O O10 0.467228 0.798350 0.186350
O O11 0.270531 0.387105 0.249257
O O12 0.698819 0.183191 0.191637
O O13 0.621076 0.130680 0.103982
O O14 0.765346 0.000000 0.002928
O O15 0.500000 0.822409 0.500000
O O16 0.613453 0.000000 0.406561
O O17 0.644660 0.181490 0.854732
O O18 0.456800 0.000000 0.953602
#
# Coordination Sequence:
#
# PCOD8057041 Si02
#       8
#     2   4   4   2   4   4   4   4
#     4   9  18  30  41  60  91 133 164 181 225 273
#     4   9  18  33  52  72  94 117 145 192 246 284
#     4  11  19  28  43  63  94 126 156 189 222 268
#     4   9  16  30  45  60  91 129 157 188 227 277
#     4   8  15  28  44  63  89 124 155 173 213 279
#     4  10  18  28  43  64  94 129 156 180 218 274
#     4  10  19  29  45  68  89 118 156 193 234 274
#     4  10  17  25  41  66  94 119 146 185 226 270
#
# _framework density 15.744315
#
# number of rings (size 3 to 8) (size 9 to 14) (size 15 to 20)
#    0.000    2.429    2.857    2.143    0.000    2.857 
#    0.000    0.714    0.000    1.714    0.000    4.000 
#    0.000    3.429    0.000    0.000    0.000    0.000 
#
# Total GULP energy -346969.855623 kJ/mol
# GULP energy per Si atom -12391.780558 kJ/mol
# Density = 1.570848 g / cm^3
# Si number density = 15.744315 Si / 1000 Ang^3
#
#
#
# Elastic Constant Matrix: (Units=GPa)
#
#
# Indices 1 2 3 4 5 6 
#
# 1 87.5546 31.0133 45.5032 0.0000 -0.2174 0.0000
# 2 31.0133 79.6579 17.8714 0.0000 -4.3156 0.0000
# 3 45.5032 17.8714 56.3213 0.0000 -2.4186 0.0000
# 4 0.0000 0.0000 0.0000 15.3888 0.0000 0.8185
# 5 -0.2174 -4.3156 -2.4186 0.0000 22.1794 0.0000
# 6 0.0000 0.0000 0.0000 0.8185 0.0000 18.0625
#
#
#
# Elastic Compliance Matrix: (Units=1/GPa)
#
#
# Indices 1 2 3 4 5 6 
#
# 1 0.021374 -0.004907 -0.015818 0.000000 -0.002470 0.000000
# 2 -0.004907 0.014747 -0.000597 0.000000 0.002756 0.000000
# 3 -0.015818 -0.000597 0.030857 0.000000 0.003094 0.000000
# 4 0.000000 0.000000 0.000000 0.065140 0.000000 -0.002952
# 5 -0.002470 0.002756 0.003094 0.000000 0.045936 0.000000
# 6 0.000000 0.000000 0.000000 -0.002952 0.000000 0.055497
#
#
# Mechanical properties :
#
#
# Convention : Reuss Voigt Hill
#
# Bulk Modulus (GPa) = 41.09183 45.81218 43.45200
# Shear Modulus (GPa) = 17.58675 19.73588 18.66132
#
# Velocity S-wave (km/s) = 3.34581 3.54435 3.44651
# Velocity P-wave (km/s) = 6.40953 6.77574 6.59518
#
# Compressibility (1/GPa) = 0.02433574
#
# Stress axis : x y z
#
# Youngs Moduli (GPa) = 46.78605 67.80926 32.40772
#
# Poissons Ratio (x) = 0.33272 0.51261
# Poissons Ratio (y) = 0.22956 0.01935
# Poissons Ratio (z) = 0.74004 0.04048
#
# Static dielectric constant tensor:
#      x y z
#    x 2.965510 0.000000 0.085580 
#    y 0.000000 3.096410 0.000000 
#    z 0.085580 0.000000 2.841630 
# 
# 
# High freq. dielectric constant tensor:
#      x y z
#    x 1.584220 0.000000 0.015030 
#    y 0.000000 1.595050 0.000000 
#    z 0.015030 0.000000 1.574470 
# 
# From -- ./inp_files/55529.got.cif
#   From: 2010.06.25/outbox.cif.g09.slc.cpg/sg10_28_cif.got.tgz:55529.got - 2010.06.27 22:07:45.
