data_PCOD8057475
_publ_section_title
;
Structure prediction by ZEFSAII (Michael W. Deem and Ramdas Pophale) SiO2 
 PCOD8057475
Probable space group: P 2/M
;
_chemical_formula_sum "Si O2"
_cell_formula_units_Z 28
_cell_length_a 5.042569
_cell_length_b 16.598014
_cell_length_c 18.393811
_cell_angle_alpha 90.000000
_cell_angle_beta 74.321852
_cell_angle_gamma 90.000000
_cell_volume 1482.222728
_symmetry_space_group_name_H-M "P 2/M"
_symmetry_group_IT_number 10
_symmetry_cell_setting 'monoclinic'
loop_
_space_group_symop_operation_xyz
x,y,z
-x,y,-z
-x,-y,-z
x,-y,z
loop_
_atom_site_type_symbol
_atom_site_label
_atom_site_fract_x
_atom_site_fract_y
_atom_site_fract_z
Si Si1 0.204759 0.594053 0.836014
Si Si2 0.704142 0.828682 0.260711
Si Si3 0.185797 0.000000 0.742599
Si Si4 0.694684 0.828536 0.842158
Si Si5 0.672632 0.663349 0.330426
Si Si6 0.096240 0.407459 0.410681
Si Si7 0.589790 0.000000 0.839417
Si Si8 0.627851 0.336754 0.913656
O O1 0.143340 0.500000 0.841921
O O2 0.251992 0.622218 0.750840
O O3 0.477466 0.613411 0.861622
O O4 0.948067 0.640366 0.890273
O O5 0.702683 0.916553 0.301367
O O6 0.443703 0.819028 0.226841
O O7 0.690644 0.759989 0.322625
O O8 0.978096 0.820900 0.191532
O O9 0.302688 0.000000 0.816986
O O10 0.854123 0.000000 0.765207
O O11 0.591188 0.758766 0.903405
O O12 0.612271 0.916147 0.883160
O O13 0.375044 0.640082 0.379886
O O14 0.877431 0.634379 0.376192
O O15 0.136434 0.500000 0.384416
O O16 0.000000 0.400629 0.500000
O O17 0.500000 0.360633 0.000000
#
# Coordination Sequence:
#
# PCOD8057475 Si02
#       8
#     4   4   2   4   4   4   2   4
#     4  12  25  40  58  81 106 141 195 242 279 324
#     4  10  18  32  56  81 112 137 180 227 270 320
#     4   8  16  28  48  82 108 138 168 220 276 316
#     4  10  17  35  50  79 107 140 180 227 277 332
#     4  12  21  38  62  87 110 146 186 230 274 321
#     4  11  24  40  58  85 120 151 180 219 274 336
#     4   8  16  26  53  72 104 138 171 220 276 330
#     4  12  24  39  56  76 110 151 188 234 290 333
#
# _framework density 18.890550000000001
#
# number of rings (size 3 to 8) (size 9 to 14) (size 15 to 20)
#    0.000    1.286    2.857    4.286    0.000    2.857 
#    0.000    0.357    0.000    0.000    0.000   11.000 
#    0.000    0.000    0.000    0.000    0.000    0.000 
#
# Total GULP energy -347160.711356 kJ/mol
# GULP energy per Si atom -12398.596834 kJ/mol
# Density = 1.884755 g / cm^3
# Si number density = 18.890550 Si / 1000 Ang^3
#
#
#
# Elastic Constant Matrix: (Units=GPa)
#
#
# Indices 1 2 3 4 5 6 
#
# 1 98.1901 20.4881 13.7010 0.0000 -0.8233 0.0000
# 2 20.4881 174.4481 25.6435 0.0000 0.5921 0.0000
# 3 13.7010 25.6435 62.4228 0.0000 2.5619 0.0000
# 4 0.0000 0.0000 0.0000 18.1659 0.0000 -0.0857
# 5 -0.8233 0.5921 2.5619 0.0000 28.2162 0.0000
# 6 0.0000 0.0000 0.0000 -0.0857 0.0000 31.7495
#
#
#
# Elastic Compliance Matrix: (Units=1/GPa)
#
#
# Indices 1 2 3 4 5 6 
#
# 1 0.010664 -0.000965 -0.001965 0.000000 0.000510 0.000000
# 2 -0.000965 0.006188 -0.002333 0.000000 0.000054 0.000000
# 3 -0.001965 -0.002333 0.017475 0.000000 -0.001595 0.000000
# 4 0.000000 0.000000 0.000000 0.055049 0.000000 0.000149
# 5 0.000510 0.000054 -0.001595 0.000000 0.035599 0.000000
# 6 0.000000 0.000000 0.000000 0.000149 0.000000 0.031497
#
#
# Mechanical properties :
#
#
# Convention : Reuss Voigt Hill
#
# Bulk Modulus (GPa) = 42.01399 50.52512 46.26956
# Shear Modulus (GPa) = 28.58250 33.97488 31.27869
#
# Velocity S-wave (km/s) = 3.89402 4.24549 4.07355
# Velocity P-wave (km/s) = 6.51973 7.12997 6.83167
#
# Compressibility (1/GPa) = 0.02380159
#
# Stress axis : x y z
#
# Youngs Moduli (GPa) = 93.77154 161.59170 57.22538
#
# Poissons Ratio (x) = 0.15599 0.11245
# Poissons Ratio (y) = 0.09052 0.13348
# Poissons Ratio (z) = 0.18426 0.37692
#
# Static dielectric constant tensor:
#      x y z
#    x 3.609150 0.000000 0.008580 
#    y 0.000000 4.064240 0.000000 
#    z 0.008580 0.000000 3.058260 
# 
# 
# High freq. dielectric constant tensor:
#      x y z
#    x 1.760200 0.000000 0.001690 
#    y 0.000000 1.762010 0.000000 
#    z 0.001690 0.000000 1.676170 
# 
# From -- ./inp_files/59312.got.cif
#   From: 2010.06.25/outbox.cif.g09.slc.cpg/sg10_30_cif.got.tgz:59312.got - 2010.06.27 22:07:45.
