data_PCOD8057941
_publ_section_title
;
Structure prediction by ZEFSAII (Michael W. Deem and Ramdas Pophale) SiO2 
 PCOD8057941
Probable space group: P 2/M
;
_chemical_formula_sum "Si O2"
_cell_formula_units_Z 28
_cell_length_a 10.225777
_cell_length_b 9.406793
_cell_length_c 26.644708
_cell_angle_alpha 90.000000
_cell_angle_beta 141.604982
_cell_angle_gamma 90.000000
_cell_volume 1591.828069
_symmetry_space_group_name_H-M "P 2/M"
_symmetry_group_IT_number 10
_symmetry_cell_setting 'monoclinic'
loop_
_space_group_symop_operation_xyz
x,y,z
-x,y,-z
-x,-y,-z
x,-y,z
loop_
_atom_site_type_symbol
_atom_site_label
_atom_site_fract_x
_atom_site_fract_y
_atom_site_fract_z
Si Si1 0.825362 0.342957 0.490461
Si Si2 0.295566 0.667337 0.907028
Si Si3 0.098855 0.836458 0.171058
Si Si4 0.447689 0.164047 0.657929
Si Si5 0.210258 0.840390 0.094660
Si Si6 0.409556 0.664987 0.830448
Si Si7 0.199192 0.665559 0.665492
O O1 0.724677 0.500000 0.466562
O O2 0.642527 0.232538 0.420707
O O3 0.000000 0.344811 0.500000
O O4 0.953792 0.297241 0.579385
O O5 0.259460 0.500000 0.901100
O O6 0.319884 0.716179 0.856726
O O7 0.090962 0.743325 0.866342
O O8 0.500000 0.715420 0.000000
O O9 0.300283 0.819926 0.268077
O O10 0.164503 0.779069 0.136075
O O11 0.024817 0.000000 0.145483
O O12 0.358614 0.241223 0.680491
O O13 0.378652 0.000000 0.639530
O O14 0.375348 0.744570 0.115503
O O15 0.301699 0.000000 0.126831
O O16 0.000000 0.838430 0.000000
O O17 0.466858 0.500000 0.849919
O O18 0.237606 0.698178 0.735607
O O19 0.242495 0.500000 0.665568
#
# Coordination Sequence:
#
# PCOD8057941 Si02
#       7
#     4   4   4   4   4   4   4
#     4   8  15  27  44  69 101 133 165 200 246 302
#     4  10  22  38  54  75 102 133 173 216 256 304
#     4  10  21  35  51  75 104 134 170 209 250 305
#     4  10  18  29  47  74 105 131 165 208 248 296
#     4  10  20  34  52  75 102 131 166 210 258 306
#     4  10  20  34  53  76 102 132 170 213 256 303
#     4   9  17  30  48  72 102 134 166 204 251 302
#
# _framework density 17.589839999999999
#
# number of rings (size 3 to 8) (size 9 to 14) (size 15 to 20)
#    0.000    2.429    1.429    2.143    0.000    5.429 
#    0.000    0.000    0.000    0.857    0.000    6.000 
#    0.000    0.000    0.000    0.000    0.000    0.000 
#
# Total GULP energy -347153.141206 kJ/mol
# GULP energy per Si atom -12398.326472 kJ/mol
# Density = 1.754980 g / cm^3
# Si number density = 17.589840 Si / 1000 Ang^3
#
#
#
# Elastic Constant Matrix: (Units=GPa)
#
#
# Indices 1 2 3 4 5 6 
#
# 1 70.4292 40.0975 38.7968 0.0000 1.0317 0.0000
# 2 40.0975 69.3263 46.9683 0.0000 4.0368 0.0000
# 3 38.7968 46.9683 118.3928 0.0000 -7.7741 0.0000
# 4 0.0000 0.0000 0.0000 30.4874 0.0000 5.0043
# 5 1.0317 4.0368 -7.7741 0.0000 24.3043 0.0000
# 6 0.0000 0.0000 0.0000 5.0043 0.0000 23.6711
#
#
#
# Elastic Compliance Matrix: (Units=1/GPa)
#
#
# Indices 1 2 3 4 5 6 
#
# 1 0.021894 -0.010656 -0.002954 0.000000 -0.000104 0.000000
# 2 -0.010656 0.025778 -0.007136 0.000000 -0.006112 0.000000
# 3 -0.002954 -0.007136 0.012596 0.000000 0.005340 0.000000
# 4 0.000000 0.000000 0.000000 0.033980 0.000000 -0.007184
# 5 -0.000104 -0.006112 0.005340 0.000000 0.043872 0.000000
# 6 0.000000 0.000000 0.000000 -0.007184 0.000000 0.043764
#
#
# Mechanical properties :
#
#
# Convention : Reuss Voigt Hill
#
# Bulk Modulus (GPa) = 53.25815 56.65261 54.95538
# Shear Modulus (GPa) = 21.77358 24.51161 23.14260
#
# Velocity S-wave (km/s) = 3.52213 3.73702 3.63117
# Velocity P-wave (km/s) = 6.84719 7.13428 6.99221
#
# Compressibility (1/GPa) = 0.01877647
#
# Stress axis : x y z
#
# Youngs Moduli (GPa) = 45.67416 38.79224 79.38917
#
# Poissons Ratio (x) = 0.41336 0.23453
# Poissons Ratio (y) = 0.48670 0.56653
# Poissons Ratio (z) = 0.13493 0.27683
#
# Static dielectric constant tensor:
#      x y z
#    x 2.998560 0.000000 -0.300430 
#    y 0.000000 3.304270 0.000000 
#    z -0.300430 0.000000 3.743060 
# 
# 
# High freq. dielectric constant tensor:
#      x y z
#    x 1.640770 0.000000 -0.013610 
#    y 0.000000 1.679050 0.000000 
#    z -0.013610 0.000000 1.699680 
# 
# From -- ./inp_files/85660.got.cif
#   From: 2010.06.25/outbox.cif.g09.slc.cpg/sg10_43_cif.got.tgz:85660.got - 2010.06.27 22:07:45.
