data_PCOD8057814
_publ_section_title
;
Structure prediction by ZEFSAII (Michael W. Deem and Ramdas Pophale) SiO2 
 PCOD8057814
Probable space group: P 2/M
;
_chemical_formula_sum "Si O2"
_cell_formula_units_Z 32
_cell_length_a 15.428824
_cell_length_b 13.887862
_cell_length_c 10.357102
_cell_angle_alpha 90.000000
_cell_angle_beta 109.611501
_cell_angle_gamma 90.000000
_cell_volume 2090.512692
_symmetry_space_group_name_H-M "P 2/M"
_symmetry_group_IT_number 10
_symmetry_cell_setting 'monoclinic'
loop_
_space_group_symop_operation_xyz
x,y,z
-x,y,-z
-x,-y,-z
x,-y,z
loop_
_atom_site_type_symbol
_atom_site_label
_atom_site_fract_x
_atom_site_fract_y
_atom_site_fract_z
Si Si1 0.609082 0.777192 0.303203
Si Si2 0.068638 0.385495 0.641572
Si Si3 0.722916 0.610516 0.961348
Si Si4 0.390917 0.777193 0.194121
Si Si5 0.390838 0.106978 0.945419
Si Si6 0.722916 0.389484 0.261568
Si Si7 0.609223 0.891307 0.554611
Si Si8 0.068638 0.385495 0.927066
O O1 0.500000 0.762172 0.249494
O O2 0.643948 0.838367 0.198608
O O3 0.656045 0.672724 0.318919
O O4 0.643759 0.833631 0.446691
O O5 0.063029 0.500000 0.638677
O O6 0.172749 0.354348 0.661844
O O7 0.040397 0.347421 0.770199
O O8 0.000000 0.341027 0.500000
O O9 0.710424 0.500000 0.912868
O O10 0.656045 0.672724 0.837125
O O11 0.696168 0.623093 0.098084
O O12 0.827251 0.645652 0.989096
O O13 0.356241 0.833631 0.302933
O O14 0.356052 0.838369 0.054662
O O15 0.348420 0.000000 0.924209
O O16 0.500000 0.101110 0.000000
O O17 0.710424 0.500000 0.297556
O O18 0.500000 0.897826 0.500000
O O19 0.649868 0.000000 0.574934
O O20 0.063029 0.500000 0.924352
O O21 0.000000 0.341027 0.000000
#
# Coordination Sequence:
#
# PCOD8057814 Si02
#       8
#     4   4   4   4   4   4   4   4
#     4  10  18  29  44  64  89 119 151 180 214 260
#     4   8  14  26  43  61  83 111 143 180 219 253
#     4   9  17  29  44  64  93 124 149 177 212 252
#     4  10  18  29  44  64  89 119 151 180 214 260
#     4   9  16  26  43  65  84 105 143 191 225 250
#     4   9  17  29  44  64  93 124 149 177 212 252
#     4   9  18  32  47  61  84 117 147 185 237 270
#     4   8  14  26  43  61  83 111 143 180 219 253
#
# _framework density 15.30725
#
# number of rings (size 3 to 8) (size 9 to 14) (size 15 to 20)
#    0.000    3.000    1.250    2.250    0.000    3.500 
#    2.250    1.875    0.000    2.250    0.000    0.000 
#    0.000    6.000    0.000    0.000    0.000    0.000 
#
# Total GULP energy -396686.102874 kJ/mol
# GULP energy per Si atom -12396.440715 kJ/mol
# Density = 1.527241 g / cm^3
# Si number density = 15.307250 Si / 1000 Ang^3
#
#
#
# Elastic Constant Matrix: (Units=GPa)
#
#
# Indices 1 2 3 4 5 6 
#
# 1 54.3991 36.5328 41.5337 0.0000 -8.6886 0.0000
# 2 36.5328 86.1397 51.9402 0.0000 -5.1146 0.0000
# 3 41.5337 51.9402 115.1314 0.0000 -11.4726 0.0000
# 4 0.0000 0.0000 0.0000 22.5291 0.0000 -6.1980
# 5 -8.6886 -5.1146 -11.4726 0.0000 20.4432 0.0000
# 6 0.0000 0.0000 0.0000 -6.1980 0.0000 3.8587
#
#
#
# Elastic Compliance Matrix: (Units=1/GPa)
#
#
# Indices 1 2 3 4 5 6 
#
# 1 0.030044 -0.008533 -0.006280 0.000000 0.007110 0.000000
# 2 -0.008533 0.018371 -0.005416 0.000000 -0.002070 0.000000
# 3 -0.006280 -0.005416 0.013763 0.000000 0.003700 0.000000
# 4 0.000000 0.000000 0.000000 0.079532 0.000000 0.127747
# 5 0.007110 -0.002070 0.003700 0.000000 0.053496 0.000000
# 6 0.000000 0.000000 0.000000 0.127747 0.000000 0.464344
#
#
# Mechanical properties :
#
#
# Convention : Reuss Voigt Hill
#
# Bulk Modulus (GPa) = 46.04101 57.29821 51.66961
# Shear Modulus (GPa) = 7.06966 17.74376 12.40671
#
# Velocity S-wave (km/s) = 2.15140 3.40836 2.85004
# Velocity P-wave (km/s) = 6.02616 7.28028 6.68271
#
# Compressibility (1/GPa) = 0.02171976
#
# Stress axis : x y z
#
# Youngs Moduli (GPa) = 33.28501 54.43496 72.65722
#
# Poissons Ratio (x) = 0.46448 0.45631
# Poissons Ratio (y) = 0.28401 0.39349
# Poissons Ratio (z) = 0.20904 0.29480
#
# Static dielectric constant tensor:
#      x y z
#    x 2.741920 0.000000 -0.123510 
#    y 0.000000 2.804450 0.000000 
#    z -0.123510 0.000000 3.113980 
# 
# 
# High freq. dielectric constant tensor:
#      x y z
#    x 1.554590 0.000000 -0.010770 
#    y 0.000000 1.565240 0.000000 
#    z -0.010770 0.000000 1.587040 
# 
# From -- ./inp_files/32583.got.cif
#   From: 2010.06.25/outbox.cif.g09.slc.cpg/sg10_17_cif.got.tgz:32583.got - 2010.06.27 22:07:45.
