data_PCOD8057611
_publ_section_title
;
Structure prediction by ZEFSAII (Michael W. Deem and Ramdas Pophale) SiO2 
 PCOD8057611
Probable space group: P 2/M
;
_chemical_formula_sum "Si O2"
_cell_formula_units_Z 32
_cell_length_a 14.371132
_cell_length_b 9.077501
_cell_length_c 15.594727
_cell_angle_alpha 90.000000
_cell_angle_beta 89.367837
_cell_angle_gamma 90.000000
_cell_volume 2034.270145
_symmetry_space_group_name_H-M "P 2/M"
_symmetry_group_IT_number 10
_symmetry_cell_setting 'monoclinic'
loop_
_space_group_symop_operation_xyz
x,y,z
-x,y,-z
-x,-y,-z
x,-y,z
loop_
_atom_site_type_symbol
_atom_site_label
_atom_site_fract_x
_atom_site_fract_y
_atom_site_fract_z
Si Si1 0.601461 0.174509 0.670854
Si Si2 0.901824 0.174415 0.903768
Si Si3 0.608566 0.172159 0.001023
Si Si4 0.107268 0.825622 0.900870
Si Si5 0.285710 0.825165 0.168600
Si Si6 0.405818 0.672848 0.681865
Si Si7 0.389454 0.662398 0.496073
Si Si8 0.713832 0.673530 0.153628
O O1 0.672360 0.233861 0.742787
O O2 0.500726 0.238295 0.693837
O O3 0.641898 0.226634 0.578515
O O4 0.593888 0.000000 0.670529
O O5 0.820184 0.234927 0.842368
O O6 0.003983 0.227496 0.872072
O O7 0.903346 0.000000 0.904304
O O8 0.879048 0.224453 0.000793
O O9 0.651216 0.229020 0.911175
O O10 0.629203 0.000000 0.015639
O O11 0.500000 0.206894 0.000000
O O12 0.654322 0.260773 0.077314
O O13 0.183059 0.741781 0.843151
O O14 0.120457 0.000000 0.889531
O O15 0.285373 0.000000 0.169732
O O16 0.431026 0.500000 0.682490
O O17 0.356405 0.714360 0.591239
O O18 0.335044 0.717135 0.756960
O O19 0.500000 0.656959 0.500000
O O20 0.349819 0.500000 0.474752
O O21 0.720980 0.500000 0.141505
#
# Coordination Sequence:
#
# PCOD8057611 Si02
#       8
#     4   4   4   4   4   4   4   4
#     4  10  18  27  45  71  92 112 143 187 225 251
#     4   8  14  27  48  67  83 112 151 185 217 264
#     4  10  19  31  46  62  86 123 159 182 205 252
#     4   9  16  29  50  67  81 111 154 189 218 261
#     4   9  16  27  43  65  92 117 143 176 219 266
#     4   9  19  33  45  59  87 126 154 173 213 270
#     4   8  15  30  47  60  82 118 151 178 215 265
#     4  11  21  31  44  65  92 119 147 185 227 261
#
# _framework density 15.730456999999999
#
# number of rings (size 3 to 8) (size 9 to 14) (size 15 to 20)
#    0.000    2.750    1.250    3.000    0.000    4.500 
#    0.000    2.500    0.000    0.000    0.000    0.875 
#    0.000    7.000    0.000    0.000    0.000    0.000 
#
# Total GULP energy -396618.349550 kJ/mol
# GULP energy per Si atom -12394.323423 kJ/mol
# Density = 1.569465 g / cm^3
# Si number density = 15.730457 Si / 1000 Ang^3
#
#
#
# Elastic Constant Matrix: (Units=GPa)
#
#
# Indices 1 2 3 4 5 6 
#
# 1 115.8873 38.2293 71.3364 0.0000 4.5176 0.0000
# 2 38.2293 45.1443 39.4084 0.0000 2.0010 0.0000
# 3 71.3364 39.4084 131.7850 0.0000 10.0051 0.0000
# 4 0.0000 0.0000 0.0000 23.1103 0.0000 -3.0916
# 5 4.5176 2.0010 10.0051 0.0000 12.6422 0.0000
# 6 0.0000 0.0000 0.0000 -3.0916 0.0000 7.7574
#
#
#
# Elastic Compliance Matrix: (Units=1/GPa)
#
#
# Indices 1 2 3 4 5 6 
#
# 1 0.014556 -0.007358 -0.005716 0.000000 0.000487 0.000000
# 2 -0.007358 0.033770 -0.006287 0.000000 0.002260 0.000000
# 3 -0.005716 -0.006287 0.013120 0.000000 -0.007345 0.000000
# 4 0.000000 0.000000 0.000000 0.045708 0.000000 0.018216
# 5 0.000487 0.002260 -0.007345 0.000000 0.084382 0.000000
# 6 0.000000 0.000000 0.000000 0.018216 0.000000 0.136170
#
#
# Mechanical properties :
#
#
# Convention : Reuss Voigt Hill
#
# Bulk Modulus (GPa) = 44.00644 65.64054 54.82349
# Shear Modulus (GPa) = 13.36891 18.29148 15.83019
#
# Velocity S-wave (km/s) = 2.91842 3.41369 3.17573
# Velocity P-wave (km/s) = 6.27633 7.57342 6.95518
#
# Compressibility (1/GPa) = 0.02272395
#
# Stress axis : x y z
#
# Youngs Moduli (GPa) = 68.70034 29.61168 76.22042
#
# Poissons Ratio (x) = 0.21789 0.43566
# Poissons Ratio (y) = 0.50552 0.47920
# Poissons Ratio (z) = 0.39268 0.18617
#
# Static dielectric constant tensor:
#      x y z
#    x 3.155890 0.000000 0.047100 
#    y 0.000000 2.797720 0.000000 
#    z 0.047100 0.000000 3.298880 
# 
# 
# High freq. dielectric constant tensor:
#      x y z
#    x 1.589540 0.000000 0.001380 
#    y 0.000000 1.584430 0.000000 
#    z 0.001380 0.000000 1.597080 
# 
# From -- ./inp_files/66074.got.cif
#   From: 2010.06.25/outbox.cif.g09.slc.cpg/sg10_34_cif.got.tgz:66074.got - 2010.06.27 22:07:45.
