data_PCOD8057089
_publ_section_title
;
Structure prediction by ZEFSAII (Michael W. Deem and Ramdas Pophale) SiO2 
 PCOD8057089
Probable space group: P 2/M
;
_chemical_formula_sum "Si O2"
_cell_formula_units_Z 32
_cell_length_a 21.432777
_cell_length_b 9.001053
_cell_length_c 31.103597
_cell_angle_alpha 90.000000
_cell_angle_beta 19.494574
_cell_angle_gamma 90.000000
_cell_volume 2002.449059
_symmetry_space_group_name_H-M "P 2/M"
_symmetry_group_IT_number 10
_symmetry_cell_setting 'monoclinic'
loop_
_space_group_symop_operation_xyz
x,y,z
-x,y,-z
-x,-y,-z
x,-y,z
loop_
_atom_site_type_symbol
_atom_site_label
_atom_site_fract_x
_atom_site_fract_y
_atom_site_fract_z
Si Si1 0.890349 0.835999 0.615744
Si Si2 0.788787 0.323597 0.298601
Si Si3 0.210777 0.673658 0.446609
Si Si4 0.176461 0.323206 0.911777
Si Si5 0.177357 0.676684 0.009491
Si Si6 0.442766 0.324989 0.376044
Si Si7 0.554874 0.823868 0.779549
Si Si8 0.564334 0.323080 0.524255
O O1 0.679915 0.783750 0.740604
O O2 0.000000 0.841116 0.500000
O O3 0.995653 0.724752 0.579860
O O4 0.888897 0.000000 0.637724
O O5 0.791897 0.500000 0.294935
O O6 0.729051 0.268103 0.385124
O O7 0.636135 0.266608 0.363151
O O8 0.993242 0.263339 0.153585
O O9 0.227705 0.500000 0.425835
O O10 0.269588 0.712432 0.457209
O O11 0.353857 0.756496 0.322484
O O12 0.176380 0.500000 0.910423
O O13 0.365268 0.258176 0.767926
O O14 0.164321 0.269289 0.968760
O O15 0.000000 0.259650 0.000000
O O16 0.199956 0.500000 0.998019
O O17 0.352498 0.753695 0.918902
O O18 0.469492 0.500000 0.362893
O O19 0.402625 0.256985 0.449423
O O20 0.543058 0.000000 0.781124
O O21 0.565261 0.500000 0.524683
#
# Coordination Sequence:
#
# PCOD8057089 Si02
#       8
#     4   4   4   4   4   4   4   4
#     4   8  16  29  42  57  80 112 144 168 203 256
#     4   8  14  23  38  60  85 113 142 178 213 242
#     4  10  17  26  41  64  88 110 139 175 211 246
#     4   9  15  22  34  55  84 113 137 164 202 246
#     4  10  17  26  41  64  88 108 141 180 211 244
#     4   9  15  22  34  57  86 113 137 166 206 250
#     4  10  19  30  42  58  84 117 144 168 207 257
#     4   8  13  23  37  58  88 114 140 173 213 251
#
# _framework density 15.980432
#
# number of rings (size 3 to 8) (size 9 to 14) (size 15 to 20)
#    0.000    3.000    1.250    3.000    0.000    5.750 
#    0.000    0.000    0.000    0.375    0.000    4.375 
#    0.000    7.000    0.000    0.000    0.000    0.000 
#
# Total GULP energy -396570.872075 kJ/mol
# GULP energy per Si atom -12392.839752 kJ/mol
# Density = 1.594406 g / cm^3
# Si number density = 15.980432 Si / 1000 Ang^3
#
#
#
# Elastic Constant Matrix: (Units=GPa)
#
#
# Indices 1 2 3 4 5 6 
#
# 1 122.9500 29.8344 83.1693 0.0000 -10.7327 0.0000
# 2 29.8344 32.2613 26.2274 0.0000 -6.1328 0.0000
# 3 83.1693 26.2274 122.5139 0.0000 -9.1802 0.0000
# 4 0.0000 0.0000 0.0000 8.1420 0.0000 -2.8793
# 5 -10.7327 -6.1328 -9.1802 0.0000 28.3313 0.0000
# 6 0.0000 0.0000 0.0000 -2.8793 0.0000 1.3553
#
#
#
# Elastic Compliance Matrix: (Units=1/GPa)
#
#
# Indices 1 2 3 4 5 6 
#
# 1 0.016446 -0.007175 -0.009509 0.000000 0.001596 0.000000
# 2 -0.007175 0.041565 -0.003645 0.000000 0.005098 0.000000
# 3 -0.009509 -0.003645 0.015444 0.000000 0.000613 0.000000
# 4 0.000000 0.000000 0.000000 0.493873 0.000000 1.049238
# 5 0.001596 0.005098 0.000613 0.000000 0.037203 0.000000
# 6 0.000000 0.000000 0.000000 1.049238 0.000000 2.966959
#
#
# Mechanical properties :
#
#
# Convention : Reuss Voigt Hill
#
# Bulk Modulus (GPa) = 30.49124 61.79859 46.14492
# Shear Modulus (GPa) = 1.38004 16.79866 9.08935
#
# Velocity S-wave (km/s) = 0.93030 3.24574 2.38750
# Velocity P-wave (km/s) = 4.50286 7.26649 6.04473
#
# Compressibility (1/GPa) = 0.03279631
#
# Stress axis : x y z
#
# Youngs Moduli (GPa) = 60.80501 24.05882 64.75099
#
# Poissons Ratio (x) = 0.17262 0.61571
# Poissons Ratio (y) = 0.43628 0.23603
# Poissons Ratio (z) = 0.57819 0.08770
#
# Static dielectric constant tensor:
#      x y z
#    x 3.255140 0.000000 -0.163260 
#    y 0.000000 2.630040 0.000000 
#    z -0.163260 0.000000 3.206530 
# 
# 
# High freq. dielectric constant tensor:
#      x y z
#    x 1.608390 0.000000 -0.019450 
#    y 0.000000 1.569740 0.000000 
#    z -0.019450 0.000000 1.598360 
# 
# From -- ./inp_files/95663.got.cif
#   From: 2010.06.25/outbox.cif.g09.slc.cpg/sg10_48_cif.got.tgz:95663.got - 2010.06.27 22:07:45.
