data_PCOD8057975
_publ_section_title
;
Structure prediction by ZEFSAII (Michael W. Deem and Ramdas Pophale) SiO2 
 PCOD8057975
Probable space group: P 2/M
;
_chemical_formula_sum "Si O2"
_cell_formula_units_Z 32
_cell_length_a 30.565899
_cell_length_b 8.841178
_cell_length_c 21.156443
_cell_angle_alpha 90.000000
_cell_angle_beta 19.620895
_cell_angle_gamma 90.000000
_cell_volume 1919.836830
_symmetry_space_group_name_H-M "P 2/M"
_symmetry_group_IT_number 10
_symmetry_cell_setting 'monoclinic'
loop_
_space_group_symop_operation_xyz
x,y,z
-x,y,-z
-x,-y,-z
x,-y,z
loop_
_atom_site_type_symbol
_atom_site_label
_atom_site_fract_x
_atom_site_fract_y
_atom_site_fract_z
Si Si1 0.978370 0.821364 0.927509
Si Si2 0.493763 0.178062 0.319013
Si Si3 0.052349 0.177810 0.283550
Si Si4 0.604728 0.176519 0.305100
Si Si5 0.722294 0.678607 0.941375
Si Si6 0.797474 0.822134 0.285667
Si Si7 0.884071 0.333002 0.607859
Si Si8 0.883571 0.321777 0.931927
O O1 0.965181 0.727858 0.881699
O O2 0.119899 0.782388 0.764276
O O3 0.964013 0.000000 0.933825
O O4 0.868604 0.761928 0.125821
O O5 0.547538 0.218167 0.314845
O O6 0.577171 0.263896 0.152266
O O7 0.347790 0.244606 0.511556
O O8 0.499453 0.000000 0.297964
O O9 0.042786 0.247676 0.227352
O O10 0.920819 0.219362 0.501323
O O11 0.065075 0.000000 0.260789
O O12 0.181417 0.239532 0.141202
O O13 0.500000 0.224776 0.500000
O O14 0.638824 0.000000 0.264152
O O15 0.735102 0.268869 0.140090
O O16 0.735622 0.500000 0.934224
O O17 0.757549 0.720325 0.820310
O O18 0.788291 0.000000 0.289860
O O19 0.861852 0.500000 0.608937
O O20 0.000000 0.339516 0.500000
O O21 0.886893 0.500000 0.919601
#
# Coordination Sequence:
#
# PCOD8057975 Si02
#       8
#     4   4   4   4   4   4   4   4
#     4   9  17  34  56  73  93 125 169 211 251 292
#     4  10  18  29  48  73  99 128 164 203 242 288
#     4  11  20  31  48  70  95 127 166 204 241 285
#     4  10  20  33  49  69  96 131 167 200 239 290
#     4  10  19  31  46  68 100 134 161 193 240 294
#     4   8  16  32  55  77  94 122 165 213 253 288
#     4   8  16  30  46  65  94 129 160 192 238 290
#     4  12  23  33  47  70 102 133 164 201 247 294
#
# _framework density 16.668082999999999
#
# number of rings (size 3 to 8) (size 9 to 14) (size 15 to 20)
#    0.000    2.250    1.250    4.875    0.000    5.000 
#    0.000    3.750    0.000    0.000    0.000    0.875 
#    0.000    7.000    0.000    0.000    0.000    0.000 
#
# Total GULP energy -396750.507486 kJ/mol
# GULP energy per Si atom -12398.453359 kJ/mol
# Density = 1.663015 g / cm^3
# Si number density = 16.668083 Si / 1000 Ang^3
#
#
#
# Elastic Constant Matrix: (Units=GPa)
#
#
# Indices 1 2 3 4 5 6 
#
# 1 89.8772 41.4460 54.3567 0.0000 10.7104 0.0000
# 2 41.4460 79.0297 34.7020 0.0000 10.1371 0.0000
# 3 54.3567 34.7020 102.5835 0.0000 18.5793 0.0000
# 4 0.0000 0.0000 0.0000 18.1976 0.0000 8.0219
# 5 10.7104 10.1371 18.5793 0.0000 26.4638 0.0000
# 6 0.0000 0.0000 0.0000 8.0219 0.0000 15.2090
#
#
#
# Elastic Compliance Matrix: (Units=1/GPa)
#
#
# Indices 1 2 3 4 5 6 
#
# 1 0.018810 -0.006467 -0.007847 0.000000 0.000374 0.000000
# 2 -0.006467 0.017227 -0.001925 0.000000 -0.002631 0.000000
# 3 -0.007847 -0.001925 0.015866 0.000000 -0.007226 0.000000
# 4 0.000000 0.000000 0.000000 0.071600 0.000000 -0.037765
# 5 0.000374 -0.002631 -0.007226 0.000000 0.043717 0.000000
# 6 0.000000 0.000000 0.000000 -0.037765 0.000000 0.085669
#
#
# Mechanical properties :
#
#
# Convention : Reuss Voigt Hill
#
# Bulk Modulus (GPa) = 51.47677 59.16665 55.32171
# Shear Modulus (GPa) = 17.13266 21.37314 19.25290
#
# Velocity S-wave (km/s) = 3.20952 3.58478 3.40233
# Velocity P-wave (km/s) = 6.68470 7.26004 6.97830
#
# Compressibility (1/GPa) = 0.01942624
#
# Stress axis : x y z
#
# Youngs Moduli (GPa) = 53.16457 58.04701 63.02873
#
# Poissons Ratio (x) = 0.37538 0.49457
# Poissons Ratio (y) = 0.34380 0.12131
# Poissons Ratio (z) = 0.41717 0.11172
#
# Static dielectric constant tensor:
#      x y z
#    x 3.055520 0.000000 0.212010 
#    y 0.000000 3.003300 0.000000 
#    z 0.212010 0.000000 3.500880 
# 
# 
# High freq. dielectric constant tensor:
#      x y z
#    x 1.620120 0.000000 0.021110 
#    y 0.000000 1.632270 0.000000 
#    z 0.021110 0.000000 1.639400 
# 
# From -- ./inp_files/87179.got.cif
#   From: 2010.06.25/outbox.cif.g09.slc.cpg/sg10_44_cif.got.tgz:87179.got - 2010.06.27 22:07:45.
