data_PCOD8057681
_publ_section_title
;
Structure prediction by ZEFSAII (Michael W. Deem and Ramdas Pophale) SiO2 
 PCOD8057681
Probable space group: P 2/M
;
_chemical_formula_sum "Si O2"
_cell_formula_units_Z 24
_cell_length_a 15.319039
_cell_length_b 9.023130
_cell_length_c 17.394576
_cell_angle_alpha 90.000000
_cell_angle_beta 41.007607
_cell_angle_gamma 90.000000
_cell_volume 1577.654213
_symmetry_space_group_name_H-M "P 2/M"
_symmetry_group_IT_number 10
_symmetry_cell_setting 'monoclinic'
loop_
_space_group_symop_operation_xyz
x,y,z
-x,y,-z
-x,-y,-z
x,-y,z
loop_
_atom_site_type_symbol
_atom_site_label
_atom_site_fract_x
_atom_site_fract_y
_atom_site_fract_z
Si Si1 0.232038 0.832242 0.511260
Si Si2 0.506964 0.167324 0.269039
Si Si3 0.012605 0.675657 0.403459
Si Si4 0.555780 0.675025 0.545444
Si Si5 0.703576 0.325169 0.839160
Si Si6 0.546427 0.674825 0.089771
O O1 0.344997 0.831039 0.368865
O O2 0.296704 0.746966 0.541900
O O3 0.102077 0.748418 0.570208
O O4 0.195205 0.000000 0.559247
O O5 0.543191 0.258119 0.323051
O O6 0.574657 0.243355 0.150812
O O7 0.561114 0.000000 0.240241
O O8 0.000730 0.500000 0.402705
O O9 0.152174 0.738759 0.278293
O O10 0.000000 0.725033 0.500000
O O11 0.500000 0.721316 0.500000
O O12 0.565734 0.500000 0.549016
O O13 0.704629 0.500000 0.829240
O O14 0.591718 0.265337 0.854756
O O15 0.665678 0.283382 0.951961
O O16 0.540269 0.500000 0.109055
#
# Coordination Sequence:
#
# PCOD8057681 Si02
#       6
#     4   4   4   4   4   4
#     4   9  19  30  42  64  94 122 147 180 225 271
#     4   9  18  28  42  65  93 117 143 180 225 270
#     4  10  18  28  44  65  90 123 161 192 222 264
#     4   9  17  30  49  71  91 114 147 184 227 277
#     4   8  16  27  42  65  87 116 158 198 228 255
#     4   9  15  28  46  61  85 119 157 195 227 263
#
# _framework density 15.212458
#
# number of rings (size 3 to 8) (size 9 to 14) (size 15 to 20)
#    1.000    2.000    0.000    3.000    0.000    3.000 
#    0.000    3.333    0.000    0.000    0.000    1.167 
#    0.000    9.333    0.000    0.000    0.000    0.000 
#
# Total GULP energy -297355.810895 kJ/mol
# GULP energy per Si atom -12389.825454 kJ/mol
# Density = 1.517783 g / cm^3
# Si number density = 15.212458 Si / 1000 Ang^3
#
#
#
# Elastic Constant Matrix: (Units=GPa)
#
#
# Indices 1 2 3 4 5 6 
#
# 1 96.5035 42.7915 55.5405 0.0000 12.7283 0.0000
# 2 42.7915 65.3371 40.7525 0.0000 11.8408 0.0000
# 3 55.5405 40.7525 108.0922 0.0000 12.1299 0.0000
# 4 0.0000 0.0000 0.0000 9.6034 0.0000 -3.0577
# 5 12.7283 11.8408 12.1299 0.0000 26.9831 0.0000
# 6 0.0000 0.0000 0.0000 -3.0577 0.0000 8.2682
#
#
#
# Elastic Compliance Matrix: (Units=1/GPa)
#
#
# Indices 1 2 3 4 5 6 
#
# 1 0.017253 -0.007205 -0.005887 0.000000 -0.002330 0.000000
# 2 -0.007205 0.023881 -0.004746 0.000000 -0.004947 0.000000
# 3 -0.005887 -0.004746 0.014238 0.000000 -0.001541 0.000000
# 4 0.000000 0.000000 0.000000 0.118027 0.000000 0.043648
# 5 -0.002330 -0.004947 -0.001541 0.000000 0.041023 0.000000
# 6 0.000000 0.000000 0.000000 0.043648 0.000000 0.137086
#
#
# Mechanical properties :
#
#
# Convention : Reuss Voigt Hill
#
# Bulk Modulus (GPa) = 50.77262 60.90020 55.83641
# Shear Modulus (GPa) = 12.69841 17.69417 15.19629
#
# Velocity S-wave (km/s) = 2.89232 3.41418 3.16403
# Velocity P-wave (km/s) = 6.67848 7.46071 7.08041
#
# Compressibility (1/GPa) = 0.01969566
#
# Stress axis : x y z
#
# Youngs Moduli (GPa) = 57.96194 41.87414 70.23213
#
# Poissons Ratio (x) = 0.30172 0.41345
# Poissons Ratio (y) = 0.41763 0.33333
# Poissons Ratio (z) = 0.34122 0.19874
#
# Static dielectric constant tensor:
#      x y z
#    x 2.723600 0.000000 -0.045490 
#    y 0.000000 2.783240 0.000000 
#    z -0.045490 0.000000 2.966290 
# 
# 
# High freq. dielectric constant tensor:
#      x y z
#    x 1.553440 0.000000 0.008230 
#    y 0.000000 1.578670 0.000000 
#    z 0.008230 0.000000 1.569730 
# 
# From -- ./inp_files/65672.got.cif
#   From: 2010.06.25/outbox.cif.g09.slc.cpg/sg10_33_cif.got.tgz:65672.got - 2010.06.27 22:07:45.
