data_PCOD8057294
_publ_section_title
;
Structure prediction by ZEFSAII (Michael W. Deem and Ramdas Pophale) SiO2 
 PCOD8057294
Probable space group: P 2/M
;
_chemical_formula_sum "Si O2"
_cell_formula_units_Z 20
_cell_length_a 17.627093
_cell_length_b 11.476908
_cell_length_c 10.722740
_cell_angle_alpha 90.000000
_cell_angle_beta 28.358226
_cell_angle_gamma 90.000000
_cell_volume 1030.360490
_symmetry_space_group_name_H-M "P 2/M"
_symmetry_group_IT_number 10
_symmetry_cell_setting 'monoclinic'
loop_
_space_group_symop_operation_xyz
x,y,z
-x,y,-z
-x,-y,-z
x,-y,z
loop_
_atom_site_type_symbol
_atom_site_label
_atom_site_fract_x
_atom_site_fract_y
_atom_site_fract_z
Si Si1 0.884689 0.869511 0.548195
Si Si2 0.622333 0.500000 0.934626
Si Si3 0.377970 0.866386 0.562200
Si Si4 0.375800 0.742852 0.946730
Si Si5 0.139275 0.263907 0.061152
Si Si6 0.986635 0.500000 0.367163
O O1 0.719974 0.798471 0.799020
O O2 0.000000 0.856914 0.500000
O O3 0.833798 0.000000 0.594505
O O4 0.985622 0.820227 0.287209
O O5 0.588699 0.609328 0.072958
O O6 0.797485 0.500000 0.618267
O O7 0.500000 0.500000 0.000000
O O8 0.500000 0.867558 0.500000
O O9 0.231983 0.775798 0.801456
O O10 0.319427 0.000000 0.622732
O O11 0.462681 0.814778 0.315618
O O12 0.263217 0.756530 0.991546
O O13 0.072755 0.394274 0.171626
O O14 0.000000 0.500000 0.500000
#
# Coordination Sequence:
#
# PCOD8057294 Si02
#       6
#     4   2   4   4   4   2
#     4   9  15  24  45  76 104 135 175 215 260 313
#     4  12  24  37  55  79 109 145 191 236 271 316
#     4   9  18  30  48  82 120 143 170 218 276 333
#     4  10  18  32  50  75 110 148 174 219 275 322
#     4  10  17  28  52  80 112 140 172 219 274 325
#     4  12  18  35  55  81 109 141 182 233 273 320
#
# _framework density 19.410681
#
# number of rings (size 3 to 8) (size 9 to 14) (size 15 to 20)
#    0.000    2.000    4.000    1.800    0.000    5.600 
#    0.000    3.000    0.000    4.800    0.000    1.400 
#    0.000    0.000    0.000    0.000    0.000    0.000 
#
# Total GULP energy -247775.916685 kJ/mol
# GULP energy per Si atom -12388.795834 kJ/mol
# Density = 1.936650 g / cm^3
# Si number density = 19.410681 Si / 1000 Ang^3
#
#
#
# Elastic Constant Matrix: (Units=GPa)
#
#
# Indices 1 2 3 4 5 6 
#
# 1 18.3020 10.2559 27.3825 0.0000 -8.8374 0.0000
# 2 10.2559 164.1462 83.4122 0.0000 -8.2524 0.0000
# 3 27.3825 83.4122 166.7495 0.0000 -16.9390 0.0000
# 4 0.0000 0.0000 0.0000 48.0073 0.0000 -5.3597
# 5 -8.8374 -8.2524 -16.9390 0.0000 11.0869 0.0000
# 6 0.0000 0.0000 0.0000 -5.3597 0.0000 0.1987
#
#
#
# Elastic Compliance Matrix: (Units=1/GPa)
#
#
# Indices 1 2 3 4 5 6 
#
# 1 0.102029 0.002749 -0.011435 0.000000 0.065904 0.000000
# 2 0.002749 0.008243 -0.004414 0.000000 0.001583 0.000000
# 3 -0.011435 -0.004414 0.010444 0.000000 0.003556 0.000000
# 4 0.000000 0.000000 0.000000 -0.010355 0.000000 -0.279331
# 5 0.065904 0.001583 0.003556 0.000000 0.149341 0.000000
# 6 0.000000 0.000000 0.000000 -0.279331 0.000000 -2.502011
#
#
# Mechanical properties :
#
#
# Convention : Reuss Voigt Hill
#
# Bulk Modulus (GPa) = 10.58013 65.69986 38.14000
# Shear Modulus (GPa) = -2.28874 27.06840 12.38983
#
# Velocity S-wave (km/s) = -1.08705 3.73837 2.52920
# Velocity P-wave (km/s) = 1.97153 7.24945 5.31232
#
# Compressibility (1/GPa) = 0.09451678
#
# Stress axis : x y z
#
# Youngs Moduli (GPa) = 9.80111 121.31596 95.74814
#
# Poissons Ratio (x) = -0.33354 1.09489
# Poissons Ratio (y) = -0.02695 0.42263
# Poissons Ratio (z) = 0.11208 0.53549
#
# Static dielectric constant tensor:
#      x y z
#    x 2.765940 0.000000 -0.373960 
#    y 0.000000 3.476890 0.000000 
#    z -0.373960 0.000000 3.492210 
# 
# 
# High freq. dielectric constant tensor:
#      x y z
#    x 1.671800 0.000000 -0.021340 
#    y 0.000000 1.773180 0.000000 
#    z -0.021340 0.000000 1.769790 
# 
# From -- ./inp_files/32394.got.cif
#   From: 2010.06.25/outbox.cif.g09.slc.cpg/sg10_17_cif.got.tgz:32394.got - 2010.06.27 22:07:45.
