data_PCOD8057592
_publ_section_title
;
Structure prediction by ZEFSAII (Michael W. Deem and Ramdas Pophale) SiO2 
 PCOD8057592
Probable space group: P 2/M
;
_chemical_formula_sum "Si O2"
_cell_formula_units_Z 30
_cell_length_a 14.033291
_cell_length_b 13.821410
_cell_length_c 25.045571
_cell_angle_alpha 90.000000
_cell_angle_beta 157.978199
_cell_angle_gamma 90.000000
_cell_volume 1821.490945
_symmetry_space_group_name_H-M "P 2/M"
_symmetry_group_IT_number 10
_symmetry_cell_setting 'monoclinic'
loop_
_space_group_symop_operation_xyz
x,y,z
-x,y,-z
-x,-y,-z
x,-y,z
loop_
_atom_site_type_symbol
_atom_site_label
_atom_site_fract_x
_atom_site_fract_y
_atom_site_fract_z
Si Si1 0.500000 0.703438 0.500000
Si Si2 0.266433 0.613772 0.656932
Si Si3 0.009333 0.758976 0.298371
Si Si4 0.257795 0.613936 0.159965
Si Si5 0.597560 0.105669 0.110142
Si Si6 0.769794 0.389737 0.240023
Si Si7 0.820912 0.612819 0.759957
Si Si8 0.294752 0.712625 0.963011
O O1 0.624588 0.636931 0.610426
O O2 0.709817 0.772398 0.580600
O O3 0.260326 0.500000 0.642555
O O4 0.500016 0.659908 0.744906
O O5 0.301913 0.637936 0.737067
O O6 0.000000 0.660553 0.500000
O O7 0.893459 0.857969 0.262625
O O8 0.006676 0.674773 0.342052
O O9 0.811588 0.722360 0.151421
O O10 0.253259 0.500000 0.147909
O O11 0.291574 0.637582 0.240298
O O12 0.000000 0.657975 0.000000
O O13 0.587799 0.000000 0.133747
O O14 0.500000 0.092676 0.000000
O O15 0.418465 0.184718 0.047041
O O16 0.857038 0.500000 0.279112
O O17 0.514145 0.368216 0.074229
O O18 0.894591 0.500000 0.793794
O O19 0.072719 0.678276 0.887069
#
# Coordination Sequence:
#
# PCOD8057592 Si02
#       8
#     2   4   4   4   4   4   4   4
#     4  10  21  32  39  58  94 132 159 182 209 260
#     4   9  18  29  40  58  83 112 155 199 229 258
#     4   9  19  30  42  63  91 117 149 186 218 262
#     4   9  17  29  44  60  81 117 160 199 232 257
#     4   8  14  28  49  67  85 111 143 184 235 277
#     4  10  18  27  43  60  85 119 149 185 227 261
#     4  10  19  29  44  62  93 131 160 181 214 265
#     4   9  17  29  43  67  91 112 146 190 220 262
#
# _framework density 16.470025
#
# number of rings (size 3 to 8) (size 9 to 14) (size 15 to 20)
#    0.000    2.800    0.000    2.600    1.867    5.867 
#    0.000    0.333    0.000    0.800    0.000    0.000 
#    0.000   21.867    0.000    0.000    0.000    0.000 
#
# Total GULP energy -371730.782517 kJ/mol
# GULP energy per Si atom -12391.026084 kJ/mol
# Density = 1.643254 g / cm^3
# Si number density = 16.470025 Si / 1000 Ang^3
#
#
#
# Elastic Constant Matrix: (Units=GPa)
#
#
# Indices 1 2 3 4 5 6 
#
# 1 85.5378 37.7382 44.6268 0.0000 21.7780 0.0000
# 2 37.7382 81.0065 25.6816 0.0000 11.1823 0.0000
# 3 44.6268 25.6816 93.9812 0.0000 21.2037 0.0000
# 4 0.0000 0.0000 0.0000 7.8770 0.0000 6.8609
# 5 21.7780 11.1823 21.2037 0.0000 28.3022 0.0000
# 6 0.0000 0.0000 0.0000 6.8609 0.0000 7.9575
#
#
#
# Elastic Compliance Matrix: (Units=1/GPa)
#
#
# Indices 1 2 3 4 5 6 
#
# 1 0.019480 -0.006121 -0.005706 0.000000 -0.008297 0.000000
# 2 -0.006121 0.015668 -0.001253 0.000000 -0.000542 0.000000
# 3 -0.005706 -0.001253 0.015151 0.000000 -0.006465 0.000000
# 4 0.000000 0.000000 0.000000 0.509803 0.000000 -0.439551
# 5 -0.008297 -0.000542 -0.006465 0.000000 0.046775 0.000000
# 6 0.000000 0.000000 0.000000 -0.439551 0.000000 0.504648
#
#
# Mechanical properties :
#
#
# Convention : Reuss Voigt Hill
#
# Bulk Modulus (GPa) = 41.42412 52.95762 47.19087
# Shear Modulus (GPa) = 4.36403 18.99260 11.67831
#
# Velocity S-wave (km/s) = 1.62955 3.39951 2.66572
# Velocity P-wave (km/s) = 5.36157 6.90164 6.17977
#
# Compressibility (1/GPa) = 0.02414052
#
# Stress axis : x y z
#
# Youngs Moduli (GPa) = 51.33361 63.82327 66.00326
#
# Poissons Ratio (x) = 0.39067 0.37659
# Poissons Ratio (y) = 0.31422 0.08268
# Poissons Ratio (z) = 0.29289 0.07995
#
# Static dielectric constant tensor:
#      x y z
#    x 3.165080 0.000000 0.182690 
#    y 0.000000 2.963960 0.000000 
#    z 0.182690 0.000000 3.198890 
# 
# 
# High freq. dielectric constant tensor:
#      x y z
#    x 1.631900 0.000000 0.011660 
#    y 0.000000 1.578930 0.000000 
#    z 0.011660 0.000000 1.634380 
# 
# From -- ./inp_files/93310.got.cif
#   From: 2010.06.25/outbox.cif.g09.slc.cpg/sg10_47_cif.got.tgz:93310.got - 2010.06.27 22:07:45.
