data_PCOD8057702
_publ_section_title
;
Structure prediction by ZEFSAII (Michael W. Deem and Ramdas Pophale) SiO2 
 PCOD8057702
Probable space group: P 2/M
;
_chemical_formula_sum "Si O2"
_cell_formula_units_Z 28
_cell_length_a 18.683404
_cell_length_b 9.415894
_cell_length_c 11.589135
_cell_angle_alpha 90.000000
_cell_angle_beta 127.374672
_cell_angle_gamma 90.000000
_cell_volume 1620.177254
_symmetry_space_group_name_H-M "P 2/M"
_symmetry_group_IT_number 10
_symmetry_cell_setting 'monoclinic'
loop_
_space_group_symop_operation_xyz
x,y,z
-x,y,-z
-x,-y,-z
x,-y,z
loop_
_atom_site_type_symbol
_atom_site_label
_atom_site_fract_x
_atom_site_fract_y
_atom_site_fract_z
Si Si1 0.690963 0.342423 0.912627
Si Si2 0.763825 0.834350 0.647543
Si Si3 0.975434 0.667708 0.240930
Si Si4 0.594110 0.164394 0.640883
Si Si5 0.173953 0.331011 0.496852
Si Si6 0.188088 0.331159 0.771090
Si Si7 0.135590 0.341992 0.078737
O O1 0.649077 0.500000 0.882709
O O2 0.615996 0.242028 0.782675
O O3 0.779536 0.348265 0.921918
O O4 0.723037 0.283453 0.069425
O O5 0.669978 0.806335 0.619837
O O6 0.757457 0.751358 0.520101
O O7 0.847096 0.769318 0.802092
O O8 0.782134 0.000000 0.645785
O O9 0.973931 0.500000 0.254419
O O10 0.902713 0.733421 0.259761
O O11 0.073915 0.724902 0.368310
O O12 0.949945 0.706658 0.082883
O O13 0.500000 0.223712 0.500000
O O14 0.586230 0.000000 0.664091
O O15 0.184559 0.500000 0.491678
O O16 0.197303 0.280001 0.648799
O O17 0.181033 0.500000 0.769464
O O18 0.119251 0.500000 0.115995
#
# Coordination Sequence:
#
# PCOD8057702 Si02
#       7
#     4   4   4   4   4   4   4
#     4   8  14  26  46  71  93 111 137 178 223 259
#     4  10  20  32  44  62  90 117 142 178 226 272
#     4   8  14  25  44  68  88 113 155 196 217 237
#     4   9  18  33  52  70  86 108 141 180 221 268
#     4  10  18  28  45  66  90 122 155 183 212 251
#     4   8  14  26  45  68  92 118 151 187 215 243
#     4   8  14  27  45  63  86 115 148 184 218 255
#
# _framework density 17.282060000000001
#
# number of rings (size 3 to 8) (size 9 to 14) (size 15 to 20)
#    0.000    3.286    0.000    2.571    0.000    3.143 
#    0.000    4.286    0.000    4.286    0.000    6.000 
#    0.000    0.000    0.000    0.000    0.000    0.000 
#
# Total GULP energy -347036.723128 kJ/mol
# GULP energy per Si atom -12394.168683 kJ/mol
# Density = 1.724273 g / cm^3
# Si number density = 17.282060 Si / 1000 Ang^3
#
#
#
# Elastic Constant Matrix: (Units=GPa)
#
#
# Indices 1 2 3 4 5 6 
#
# 1 43.7754 30.0220 49.6601 0.0000 -6.9191 0.0000
# 2 30.0220 55.9820 49.4780 0.0000 -4.2685 0.0000
# 3 49.6601 49.4780 146.8575 0.0000 -1.6855 0.0000
# 4 0.0000 0.0000 0.0000 5.6381 0.0000 2.3686
# 5 -6.9191 -4.2685 -1.6855 0.0000 27.7540 0.0000
# 6 0.0000 0.0000 0.0000 2.3686 0.0000 17.2886
#
#
#
# Elastic Compliance Matrix: (Units=1/GPa)
#
#
# Indices 1 2 3 4 5 6 
#
# 1 0.046425 -0.014882 -0.010585 0.000000 0.008642 0.000000
# 2 -0.014882 0.030532 -0.005246 0.000000 0.000667 0.000000
# 3 -0.010585 -0.005246 0.012125 0.000000 -0.002709 0.000000
# 4 0.000000 0.000000 0.000000 0.188196 0.000000 -0.025784
# 5 0.008642 0.000667 -0.002709 0.000000 0.038123 0.000000
# 6 0.000000 0.000000 0.000000 -0.025784 0.000000 0.061374
#
#
# Mechanical properties :
#
#
# Convention : Reuss Voigt Hill
#
# Bulk Modulus (GPa) = 36.16153 56.10391 46.13272
# Shear Modulus (GPa) = 11.17516 17.96645 14.57081
#
# Velocity S-wave (km/s) = 2.54566 3.22778 2.90680
# Velocity P-wave (km/s) = 5.44153 6.81363 6.16587
#
# Compressibility (1/GPa) = 0.02765370
#
# Stress axis : x y z
#
# Youngs Moduli (GPa) = 21.54028 32.75302 82.47235
#
# Poissons Ratio (x) = 0.48743 0.87301
# Poissons Ratio (y) = 0.32056 0.43268
# Poissons Ratio (z) = 0.22801 0.17184
#
# Static dielectric constant tensor:
#      x y z
#    x 3.036400 0.000000 -0.093310 
#    y 0.000000 2.946780 0.000000 
#    z -0.093310 0.000000 3.607490 
# 
# 
# High freq. dielectric constant tensor:
#      x y z
#    x 1.637990 0.000000 -0.009680 
#    y 0.000000 1.629810 0.000000 
#    z -0.009680 0.000000 1.674330 
# 
# From -- ./inp_files/54713.got.cif
#   From: 2010.06.25/outbox.cif.g09.slc.cpg/sg10_28_cif.got.tgz:54713.got - 2010.06.27 22:07:45.
