data_PCOD8057664
_publ_section_title
;
Structure prediction by ZEFSAII (Michael W. Deem and Ramdas Pophale) SiO2 
 PCOD8057664
Probable space group: P 2/M
;
_chemical_formula_sum "Si O2"
_cell_formula_units_Z 32
_cell_length_a 12.550422
_cell_length_b 8.942165
_cell_length_c 20.420973
_cell_angle_alpha 90.000000
_cell_angle_beta 65.495568
_cell_angle_gamma 90.000000
_cell_volume 2085.379196
_symmetry_space_group_name_H-M "P 2/M"
_symmetry_group_IT_number 10
_symmetry_cell_setting 'monoclinic'
loop_
_space_group_symop_operation_xyz
x,y,z
-x,y,-z
-x,-y,-z
x,-y,z
loop_
_atom_site_type_symbol
_atom_site_label
_atom_site_fract_x
_atom_site_fract_y
_atom_site_fract_z
Si Si1 0.498415 0.675085 0.325147
Si Si2 0.771269 0.675464 0.589237
Si Si3 0.547164 0.829011 0.786036
Si Si4 0.826371 0.171357 0.443055
Si Si5 0.427013 0.829578 0.078475
Si Si6 0.249824 0.676235 0.204340
Si Si7 0.404325 0.173512 0.576526
Si Si8 0.084491 0.826825 0.333199
O O1 0.515766 0.500000 0.313229
O O2 0.364883 0.722918 0.373725
O O3 0.537013 0.754312 0.246654
O O4 0.582595 0.733605 0.360380
O O5 0.786583 0.500000 0.597712
O O6 0.818996 0.717406 0.505690
O O7 0.850052 0.762434 0.620615
O O8 0.495518 0.821581 0.873840
O O9 0.667403 0.730766 0.756070
O O10 0.575171 0.000000 0.759833
O O11 0.724099 0.206902 0.417813
O O12 0.946722 0.200429 0.374558
O O13 0.817386 0.000000 0.470496
O O14 0.304375 0.741258 0.122326
O O15 0.394644 0.000000 0.068917
O O16 0.500000 0.756576 0.000000
O O17 0.243563 0.500000 0.201159
O O18 0.123584 0.743946 0.255553
O O19 0.500000 0.230636 0.500000
O O20 0.424949 0.000000 0.587210
O O21 0.116098 0.000000 0.318568
#
# Coordination Sequence:
#
# PCOD8057664 Si02
#       8
#     4   4   4   4   4   4   4   4
#     4  11  21  31  47  69  94 120 154 198 238 284
#     4  11  21  31  46  67  90 116 148 193 245 288
#     4   9  17  29  46  67  92 126 157 185 223 267
#     4  10  22  36  48  65  85 114 158 202 241 285
#     4   8  15  28  46  69  98 130 159 184 217 268
#     4  10  18  28  43  66  94 123 153 183 223 268
#     4  10  20  35  53  66  83 114 156 204 249 291
#     4  11  21  33  48  64  89 122 157 194 234 282
#
# _framework density 15.344932
#
# number of rings (size 3 to 8) (size 9 to 14) (size 15 to 20)
#    0.750    1.250    2.500    2.625    0.000    4.500 
#    0.000    0.000    0.000    0.000    0.000    0.000 
#    0.000    1.000    0.000   11.500    0.000    4.500 
#
# Total GULP energy -396604.084839 kJ/mol
# GULP energy per Si atom -12393.877651 kJ/mol
# Density = 1.531001 g / cm^3
# Si number density = 15.344932 Si / 1000 Ang^3
#
#
#
# Elastic Constant Matrix: (Units=GPa)
#
#
# Indices 1 2 3 4 5 6 
#
# 1 67.5597 30.8259 38.9793 0.0000 -4.1636 0.0000
# 2 30.8259 89.2491 46.5198 0.0000 -1.5130 0.0000
# 3 38.9793 46.5198 104.3611 0.0000 0.0370 0.0000
# 4 0.0000 0.0000 0.0000 18.7223 0.0000 0.9953
# 5 -4.1636 -1.5130 0.0370 0.0000 14.8793 0.0000
# 6 0.0000 0.0000 0.0000 0.9953 0.0000 16.7524
#
#
#
# Elastic Compliance Matrix: (Units=1/GPa)
#
#
# Indices 1 2 3 4 5 6 
#
# 1 0.020264 -0.003860 -0.005850 0.000000 0.005293 0.000000
# 2 -0.003860 0.015365 -0.005407 0.000000 0.000496 0.000000
# 3 -0.005850 -0.005407 0.014178 0.000000 -0.002222 0.000000
# 4 0.000000 0.000000 0.000000 0.053581 0.000000 -0.003183
# 5 0.005293 0.000496 -0.002222 0.000000 0.068745 0.000000
# 6 0.000000 0.000000 0.000000 -0.003183 0.000000 0.059882
#
#
# Mechanical properties :
#
#
# Convention : Reuss Voigt Hill
#
# Bulk Modulus (GPa) = 51.09246 54.86888 52.98067
# Shear Modulus (GPa) = 18.60293 19.72712 19.16503
#
# Velocity S-wave (km/s) = 3.48561 3.58939 3.53788
# Velocity P-wave (km/s) = 7.04043 7.28100 7.16172
#
# Compressibility (1/GPa) = 0.01957236
#
# Stress axis : x y z
#
# Youngs Moduli (GPa) = 49.34745 65.08391 70.53047
#
# Poissons Ratio (x) = 0.25124 0.41260
# Poissons Ratio (y) = 0.19049 0.38138
# Poissons Ratio (z) = 0.28868 0.35193
#
# Static dielectric constant tensor:
#      x y z
#    x 2.729850 0.000000 0.003300 
#    y 0.000000 2.947220 0.000000 
#    z 0.003300 0.000000 2.960390 
# 
# 
# High freq. dielectric constant tensor:
#      x y z
#    x 1.551030 0.000000 0.004480 
#    y 0.000000 1.599480 0.000000 
#    z 0.004480 0.000000 1.575610 
# 
# From -- ./inp_files/88441.got.cif
#   From: 2010.06.25/outbox.cif.g09.slc.cpg/sg10_45_cif.got.tgz:88441.got - 2010.06.27 22:07:45.
