data_PCOD8057265
_publ_section_title
;
Structure prediction by ZEFSAII (Michael W. Deem and Ramdas Pophale) SiO2 
 PCOD8057265
Probable space group: P 2/M
;
_chemical_formula_sum "Si O2"
_cell_formula_units_Z 28
_cell_length_a 8.885619
_cell_length_b 14.504244
_cell_length_c 18.531870
_cell_angle_alpha 90.000000
_cell_angle_beta 44.010155
_cell_angle_gamma 90.000000
_cell_volume 1659.407303
_symmetry_space_group_name_H-M "P 2/M"
_symmetry_group_IT_number 10
_symmetry_cell_setting 'monoclinic'
loop_
_space_group_symop_operation_xyz
x,y,z
-x,y,-z
-x,-y,-z
x,-y,z
loop_
_atom_site_type_symbol
_atom_site_label
_atom_site_fract_x
_atom_site_fract_y
_atom_site_fract_z
Si Si1 0.321419 0.896640 0.500000
Si Si2 0.234897 0.105352 0.892081
Si Si3 0.495951 0.600737 0.383760
Si Si4 0.588860 0.105352 0.892080
Si Si5 0.852768 0.399263 0.383762
Si Si6 0.984548 0.210169 0.296022
Si Si7 0.372611 0.210169 0.703979
O O1 0.500000 0.897912 0.500000
O O2 0.110056 0.844850 0.602740
O O3 0.418279 0.844850 0.397259
O O4 0.255186 0.000000 0.499999
O O5 0.397775 0.117597 0.901483
O O6 0.304819 0.171347 0.803846
O O7 0.229534 0.000000 0.865802
O O8 0.000000 0.136568 0.000000
O O9 0.507527 0.500000 0.340982
O O10 0.256670 0.615789 0.499999
O O11 0.663156 0.604232 0.391229
O O12 0.555550 0.683255 0.308642
O O13 0.783642 0.171347 0.803846
O O14 0.673061 0.000000 0.865800
O O15 0.500000 0.136568 0.000000
O O16 0.969525 0.500000 0.340984
O O17 0.018522 0.316745 0.308644
O O18 0.827423 0.200435 0.281719
#
# Coordination Sequence:
#
# PCOD8057265 Si02
#       7
#     4   4   4   4   4   4   4
#     4   9  16  24  38  66 100 129 157 189 228 277
#     4  10  21  36  52  70  93 124 162 202 243 287
#     4   8  13  23  42  70 101 129 161 199 234 274
#     4  10  21  36  52  70  93 124 162 202 243 287
#     4   8  13  23  42  70 101 129 161 199 234 274
#     4  10  17  28  48  73  99 129 162 197 237 281
#     4  10  17  28  48  73  99 129 162 197 237 281
#
# _framework density 16.873494000000001
#
# number of rings (size 3 to 8) (size 9 to 14) (size 15 to 20)
#    0.000    2.714    1.429    2.571    0.000    2.857 
#    0.000    0.714    0.000    4.286    0.000    2.000 
#    0.000    0.000    0.000    0.000    0.000    0.000 
#
# Total GULP energy -347064.838190 kJ/mol
# GULP energy per Si atom -12395.172793 kJ/mol
# Density = 1.683509 g / cm^3
# Si number density = 16.873494 Si / 1000 Ang^3
#
#
#
# Elastic Constant Matrix: (Units=GPa)
#
#
# Indices 1 2 3 4 5 6 
#
# 1 35.3340 33.0926 36.3335 0.0000 0.5931 0.0000
# 2 33.0926 158.3396 89.4266 0.0000 0.6611 0.0000
# 3 36.3335 89.4266 135.2177 0.0000 0.5793 0.0000
# 4 0.0000 0.0000 0.0000 15.9241 0.0000 0.0213
# 5 0.5931 0.6611 0.5793 0.0000 24.7625 0.0000
# 6 0.0000 0.0000 0.0000 0.0213 0.0000 14.0974
#
#
#
# Elastic Compliance Matrix: (Units=1/GPa)
#
#
# Indices 1 2 3 4 5 6 
#
# 1 0.040427 -0.003692 -0.008418 0.000000 -0.000673 0.000000
# 2 -0.003692 0.010418 -0.005898 0.000000 -0.000052 0.000000
# 3 -0.008418 -0.005898 0.013558 0.000000 0.000042 0.000000
# 4 0.000000 0.000000 0.000000 0.062798 0.000000 -0.000095
# 5 -0.000673 -0.000052 0.000042 0.000000 0.040400 0.000000
# 6 0.000000 0.000000 0.000000 -0.000095 0.000000 0.070935
#
#
# Mechanical properties :
#
#
# Convention : Reuss Voigt Hill
#
# Bulk Modulus (GPa) = 35.22760 71.84409 53.53584
# Shear Modulus (GPa) = 17.60469 22.29271 19.94870
#
# Velocity S-wave (km/s) = 3.23357 3.63873 3.44212
# Velocity P-wave (km/s) = 5.90458 7.76687 6.89886
#
# Compressibility (1/GPa) = 0.02838684
#
# Stress axis : x y z
#
# Youngs Moduli (GPa) = 24.73608 95.98416 73.75706
#
# Poissons Ratio (x) = 0.35435 0.62092
# Poissons Ratio (y) = 0.09132 0.43502
# Poissons Ratio (z) = 0.20824 0.56612
#
# Static dielectric constant tensor:
#      x y z
#    x 2.754570 0.000000 0.003750 
#    y 0.000000 3.603410 0.000000 
#    z 0.003750 0.000000 3.074020 
# 
# 
# High freq. dielectric constant tensor:
#      x y z
#    x 1.609860 0.000000 0.000310 
#    y 0.000000 1.660140 0.000000 
#    z 0.000310 0.000000 1.636060 
# 
# From -- ./inp_files/25074.got.cif
#   From: 2010.06.25/outbox.cif.g09.slc.cpg/sg10_13_cif.got.tgz:25074.got - 2010.06.27 22:07:45.
