data_PCOD8057118
_publ_section_title
;
Structure prediction by ZEFSAII (Michael W. Deem and Ramdas Pophale) SiO2 
 PCOD8057118
Probable space group: P 2/M
;
_chemical_formula_sum "Si O2"
_cell_formula_units_Z 32
_cell_length_a 19.117694
_cell_length_b 9.418946
_cell_length_c 12.502573
_cell_angle_alpha 90.000000
_cell_angle_beta 116.846783
_cell_angle_gamma 90.000000
_cell_volume 2008.666732
_symmetry_space_group_name_H-M "P 2/M"
_symmetry_group_IT_number 10
_symmetry_cell_setting 'monoclinic'
loop_
_space_group_symop_operation_xyz
x,y,z
-x,y,-z
-x,-y,-z
x,-y,z
loop_
_atom_site_type_symbol
_atom_site_label
_atom_site_fract_x
_atom_site_fract_y
_atom_site_fract_z
Si Si1 0.922069 0.835978 0.385557
Si Si2 0.081774 0.664049 0.832010
Si Si3 0.178690 0.665180 0.095302
Si Si4 0.654083 0.334286 0.709147
Si Si5 0.509914 0.157134 0.633824
Si Si6 0.178482 0.837907 0.486034
Si Si7 0.903655 0.336101 0.751289
Si Si8 0.659454 0.834887 0.496425
O O1 0.907177 0.748699 0.268967
O O2 0.846813 0.810549 0.409394
O O3 0.000000 0.781462 0.500000
O O4 0.932488 0.000000 0.361204
O O5 0.098544 0.500000 0.817293
O O6 0.996415 0.684292 0.824533
O O7 0.143264 0.727983 0.961112
O O8 0.157403 0.500000 0.081849
O O9 0.271921 0.691918 0.162336
O O10 0.136864 0.731755 0.171292
O O11 0.638846 0.500000 0.678398
O O12 0.577598 0.267412 0.714341
O O13 0.672916 0.261029 0.609631
O O14 0.500000 0.158129 0.500000
O O15 0.423771 0.201560 0.619231
O O16 0.533823 0.000000 0.690961
O O17 0.126188 0.742293 0.373969
O O18 0.270869 0.802746 0.538674
O O19 0.161316 0.000000 0.441635
O O20 0.879701 0.500000 0.721996
O O21 0.658354 0.000000 0.532135
#
# Coordination Sequence:
#
# PCOD8057118 Si02
#       8
#     4   4   4   4   4   4   4   4
#     4  10  20  34  49  66  92 120 149 193 240 271
#     4  10  20  33  50  67  88 122 161 192 222 268
#     4   9  18  31  45  67  96 123 151 188 228 264
#     4  10  17  26  43  66  93 121 147 179 224 270
#     4   8  15  27  41  60  89 120 149 180 216 265
#     4  10  19  31  48  67  91 123 153 185 231 273
#     4  10  18  30  48  68  91 120 155 189 223 266
#     4   9  17  29  44  63  89 121 153 182 218 268
#
# _framework density 15.930965
#
# number of rings (size 3 to 8) (size 9 to 14) (size 15 to 20)
#    0.000    2.500    2.500    1.500    0.000    4.500 
#    0.000    1.875    0.000    1.500    0.000    0.875 
#    0.000    7.000    0.000    0.000    0.000    0.000 
#
# Total GULP energy -396692.747893 kJ/mol
# GULP energy per Si atom -12396.648372 kJ/mol
# Density = 1.589471 g / cm^3
# Si number density = 15.930965 Si / 1000 Ang^3
#
#
#
# Elastic Constant Matrix: (Units=GPa)
#
#
# Indices 1 2 3 4 5 6 
#
# 1 105.9710 40.2950 45.3177 0.0000 15.5092 0.0000
# 2 40.2950 60.5753 41.6740 0.0000 5.7935 0.0000
# 3 45.3177 41.6740 85.8405 0.0000 4.4569 0.0000
# 4 0.0000 0.0000 0.0000 -14.0406 0.0000 -1.0222
# 5 15.5092 5.7935 4.4569 0.0000 19.8791 0.0000
# 6 0.0000 0.0000 0.0000 -1.0222 0.0000 23.2841
#
#
#
# Elastic Compliance Matrix: (Units=1/GPa)
#
#
# Indices 1 2 3 4 5 6 
#
# 1 0.014949 -0.005978 -0.004528 0.000000 -0.008906 0.000000
# 2 -0.005978 0.027596 -0.010185 0.000000 -0.001096 0.000000
# 3 -0.004528 -0.010185 0.018867 0.000000 0.002271 0.000000
# 4 0.000000 0.000000 0.000000 -0.070995 0.000000 -0.003117
# 5 -0.008906 -0.001096 0.002271 0.000000 0.057062 0.000000
# 6 0.000000 0.000000 0.000000 -0.003117 0.000000 0.042811
#
#
# Mechanical properties :
#
#
# Convention : Reuss Voigt Hill
#
# Bulk Modulus (GPa) = 49.92099 56.32893 53.12496
# Shear Modulus (GPa) = 36.14078 14.16452 25.15265
#
# Velocity S-wave (km/s) = 4.76814 2.98504 3.97779
# Velocity P-wave (km/s) = 7.85604 6.87863 7.38353
#
# Compressibility (1/GPa) = 0.02003165
#
# Stress axis : x y z
#
# Youngs Moduli (GPa) = 66.89362 36.23665 53.00395
#
# Poissons Ratio (x) = 0.21661 0.23999
# Poissons Ratio (y) = 0.39986 0.53984
# Poissons Ratio (z) = 0.30287 0.36907
#
# Static dielectric constant tensor:
#      x y z
#    x 3.395540 0.000000 0.196670 
#    y 0.000000 2.976720 0.000000 
#    z 0.196670 0.000000 2.819200 
# 
# 
# High freq. dielectric constant tensor:
#      x y z
#    x 1.619670 0.000000 0.016200 
#    y 0.000000 1.603470 0.000000 
#    z 0.016200 0.000000 1.575690 
# 
# From -- ./inp_files/52741.got.cif
#   From: 2010.06.25/outbox.cif.g09.slc.cpg/sg10_27_cif.got.tgz:52741.got - 2010.06.27 22:07:45.
