data_PCOD8057386
_publ_section_title
;
Structure prediction by ZEFSAII (Michael W. Deem and Ramdas Pophale) SiO2 
 PCOD8057386
Probable space group: P 2/M
;
_chemical_formula_sum "Si O2"
_cell_formula_units_Z 28
_cell_length_a 11.942522
_cell_length_b 9.234431
_cell_length_c 13.899230
_cell_angle_alpha 90.000000
_cell_angle_beta 71.045855
_cell_angle_gamma 90.000000
_cell_volume 1449.727982
_symmetry_space_group_name_H-M "P 2/M"
_symmetry_group_IT_number 10
_symmetry_cell_setting 'monoclinic'
loop_
_space_group_symop_operation_xyz
x,y,z
-x,y,-z
-x,-y,-z
x,-y,z
loop_
_atom_site_type_symbol
_atom_site_label
_atom_site_fract_x
_atom_site_fract_y
_atom_site_fract_z
Si Si1 0.030398 0.668928 0.382793
Si Si2 0.376021 0.837020 0.512793
Si Si3 0.559891 0.839876 0.712896
Si Si4 0.843308 0.173342 0.311217
Si Si5 0.301645 0.833646 0.822991
Si Si6 0.636296 0.171832 0.984552
Si Si7 0.726876 0.667405 0.787014
O O1 0.999154 0.500000 0.385395
O O2 0.166086 0.700422 0.316553
O O3 0.000000 0.725564 0.500000
O O4 0.960304 0.751662 0.318144
O O5 0.500000 0.754136 0.500000
O O6 0.358345 0.837840 0.403613
O O7 0.261530 0.764443 0.591464
O O8 0.385453 0.000000 0.553044
O O9 0.421911 0.810968 0.726838
O O10 0.605329 0.716406 0.770883
O O11 0.569914 0.000000 0.760114
O O12 0.808429 0.224840 0.211645
O O13 0.858204 0.000000 0.313921
O O14 0.274502 0.000000 0.847990
O O15 0.322447 0.764665 0.922619
O O16 0.731140 0.242529 0.884879
O O17 0.648871 0.000000 0.976163
O O18 0.500000 0.217612 0.000000
O O19 0.720517 0.500000 0.815344
#
# Coordination Sequence:
#
# PCOD8057386 Si02
#       7
#     4   4   4   4   4   4   4
#     4  10  23  43  60  75 108 155 193 229 277 331
#     4   9  15  25  48  81 112 138 168 215 274 328
#     4  10  17  30  53  80 112 146 177 215 273 340
#     4  10  19  33  56  85 113 142 183 233 276 326
#     4   9  17  31  53  83 115 142 173 218 276 334
#     4  10  19  35  59  84 112 150 185 220 276 342
#     4  11  23  37  55  80 109 144 190 239 279 317
#
# _framework density 19.313969
#
# number of rings (size 3 to 8) (size 9 to 14) (size 15 to 20)
#    0.000    2.143    2.857    1.286    0.000    1.714 
#    0.000    2.143    0.000    5.143    0.000    0.000 
#    0.000    0.000    0.000    0.000    0.000    0.000 
#
# Total GULP energy -346891.984884 kJ/mol
# GULP energy per Si atom -12388.999460 kJ/mol
# Density = 1.927001 g / cm^3
# Si number density = 19.313969 Si / 1000 Ang^3
#
#
#
# Elastic Constant Matrix: (Units=GPa)
#
#
# Indices 1 2 3 4 5 6 
#
# 1 89.6144 32.5793 29.3261 0.0000 23.6494 0.0000
# 2 32.5793 39.0431 30.3329 0.0000 3.4078 0.0000
# 3 29.3261 30.3329 104.8029 0.0000 12.8358 0.0000
# 4 0.0000 0.0000 0.0000 22.0812 0.0000 -5.6441
# 5 23.6494 3.4078 12.8358 0.0000 34.4648 0.0000
# 6 0.0000 0.0000 0.0000 -5.6441 0.0000 11.0802
#
#
#
# Elastic Compliance Matrix: (Units=1/GPa)
#
#
# Indices 1 2 3 4 5 6 
#
# 1 0.020122 -0.016144 0.000563 0.000000 -0.012421 0.000000
# 2 -0.016144 0.045998 -0.010054 0.000000 0.010274 0.000000
# 3 0.000563 -0.010054 0.012804 0.000000 -0.004161 0.000000
# 4 0.000000 0.000000 0.000000 0.052067 0.000000 0.026522
# 5 -0.012421 0.010274 -0.004161 0.000000 0.038072 0.000000
# 6 0.000000 0.000000 0.000000 0.026522 0.000000 0.103761
#
#
# Mechanical properties :
#
#
# Convention : Reuss Voigt Hill
#
# Bulk Modulus (GPa) = 36.16102 46.43747 41.29924
# Shear Modulus (GPa) = 15.00101 22.94004 18.97053
#
# Velocity S-wave (km/s) = 2.78994 3.45010 3.13744
# Velocity P-wave (km/s) = 5.39831 6.32192 5.87828
#
# Compressibility (1/GPa) = 0.02765409
#
# Stress axis : x y z
#
# Youngs Moduli (GPa) = 49.69801 21.73996 78.10264
#
# Poissons Ratio (x) = 0.35097 -0.04399
# Poissons Ratio (y) = 0.80232 0.78525
# Poissons Ratio (z) = -0.02799 0.21858
#
# Static dielectric constant tensor:
#      x y z
#    x 3.489520 0.000000 0.129410 
#    y 0.000000 3.084990 0.000000 
#    z 0.129410 0.000000 3.775450 
# 
# 
# High freq. dielectric constant tensor:
#      x y z
#    x 1.740750 0.000000 0.012150 
#    y 0.000000 1.701360 0.000000 
#    z 0.012150 0.000000 1.762450 
# 
# From -- ./inp_files/63374.got.cif
#   From: 2010.06.25/outbox.cif.g09.slc.cpg/sg10_32_cif.got.tgz:63374.got - 2010.06.27 22:07:45.
