data_PCOD8057887
_publ_section_title
;
Structure prediction by ZEFSAII (Michael W. Deem and Ramdas Pophale) SiO2 
 PCOD8057887
Probable space group: P 2/M
;
_chemical_formula_sum "Si O2"
_cell_formula_units_Z 32
_cell_length_a 18.746049
_cell_length_b 13.214122
_cell_length_c 18.528383
_cell_angle_alpha 90.000000
_cell_angle_beta 156.020986
_cell_angle_gamma 90.000000
_cell_volume 1865.268790
_symmetry_space_group_name_H-M "P 2/M"
_symmetry_group_IT_number 10
_symmetry_cell_setting 'monoclinic'
loop_
_space_group_symop_operation_xyz
x,y,z
-x,y,-z
-x,-y,-z
x,-y,z
loop_
_atom_site_type_symbol
_atom_site_label
_atom_site_fract_x
_atom_site_fract_y
_atom_site_fract_z
Si Si1 0.837244 0.380376 0.260354
Si Si2 0.151236 0.191346 0.236880
Si Si3 0.768084 0.380269 0.352129
Si Si4 0.402390 0.696680 0.668755
Si Si5 0.868587 0.615514 0.691876
Si Si6 0.784385 0.118448 0.859157
Si Si7 0.579558 0.113865 0.402818
Si Si8 0.759533 0.381237 0.032792
O O1 0.848558 0.500000 0.266802
O O2 0.727617 0.350421 0.231019
O O3 0.750665 0.338277 0.107010
O O4 0.036698 0.342076 0.449597
O O5 0.167439 0.309227 0.274769
O O6 0.216682 0.182762 0.215427
O O7 0.274681 0.122509 0.400583
O O8 0.952487 0.150805 0.061965
O O9 0.742467 0.500000 0.340932
O O10 0.638026 0.319792 0.284234
O O11 0.280547 0.625176 0.507028
O O12 0.372781 0.813393 0.619774
O O13 0.606203 0.669606 0.844181
O O14 0.869516 0.500000 0.721243
O O15 0.053940 0.646607 0.828761
O O16 0.609343 0.145235 0.740440
O O17 0.795038 0.000000 0.849448
O O18 0.576549 0.000000 0.370191
O O19 0.727607 0.500000 0.003179
#
# Coordination Sequence:
#
# PCOD8057887 Si02
#       8
#     4   4   4   4   4   4   4   4
#     4   8  15  26  44  68  97 126 157 196 233 268
#     4  10  19  32  54  76  96 123 159 189 237 291
#     4   9  15  27  45  69  98 127 156 192 234 274
#     4  11  20  30  49  70  94 128 164 193 234 285
#     4  10  20  33  46  67 102 135 159 189 225 273
#     4  10  19  34  55  76  96 116 150 206 252 283
#     4  10  21  35  51  73  97 120 152 200 249 285
#     4  10  18  29  46  70  98 129 162 193 228 274
#
# _framework density 17.155705000000001
#
# number of rings (size 3 to 8) (size 9 to 14) (size 15 to 20)
#    0.000    2.250    1.250    4.500    0.000    1.500 
#    0.000    3.125    0.000    7.500    0.000    3.500 
#    0.000    0.000    0.000    0.000    0.000    0.000 
#
# Total GULP energy -396719.564850 kJ/mol
# GULP energy per Si atom -12397.486402 kJ/mol
# Density = 1.711666 g / cm^3
# Si number density = 17.155705 Si / 1000 Ang^3
#
#
#
# Elastic Constant Matrix: (Units=GPa)
#
#
# Indices 1 2 3 4 5 6 
#
# 1 59.1531 39.8928 15.2951 0.0000 10.2417 0.0000
# 2 39.8928 70.0732 18.9834 0.0000 7.0348 0.0000
# 3 15.2951 18.9834 96.7203 0.0000 9.3280 0.0000
# 4 0.0000 0.0000 0.0000 18.6391 0.0000 1.5330
# 5 10.2417 7.0348 9.3280 0.0000 10.5806 0.0000
# 6 0.0000 0.0000 0.0000 1.5330 0.0000 17.6763
#
#
#
# Elastic Compliance Matrix: (Units=1/GPa)
#
#
# Indices 1 2 3 4 5 6 
#
# 1 0.030767 -0.015579 0.000072 0.000000 -0.019487 0.000000
# 2 -0.015579 0.023624 -0.002309 0.000000 0.001409 0.000000
# 3 0.000072 -0.002309 0.011628 0.000000 -0.008786 0.000000
# 4 0.000000 0.000000 0.000000 0.054036 0.000000 -0.004686
# 5 -0.019487 0.001409 -0.008786 0.000000 0.120185 0.000000
# 6 0.000000 0.000000 0.000000 -0.004686 0.000000 0.056979
#
#
# Mechanical properties :
#
#
# Convention : Reuss Voigt Hill
#
# Bulk Modulus (GPa) = 32.90884 41.58770 37.24827
# Shear Modulus (GPa) = 14.57806 19.49754 17.03780
#
# Velocity S-wave (km/s) = 2.91821 3.37487 3.15481
# Velocity P-wave (km/s) = 5.52980 6.28333 5.91857
#
# Compressibility (1/GPa) = 0.03038697
#
# Stress axis : x y z
#
# Youngs Moduli (GPa) = 32.50225 42.32990 85.99732
#
# Poissons Ratio (x) = 0.65945 -0.00616
# Poissons Ratio (y) = 0.50635 0.19856
# Poissons Ratio (z) = -0.00233 0.09774
#
# Static dielectric constant tensor:
#      x y z
#    x 3.185510 0.000000 -0.028840 
#    y 0.000000 2.906620 0.000000 
#    z -0.028840 0.000000 3.429430 
# 
# 
# High freq. dielectric constant tensor:
#      x y z
#    x 1.652210 0.000000 0.002350 
#    y 0.000000 1.623700 0.000000 
#    z 0.002350 0.000000 1.679340 
# 
# From -- ./inp_files/86293.got.cif
#   From: 2010.06.25/outbox.cif.g09.slc.cpg/sg10_44_cif.got.tgz:86293.got - 2010.06.27 22:07:45.
