data_PCOD8057151
_publ_section_title
;
Structure prediction by ZEFSAII (Michael W. Deem and Ramdas Pophale) SiO2 
 PCOD8057151
Probable space group: P 2/M
;
_chemical_formula_sum "Si O2"
_cell_formula_units_Z 32
_cell_length_a 18.364581
_cell_length_b 18.148895
_cell_length_c 22.485224
_cell_angle_alpha 90.000000
_cell_angle_beta 162.291611
_cell_angle_gamma 90.000000
_cell_volume 2279.546408
_symmetry_space_group_name_H-M "P 2/M"
_symmetry_group_IT_number 10
_symmetry_cell_setting 'monoclinic'
loop_
_space_group_symop_operation_xyz
x,y,z
-x,y,-z
-x,-y,-z
x,-y,z
loop_
_atom_site_type_symbol
_atom_site_label
_atom_site_fract_x
_atom_site_fract_y
_atom_site_fract_z
Si Si1 0.625184 0.087643 0.213857
Si Si2 0.741330 0.856924 0.620666
Si Si3 0.008932 0.581662 0.103733
Si Si4 0.690175 0.689321 0.595088
Si Si5 0.903689 0.087141 0.201802
Si Si6 0.388169 0.581663 0.293351
Si Si7 0.020648 0.087645 0.609210
Si Si8 0.210623 0.912343 0.210634
O O1 0.739652 0.112539 0.239726
O O2 0.787212 0.118456 0.393693
O O3 0.619879 0.000000 0.211946
O O4 0.359687 0.120114 0.016115
O O5 0.765859 0.769628 0.632957
O O6 0.470469 0.881620 0.393865
O O7 0.836140 0.881673 0.759467
O O8 0.912922 0.892475 0.706370
O O9 0.007307 0.500000 0.131981
O O10 0.074016 0.644555 0.201567
O O11 0.204692 0.581833 0.204685
O O12 0.748988 0.600118 0.874499
O O13 0.500000 0.697443 0.500000
O O14 0.584205 0.644571 0.456649
O O15 0.984552 0.120151 0.328317
O O16 0.888723 0.000000 0.194368
O O17 0.506026 0.500000 0.381341
O O18 0.012358 0.000000 0.604340
O O19 0.221658 0.000000 0.221629
O O20 0.000000 0.887252 0.000000
#
# Coordination Sequence:
#
# PCOD8057151 Si02
#       8
#     4   4   4   4   4   4   4   4
#     4   8  14  25  41  61  81  98 119 149 189 240
#     4  11  21  33  42  61  79  98 134 178 213 250
#     4   8  14  24  39  58  76  94 119 151 187 233
#     4  10  17  27  39  55  75 102 125 160 205 238
#     4  10  18  27  42  58  78 102 128 165 206 240
#     4   8  14  24  39  58  76  94 119 151 187 233
#     4   8  14  25  41  61  81  98 119 149 189 240
#     4  10  21  37  50  53  63  96 142 190 228 246
#
# _framework density 14.037881
#
# number of rings (size 3 to 8) (size 9 to 14) (size 15 to 20)
#    0.000    2.875    1.250    3.750    0.000    5.000 
#    0.000    2.500    0.000    0.000    0.000    0.000 
#    0.000    0.000    0.000    0.000    0.000   10.000 
#
# Total GULP energy -396501.960411 kJ/mol
# GULP energy per Si atom -12390.686263 kJ/mol
# Density = 1.400593 g / cm^3
# Si number density = 14.037881 Si / 1000 Ang^3
#
#
#
# Elastic Constant Matrix: (Units=GPa)
#
#
# Indices 1 2 3 4 5 6 
#
# 1 74.9253 3.3724 50.6095 0.0000 2.6122 0.0000
# 2 3.3724 53.8846 28.6823 0.0000 -9.8383 0.0000
# 3 50.6095 28.6823 103.4460 0.0000 -13.5383 0.0000
# 4 0.0000 0.0000 0.0000 8.0917 0.0000 -3.7561
# 5 2.6122 -9.8383 -13.5383 0.0000 15.1257 0.0000
# 6 0.0000 0.0000 0.0000 -3.7561 0.0000 -1.6100
#
#
#
# Elastic Compliance Matrix: (Units=1/GPa)
#
#
# Indices 1 2 3 4 5 6 
#
# 1 0.023357 0.003492 -0.014301 0.000000 -0.014563 0.000000
# 2 0.003492 0.023692 -0.007181 0.000000 0.008380 0.000000
# 3 -0.014301 -0.007181 0.020803 0.000000 0.016419 0.000000
# 4 0.000000 0.000000 0.000000 0.059331 0.000000 -0.138419
# 5 -0.014563 0.008380 0.016419 0.000000 0.088775 0.000000
# 6 0.000000 0.000000 0.000000 -0.138419 0.000000 -0.298193
#
#
# Mechanical properties :
#
#
# Convention : Reuss Voigt Hill
#
# Bulk Modulus (GPa) = 31.37528 44.17604 37.77566
# Shear Modulus (GPa) = -140.33060 14.29425 -63.01817
#
# Velocity S-wave (km/s) = -10.00913 3.19448 -6.70738
# Velocity P-wave (km/s) = 10.54410 6.71891 5.74605
#
# Compressibility (1/GPa) = 0.03187223
#
# Stress axis : x y z
#
# Youngs Moduli (GPa) = 42.81339 42.20865 48.06916
#
# Poissons Ratio (x) = -0.14738 0.68745
# Poissons Ratio (y) = -0.14949 0.34516
# Poissons Ratio (z) = 0.61228 0.30308
#
# Static dielectric constant tensor:
#      x y z
#    x 5.202640 0.000000 0.685860 
#    y 0.000000 2.612260 0.000000 
#    z 0.685860 0.000000 3.453710 
# 
# 
# High freq. dielectric constant tensor:
#      x y z
#    x 1.496510 0.000000 -0.020270 
#    y 0.000000 1.501080 0.000000 
#    z -0.020270 0.000000 1.548840 
# 
# From -- ./inp_files/85999.got.cif
#   From: 2010.06.25/outbox.cif.g09.slc.cpg/sg10_43_cif.got.tgz:85999.got - 2010.06.27 22:07:45.
