data_PCOD8057711
_publ_section_title
;
Structure prediction by ZEFSAII (Michael W. Deem and Ramdas Pophale) SiO2 
 PCOD8057711
Probable space group: P 2/M
;
_chemical_formula_sum "Si O2"
_cell_formula_units_Z 32
_cell_length_a 17.141561
_cell_length_b 13.056504
_cell_length_c 20.635490
_cell_angle_alpha 90.000000
_cell_angle_beta 23.270684
_cell_angle_gamma 90.000000
_cell_volume 1824.618940
_symmetry_space_group_name_H-M "P 2/M"
_symmetry_group_IT_number 10
_symmetry_cell_setting 'monoclinic'
loop_
_space_group_symop_operation_xyz
x,y,z
-x,y,-z
-x,-y,-z
x,-y,z
loop_
_atom_site_type_symbol
_atom_site_label
_atom_site_fract_x
_atom_site_fract_y
_atom_site_fract_z
Si Si1 0.206310 0.700036 0.975163
Si Si2 0.769231 0.391209 0.176674
Si Si3 0.683300 0.621129 0.820819
Si Si4 0.568096 0.379005 0.765051
Si Si5 0.804843 0.882113 0.106178
Si Si6 0.842983 0.620154 0.329011
Si Si7 0.070111 0.381854 0.591701
Si Si8 0.477409 0.770518 0.587806
O O1 0.300073 0.640631 0.842138
O O2 0.366547 0.685871 0.909760
O O3 0.178192 0.818029 0.973688
O O4 0.998528 0.650951 0.154968
O O5 0.673312 0.500000 0.266861
O O6 0.699556 0.312060 0.284347
O O7 0.000000 0.395237 0.000000
O O8 0.687761 0.500000 0.827777
O O9 0.662574 0.649935 0.761716
O O10 0.883560 0.670140 0.697801
O O11 0.500000 0.668619 0.000000
O O12 0.517992 0.500000 0.798748
O O13 0.723072 0.338466 0.593098
O O14 0.600947 0.854412 0.300679
O O15 0.794994 0.000000 0.093736
O O16 0.000000 0.858263 0.000000
O O17 0.777583 0.500000 0.369061
O O18 0.949906 0.633783 0.316348
O O19 0.665186 0.702681 0.465765
O O20 0.070838 0.500000 0.571416
O O21 0.500000 0.823247 0.500000
#
# Coordination Sequence:
#
# PCOD8057711 Si02
#       8
#     4   4   4   4   4   4   4   4
#     4  11  20  33  50  70  96 126 167 207 248 298
#     4  10  19  30  44  63  92 130 163 189 225 282
#     4   9  16  26  40  61  93 134 176 210 240 280
#     4  10  18  28  45  68  98 136 170 203 245 293
#     4  10  22  41  60  73  90 122 166 217 265 300
#     4  11  21  31  47  74 109 142 166 196 240 294
#     4   9  17  28  41  62  96 137 176 207 235 277
#     4  11  21  33  49  73 100 125 160 202 248 301
#
# _framework density 17.537908999999999
#
# number of rings (size 3 to 8) (size 9 to 14) (size 15 to 20)
#    0.000    1.875    0.000    7.125    0.000    6.750 
#    0.000    0.625    0.000    0.000    0.000    0.000 
#    0.000   12.500    0.000    0.000    0.000    0.125 
#
# Total GULP energy -396526.684218 kJ/mol
# GULP energy per Si atom -12391.458882 kJ/mol
# Density = 1.749799 g / cm^3
# Si number density = 17.537909 Si / 1000 Ang^3
#
#
#
# Elastic Constant Matrix: (Units=GPa)
#
#
# Indices 1 2 3 4 5 6 
#
# 1 74.5768 24.4695 25.4862 0.0000 -8.4293 0.0000
# 2 24.4695 70.2143 21.5489 0.0000 -6.9112 0.0000
# 3 25.4862 21.5489 89.8576 0.0000 -2.7983 0.0000
# 4 0.0000 0.0000 0.0000 20.3776 0.0000 0.4357
# 5 -8.4293 -6.9112 -2.7983 0.0000 32.8417 0.0000
# 6 0.0000 0.0000 0.0000 0.4357 0.0000 13.1855
#
#
#
# Elastic Compliance Matrix: (Units=1/GPa)
#
#
# Indices 1 2 3 4 5 6 
#
# 1 0.016368 -0.004333 -0.003510 0.000000 0.002990 0.000000
# 2 -0.004333 0.016807 -0.002733 0.000000 0.002192 0.000000
# 3 -0.003510 -0.002733 0.012768 0.000000 -0.000388 0.000000
# 4 0.000000 0.000000 0.000000 0.049108 0.000000 -0.001623
# 5 0.002990 0.002192 -0.000388 0.000000 0.031645 0.000000
# 6 0.000000 0.000000 0.000000 -0.001623 0.000000 0.075894
#
#
# Mechanical properties :
#
#
# Convention : Reuss Voigt Hill
#
# Bulk Modulus (GPa) = 40.33884 41.96200 41.15042
# Shear Modulus (GPa) = 21.55119 24.15725 22.85422
#
# Velocity S-wave (km/s) = 3.50928 3.71540 3.61381
# Velocity P-wave (km/s) = 6.28259 6.51030 6.39746
#
# Compressibility (1/GPa) = 0.02479001
#
# Stress axis : x y z
#
# Youngs Moduli (GPa) = 61.09400 59.50043 78.32238
#
# Poissons Ratio (x) = 0.25779 0.27494
# Poissons Ratio (y) = 0.26470 0.21408
# Poissons Ratio (z) = 0.21446 0.16263
#
# Static dielectric constant tensor:
#      x y z
#    x 3.293930 0.000000 0.056430 
#    y 0.000000 2.935330 0.000000 
#    z 0.056430 0.000000 3.575710 
# 
# 
# High freq. dielectric constant tensor:
#      x y z
#    x 1.677850 0.000000 0.001550 
#    y 0.000000 1.610380 0.000000 
#    z 0.001550 0.000000 1.698260 
# 
# From -- ./inp_files/85948.got.cif
#   From: 2010.06.25/outbox.cif.g09.slc.cpg/sg10_43_cif.got.tgz:85948.got - 2010.06.27 22:07:45.
