data_PCOD8057176
_publ_section_title
;
Structure prediction by ZEFSAII (Michael W. Deem and Ramdas Pophale) SiO2 
 PCOD8057176
Probable space group: P 2/M
;
_chemical_formula_sum "Si O2"
_cell_formula_units_Z 32
_cell_length_a 18.899199
_cell_length_b 12.903434
_cell_length_c 18.469280
_cell_angle_alpha 90.000000
_cell_angle_beta 156.698516
_cell_angle_gamma 90.000000
_cell_volume 1781.645260
_symmetry_space_group_name_H-M "P 2/M"
_symmetry_group_IT_number 10
_symmetry_cell_setting 'monoclinic'
loop_
_space_group_symop_operation_xyz
x,y,z
-x,y,-z
-x,-y,-z
x,-y,z
loop_
_atom_site_type_symbol
_atom_site_label
_atom_site_fract_x
_atom_site_fract_y
_atom_site_fract_z
Si Si1 0.469031 0.881954 0.077252
Si Si2 0.852053 0.619368 0.254691
Si Si3 0.855371 0.616842 0.698484
Si Si4 0.741838 0.617116 0.893787
Si Si5 0.207415 0.187323 0.710756
Si Si6 0.414763 0.306779 0.113441
Si Si7 0.291973 0.615453 0.295145
Si Si8 0.208670 0.378822 0.517031
O O1 0.659349 0.831773 0.231264
O O2 0.408000 0.815504 0.089416
O O3 0.502255 0.000000 0.131646
O O4 0.305015 0.878770 0.865888
O O5 0.854904 0.500000 0.284039
O O6 0.788035 0.691326 0.261206
O O7 0.047897 0.663236 0.416201
O O8 0.726199 0.628823 0.066391
O O9 0.777080 0.500000 0.629344
O O10 0.791997 0.674207 0.713447
O O11 0.788943 0.671620 0.561994
O O12 0.066599 0.616674 0.890024
O O13 0.664617 0.500000 0.814082
O O14 0.614578 0.680451 0.828251
O O15 0.749720 0.670407 0.821286
O O16 0.000000 0.151505 0.500000
O O17 0.605971 0.353789 0.270289
O O18 0.500000 0.610625 0.500000
O O19 0.206269 0.500000 0.210320
O O20 0.172366 0.500000 0.473072
#
# Coordination Sequence:
#
# PCOD8057176 Si02
#       8
#     4   4   4   4   4   4   4   4
#     4  10  23  40  56  76  97 118 157 212 258 298
#     4  10  20  33  48  73 107 135 162 193 227 280
#     4   9  16  26  40  62  95 136 172 201 230 267
#     4  10  17  27  43  64  97 135 166 199 237 279
#     4  10  20  37  59  79  99 128 158 192 242 296
#     4  11  20  33  51  70  95 132 169 201 246 293
#     4   9  16  24  36  60  93 132 176 205 226 265
#     4  10  18  29  47  70 101 138 169 197 233 281
#
# _framework density 17.960926000000001
#
# number of rings (size 3 to 8) (size 9 to 14) (size 15 to 20)
#    0.000    2.125    1.250    3.750    0.000    4.750 
#    0.000    6.250    0.000    0.000    0.000    0.000 
#    0.000    6.500    0.000    0.000    0.000    0.250 
#
# Total GULP energy -396510.966260 kJ/mol
# GULP energy per Si atom -12390.967696 kJ/mol
# Density = 1.792005 g / cm^3
# Si number density = 17.960926 Si / 1000 Ang^3
#
#
#
# Elastic Constant Matrix: (Units=GPa)
#
#
# Indices 1 2 3 4 5 6 
#
# 1 68.4020 35.1105 1.2910 0.0000 11.7620 0.0000
# 2 35.1105 61.8801 6.5503 0.0000 13.3728 0.0000
# 3 1.2910 6.5503 92.2804 0.0000 18.6176 0.0000
# 4 0.0000 0.0000 0.0000 11.4781 0.0000 1.0799
# 5 11.7620 13.3728 18.6176 0.0000 18.1737 0.0000
# 6 0.0000 0.0000 0.0000 1.0799 0.0000 10.3849
#
#
#
# Elastic Compliance Matrix: (Units=1/GPa)
#
#
# Indices 1 2 3 4 5 6 
#
# 1 0.021442 -0.010610 0.002115 0.000000 -0.008237 0.000000
# 2 -0.010610 0.024727 0.000856 0.000000 -0.012205 0.000000
# 3 0.002115 0.000856 0.014054 0.000000 -0.016396 0.000000
# 4 0.000000 0.000000 0.000000 0.087983 0.000000 -0.009149
# 5 -0.008237 -0.012205 -0.016396 0.000000 0.086132 0.000000
# 6 0.000000 0.000000 0.000000 -0.009149 0.000000 0.097245
#
#
# Mechanical properties :
#
#
# Convention : Reuss Voigt Hill
#
# Bulk Modulus (GPa) = 22.24978 34.27401 28.26190
# Shear Modulus (GPa) = 13.81812 19.98139 16.89975
#
# Velocity S-wave (km/s) = 2.77671 3.33902 3.07077
# Velocity P-wave (km/s) = 4.76392 5.83004 5.32374
#
# Compressibility (1/GPa) = 0.04494426
#
# Stress axis : x y z
#
# Youngs Moduli (GPa) = 46.63772 40.44112 71.15387
#
# Poissons Ratio (x) = 0.42908 -0.15048
# Poissons Ratio (y) = 0.49482 -0.06088
# Poissons Ratio (z) = -0.09863 -0.03460
#
# Static dielectric constant tensor:
#      x y z
#    x 3.533300 0.000000 0.005830 
#    y 0.000000 2.774180 0.000000 
#    z 0.005830 0.000000 3.445320 
# 
# 
# High freq. dielectric constant tensor:
#      x y z
#    x 1.703230 0.000000 0.002840 
#    y 0.000000 1.612710 0.000000 
#    z 0.002840 0.000000 1.715660 
# 
# From -- ./inp_files/86314.got.cif
#   From: 2010.06.25/outbox.cif.g09.slc.cpg/sg10_44_cif.got.tgz:86314.got - 2010.06.27 22:07:45.
