data_PCOD8057816
_publ_section_title
;
Structure prediction by ZEFSAII (Michael W. Deem and Ramdas Pophale) SiO2 
 PCOD8057816
Probable space group: P 2/M
;
_chemical_formula_sum "Si O2"
_cell_formula_units_Z 26
_cell_length_a 5.214592
_cell_length_b 21.479966
_cell_length_c 15.592808
_cell_angle_alpha 90.000000
_cell_angle_beta 116.731177
_cell_angle_gamma 90.000000
_cell_volume 1559.880605
_symmetry_space_group_name_H-M "P 2/M"
_symmetry_group_IT_number 10
_symmetry_cell_setting 'monoclinic'
loop_
_space_group_symop_operation_xyz
x,y,z
-x,y,-z
-x,-y,-z
x,-y,z
loop_
_atom_site_type_symbol
_atom_site_label
_atom_site_fract_x
_atom_site_fract_y
_atom_site_fract_z
Si Si1 0.835608 0.070518 0.563422
Si Si2 0.000000 0.841859 0.000000
Si Si3 0.324666 0.778895 0.184250
Si Si4 0.224193 0.067793 0.901616
Si Si5 0.654366 0.430755 0.113374
Si Si6 0.102161 0.156654 0.745213
Si Si7 0.843713 0.644040 0.885851
O O1 0.500000 0.080171 0.500000
O O2 0.000000 0.081615 0.500000
O O3 0.936303 0.123908 0.643232
O O4 0.896634 0.000000 0.606719
O O5 0.741361 0.798857 0.925837
O O6 0.024457 0.885463 0.921844
O O7 0.658745 0.794597 0.252890
O O8 0.266052 0.705766 0.178111
O O9 0.124318 0.809748 0.226626
O O10 0.279959 0.100932 0.819227
O O11 0.078214 0.000000 0.865604
O O12 0.500000 0.058279 0.000000
O O13 0.734504 0.500000 0.158698
O O14 0.434589 0.399228 0.146103
O O15 0.940341 0.389693 0.147160
O O16 0.500000 0.436651 0.000000
O O17 0.000000 0.658330 0.000000
#
# Coordination Sequence:
#
# PCOD8057816 Si02
#       7
#     4   2   4   4   4   4   4
#     4  10  21  39  60  78  95 119 161 216 270 316
#     4  10  19  32  42  62  91 132 164 200 228 290
#     4  11  21  32  48  68 100 130 169 195 241 288
#     4  10  19  31  45  64  92 124 158 197 244 289
#     4   9  17  28  43  63  87 120 173 226 253 266
#     4  11  22  35  51  74  96 127 161 207 249 304
#     4  10  18  29  44  64  91 133 170 208 243 280
#
# _framework density 16.667942
#
# number of rings (size 3 to 8) (size 9 to 14) (size 15 to 20)
#    0.000    1.846    2.308    3.000    0.000    1.846 
#    0.000    1.538    0.000    0.000    0.000    0.000 
#    0.000    0.000    0.000    0.000    0.000  193.846 
#
# Total GULP energy -322133.095669 kJ/mol
# GULP energy per Si atom -12389.734449 kJ/mol
# Density = 1.663000 g / cm^3
# Si number density = 16.667942 Si / 1000 Ang^3
#
#
#
# Elastic Constant Matrix: (Units=GPa)
#
#
# Indices 1 2 3 4 5 6 
#
# 1 126.7436 55.0156 30.8313 0.0000 3.3734 0.0000
# 2 55.0156 134.4023 43.2428 0.0000 2.4026 0.0000
# 3 30.8313 43.2428 52.7033 0.0000 2.6374 0.0000
# 4 0.0000 0.0000 0.0000 16.3063 0.0000 5.7540
# 5 3.3734 2.4026 2.6374 0.0000 14.2933 0.0000
# 6 0.0000 0.0000 0.0000 5.7540 0.0000 22.1750
#
#
#
# Elastic Compliance Matrix: (Units=1/GPa)
#
#
# Indices 1 2 3 4 5 6 
#
# 1 0.010044 -0.003014 -0.003340 0.000000 -0.001248 0.000000
# 2 -0.003014 0.011014 -0.007284 0.000000 0.000204 0.000000
# 3 -0.003340 -0.007284 0.027053 0.000000 -0.002979 0.000000
# 4 0.000000 0.000000 0.000000 0.067507 0.000000 -0.017517
# 5 -0.001248 0.000204 -0.002979 0.000000 0.070773 0.000000
# 6 0.000000 0.000000 0.000000 -0.017517 0.000000 0.049641
#
#
# Mechanical properties :
#
#
# Convention : Reuss Voigt Hill
#
# Bulk Modulus (GPa) = 47.99580 63.55874 55.77727
# Shear Modulus (GPa) = 18.50109 22.87222 20.68665
#
# Velocity S-wave (km/s) = 3.33525 3.70838 3.52675
# Velocity P-wave (km/s) = 6.60981 7.52005 7.07958
#
# Compressibility (1/GPa) = 0.02083516
#
# Stress axis : x y z
#
# Youngs Moduli (GPa) = 99.56069 90.79239 36.96389
#
# Poissons Ratio (x) = 0.27369 0.12346
# Poissons Ratio (y) = 0.30013 0.26924
# Poissons Ratio (z) = 0.33253 0.66131
#
# Static dielectric constant tensor:
#      x y z
#    x 3.074480 0.000000 0.047010 
#    y 0.000000 3.356440 0.000000 
#    z 0.047010 0.000000 2.784580 
# 
# 
# High freq. dielectric constant tensor:
#      x y z
#    x 1.650940 0.000000 -0.000630 
#    y 0.000000 1.647830 0.000000 
#    z -0.000630 0.000000 1.586920 
# 
# From -- ./inp_files/59573.got.cif
#   From: 2010.06.25/outbox.cif.g09.slc.cpg/sg10_30_cif.got.tgz:59573.got - 2010.06.27 22:07:45.
