data_PCOD8057393
_publ_section_title
;
Structure prediction by ZEFSAII (Michael W. Deem and Ramdas Pophale) SiO2 
 PCOD8057393
Probable space group: P 2/M
;
_chemical_formula_sum "Si O2"
_cell_formula_units_Z 30
_cell_length_a 9.088427
_cell_length_b 9.170244
_cell_length_c 23.804722
_cell_angle_alpha 90.000000
_cell_angle_beta 55.163853
_cell_angle_gamma 90.000000
_cell_volume 1628.411841
_symmetry_space_group_name_H-M "P 2/M"
_symmetry_group_IT_number 10
_symmetry_cell_setting 'monoclinic'
loop_
_space_group_symop_operation_xyz
x,y,z
-x,y,-z
-x,-y,-z
x,-y,z
loop_
_atom_site_type_symbol
_atom_site_label
_atom_site_fract_x
_atom_site_fract_y
_atom_site_fract_z
Si Si1 0.113702 0.335503 0.919449
Si Si2 0.106723 0.844070 0.117368
Si Si3 0.558113 0.172734 0.106977
Si Si4 0.194571 0.164490 0.430289
Si Si5 0.670085 0.330388 0.498426
Si Si6 0.831106 0.166264 0.770309
Si Si7 0.500000 0.203018 0.000000
Si Si8 0.049271 0.669949 0.361975
O O1 0.177042 0.500000 0.892435
O O2 0.282709 0.229309 0.888538
O O3 0.986244 0.282852 0.897158
O O4 0.000000 0.328422 0.000000
O O5 0.087561 0.798925 0.186412
O O6 0.009768 0.000000 0.127853
O O7 0.315167 0.876617 0.056808
O O8 0.381591 0.194661 0.182491
O O9 0.550317 0.272905 0.050492
O O10 0.584429 0.000000 0.085205
O O11 0.331969 0.243073 0.442545
O O12 0.189422 0.248378 0.372213
O O13 0.000000 0.168939 0.500000
O O14 0.260421 0.000000 0.405290
O O15 0.500000 0.277380 0.500000
O O16 0.657854 0.500000 0.516364
O O17 0.846074 0.295402 0.423819
O O18 0.925168 0.274675 0.706636
O O19 0.871423 0.000000 0.743730
O O20 0.092052 0.500000 0.356147
#
# Coordination Sequence:
#
# PCOD8057393 Si02
#       8
#     4   4   4   4   4   4   2   4
#     4  11  23  35  48  75 109 136 164 209 268 321
#     4  10  19  34  56  77  99 133 177 220 264 313
#     4  10  19  34  56  77  98 129 172 217 261 310
#     4   9  17  30  51  78 106 136 173 219 260 295
#     4   9  18  33  53  80 111 140 176 218 257 307
#     4   9  20  36  55  79 103 131 174 223 263 309
#     4  10  17  30  55  80  95 120 171 224 259 304
#     4  10  19  33  55  78 105 143 177 208 259 318
#
# _framework density 18.422858000000002
#
# number of rings (size 3 to 8) (size 9 to 14) (size 15 to 20)
#    0.000    2.267    1.333    3.200    0.000    4.000 
#    0.000    4.000    0.000    3.200    0.000    0.000 
#    0.000    0.000    0.000    0.000    0.000    0.000 
#
# Total GULP energy -371657.398186 kJ/mol
# GULP energy per Si atom -12388.579940 kJ/mol
# Density = 1.838093 g / cm^3
# Si number density = 18.422858 Si / 1000 Ang^3
#
#
#
# Elastic Constant Matrix: (Units=GPa)
#
#
# Indices 1 2 3 4 5 6 
#
# 1 120.1005 58.3250 36.9435 0.0000 16.6164 0.0000
# 2 58.3250 93.7869 45.8330 0.0000 12.2020 0.0000
# 3 36.9435 45.8330 86.2211 0.0000 20.8187 0.0000
# 4 0.0000 0.0000 0.0000 24.0006 0.0000 1.2117
# 5 16.6164 12.2020 20.8187 0.0000 22.5675 0.0000
# 6 0.0000 0.0000 0.0000 1.2117 0.0000 22.6085
#
#
#
# Elastic Compliance Matrix: (Units=1/GPa)
#
#
# Indices 1 2 3 4 5 6 
#
# 1 0.012521 -0.006895 -0.000481 0.000000 -0.005047 0.000000
# 2 -0.006895 0.018216 -0.007175 0.000000 0.001846 0.000000
# 3 -0.000481 -0.007175 0.018779 0.000000 -0.013090 0.000000
# 4 0.000000 0.000000 0.000000 0.041779 0.000000 -0.002239
# 5 -0.005047 0.001846 -0.013090 0.000000 0.059106 0.000000
# 6 0.000000 0.000000 0.000000 -0.002239 0.000000 0.044351
#
#
# Mechanical properties :
#
#
# Convention : Reuss Voigt Hill
#
# Bulk Modulus (GPa) = 48.98426 64.70130 56.84278
# Shear Modulus (GPa) = 21.67705 24.43577 23.05641
#
# Velocity S-wave (km/s) = 3.43394 3.64591 3.54151
# Velocity P-wave (km/s) = 6.50916 7.27460 6.90250
#
# Compressibility (1/GPa) = 0.02041472
#
# Stress axis : x y z
#
# Youngs Moduli (GPa) = 79.86520 54.89529 53.25124
#
# Poissons Ratio (x) = 0.37850 0.02562
# Poissons Ratio (y) = 0.55067 0.38207
# Poissons Ratio (z) = 0.03842 0.39387
#
# Static dielectric constant tensor:
#      x y z
#    x 3.166700 0.000000 0.143150 
#    y 0.000000 3.290340 0.000000 
#    z 0.143150 0.000000 3.213850 
# 
# 
# High freq. dielectric constant tensor:
#      x y z
#    x 1.715090 0.000000 0.016520 
#    y 0.000000 1.702160 0.000000 
#    z 0.016520 0.000000 1.697510 
# 
# From -- ./inp_files/87827.got.cif
#   From: 2010.06.25/outbox.cif.g09.slc.cpg/sg10_44_cif.got.tgz:87827.got - 2010.06.27 22:07:45.
