data_PCOD8057303
_publ_section_title
;
Structure prediction by ZEFSAII (Michael W. Deem and Ramdas Pophale) SiO2 
 PCOD8057303
Probable space group: P 2/M
;
_chemical_formula_sum "Si O2"
_cell_formula_units_Z 28
_cell_length_a 13.729248
_cell_length_b 8.781395
_cell_length_c 22.233586
_cell_angle_alpha 90.000000
_cell_angle_beta 140.892665
_cell_angle_gamma 90.000000
_cell_volume 1690.808234
_symmetry_space_group_name_H-M "P 2/M"
_symmetry_group_IT_number 10
_symmetry_cell_setting 'monoclinic'
loop_
_space_group_symop_operation_xyz
x,y,z
-x,y,-z
-x,-y,-z
x,-y,z
loop_
_atom_site_type_symbol
_atom_site_label
_atom_site_fract_x
_atom_site_fract_y
_atom_site_fract_z
Si Si1 0.491204 0.819343 0.404905
Si Si2 0.029366 0.669719 0.105526
Si Si3 0.357208 0.679345 0.228472
Si Si4 0.052070 0.330329 0.797483
Si Si5 0.728621 0.319069 0.602921
Si Si6 0.362083 0.821335 0.975356
Si Si7 0.695729 0.321375 0.928580
O O1 0.476069 0.768611 0.328062
O O2 0.348206 0.755772 0.374958
O O3 0.650905 0.749150 0.505983
O O4 0.496783 0.000000 0.412830
O O5 0.036649 0.500000 0.082451
O O6 0.185868 0.750082 0.157822
O O7 0.028324 0.670554 0.176537
O O8 0.870571 0.746327 0.005242
O O9 0.364333 0.500000 0.247279
O O10 0.399205 0.709446 0.178325
O O11 0.109800 0.500000 0.808681
O O12 0.199671 0.220873 0.866043
O O13 0.911749 0.278569 0.686534
O O14 0.703175 0.500000 0.594476
O O15 0.370839 0.000000 0.985952
O O16 0.500000 0.758246 0.000000
O O17 0.386626 0.753495 0.053698
O O18 0.709667 0.500000 0.949799
#
# Coordination Sequence:
#
# PCOD8057303 Si02
#       7
#     4   4   4   4   4   4   4
#     4  11  21  29  41  66  99 131 163 197 232 271
#     4   8  13  25  43  65  90 118 154 191 225 266
#     4  10  17  29  46  65  93 129 163 194 229 273
#     4   9  17  30  51  72  90 120 161 201 236 271
#     4  10  18  32  49  65  89 126 168 202 236 273
#     4  10  21  35  50  70  98 127 151 186 241 295
#     4   9  18  30  48  70  90 120 162 200 231 270
#
# _framework density 16.560127999999999
#
# number of rings (size 3 to 8) (size 9 to 14) (size 15 to 20)
#    0.000    2.429    1.429    4.286    0.000    4.571 
#    0.000    0.000    0.000    2.571    0.000    1.000 
#    0.000    8.000    0.000    0.000    0.000    0.000 
#
# Total GULP energy -347000.059327 kJ/mol
# GULP energy per Si atom -12392.859262 kJ/mol
# Density = 1.652244 g / cm^3
# Si number density = 16.560128 Si / 1000 Ang^3
#
#
#
# Elastic Constant Matrix: (Units=GPa)
#
#
# Indices 1 2 3 4 5 6 
#
# 1 75.4119 30.9195 52.5391 0.0000 0.1549 0.0000
# 2 30.9195 68.9836 41.4277 0.0000 -2.8850 0.0000
# 3 52.5391 41.4277 123.4577 0.0000 -11.3299 0.0000
# 4 0.0000 0.0000 0.0000 16.5242 0.0000 0.1303
# 5 0.1549 -2.8850 -11.3299 0.0000 16.6792 0.0000
# 6 0.0000 0.0000 0.0000 0.1303 0.0000 17.4712
#
#
#
# Elastic Compliance Matrix: (Units=1/GPa)
#
#
# Indices 1 2 3 4 5 6 
#
# 1 0.020661 -0.004880 -0.007732 0.000000 -0.006288 0.000000
# 2 -0.004880 0.019325 -0.004369 0.000000 0.000420 0.000000
# 3 -0.007732 -0.004369 0.013645 0.000000 0.008585 0.000000
# 4 0.000000 0.000000 0.000000 0.060521 0.000000 -0.000452
# 5 -0.006288 0.000420 0.008585 0.000000 0.065917 0.000000
# 6 0.000000 0.000000 0.000000 -0.000452 0.000000 0.057240
#
#
# Mechanical properties :
#
#
# Convention : Reuss Voigt Hill
#
# Bulk Modulus (GPa) = 50.84561 57.51399 54.17980
# Shear Modulus (GPa) = 17.99668 19.66605 18.83136
#
# Velocity S-wave (km/s) = 3.30016 3.44983 3.37582
# Velocity P-wave (km/s) = 6.72991 7.11858 6.92697
#
# Compressibility (1/GPa) = 0.01966738
#
# Stress axis : x y z
#
# Youngs Moduli (GPa) = 48.39961 51.74595 73.28956
#
# Poissons Ratio (x) = 0.25253 0.56669
# Poissons Ratio (y) = 0.23620 0.32023
# Poissons Ratio (z) = 0.37424 0.22610
#
# Static dielectric constant tensor:
#      x y z
#    x 2.842020 0.000000 -0.023420 
#    y 0.000000 2.946210 0.000000 
#    z -0.023420 0.000000 3.317020 
# 
# 
# High freq. dielectric constant tensor:
#      x y z
#    x 1.590940 0.000000 -0.007120 
#    y 0.000000 1.622780 0.000000 
#    z -0.007120 0.000000 1.644570 
# 
# From -- ./inp_files/83407.got.cif
#   From: 2010.06.25/outbox.cif.g09.slc.cpg/sg10_42_cif.got.tgz:83407.got - 2010.06.27 22:07:45.
