data_PCOD8057462
_publ_section_title
;
Structure prediction by ZEFSAII (Michael W. Deem and Ramdas Pophale) SiO2 
 PCOD8057462
Probable space group: P 2/M
;
_chemical_formula_sum "Si O2"
_cell_formula_units_Z 30
_cell_length_a 23.714792
_cell_length_b 15.269520
_cell_length_c 25.887601
_cell_angle_alpha 90.000000
_cell_angle_beta 169.082710
_cell_angle_gamma 90.000000
_cell_volume 1775.405601
_symmetry_space_group_name_H-M "P 2/M"
_symmetry_group_IT_number 10
_symmetry_cell_setting 'monoclinic'
loop_
_space_group_symop_operation_xyz
x,y,z
-x,y,-z
-x,-y,-z
x,-y,z
loop_
_atom_site_type_symbol
_atom_site_label
_atom_site_fract_x
_atom_site_fract_y
_atom_site_fract_z
Si Si1 0.346604 0.604062 0.707985
Si Si2 0.292436 0.095108 0.075469
Si Si3 0.667612 0.602309 0.700566
Si Si4 0.651501 0.319125 0.490906
Si Si5 0.605505 0.875929 0.463303
Si Si6 0.345180 0.705069 0.107121
Si Si7 0.666394 0.396470 0.099853
Si Si8 0.345818 0.000000 0.307493
O O1 0.377552 0.500000 0.726557
O O2 0.499789 0.655521 0.799877
O O3 0.005983 0.635135 0.404400
O O4 0.502146 0.635149 0.900540
O O5 0.941018 0.091713 0.764296
O O6 0.383589 0.000000 0.130152
O O7 0.442630 0.091688 0.265907
O O8 0.380163 0.189088 0.128119
O O9 0.500000 0.644080 0.500000
O O10 0.697441 0.500000 0.718463
O O11 0.487513 0.614626 0.592504
O O12 0.000000 0.644080 0.000000
O O13 0.574650 0.225884 0.444765
O O14 0.503389 0.328638 0.301414
O O15 0.006534 0.328619 0.804578
O O16 0.441410 0.912830 0.364850
O O17 0.653231 0.500000 0.091933
O O18 0.500000 0.355279 0.000000
O O19 0.500000 0.000000 0.500000
O O20 0.000000 0.000000 0.000000
#
# Coordination Sequence:
#
# PCOD8057462 Si02
#       8
#     4   4   4   4   4   4   4   2
#     4  10  19  31  47  72 109 135 158 206 239 268
#     4  10  17  33  53  63  88 121 153 191 229 277
#     4  10  21  36  53  69  86 114 156 202 240 278
#     4  10  21  35  51  68  93 121 155 194 241 300
#     4  10  20  33  47  66  86 115 146 179 231 289
#     4  10  21  32  49  77  96 126 162 190 245 298
#     4   9  17  30  49  71  99 142 179 195 225 273
#     4  12  22  30  44  66  88 108 140 180 227 286
#
# _framework density 16.897546999999999
#
# number of rings (size 3 to 8) (size 9 to 14) (size 15 to 20)
#    0.000    2.000    1.333    2.800    0.000    3.733 
#    0.000    0.000    0.000    0.000    0.000    0.000 
#    0.000    3.200    0.000    0.000    0.000    0.000 
#
# Total GULP energy -371769.703808 kJ/mol
# GULP energy per Si atom -12392.323460 kJ/mol
# Density = 1.685909 g / cm^3
# Si number density = 16.897547 Si / 1000 Ang^3
#
#
#
# Elastic Constant Matrix: (Units=GPa)
#
#
# Indices 1 2 3 4 5 6 
#
# 1 127.5067 39.4729 92.3603 0.0000 8.9256 0.0000
# 2 39.4729 49.0494 31.7706 0.0000 4.3345 0.0000
# 3 92.3603 31.7706 150.1886 0.0000 -22.1752 0.0000
# 4 0.0000 0.0000 0.0000 14.0591 0.0000 1.5183
# 5 8.9256 4.3345 -22.1752 0.0000 27.1879 0.0000
# 6 0.0000 0.0000 0.0000 1.5183 0.0000 16.7585
#
#
#
# Elastic Compliance Matrix: (Units=1/GPa)
#
#
# Indices 1 2 3 4 5 6 
#
# 1 0.021706 -0.006368 -0.014670 0.000000 -0.018076 0.000000
# 2 -0.006368 0.027561 -0.002562 0.000000 -0.004393 0.000000
# 3 -0.014670 -0.002562 0.019320 0.000000 0.020982 0.000000
# 4 0.000000 0.000000 0.000000 0.071831 0.000000 -0.006508
# 5 -0.018076 -0.004393 0.020982 0.000000 0.060530 0.000000
# 6 0.000000 0.000000 0.000000 -0.006508 0.000000 0.060261
#
#
# Mechanical properties :
#
#
# Convention : Reuss Voigt Hill
#
# Bulk Modulus (GPa) = 46.76252 72.66135 59.71194
# Shear Modulus (GPa) = 15.84597 22.47717 19.16157
#
# Velocity S-wave (km/s) = 3.06562 3.65115 3.37112
# Velocity P-wave (km/s) = 6.34547 7.80186 7.11105
#
# Compressibility (1/GPa) = 0.02138465
#
# Stress axis : x y z
#
# Youngs Moduli (GPa) = 46.07047 36.28361 51.76017
#
# Poissons Ratio (x) = 0.23107 0.75932
# Poissons Ratio (y) = 0.29340 0.13263
# Poissons Ratio (z) = 0.67585 0.09297
#
# Static dielectric constant tensor:
#      x y z
#    x 3.058480 0.000000 -0.166490 
#    y 0.000000 3.250630 0.000000 
#    z -0.166490 0.000000 3.351930 
# 
# 
# High freq. dielectric constant tensor:
#      x y z
#    x 1.636820 0.000000 -0.020650 
#    y 0.000000 1.635810 0.000000 
#    z -0.020650 0.000000 1.673250 
# 
# From -- ./inp_files/93931.got.cif
#   From: 2010.06.25/outbox.cif.g09.slc.cpg/sg10_47_cif.got.tgz:93931.got - 2010.06.27 22:07:45.
