data_PCOD8057708
_publ_section_title
;
Structure prediction by ZEFSAII (Michael W. Deem and Ramdas Pophale) SiO2 
 PCOD8057708
Probable space group: P 2/M
;
_chemical_formula_sum "Si O2"
_cell_formula_units_Z 32
_cell_length_a 21.348003
_cell_length_b 9.298092
_cell_length_c 11.683211
_cell_angle_alpha 90.000000
_cell_angle_beta 52.851102
_cell_angle_gamma 90.000000
_cell_volume 1848.456126
_symmetry_space_group_name_H-M "P 2/M"
_symmetry_group_IT_number 10
_symmetry_cell_setting 'monoclinic'
loop_
_space_group_symop_operation_xyz
x,y,z
-x,y,-z
-x,-y,-z
x,-y,z
loop_
_atom_site_type_symbol
_atom_site_label
_atom_site_fract_x
_atom_site_fract_y
_atom_site_fract_z
Si Si1 0.240317 0.330551 0.375776
Si Si2 0.415688 0.330848 0.545040
Si Si3 0.796150 0.334273 0.837913
Si Si4 0.181743 0.841360 0.775516
Si Si5 0.333708 0.837175 0.448802
Si Si6 0.044487 0.833844 0.338875
Si Si7 0.898468 0.166907 0.354638
Si Si8 0.732048 0.666321 0.146284
O O1 0.243992 0.500000 0.399961
O O2 0.247595 0.298828 0.232380
O O3 0.313430 0.250023 0.355318
O O4 0.156814 0.268470 0.508387
O O5 0.500000 0.286163 0.500000
O O6 0.410549 0.500000 0.524203
O O7 0.402626 0.244955 0.441208
O O8 0.351616 0.282579 0.711005
O O9 0.820726 0.500000 0.814813
O O10 0.875277 0.247473 0.769774
O O11 0.736164 0.295471 0.007255
O O12 0.257032 0.837626 0.610934
O O13 0.109514 0.794949 0.772113
O O14 0.194285 0.738135 0.869199
O O15 0.167588 0.000000 0.841646
O O16 0.360467 0.000000 0.389689
O O17 0.000000 0.774058 0.500000
O O18 0.988552 0.808618 0.290849
O O19 0.065396 0.000000 0.334008
O O20 0.873090 0.000000 0.403228
O O21 0.743112 0.500000 0.157044
#
# Coordination Sequence:
#
# PCOD8057708 Si02
#       8
#     4   4   4   4   4   4   4   4
#     4  10  18  28  45  68  93 123 161 198 234 278
#     4   9  17  31  54  80 101 123 155 195 236 280
#     4  10  21  33  46  67  96 129 160 196 240 286
#     4   8  15  28  46  66  89 118 154 194 234 279
#     4   9  17  29  47  72 100 125 154 194 236 278
#     4  10  19  31  48  68  92 124 163 204 244 284
#     4   9  17  30  46  67  93 119 155 204 249 283
#     4   9  18  33  49  68  97 126 155 191 235 286
#
# _framework density 17.311744999999998
#
# number of rings (size 3 to 8) (size 9 to 14) (size 15 to 20)
#    0.000    2.750    1.250    1.500    0.000    5.000 
#    0.000    0.625    0.000    4.500    0.000    5.250 
#    0.000    0.000    0.000    0.000    0.000    0.000 
#
# Total GULP energy -396683.653704 kJ/mol
# GULP energy per Si atom -12396.364178 kJ/mol
# Density = 1.727234 g / cm^3
# Si number density = 17.311745 Si / 1000 Ang^3
#
#
#
# Elastic Constant Matrix: (Units=GPa)
#
#
# Indices 1 2 3 4 5 6 
#
# 1 146.2838 61.5734 49.4351 0.0000 14.2299 0.0000
# 2 61.5734 75.0535 37.2578 0.0000 10.8104 0.0000
# 3 49.4351 37.2578 65.3708 0.0000 14.3013 0.0000
# 4 0.0000 0.0000 0.0000 15.6608 0.0000 3.1415
# 5 14.2299 10.8104 14.3013 0.0000 23.4013 0.0000
# 6 0.0000 0.0000 0.0000 3.1415 0.0000 30.2410
#
#
#
# Elastic Compliance Matrix: (Units=1/GPa)
#
#
# Indices 1 2 3 4 5 6 
#
# 1 0.011361 -0.007001 -0.004384 0.000000 -0.000995 0.000000
# 2 -0.007001 0.023017 -0.007421 0.000000 -0.001840 0.000000
# 3 -0.004384 -0.007421 0.024828 0.000000 -0.009080 0.000000
# 4 0.000000 0.000000 0.000000 0.065213 0.000000 -0.006774
# 5 -0.000995 -0.001840 -0.009080 0.000000 0.049737 0.000000
# 6 0.000000 0.000000 0.000000 -0.006774 0.000000 0.033771
#
#
# Mechanical properties :
#
#
# Convention : Reuss Voigt Hill
#
# Bulk Modulus (GPa) = 46.30856 64.80452 55.55654
# Shear Modulus (GPa) = 19.78343 23.09008 21.43675
#
# Velocity S-wave (km/s) = 3.38416 3.65606 3.52273
# Velocity P-wave (km/s) = 6.48675 7.43892 6.97909
#
# Compressibility (1/GPa) = 0.02159428
#
# Stress axis : x y z
#
# Youngs Moduli (GPa) = 88.01925 43.44694 40.27656
#
# Poissons Ratio (x) = 0.30418 0.17655
# Poissons Ratio (y) = 0.61624 0.29890
# Poissons Ratio (z) = 0.38584 0.32243
#
# Static dielectric constant tensor:
#      x y z
#    x 3.473920 0.000000 0.261970 
#    y 0.000000 3.298790 0.000000 
#    z 0.261970 0.000000 3.003570 
# 
# 
# High freq. dielectric constant tensor:
#      x y z
#    x 1.674250 0.000000 0.022640 
#    y 0.000000 1.670010 0.000000 
#    z 0.022640 0.000000 1.626890 
# 
# From -- ./inp_files/55291.got.cif
#   From: 2010.06.25/outbox.cif.g09.slc.cpg/sg10_28_cif.got.tgz:55291.got - 2010.06.27 22:07:45.
