data_PCOD8057410
_publ_section_title
;
Structure prediction by ZEFSAII (Michael W. Deem and Ramdas Pophale) SiO2 
 PCOD8057410
Probable space group: P 2/M
;
_chemical_formula_sum "Si O2"
_cell_formula_units_Z 32
_cell_length_a 8.995482
_cell_length_b 13.091667
_cell_length_c 21.916036
_cell_angle_alpha 90.000000
_cell_angle_beta 135.148983
_cell_angle_gamma 90.000000
_cell_volume 1820.263175
_symmetry_space_group_name_H-M "P 2/M"
_symmetry_group_IT_number 10
_symmetry_cell_setting 'monoclinic'
loop_
_space_group_symop_operation_xyz
x,y,z
-x,y,-z
-x,-y,-z
x,-y,z
loop_
_atom_site_type_symbol
_atom_site_label
_atom_site_fract_x
_atom_site_fract_y
_atom_site_fract_z
Si Si1 0.099081 0.189123 0.966662
Si Si2 0.556677 0.618208 0.195789
Si Si3 0.219903 0.295327 0.295751
Si Si4 0.603258 0.386314 0.463844
Si Si5 0.449056 0.761089 0.917858
Si Si6 0.986332 0.381001 0.645163
Si Si7 0.136216 0.381167 0.142093
Si Si8 0.971772 0.116015 0.182144
O O1 0.009830 0.120742 0.885749
O O2 0.046120 0.309899 0.939708
O O3 0.349659 0.173342 0.045158
O O4 0.000000 0.147837 0.000000
O O5 0.533178 0.500000 0.174989
O O6 0.584070 0.668927 0.138019
O O7 0.355744 0.656564 0.175484
O O8 0.767786 0.640993 0.297059
O O9 0.469776 0.311073 0.381278
O O10 0.080042 0.324564 0.312740
O O11 0.147896 0.364959 0.217969
O O12 0.171936 0.176518 0.268090
O O13 0.500000 0.390282 0.500000
O O14 0.600781 0.500000 0.433592
O O15 0.843889 0.346409 0.545065
O O16 0.246360 0.833832 0.859141
O O17 0.500000 0.716393 0.000000
O O18 0.941091 0.500000 0.643233
O O19 0.085929 0.500000 0.113469
O O20 0.982857 0.000000 0.208281
#
# Coordination Sequence:
#
# PCOD8057410 Si02
#       8
#     4   4   4   4   4   4   4   4
#     4  10  20  34  53  71  98 127 165 201 239 301
#     4  10  19  31  47  72 105 136 163 193 233 285
#     4  10  17  31  52  71  96 130 164 199 239 297
#     4   8  14  25  46  76 104 129 161 193 227 280
#     4  10  20  35  50  69  95 128 164 207 246 292
#     4   9  16  28  49  76 103 135 167 192 226 284
#     4  10  20  31  47  72 107 138 157 191 240 289
#     4  10  22  37  53  72  93 122 161 215 266 289
#
# _framework density 17.579875999999999
#
# number of rings (size 3 to 8) (size 9 to 14) (size 15 to 20)
#    0.000    2.375    2.500    1.875    0.000    3.500 
#    0.000    0.625    0.000    6.375    0.000    0.000 
#    0.000    4.000    0.000    0.000    0.000    0.000 
#
# Total GULP energy -396623.829979 kJ/mol
# GULP energy per Si atom -12394.494687 kJ/mol
# Density = 1.753986 g / cm^3
# Si number density = 17.579876 Si / 1000 Ang^3
#
#
#
# Elastic Constant Matrix: (Units=GPa)
#
#
# Indices 1 2 3 4 5 6 
#
# 1 69.6908 21.8459 25.6838 0.0000 3.6568 0.0000
# 2 21.8459 76.2172 36.2611 0.0000 7.1754 0.0000
# 3 25.6838 36.2611 90.3042 0.0000 14.4859 0.0000
# 4 0.0000 0.0000 0.0000 13.5931 0.0000 0.8770
# 5 3.6568 7.1754 14.4859 0.0000 21.4673 0.0000
# 6 0.0000 0.0000 0.0000 0.8770 0.0000 12.2622
#
#
#
# Elastic Compliance Matrix: (Units=1/GPa)
#
#
# Indices 1 2 3 4 5 6 
#
# 1 0.016611 -0.003121 -0.003571 0.000000 0.000623 0.000000
# 2 -0.003121 0.016831 -0.005667 0.000000 -0.001270 0.000000
# 3 -0.003571 -0.005667 0.015658 0.000000 -0.008064 0.000000
# 4 0.000000 0.000000 0.000000 0.073908 0.000000 -0.005286
# 5 0.000623 -0.001270 -0.008064 0.000000 0.052342 0.000000
# 6 0.000000 0.000000 0.000000 -0.005286 0.000000 0.081929
#
#
# Mechanical properties :
#
#
# Convention : Reuss Voigt Hill
#
# Bulk Modulus (GPa) = 41.01387 44.86598 42.93993
# Shear Modulus (GPa) = 17.23402 19.62595 18.42999
#
# Velocity S-wave (km/s) = 3.13441 3.34486 3.24135
# Velocity P-wave (km/s) = 6.03987 6.36350 6.20380
#
# Compressibility (1/GPa) = 0.02438199
#
# Stress axis : x y z
#
# Youngs Moduli (GPa) = 60.20188 59.41584 63.86348
#
# Poissons Ratio (x) = 0.18542 0.22807
# Poissons Ratio (y) = 0.18787 0.36191
# Poissons Ratio (z) = 0.21500 0.33670
#
# Static dielectric constant tensor:
#      x y z
#    x 3.401100 0.000000 0.277660 
#    y 0.000000 2.899460 0.000000 
#    z 0.277660 0.000000 3.635640 
# 
# 
# High freq. dielectric constant tensor:
#      x y z
#    x 1.677340 0.000000 0.010450 
#    y 0.000000 1.635390 0.000000 
#    z 0.010450 0.000000 1.682980 
# 
# From -- ./inp_files/34637.got.cif
#   From: 2010.06.25/outbox.cif.g09.slc.cpg/sg10_18_cif.got.tgz:34637.got - 2010.06.27 22:07:45.
