data_PCOD8057537
_publ_section_title
;
Structure prediction by ZEFSAII (Michael W. Deem and Ramdas Pophale) SiO2 
 PCOD8057537
Probable space group: P 2/M
;
_chemical_formula_sum "Si O2"
_cell_formula_units_Z 28
_cell_length_a 5.314745
_cell_length_b 15.412804
_cell_length_c 18.846887
_cell_angle_alpha 90.000000
_cell_angle_beta 73.907092
_cell_angle_gamma 90.000000
_cell_volume 1483.347139
_symmetry_space_group_name_H-M "P 2/M"
_symmetry_group_IT_number 10
_symmetry_cell_setting 'monoclinic'
loop_
_space_group_symop_operation_xyz
x,y,z
-x,y,-z
-x,-y,-z
x,-y,z
loop_
_atom_site_type_symbol
_atom_site_label
_atom_site_fract_x
_atom_site_fract_y
_atom_site_fract_z
Si Si1 0.601738 0.135374 0.674105
Si Si2 0.038907 0.599427 0.740293
Si Si3 0.431504 0.325583 0.290021
Si Si4 0.385805 0.316531 0.883599
Si Si5 0.297484 0.000000 0.451782
Si Si6 0.701811 0.500000 0.048530
Si Si7 0.011205 0.903247 0.764128
Si Si8 0.901997 0.742939 0.867477
O O1 0.613476 0.238739 0.660720
O O2 0.651237 0.087151 0.596659
O O3 0.316098 0.110121 0.724605
O O4 0.833666 0.107916 0.708714
O O5 0.008561 0.500000 0.767246
O O6 0.337387 0.617836 0.691973
O O7 0.838173 0.619410 0.691485
O O8 0.976192 0.662321 0.810541
O O9 0.510058 0.297492 0.203995
O O10 0.352473 0.418234 0.897695
O O11 0.606426 0.275063 0.918508
O O12 0.110216 0.265503 0.915809
O O13 0.500000 0.000000 0.500000
O O14 0.000000 0.000000 0.500000
O O15 0.500000 0.500000 0.000000
O O16 0.000000 0.500000 0.000000
O O17 0.917518 0.836468 0.830898
O O18 0.971198 0.000000 0.797463
#
# Coordination Sequence:
#
# PCOD8057537 Si02
#       8
#     4   4   4   4   2   2   4   4
#     4  12  20  37  54  77 116 149 194 251 274 360
#     4  10  18  26  45  72 113 135 173 217 283 370
#     4  10  19  32  50  78 102 146 185 235 310 317
#     4  10  20  34  53  72 112 144 194 242 267 349
#     4  12  26  40  56  84 118 170 208 224 284 366
#     4  12  26  40  54  82 122 176 210 220 280 354
#     4  12  19  33  53  82 111 155 177 238 316 357
#     4  10  19  31  48  80 106 140 191 223 305 351
#
# _framework density 18.876228999999999
#
# number of rings (size 3 to 8) (size 9 to 14) (size 15 to 20)
#    0.000    1.143    7.143    2.143    8.000    0.000 
#    0.000    0.000    0.000    0.000    0.000    0.000 
#    0.000   22.857    0.000    0.000    0.000    0.000 
#
# Total GULP energy -347035.236286 kJ/mol
# GULP energy per Si atom -12394.115582 kJ/mol
# Density = 1.883327 g / cm^3
# Si number density = 18.876229 Si / 1000 Ang^3
#
#
#
# Elastic Constant Matrix: (Units=GPa)
#
#
# Indices 1 2 3 4 5 6 
#
# 1 169.9455 27.4748 3.4346 0.0000 -17.9349 0.0000
# 2 27.4748 138.9633 15.5940 0.0000 -8.2135 0.0000
# 3 3.4346 15.5940 26.4122 0.0000 -7.5652 0.0000
# 4 0.0000 0.0000 0.0000 13.6396 0.0000 5.7582
# 5 -17.9349 -8.2135 -7.5652 0.0000 16.5317 0.0000
# 6 0.0000 0.0000 0.0000 5.7582 0.0000 13.6621
#
#
#
# Elastic Compliance Matrix: (Units=1/GPa)
#
#
# Indices 1 2 3 4 5 6 
#
# 1 0.006846 -0.001118 0.002000 0.000000 0.007787 0.000000
# 2 -0.001118 0.007948 -0.004331 0.000000 0.000754 0.000000
# 3 0.002000 -0.004331 0.046222 0.000000 0.021170 0.000000
# 4 0.000000 0.000000 0.000000 0.089185 0.000000 -0.037589
# 5 0.007787 0.000754 0.021170 0.000000 0.079001 0.000000
# 6 0.000000 0.000000 0.000000 -0.037589 0.000000 0.089038
#
#
# Mechanical properties :
#
#
# Convention : Reuss Voigt Hill
#
# Bulk Modulus (GPa) = 18.47782 47.59195 33.03489
# Shear Modulus (GPa) = 14.56975 28.02118 21.29547
#
# Velocity S-wave (km/s) = 2.78125 3.85706 3.36246
# Velocity P-wave (km/s) = 4.48597 6.71590 5.71083
#
# Compressibility (1/GPa) = 0.05411893
#
# Stress axis : x y z
#
# Youngs Moduli (GPa) = 146.06299 125.82207 21.63467
#
# Poissons Ratio (x) = 0.14064 -0.04327
# Poissons Ratio (y) = 0.16327 0.09370
# Poissons Ratio (z) = -0.29216 0.54494
#
# Static dielectric constant tensor:
#      x y z
#    x 5.630340 0.000000 -0.199790 
#    y 0.000000 3.807720 0.000000 
#    z -0.199790 0.000000 2.819410 
# 
# 
# High freq. dielectric constant tensor:
#      x y z
#    x 1.783930 0.000000 -0.010420 
#    y 0.000000 1.738070 0.000000 
#    z -0.010420 0.000000 1.649270 
# 
# From -- ./inp_files/73498.got.cif
#   From: 2010.06.25/outbox.cif.g09.slc.cpg/sg10_37_cif.got.tgz:73498.got - 2010.06.27 22:07:45.
