data_PCOD8057815
_publ_section_title
;
Structure prediction by ZEFSAII (Michael W. Deem and Ramdas Pophale) SiO2 
 PCOD8057815
Probable space group: P 2/M
;
_chemical_formula_sum "Si O2"
_cell_formula_units_Z 32
_cell_length_a 14.483602
_cell_length_b 9.162362
_cell_length_c 20.435127
_cell_angle_alpha 90.000000
_cell_angle_beta 137.296794
_cell_angle_gamma 90.000000
_cell_volume 1839.160631
_symmetry_space_group_name_H-M "P 2/M"
_symmetry_group_IT_number 10
_symmetry_cell_setting 'monoclinic'
loop_
_space_group_symop_operation_xyz
x,y,z
-x,y,-z
-x,-y,-z
x,-y,z
loop_
_atom_site_type_symbol
_atom_site_label
_atom_site_fract_x
_atom_site_fract_y
_atom_site_fract_z
Si Si1 0.841460 0.338322 0.958178
Si Si2 0.798792 0.163240 0.815229
Si Si3 0.619272 0.172888 0.512761
Si Si4 0.474821 0.337062 0.177178
Si Si5 0.841724 0.330170 0.704641
Si Si6 0.517102 0.162035 0.319797
Si Si7 0.138088 0.330632 0.888144
Si Si8 0.410237 0.168844 0.016936
O O1 0.896808 0.500000 0.972599
O O2 0.885507 0.239637 0.918896
O O3 0.680167 0.341719 0.881711
O O4 0.901195 0.278030 0.058249
O O5 0.802005 0.257595 0.751974
O O6 0.644079 0.153795 0.757219
O O7 0.856202 0.000000 0.832692
O O8 0.500000 0.222502 0.500000
O O9 0.759374 0.253291 0.603731
O O10 0.582014 0.224608 0.420343
O O11 0.640780 0.000000 0.528844
O O12 0.532317 0.500000 0.195646
O O13 0.560012 0.262166 0.280446
O O14 0.488340 0.246261 0.117324
O O15 0.803651 0.500000 0.688609
O O16 0.003138 0.309079 0.774102
O O17 0.574455 0.000000 0.336377
O O18 0.184556 0.500000 0.915377
O O19 0.262158 0.237008 0.924550
O O20 0.390650 0.000000 0.024742
O O21 0.500000 0.191756 0.000000
#
# Coordination Sequence:
#
# PCOD8057815 Si02
#       8
#     4   4   4   4   4   4   4   4
#     4   8  15  29  45  62  88 124 163 201 238 280
#     4  10  18  29  44  64  90 126 168 207 247 288
#     4  10  19  34  50  68  94 129 175 218 255 293
#     4   9  17  29  48  74 102 130 161 196 240 294
#     4  11  22  33  46  67  95 128 168 211 251 289
#     4   9  17  30  48  67  95 131 168 213 252 285
#     4   9  20  36  50  68  97 130 162 198 242 295
#     4  10  20  34  55  82 106 127 156 194 238 294
#
# _framework density 17.399242000000001
#
# number of rings (size 3 to 8) (size 9 to 14) (size 15 to 20)
#    0.000    2.500    1.250    2.250    0.000    6.750 
#    0.000    2.500    0.000    0.000    0.000    0.875 
#    0.000    7.000    0.000    0.000    0.000    0.000 
#
# Total GULP energy -396729.886694 kJ/mol
# GULP energy per Si atom -12397.808959 kJ/mol
# Density = 1.735964 g / cm^3
# Si number density = 17.399242 Si / 1000 Ang^3
#
#
#
# Elastic Constant Matrix: (Units=GPa)
#
#
# Indices 1 2 3 4 5 6 
#
# 1 61.2219 40.3307 30.9791 0.0000 -11.5504 0.0000
# 2 40.3307 101.3577 53.1367 0.0000 -12.4685 0.0000
# 3 30.9791 53.1367 118.0215 0.0000 -16.9469 0.0000
# 4 0.0000 0.0000 0.0000 27.7728 0.0000 -8.9316
# 5 -11.5504 -12.4685 -16.9469 0.0000 18.6761 0.0000
# 6 0.0000 0.0000 0.0000 -8.9316 0.0000 3.6019
#
#
#
# Elastic Compliance Matrix: (Units=1/GPa)
#
#
# Indices 1 2 3 4 5 6 
#
# 1 0.023677 -0.007561 -0.001648 0.000000 0.008100 0.000000
# 2 -0.007561 0.015574 -0.004836 0.000000 0.001333 0.000000
# 3 -0.001648 -0.004836 0.012042 0.000000 0.006680 0.000000
# 4 0.000000 0.000000 0.000000 0.177770 0.000000 0.440811
# 5 0.008100 0.001333 0.006680 0.000000 0.065505 0.000000
# 6 0.000000 0.000000 0.000000 0.440811 0.000000 1.370696
#
#
# Mechanical properties :
#
#
# Convention : Reuss Voigt Hill
#
# Bulk Modulus (GPa) = 43.09602 58.83267 50.96435
# Shear Modulus (GPa) = 2.93930 20.42046 11.67988
#
# Velocity S-wave (km/s) = 1.30115 3.42956 2.59373
# Velocity P-wave (km/s) = 5.20384 7.04055 6.19069
#
# Compressibility (1/GPa) = 0.02320400
#
# Stress axis : x y z
#
# Youngs Moduli (GPa) = 42.23544 64.21104 83.04429
#
# Poissons Ratio (x) = 0.48549 0.13682
# Poissons Ratio (y) = 0.31934 0.40157
# Poissons Ratio (z) = 0.06959 0.31050
#
# Static dielectric constant tensor:
#      x y z
#    x 2.841740 0.000000 -0.152880 
#    y 0.000000 3.478940 0.000000 
#    z -0.152880 0.000000 3.416320 
# 
# 
# High freq. dielectric constant tensor:
#      x y z
#    x 1.627820 0.000000 -0.013430 
#    y 0.000000 1.681340 0.000000 
#    z -0.013430 0.000000 1.669140 
# 
# From -- ./inp_files/84764.got.cif
#   From: 2010.06.25/outbox.cif.g09.slc.cpg/sg10_43_cif.got.tgz:84764.got - 2010.06.27 22:07:45.
