data_PCOD8057577
_publ_section_title
;
Structure prediction by ZEFSAII (Michael W. Deem and Ramdas Pophale) SiO2 
 PCOD8057577
Probable space group: P 2/M
;
_chemical_formula_sum "Si O2"
_cell_formula_units_Z 32
_cell_length_a 31.105066
_cell_length_b 9.026320
_cell_length_c 20.092694
_cell_angle_alpha 90.000000
_cell_angle_beta 19.478517
_cell_angle_gamma 90.000000
_cell_volume 1881.114212
_symmetry_space_group_name_H-M "P 2/M"
_symmetry_group_IT_number 10
_symmetry_cell_setting 'monoclinic'
loop_
_space_group_symop_operation_xyz
x,y,z
-x,y,-z
-x,-y,-z
x,-y,z
loop_
_atom_site_type_symbol
_atom_site_label
_atom_site_fract_x
_atom_site_fract_y
_atom_site_fract_z
Si Si1 0.091067 0.174251 0.807410
Si Si2 0.058350 0.328623 0.085253
Si Si3 0.391120 0.670625 0.882805
Si Si4 0.891489 0.671435 0.704916
Si Si5 0.339342 0.666957 0.640764
Si Si6 0.154659 0.327920 0.081326
Si Si7 0.659480 0.336189 0.518695
Si Si8 0.409867 0.174128 0.717880
O O1 0.239516 0.217660 0.601796
O O2 0.080570 0.000000 0.820002
O O3 0.000000 0.237090 0.000000
O O4 0.049008 0.237591 0.797535
O O5 0.043964 0.500000 0.085903
O O6 0.198743 0.266506 0.860577
O O7 0.044588 0.305643 0.185334
O O8 0.399931 0.500000 0.843174
O O9 0.511061 0.698475 0.759271
O O10 0.399084 0.786065 0.811183
O O11 0.250089 0.694083 0.122162
O O12 0.928002 0.500000 0.658017
O O13 0.893259 0.738130 0.777812
O O14 0.000000 0.749787 0.500000
O O15 0.348785 0.500000 0.655170
O O16 0.355239 0.670131 0.538665
O O17 0.452000 0.765125 0.510883
O O18 0.189316 0.500000 0.039349
O O19 0.286181 0.249641 0.862925
O O20 0.704351 0.500000 0.476652
O O21 0.405682 0.000000 0.712397
#
# Coordination Sequence:
#
# PCOD8057577 Si02
#       8
#     4   4   4   4   4   4   4   4
#     4  11  22  32  44  65  91 117 150 197 242 273
#     4  10  20  33  48  62  82 119 161 195 224 264
#     4   8  15  28  45  68  94 120 152 185 219 266
#     4   8  13  25  49  77 100 118 139 176 227 276
#     4   9  17  29  44  61  82 115 157 194 225 257
#     4   9  18  32  47  65  90 119 153 186 219 268
#     4   9  16  28  46  63  85 118 157 195 223 261
#     4  10  18  27  42  62  88 121 152 185 226 265
#
# _framework density 17.011195000000001
#
# number of rings (size 3 to 8) (size 9 to 14) (size 15 to 20)
#    0.000    2.750    1.250    3.000    0.000    4.000 
#    0.000    2.500    0.000    6.000    0.000    0.875 
#    0.000    7.000    0.000    0.000    0.000    0.000 
#
# Total GULP energy -396489.402508 kJ/mol
# GULP energy per Si atom -12390.293828 kJ/mol
# Density = 1.697248 g / cm^3
# Si number density = 17.011195 Si / 1000 Ang^3
#
#
#
# Elastic Constant Matrix: (Units=GPa)
#
#
# Indices 1 2 3 4 5 6 
#
# 1 66.1464 20.4732 39.4276 0.0000 -19.9673 0.0000
# 2 20.4732 53.1286 14.3060 0.0000 -14.1910 0.0000
# 3 39.4276 14.3060 94.9041 0.0000 -12.5804 0.0000
# 4 0.0000 0.0000 0.0000 9.9400 0.0000 -3.8111
# 5 -19.9673 -14.1910 -12.5804 0.0000 25.5320 0.0000
# 6 0.0000 0.0000 0.0000 -3.8111 0.0000 13.3791
#
#
#
# Elastic Compliance Matrix: (Units=1/GPa)
#
#
# Indices 1 2 3 4 5 6 
#
# 1 0.025263 -0.003925 -0.008103 0.000000 0.013583 0.000000
# 2 -0.003925 0.023012 -0.000588 0.000000 0.009431 0.000000
# 3 -0.008103 -0.000588 0.014025 0.000000 0.000246 0.000000
# 4 0.000000 0.000000 0.000000 0.112938 0.000000 0.032171
# 5 0.013583 0.009431 0.000246 0.000000 0.055152 0.000000
# 6 0.000000 0.000000 0.000000 0.032171 0.000000 0.083907
#
#
# Mechanical properties :
#
#
# Convention : Reuss Voigt Hill
#
# Bulk Modulus (GPa) = 26.97812 40.28808 33.63310
# Shear Modulus (GPa) = 14.20913 19.10171 16.65542
#
# Velocity S-wave (km/s) = 2.89326 3.35459 3.13243
# Velocity P-wave (km/s) = 5.20142 6.22407 5.73558
#
# Compressibility (1/GPa) = 0.03706707
#
# Stress axis : x y z
#
# Youngs Moduli (GPa) = 39.58347 43.45505 71.30251
#
# Poissons Ratio (x) = 0.17057 0.57778
# Poissons Ratio (y) = 0.15537 0.04193
# Poissons Ratio (z) = 0.32076 0.02555
#
# Static dielectric constant tensor:
#      x y z
#    x 3.060790 0.000000 -0.118440 
#    y 0.000000 2.916980 0.000000 
#    z -0.118440 0.000000 3.417740 
# 
# 
# High freq. dielectric constant tensor:
#      x y z
#    x 1.627610 0.000000 -0.023170 
#    y 0.000000 1.632300 0.000000 
#    z -0.023170 0.000000 1.642670 
# 
# From -- ./inp_files/52711.got.cif
#   From: 2010.06.25/outbox.cif.g09.slc.cpg/sg10_27_cif.got.tgz:52711.got - 2010.06.27 22:07:45.
