data_PCOD8057670
_publ_section_title
;
Structure prediction by ZEFSAII (Michael W. Deem and Ramdas Pophale) SiO2 
 PCOD8057670
Probable space group: P 2/M
;
_chemical_formula_sum "Si O2"
_cell_formula_units_Z 32
_cell_length_a 21.231192
_cell_length_b 9.506697
_cell_length_c 15.431767
_cell_angle_alpha 90.000000
_cell_angle_beta 33.999392
_cell_angle_gamma 90.000000
_cell_volume 1741.704629
_symmetry_space_group_name_H-M "P 2/M"
_symmetry_group_IT_number 10
_symmetry_cell_setting 'monoclinic'
loop_
_space_group_symop_operation_xyz
x,y,z
-x,y,-z
-x,-y,-z
x,-y,z
loop_
_atom_site_type_symbol
_atom_site_label
_atom_site_fract_x
_atom_site_fract_y
_atom_site_fract_z
Si Si1 0.599704 0.660259 0.078691
Si Si2 0.676805 0.842048 0.837646
Si Si3 0.884408 0.663940 0.389262
Si Si4 0.934419 0.841314 0.491804
Si Si5 0.900451 0.332489 0.175414
Si Si6 0.429054 0.333444 0.700059
Si Si7 0.666839 0.667246 0.367815
Si Si8 0.363518 0.657605 0.270015
O O1 0.640923 0.500000 0.016628
O O2 0.624325 0.714324 0.147890
O O3 0.465069 0.670444 0.221329
O O4 0.667679 0.762601 0.938817
O O5 0.804737 0.841077 0.663274
O O6 0.607257 0.760893 0.842856
O O7 0.629654 0.000000 0.900500
O O8 0.910687 0.500000 0.373080
O O9 0.954558 0.748315 0.382535
O O10 0.921803 0.714603 0.250693
O O11 0.751187 0.696060 0.549277
O O12 0.000000 0.777266 0.500000
O O13 0.977302 0.000000 0.424074
O O14 0.896265 0.500000 0.176151
O O15 0.781482 0.268916 0.277292
O O16 0.000000 0.274433 0.000000
O O17 0.441875 0.500000 0.683930
O O18 0.344963 0.285354 0.719432
O O19 0.556060 0.272976 0.543148
O O20 0.672194 0.500000 0.368970
O O21 0.354855 0.500000 0.241240
#
# Coordination Sequence:
#
# PCOD8057670 Si02
#       8
#     4   4   4   4   4   4   4   4
#     4  10  18  28  43  68  97 123 151 185 230 275
#     4  10  20  32  46  66  91 118 152 192 233 278
#     4   9  17  30  49  74  97 122 159 196 232 276
#     4   9  19  37  55  67  86 123 164 197 233 282
#     4   9  16  26  41  65  98 127 149 185 240 287
#     4   8  14  24  40  62  86 118 157 190 219 262
#     4   8  13  24  41  60  87 121 156 189 221 266
#     4   9  17  29  46  65  92 126 156 187 225 271
#
# _framework density 18.372805
#
# number of rings (size 3 to 8) (size 9 to 14) (size 15 to 20)
#    0.000    3.000    0.000    2.250    0.000    5.750 
#    2.250    0.000    0.000    0.375    0.000    2.625 
#    0.000    0.000    0.000    0.000    0.000    0.000 
#
# Total GULP energy -396631.022281 kJ/mol
# GULP energy per Si atom -12394.719446 kJ/mol
# Density = 1.833099 g / cm^3
# Si number density = 18.372805 Si / 1000 Ang^3
#
#
#
# Elastic Constant Matrix: (Units=GPa)
#
#
# Indices 1 2 3 4 5 6 
#
# 1 120.0751 33.6732 42.5626 0.0000 26.8915 0.0000
# 2 33.6732 57.3149 30.8996 0.0000 19.2955 0.0000
# 3 42.5626 30.8996 75.5851 0.0000 31.1972 0.0000
# 4 0.0000 0.0000 0.0000 9.0874 0.0000 -4.1131
# 5 26.8915 19.2955 31.1972 0.0000 36.3345 0.0000
# 6 0.0000 0.0000 0.0000 -4.1131 0.0000 10.1761
#
#
#
# Elastic Compliance Matrix: (Units=1/GPa)
#
#
# Indices 1 2 3 4 5 6 
#
# 1 0.011359 -0.003624 -0.003468 0.000000 -0.003504 0.000000
# 2 -0.003624 0.024489 -0.005746 0.000000 -0.005389 0.000000
# 3 -0.003468 -0.005746 0.023564 0.000000 -0.014614 0.000000
# 4 0.000000 0.000000 0.000000 0.134682 0.000000 0.054437
# 5 -0.003504 -0.005389 -0.014614 0.000000 0.045525 0.000000
# 6 0.000000 0.000000 0.000000 0.054437 0.000000 0.120272
#
#
# Mechanical properties :
#
#
# Convention : Reuss Voigt Hill
#
# Bulk Modulus (GPa) = 29.64322 51.91620 40.77971
# Shear Modulus (GPa) = 12.60044 20.84224 16.72134
#
# Velocity S-wave (km/s) = 2.62166 3.37175 3.02008
# Velocity P-wave (km/s) = 5.03323 6.59369 5.86558
#
# Compressibility (1/GPa) = 0.03373453
#
# Stress axis : x y z
#
# Youngs Moduli (GPa) = 88.03948 40.83528 42.43759
#
# Poissons Ratio (x) = 0.14797 0.14719
# Poissons Ratio (y) = 0.31903 0.24386
# Poissons Ratio (z) = 0.30535 0.23465
#
# Static dielectric constant tensor:
#      x y z
#    x 3.603580 0.000000 0.188390 
#    y 0.000000 3.120130 0.000000 
#    z 0.188390 0.000000 3.394310 
# 
# 
# High freq. dielectric constant tensor:
#      x y z
#    x 1.717360 0.000000 0.011780 
#    y 0.000000 1.658690 0.000000 
#    z 0.011780 0.000000 1.704580 
# 
# From -- ./inp_files/69957.got.cif
#   From: 2010.06.25/outbox.cif.g09.slc.cpg/sg10_35_cif.got.tgz:69957.got - 2010.06.27 22:07:45.
