data_PCOD8057364
_publ_section_title
;
Structure prediction by ZEFSAII (Michael W. Deem and Ramdas Pophale) SiO2 
 PCOD8057364
Probable space group: P 2/M
;
_chemical_formula_sum "Si O2"
_cell_formula_units_Z 32
_cell_length_a 16.993108
_cell_length_b 8.396472
_cell_length_c 16.942567
_cell_angle_alpha 90.000000
_cell_angle_beta 50.623611
_cell_angle_gamma 90.000000
_cell_volume 1868.639822
_symmetry_space_group_name_H-M "P 2/M"
_symmetry_group_IT_number 10
_symmetry_cell_setting 'monoclinic'
loop_
_space_group_symop_operation_xyz
x,y,z
-x,y,-z
-x,-y,-z
x,-y,z
loop_
_atom_site_type_symbol
_atom_site_label
_atom_site_fract_x
_atom_site_fract_y
_atom_site_fract_z
Si Si1 0.399862 0.187833 0.019961
Si Si2 0.529710 0.188009 0.190530
Si Si3 0.184190 0.817144 0.549008
Si Si4 0.688834 0.682297 0.663475
Si Si5 0.780713 0.814031 0.756701
Si Si6 0.346638 0.810764 0.561818
Si Si7 0.550072 0.811128 0.351173
Si Si8 0.987738 0.315328 0.598054
O O1 0.294610 0.248051 0.126105
O O2 0.405966 0.000000 0.024496
O O3 0.500000 0.260726 0.000000
O O4 0.396937 0.236209 0.928985
O O5 0.424897 0.276097 0.239555
O O6 0.575504 0.246739 0.245706
O O7 0.509105 0.000000 0.204705
O O8 0.275067 0.799948 0.428293
O O9 0.235959 0.757043 0.598690
O O10 0.089534 0.709214 0.584398
O O11 0.148646 0.000000 0.576252
O O12 0.699244 0.500000 0.629335
O O13 0.760779 0.709851 0.692244
O O14 0.898908 0.780114 0.700998
O O15 0.762408 0.000000 0.751736
O O16 0.439645 0.744286 0.448465
O O17 0.363645 0.750737 0.641462
O O18 0.351151 0.000000 0.554883
O O19 0.548023 0.000000 0.355015
O O20 0.960349 0.500000 0.614210
O O21 0.000000 0.251399 0.500000
#
# Coordination Sequence:
#
# PCOD8057364 Si02
#       8
#     4   4   4   4   4   4   4   4
#     4   9  17  29  48  74  97 119 159 204 232 266
#     4  10  17  30  50  70  94 132 166 192 232 282
#     4  11  20  32  51  71  92 128 167 195 231 282
#     4  12  22  30  43  68 101 130 160 199 235 273
#     4  11  21  35  52  68  92 127 166 200 231 276
#     4   8  14  24  42  72  99 119 153 197 232 273
#     4   8  13  23  43  71  99 123 152 192 235 276
#     4  11  23  36  49  70  99 124 153 198 241 280
#
# _framework density 17.124756000000001
#
# number of rings (size 3 to 8) (size 9 to 14) (size 15 to 20)
#    0.000    2.000    3.750    3.000    0.000    0.500 
#    0.000    1.875    0.000    2.250    0.000    0.875 
#    0.000    7.000    0.000    0.000    0.000    0.000 
#
# Total GULP energy -396567.312642 kJ/mol
# GULP energy per Si atom -12392.728520 kJ/mol
# Density = 1.708578 g / cm^3
# Si number density = 17.124756 Si / 1000 Ang^3
#
#
#
# Elastic Constant Matrix: (Units=GPa)
#
#
# Indices 1 2 3 4 5 6 
#
# 1 124.3323 12.4173 52.8054 0.0000 9.2038 0.0000
# 2 12.4173 28.3390 13.8590 0.0000 0.2175 0.0000
# 3 52.8054 13.8590 98.1633 0.0000 2.1954 0.0000
# 4 0.0000 0.0000 0.0000 7.4398 0.0000 -2.6164
# 5 9.2038 0.2175 2.1954 0.0000 29.7070 0.0000
# 6 0.0000 0.0000 0.0000 -2.6164 0.0000 9.6085
#
#
#
# Elastic Compliance Matrix: (Units=1/GPa)
#
#
# Indices 1 2 3 4 5 6 
#
# 1 0.010774 -0.002037 -0.005443 0.000000 -0.002921 0.000000
# 2 -0.002037 0.038290 -0.004325 0.000000 0.000670 0.000000
# 3 -0.005443 -0.004325 0.013710 0.000000 0.000705 0.000000
# 4 0.000000 0.000000 0.000000 0.148648 0.000000 0.040477
# 5 -0.002921 0.000670 0.000705 0.000000 0.034510 0.000000
# 6 0.000000 0.000000 0.000000 0.040477 0.000000 0.115096
#
#
# Mechanical properties :
#
#
# Convention : Reuss Voigt Hill
#
# Bulk Modulus (GPa) = 25.53369 45.44425 35.48897
# Shear Modulus (GPa) = 12.57252 20.80126 16.68689
#
# Velocity S-wave (km/s) = 2.71250 3.48902 3.12497
# Velocity P-wave (km/s) = 4.97524 6.54414 5.81286
#
# Compressibility (1/GPa) = 0.03916394
#
# Stress axis : x y z
#
# Youngs Moduli (GPa) = 92.81350 26.11682 72.93965
#
# Poissons Ratio (x) = 0.05319 0.39701
# Poissons Ratio (y) = 0.18903 0.31548
# Poissons Ratio (z) = 0.50518 0.11296
#
# Static dielectric constant tensor:
#      x y z
#    x 3.421120 0.000000 0.216320 
#    y 0.000000 2.824430 0.000000 
#    z 0.216320 0.000000 3.240110 
# 
# 
# High freq. dielectric constant tensor:
#      x y z
#    x 1.655440 0.000000 0.008330 
#    y 0.000000 1.634060 0.000000 
#    z 0.008330 0.000000 1.632940 
# 
# From -- ./inp_files/78518.got.cif
#   From: 2010.06.25/outbox.cif.g09.slc.cpg/sg10_40_cif.got.tgz:78518.got - 2010.06.27 22:07:45.
