data_PCOD8057081
_publ_section_title
;
Structure prediction by ZEFSAII (Michael W. Deem and Ramdas Pophale) SiO2 
 PCOD8057081
Probable space group: P 2/M
;
_chemical_formula_sum "Si O2"
_cell_formula_units_Z 32
_cell_length_a 30.599130
_cell_length_b 12.162707
_cell_length_c 5.103519
_cell_angle_alpha 90.000000
_cell_angle_beta 89.479114
_cell_angle_gamma 90.000000
_cell_volume 1899.289258
_symmetry_space_group_name_H-M "P 2/M"
_symmetry_group_IT_number 10
_symmetry_cell_setting 'monoclinic'
loop_
_space_group_symop_operation_xyz
x,y,z
-x,y,-z
-x,-y,-z
x,-y,z
loop_
_atom_site_type_symbol
_atom_site_label
_atom_site_fract_x
_atom_site_fract_y
_atom_site_fract_z
Si Si1 0.690646 0.757144 0.490211
Si Si2 0.951809 0.627743 0.514953
Si Si3 0.102940 0.629918 0.970642
Si Si4 0.272499 0.128529 0.015414
Si Si5 0.229400 0.621363 0.450940
Si Si6 0.548026 0.372888 0.980566
Si Si7 0.804917 0.279727 0.045378
Si Si8 0.397361 0.371187 0.534638
O O1 0.699254 0.811749 0.209038
O O2 0.719881 0.648595 0.519587
O O3 0.641897 0.712382 0.520742
O O4 0.703694 0.844918 0.712232
O O5 0.957352 0.500000 0.453858
O O6 0.931236 0.650377 0.797125
O O7 0.000000 0.683224 0.500000
O O8 0.919927 0.673301 0.292038
O O9 0.117136 0.500000 0.957080
O O10 0.143481 0.713185 0.015654
O O11 0.221145 0.166460 0.018550
O O12 0.272917 0.000000 0.964986
O O13 0.220363 0.500000 0.549689
O O14 0.200811 0.697009 0.645742
O O15 0.216694 0.631169 0.147462
O O16 0.542289 0.500000 0.050319
O O17 0.567204 0.353595 0.693273
O O18 0.500000 0.316391 0.000000
O O19 0.581036 0.327048 0.198376
O O20 0.382513 0.500000 0.549835
#
# Coordination Sequence:
#
# PCOD8057081 Si02
#       8
#     4   4   4   4   4   4   4   4
#     4  10  20  32  49  71  91 120 157 189 229 277
#     4   9  17  27  39  57  85 121 151 176 211 254
#     4  10  17  26  41  61  88 116 147 183 214 257
#     4  10  21  37  52  66  91 120 152 199 241 274
#     4  10  18  29  43  63  95 124 147 176 219 272
#     4   9  17  28  43  65  98 138 165 183 216 262
#     4  10  20  30  45  67  88 119 156 187 224 270
#     4  10  18  29  46  70 102 130 157 191 222 266
#
# _framework density 16.848407000000002
#
# number of rings (size 3 to 8) (size 9 to 14) (size 15 to 20)
#    0.000    2.250    0.000    4.125    0.000    4.000 
#    0.000    3.750    0.000    0.000    0.000    0.000 
#    0.000   38.000    0.000    0.000    0.000    0.000 
#
# Total GULP energy -396587.128118 kJ/mol
# GULP energy per Si atom -12393.347754 kJ/mol
# Density = 1.681006 g / cm^3
# Si number density = 16.848407 Si / 1000 Ang^3
#
#
#
# Elastic Constant Matrix: (Units=GPa)
#
#
# Indices 1 2 3 4 5 6 
#
# 1 99.9732 25.9852 8.2260 0.0000 -0.4314 0.0000
# 2 25.9852 42.2085 5.0169 0.0000 3.4379 0.0000
# 3 8.2260 5.0169 76.8554 0.0000 3.9736 0.0000
# 4 0.0000 0.0000 0.0000 9.1273 0.0000 1.9043
# 5 -0.4314 3.4379 3.9736 0.0000 23.5844 0.0000
# 6 0.0000 0.0000 0.0000 1.9043 0.0000 11.2036
#
#
#
# Elastic Compliance Matrix: (Units=1/GPa)
#
#
# Indices 1 2 3 4 5 6 
#
# 1 0.012006 -0.007405 -0.000876 0.000000 0.001447 0.000000
# 2 -0.007405 0.028693 -0.000865 0.000000 -0.004172 0.000000
# 3 -0.000876 -0.000865 0.013272 0.000000 -0.002126 0.000000
# 4 0.000000 0.000000 0.000000 0.113589 0.000000 -0.019307
# 5 0.001447 -0.004172 -0.002126 0.000000 0.043394 0.000000
# 6 0.000000 0.000000 0.000000 -0.019307 0.000000 0.092539
#
#
# Mechanical properties :
#
#
# Convention : Reuss Voigt Hill
#
# Bulk Modulus (GPa) = 28.02802 33.05481 30.54141
# Shear Modulus (GPa) = 14.98456 20.77033 17.87744
#
# Velocity S-wave (km/s) = 2.98547 3.51490 3.26095
# Velocity P-wave (km/s) = 5.34374 6.01118 5.68726
#
# Compressibility (1/GPa) = 0.03567859
#
# Stress axis : x y z
#
# Youngs Moduli (GPa) = 83.29361 34.85136 75.34870
#
# Poissons Ratio (x) = 0.25807 0.06604
# Poissons Ratio (y) = 0.61678 0.06516
# Poissons Ratio (z) = 0.07300 0.03014
#
# Static dielectric constant tensor:
#      x y z
#    x 3.253160 0.000000 0.099700 
#    y 0.000000 2.675590 0.000000 
#    z 0.099700 0.000000 3.331240 
# 
# 
# High freq. dielectric constant tensor:
#      x y z
#    x 1.654910 0.000000 0.002600 
#    y 0.000000 1.579590 0.000000 
#    z 0.002600 0.000000 1.675090 
# 
# From -- ./inp_files/8135.got.cif
#   From: 2010.06.25/outbox.cif.g09.slc.cpg/sg10_5_cif.got.tgz:8135.got - 2010.06.27 22:07:45.
