data_PCOD8057674
_publ_section_title
;
Structure prediction by ZEFSAII (Michael W. Deem and Ramdas Pophale) SiO2 
 PCOD8057674
Probable space group: P 2/M
;
_chemical_formula_sum "Si O2"
_cell_formula_units_Z 28
_cell_length_a 32.197534
_cell_length_b 9.251089
_cell_length_c 10.335444
_cell_angle_alpha 90.000000
_cell_angle_beta 32.538801
_cell_angle_gamma 90.000000
_cell_volume 1655.855526
_symmetry_space_group_name_H-M "P 2/M"
_symmetry_group_IT_number 10
_symmetry_cell_setting 'monoclinic'
loop_
_space_group_symop_operation_xyz
x,y,z
-x,y,-z
-x,-y,-z
x,-y,z
loop_
_atom_site_type_symbol
_atom_site_label
_atom_site_fract_x
_atom_site_fract_y
_atom_site_fract_z
Si Si1 0.631658 0.660159 0.974115
Si Si2 0.973192 0.167153 0.431769
Si Si3 0.804961 0.831772 0.779707
Si Si4 0.488751 0.162658 0.376177
Si Si5 0.200149 0.666746 0.468780
Si Si6 0.045117 0.666695 0.007500
Si Si7 0.342859 0.663129 0.787390
O O1 0.606797 0.500000 0.993694
O O2 0.715021 0.704710 0.695127
O O3 0.564759 0.770704 0.107652
O O4 0.642810 0.661741 0.098192
O O5 0.881761 0.192502 0.661265
O O6 0.000000 0.227704 0.500000
O O7 0.020714 0.248138 0.197500
O O8 0.994570 0.000000 0.360952
O O9 0.820424 0.768669 0.597060
O O10 0.782937 0.000000 0.824389
O O11 0.735993 0.749176 0.034888
O O12 0.500000 0.165432 0.500000
O O13 0.414180 0.255751 0.530827
O O14 0.478037 0.000000 0.353469
O O15 0.200163 0.500000 0.419323
O O16 0.136783 0.689735 0.746497
O O17 0.023487 0.500000 0.085799
O O18 0.000000 0.725862 0.000000
O O19 0.337044 0.500000 0.748050
#
# Coordination Sequence:
#
# PCOD8057674 Si02
#       7
#     4   4   4   4   4   4   4
#     4   8  14  23  35  52  80 116 147 177 223 275
#     4  10  22  37  50  68  97 130 162 199 244 290
#     4  10  18  28  44  64  87 117 156 196 234 277
#     4   9  15  22  33  52  80 112 148 185 221 265
#     4   9  17  29  44  65  92 120 151 192 237 280
#     4  10  19  32  52  74  96 122 160 204 242 285
#     4   9  16  25  38  55  80 114 150 186 228 277
#
# _framework density 16.909687000000002
#
# number of rings (size 3 to 8) (size 9 to 14) (size 15 to 20)
#    0.000    2.714    1.429    2.143    0.000    6.857 
#    0.000    0.000    0.000    0.000    0.000    0.000 
#    0.000    1.143    0.000   13.143    0.000    6.714 
#
# Total GULP energy -347122.293626 kJ/mol
# GULP energy per Si atom -12397.224772 kJ/mol
# Density = 1.687120 g / cm^3
# Si number density = 16.909687 Si / 1000 Ang^3
#
#
#
# Elastic Constant Matrix: (Units=GPa)
#
#
# Indices 1 2 3 4 5 6 
#
# 1 61.0096 47.8948 57.0270 0.0000 -9.7704 0.0000
# 2 47.8948 115.3530 62.4229 0.0000 -17.4012 0.0000
# 3 57.0270 62.4229 116.4849 0.0000 -28.1630 0.0000
# 4 0.0000 0.0000 0.0000 25.9324 0.0000 -6.1454
# 5 -9.7704 -17.4012 -28.1630 0.0000 26.2541 0.0000
# 6 0.0000 0.0000 0.0000 -6.1454 0.0000 14.9333
#
#
#
# Elastic Compliance Matrix: (Units=1/GPa)
#
#
# Indices 1 2 3 4 5 6 
#
# 1 0.035243 -0.007690 -0.015114 0.000000 -0.008194 0.000000
# 2 -0.007690 0.013929 -0.002915 0.000000 0.003243 0.000000
# 3 -0.015114 -0.002915 0.021224 0.000000 0.015210 0.000000
# 4 0.000000 0.000000 0.000000 0.042729 0.000000 0.017584
# 5 -0.008194 0.003243 0.015210 0.000000 0.053505 0.000000
# 6 0.000000 0.000000 0.000000 0.017584 0.000000 0.074201
#
#
# Mechanical properties :
#
#
# Convention : Reuss Voigt Hill
#
# Bulk Modulus (GPa) = 52.75208 69.72632 61.23920
# Shear Modulus (GPa) = 16.74551 21.79081 19.26816
#
# Velocity S-wave (km/s) = 3.15030 3.59368 3.37927
# Velocity P-wave (km/s) = 6.67058 7.65137 7.17775
#
# Compressibility (1/GPa) = 0.01895660
#
# Stress axis : x y z
#
# Youngs Moduli (GPa) = 28.37451 71.79300 47.11724
#
# Poissons Ratio (x) = 0.55211 0.71212
# Poissons Ratio (y) = 0.21821 0.13737
# Poissons Ratio (z) = 0.42884 0.20931
#
# Static dielectric constant tensor:
#      x y z
#    x 2.830990 0.000000 -0.482260 
#    y 0.000000 3.303540 0.000000 
#    z -0.482260 0.000000 3.257790 
# 
# 
# High freq. dielectric constant tensor:
#      x y z
#    x 1.597840 0.000000 -0.048400 
#    y 0.000000 1.660680 0.000000 
#    z -0.048400 0.000000 1.645730 
# 
# From -- ./inp_files/37971.got.cif
#   From: 2010.06.25/outbox.cif.g09.slc.cpg/sg10_19_cif.got.tgz:37971.got - 2010.06.27 22:07:45.
