data_PCOD8057377
_publ_section_title
;
Structure prediction by ZEFSAII (Michael W. Deem and Ramdas Pophale) SiO2 
 PCOD8057377
Probable space group: P 2/M
;
_chemical_formula_sum "Si O2"
_cell_formula_units_Z 24
_cell_length_a 9.881221
_cell_length_b 18.565222
_cell_length_c 9.330542
_cell_angle_alpha 90.000000
_cell_angle_beta 126.597403
_cell_angle_gamma 90.000000
_cell_volume 1374.197226
_symmetry_space_group_name_H-M "P 2/M"
_symmetry_group_IT_number 10
_symmetry_cell_setting 'monoclinic'
loop_
_space_group_symop_operation_xyz
x,y,z
-x,y,-z
-x,-y,-z
x,-y,z
loop_
_atom_site_type_symbol
_atom_site_label
_atom_site_fract_x
_atom_site_fract_y
_atom_site_fract_z
Si Si1 0.829415 0.082244 0.804021
Si Si2 0.164917 0.684215 0.018257
Si Si3 0.947303 0.660832 0.623303
Si Si4 0.251063 0.797604 0.444677
Si Si5 0.690773 0.415662 0.653732
Si Si6 0.391450 0.198642 0.237507
O O1 0.835909 0.125922 0.655897
O O2 0.681845 0.116967 0.810297
O O3 0.784240 0.000000 0.741072
O O4 0.000000 0.089436 0.000000
O O5 0.249827 0.620013 0.160435
O O6 0.298110 0.748667 0.066324
O O7 0.000000 0.714806 0.000000
O O8 0.108286 0.653643 0.828993
O O9 0.887001 0.744253 0.577579
O O10 0.797926 0.610409 0.584947
O O11 0.000000 0.634145 0.500000
O O12 0.406697 0.806824 0.655505
O O13 0.334836 0.763946 0.353511
O O14 0.500000 0.394508 0.500000
O O15 0.716002 0.500000 0.689948
#
# Coordination Sequence:
#
# PCOD8057377 Si02
#       6
#     4   4   4   4   4   4
#     4   9  15  23  41  72 102 125 160 211 254 284
#     4  10  17  30  52  73  96 127 166 203 239 290
#     4  11  22  34  51  76 104 130 162 207 250 289
#     4   9  17  28  45  67  98 128 160 199 246 292
#     4  10  20  36  57  76  98 131 167 199 240 297
#     4   9  15  27  48  69  93 126 164 206 237 285
#
# _framework density 17.464742000000001
#
# number of rings (size 3 to 8) (size 9 to 14) (size 15 to 20)
#    1.000    1.333    3.333    2.500    0.000    4.667 
#    0.000    3.333    0.000    2.500    0.000    0.000 
#    0.000    5.333    0.000    0.000    0.000    0.000 
#
# Total GULP energy -297362.077897 kJ/mol
# GULP energy per Si atom -12390.086579 kJ/mol
# Density = 1.742499 g / cm^3
# Si number density = 17.464742 Si / 1000 Ang^3
#
#
#
# Elastic Constant Matrix: (Units=GPa)
#
#
# Indices 1 2 3 4 5 6 
#
# 1 49.3254 29.2461 52.2079 0.0000 4.2235 0.0000
# 2 29.2461 96.0644 54.9704 0.0000 18.1664 0.0000
# 3 52.2079 54.9704 126.1123 0.0000 18.0430 0.0000
# 4 0.0000 0.0000 0.0000 26.4725 0.0000 8.1767
# 5 4.2235 18.1664 18.0430 0.0000 27.0520 0.0000
# 6 0.0000 0.0000 0.0000 8.1767 0.0000 13.3447
#
#
#
# Elastic Compliance Matrix: (Units=1/GPa)
#
#
# Indices 1 2 3 4 5 6 
#
# 1 0.037920 -0.004396 -0.014767 0.000000 0.006881 0.000000
# 2 -0.004396 0.015266 -0.003831 0.000000 -0.007010 0.000000
# 3 -0.014767 -0.003831 0.016599 0.000000 -0.006192 0.000000
# 4 0.000000 0.000000 0.000000 0.046593 0.000000 -0.028549
# 5 0.006881 -0.007010 -0.006192 0.000000 0.044729 0.000000
# 6 0.000000 0.000000 0.000000 -0.028549 0.000000 0.092428
#
#
# Mechanical properties :
#
#
# Convention : Reuss Voigt Hill
#
# Bulk Modulus (GPa) = 42.02222 60.48342 51.25282
# Shear Modulus (GPa) = 16.26250 22.37904 19.32077
#
# Velocity S-wave (km/s) = 3.05480 3.58353 3.32968
# Velocity P-wave (km/s) = 6.04614 7.19924 6.64774
#
# Compressibility (1/GPa) = 0.02379693
#
# Stress axis : x y z
#
# Youngs Moduli (GPa) = 26.37109 65.50460 60.24637
#
# Poissons Ratio (x) = 0.28796 0.88963
# Poissons Ratio (y) = 0.11593 0.23083
# Poissons Ratio (z) = 0.38941 0.25098
#
# Static dielectric constant tensor:
#      x y z
#    x 2.765780 0.000000 0.314920 
#    y 0.000000 3.172960 0.000000 
#    z 0.314920 0.000000 3.410710 
# 
# 
# High freq. dielectric constant tensor:
#      x y z
#    x 1.617550 0.000000 0.036920 
#    y 0.000000 1.670470 0.000000 
#    z 0.036920 0.000000 1.683140 
# 
# From -- ./inp_files/20261.got.cif
#   From: 2010.06.25/outbox.cif.g09.slc.cpg/sg10_11_cif.got.tgz:20261.got - 2010.06.27 22:07:45.
