data_PCOD8057426
_publ_section_title
;
Structure prediction by ZEFSAII (Michael W. Deem and Ramdas Pophale) SiO2 
 PCOD8057426
Probable space group: P 2/M
;
_chemical_formula_sum "Si O2"
_cell_formula_units_Z 28
_cell_length_a 8.931831
_cell_length_b 11.734285
_cell_length_c 14.910510
_cell_angle_alpha 90.000000
_cell_angle_beta 110.353992
_cell_angle_gamma 90.000000
_cell_volume 1465.174776
_symmetry_space_group_name_H-M "P 2/M"
_symmetry_group_IT_number 10
_symmetry_cell_setting 'monoclinic'
loop_
_space_group_symop_operation_xyz
x,y,z
-x,y,-z
-x,-y,-z
x,-y,z
loop_
_atom_site_type_symbol
_atom_site_label
_atom_site_fract_x
_atom_site_fract_y
_atom_site_fract_z
Si Si1 0.568398 0.805298 0.731100
Si Si2 0.358038 0.872720 0.540303
Si Si3 0.773545 0.000000 0.069940
Si Si4 0.151577 0.869624 0.341136
Si Si5 0.675355 0.628533 0.041036
Si Si6 0.063840 0.774647 0.841240
Si Si7 0.476937 0.000000 0.138109
Si Si8 0.219733 0.369594 0.138969
O O1 0.409814 0.792923 0.634912
O O2 0.707403 0.863695 0.702209
O O3 0.528735 0.885411 0.805872
O O4 0.624027 0.681681 0.778515
O O5 0.500000 0.882376 0.500000
O O6 0.207095 0.823726 0.451316
O O7 0.320162 0.000000 0.569361
O O8 0.890923 0.891437 0.098950
O O9 0.645565 0.000000 0.122969
O O10 0.678460 0.000000 0.957202
O O11 0.001467 0.797450 0.273064
O O12 0.098317 0.000000 0.339869
O O13 0.660153 0.500000 0.073674
O O14 0.777460 0.698359 0.134774
O O15 0.500000 0.684940 0.000000
O O16 0.759978 0.634589 0.963000
O O17 0.934069 0.705802 0.871695
O O18 0.196439 0.500000 0.166708
#
# Coordination Sequence:
#
# PCOD8057426 Si02
#       8
#     4   4   2   4   4   4   2   4
#     4  10  17  31  56  79 106 141 178 220 274 329
#     4   8  13  25  49  78 107 136 175 216 265 326
#     4  11  26  35  48  78 116 149 180 221 275 327
#     4   9  16  30  49  79 109 139 180 216 267 331
#     4  10  22  39  57  77 103 143 192 229 267 317
#     4  11  21  36  55  74 110 147 178 220 271 319
#     4  11  22  35  49  78 114 145 181 220 270 334
#     4  10  22  37  56  81 106 139 188 235 267 314
#
# _framework density 19.110348999999999
#
# number of rings (size 3 to 8) (size 9 to 14) (size 15 to 20)
#    0.000    2.143    2.143    2.571    4.000    2.286 
#    0.000    2.857    0.000   13.286    0.000    0.000 
#    0.000    3.429    0.000    0.143    0.000    0.000 
#
# Total GULP energy -347044.068554 kJ/mol
# GULP energy per Si atom -12394.431020 kJ/mol
# Density = 1.906685 g / cm^3
# Si number density = 19.110349 Si / 1000 Ang^3
#
#
#
# Elastic Constant Matrix: (Units=GPa)
#
#
# Indices 1 2 3 4 5 6 
#
# 1 64.7160 43.1970 45.1434 0.0000 23.1650 0.0000
# 2 43.1970 110.2385 58.0524 0.0000 20.1095 0.0000
# 3 45.1434 58.0524 146.9515 0.0000 42.2074 0.0000
# 4 0.0000 0.0000 0.0000 15.3679 0.0000 11.4745
# 5 23.1650 20.1095 42.2074 0.0000 32.2645 0.0000
# 6 0.0000 0.0000 0.0000 11.4745 0.0000 25.0783
#
#
#
# Elastic Compliance Matrix: (Units=1/GPa)
#
#
# Indices 1 2 3 4 5 6 
#
# 1 0.025479 -0.006941 -0.001720 0.000000 -0.011718 0.000000
# 2 -0.006941 0.013422 -0.003522 0.000000 0.001225 0.000000
# 3 -0.001720 -0.003522 0.012398 0.000000 -0.012788 0.000000
# 4 0.000000 0.000000 0.000000 0.098836 0.000000 -0.045222
# 5 -0.011718 0.001225 -0.012788 0.000000 0.055373 0.000000
# 6 0.000000 0.000000 0.000000 -0.045222 0.000000 0.060566
#
#
# Mechanical properties :
#
#
# Convention : Reuss Voigt Hill
#
# Bulk Modulus (GPa) = 37.12805 68.29907 52.71356
# Shear Modulus (GPa) = 16.69910 26.24303 21.47107
#
# Velocity S-wave (km/s) = 2.95926 3.70974 3.35555
# Velocity P-wave (km/s) = 5.58092 7.35979 6.53120
#
# Compressibility (1/GPa) = 0.02693381
#
# Stress axis : x y z
#
# Youngs Moduli (GPa) = 39.24816 74.50302 80.66015
#
# Poissons Ratio (x) = 0.51711 0.13871
# Poissons Ratio (y) = 0.27242 0.28409
# Poissons Ratio (z) = 0.06749 0.26240
#
# Static dielectric constant tensor:
#      x y z
#    x 3.364890 0.000000 0.434030 
#    y 0.000000 3.484350 0.000000 
#    z 0.434030 0.000000 3.946810 
# 
# 
# High freq. dielectric constant tensor:
#      x y z
#    x 1.722990 0.000000 0.024520 
#    y 0.000000 1.721460 0.000000 
#    z 0.024520 0.000000 1.746590 
# 
# From -- ./inp_files/61049.got.cif
#   From: 2010.06.25/outbox.cif.g09.slc.cpg/sg10_31_cif.got.tgz:61049.got - 2010.06.27 22:07:45.
