data_PCOD8057348
_publ_section_title
;
Structure prediction by ZEFSAII (Michael W. Deem and Ramdas Pophale) SiO2 
 PCOD8057348
Probable space group: P 2/M
;
_chemical_formula_sum "Si O2"
_cell_formula_units_Z 32
_cell_length_a 16.588187
_cell_length_b 18.205867
_cell_length_c 19.499514
_cell_angle_alpha 90.000000
_cell_angle_beta 21.366955
_cell_angle_gamma 90.000000
_cell_volume 2145.559797
_symmetry_space_group_name_H-M "P 2/M"
_symmetry_group_IT_number 10
_symmetry_cell_setting 'monoclinic'
loop_
_space_group_symop_operation_xyz
x,y,z
-x,y,-z
-x,-y,-z
x,-y,z
loop_
_atom_site_type_symbol
_atom_site_label
_atom_site_fract_x
_atom_site_fract_y
_atom_site_fract_z
Si Si1 0.952200 0.338670 0.853638
Si Si2 0.976020 0.808577 0.131734
Si Si3 0.698331 0.586890 0.934784
Si Si4 0.445054 0.647029 0.464002
Si Si5 0.661923 0.080849 0.435330
Si Si6 0.637773 0.797608 0.278981
Si Si7 0.180581 0.417228 0.908789
Si Si8 0.794608 0.413964 0.704774
O O1 0.991933 0.251829 0.833864
O O2 0.814244 0.358406 0.895891
O O3 0.191089 0.376413 0.656745
O O4 0.816070 0.369053 0.025945
O O5 0.902870 0.885792 0.224007
O O6 0.772304 0.787304 0.243365
O O7 0.201516 0.815722 0.911261
O O8 0.723331 0.500000 0.933758
O O9 0.811711 0.603957 0.771825
O O10 0.441957 0.611960 0.137182
O O11 0.500000 0.652174 0.500000
O O12 0.502301 0.722392 0.378307
O O13 0.584165 0.583756 0.315829
O O14 0.500000 0.071418 0.500000
O O15 0.537636 0.136053 0.585121
O O16 0.701880 0.000000 0.436641
O O17 0.116329 0.500000 0.979222
O O18 0.000000 0.382328 0.000000
O O19 0.803667 0.500000 0.686832
O O20 0.000000 0.377285 0.500000
#
# Coordination Sequence:
#
# PCOD8057348 Si02
#       8
#     4   4   4   4   4   4   4   4
#     4  12  21  32  48  67  93 120 158 203 232 277
#     4  10  18  28  47  62  85 121 156 188 233 278
#     4   9  19  32  48  72  92 112 147 194 241 281
#     4  12  20  32  48  59  80 124 169 195 233 277
#     4   9  17  29  44  66  87 107 150 206 242 272
#     4  10  17  30  46  62  80 121 165 192 227 280
#     4  11  23  34  43  58  82 119 165 210 242 261
#     4   8  15  33  56  69  86 113 139 177 242 307
#
# _framework density 14.914523000000001
#
# number of rings (size 3 to 8) (size 9 to 14) (size 15 to 20)
#    0.000    1.875    5.000    1.500    0.000    2.750 
#    0.000    3.750    0.000    0.000    0.000    0.000 
#    0.000    0.000    0.000    2.250    0.000    7.250 
#
# Total GULP energy -396625.022749 kJ/mol
# GULP energy per Si atom -12394.531961 kJ/mol
# Density = 1.488058 g / cm^3
# Si number density = 14.914523 Si / 1000 Ang^3
#
#
#
# Elastic Constant Matrix: (Units=GPa)
#
#
# Indices 1 2 3 4 5 6 
#
# 1 67.6766 25.9606 36.2960 0.0000 -3.0687 0.0000
# 2 25.9606 65.4266 19.1587 0.0000 0.2169 0.0000
# 3 36.2960 19.1587 104.5591 0.0000 8.9993 0.0000
# 4 0.0000 0.0000 0.0000 15.8328 0.0000 3.2058
# 5 -3.0687 0.2169 8.9993 0.0000 14.5442 0.0000
# 6 0.0000 0.0000 0.0000 3.2058 0.0000 7.3391
#
#
#
# Elastic Compliance Matrix: (Units=1/GPa)
#
#
# Indices 1 2 3 4 5 6 
#
# 1 0.021436 -0.006478 -0.007026 0.000000 0.008967 0.000000
# 2 -0.006478 0.018147 -0.000988 0.000000 -0.001026 0.000000
# 3 -0.007026 -0.000988 0.013003 0.000000 -0.009513 0.000000
# 4 0.000000 0.000000 0.000000 0.069288 0.000000 -0.030266
# 5 0.008967 -0.001026 -0.009513 0.000000 0.076549 0.000000
# 6 0.000000 0.000000 0.000000 -0.030266 0.000000 0.149476
#
#
# Mechanical properties :
#
#
# Convention : Reuss Voigt Hill
#
# Bulk Modulus (GPa) = 42.36925 44.49923 43.43424
# Shear Modulus (GPa) = 12.99543 17.95969 15.47756
#
# Velocity S-wave (km/s) = 2.95503 3.47389 3.22491
# Velocity P-wave (km/s) = 6.33345 6.78170 6.56141
#
# Compressibility (1/GPa) = 0.02360202
#
# Stress axis : x y z
#
# Youngs Moduli (GPa) = 46.65117 55.10423 76.90684
#
# Poissons Ratio (x) = 0.35696 0.54034
# Poissons Ratio (y) = 0.30220 0.07600
# Poissons Ratio (z) = 0.32776 0.05446
#
# Static dielectric constant tensor:
#      x y z
#    x 2.522840 0.000000 0.140370 
#    y 0.000000 2.814710 0.000000 
#    z 0.140370 0.000000 3.673450 
# 
# 
# High freq. dielectric constant tensor:
#      x y z
#    x 1.519500 0.000000 0.015710 
#    y 0.000000 1.546240 0.000000 
#    z 0.015710 0.000000 1.592300 
# 
# From -- ./inp_files/67757.got.cif
#   From: 2010.06.25/outbox.cif.g09.slc.cpg/sg10_34_cif.got.tgz:67757.got - 2010.06.27 22:07:45.
