data_PCOD8057474
_publ_section_title
;
Structure prediction by ZEFSAII (Michael W. Deem and Ramdas Pophale) SiO2 
 PCOD8057474
Probable space group: P 2/M
;
_chemical_formula_sum "Si O2"
_cell_formula_units_Z 28
_cell_length_a 13.703346
_cell_length_b 15.523785
_cell_length_c 8.187536
_cell_angle_alpha 90.000000
_cell_angle_beta 130.455128
_cell_angle_gamma 90.000000
_cell_volume 1325.297088
_symmetry_space_group_name_H-M "P 2/M"
_symmetry_group_IT_number 10
_symmetry_cell_setting 'monoclinic'
loop_
_space_group_symop_operation_xyz
x,y,z
-x,y,-z
-x,-y,-z
x,-y,z
loop_
_atom_site_type_symbol
_atom_site_label
_atom_site_fract_x
_atom_site_fract_y
_atom_site_fract_z
Si Si1 0.873915 0.264581 0.452824
Si Si2 0.603323 0.263855 0.981553
Si Si3 0.630999 0.405645 0.737499
Si Si4 0.169539 0.863512 0.114739
Si Si5 0.915816 0.907553 0.653055
Si Si6 0.860038 0.326053 0.804431
Si Si7 0.569134 0.098098 0.744175
O O1 0.746178 0.264964 0.207944
O O2 0.904167 0.163713 0.503500
O O3 0.850523 0.311427 0.599547
O O4 0.000000 0.305736 0.500000
O O5 0.500000 0.297423 0.000000
O O6 0.613705 0.331388 0.848907
O O7 0.546152 0.171139 0.857416
O O8 0.500000 0.408349 0.500000
O O9 0.655405 0.500000 0.844996
O O10 0.748072 0.389790 0.738769
O O11 0.193657 0.898219 0.325455
O O12 0.158053 0.760507 0.109433
O O13 0.280522 0.897549 0.121470
O O14 0.044629 0.900425 0.895360
O O15 0.903116 0.000000 0.551694
O O16 0.000000 0.364912 0.000000
O O17 0.500000 0.123927 0.500000
O O18 0.531371 0.000000 0.759457
#
# Coordination Sequence:
#
# PCOD8057474 Si02
#       7
#     4   4   4   4   4   4   4
#     4  11  23  38  60  95 131 175 209 260 330 390
#     4  12  26  42  65  95 137 175 206 267 341 393
#     4  11  25  47  75 100 123 163 222 273 322 397
#     4  10  17  34  59  89 118 164 219 275 311 358
#     4  10  19  31  55  88 122 164 220 270 309 358
#     4  11  20  40  71  97 128 168 219 269 320 391
#     4  11  24  39  61  88 126 177 231 270 310 380
#
# _framework density 21.127337000000001
#
# number of rings (size 3 to 8) (size 9 to 14) (size 15 to 20)
#    0.000    1.143    4.286    4.714    4.000    1.714 
#    0.000    0.714    0.000    1.714    0.000    0.000 
#    0.000    0.000    0.000    0.000    0.000    0.000 
#
# Total GULP energy -347013.020822 kJ/mol
# GULP energy per Si atom -12393.322172 kJ/mol
# Density = 2.107925 g / cm^3
# Si number density = 21.127337 Si / 1000 Ang^3
#
#
#
# Elastic Constant Matrix: (Units=GPa)
#
#
# Indices 1 2 3 4 5 6 
#
# 1 111.6647 45.2290 29.8283 0.0000 1.6948 0.0000
# 2 45.2290 98.7851 34.3151 0.0000 -3.7568 0.0000
# 3 29.8283 34.3151 81.6314 0.0000 5.2845 0.0000
# 4 0.0000 0.0000 0.0000 3.0052 0.0000 2.9875
# 5 1.6948 -3.7568 5.2845 0.0000 31.8742 0.0000
# 6 0.0000 0.0000 0.0000 2.9875 0.0000 5.5511
#
#
#
# Elastic Compliance Matrix: (Units=1/GPa)
#
#
# Indices 1 2 3 4 5 6 
#
# 1 0.011369 -0.004459 -0.002230 0.000000 -0.000760 0.000000
# 2 -0.004459 0.013765 -0.004323 0.000000 0.002576 0.000000
# 3 -0.002230 -0.004323 0.015070 0.000000 -0.002889 0.000000
# 4 0.000000 0.000000 0.000000 0.715624 0.000000 -0.385141
# 5 -0.000760 0.002576 -0.002889 0.000000 0.032196 0.000000
# 6 0.000000 0.000000 0.000000 -0.385141 0.000000 0.387425
#
#
# Mechanical properties :
#
#
# Convention : Reuss Voigt Hill
#
# Bulk Modulus (GPa) = 55.01585 56.75844 55.88715
# Shear Modulus (GPa) = 4.15443 20.26668 12.21056
#
# Velocity S-wave (km/s) = 1.40380 3.10056 2.40667
# Velocity P-wave (km/s) = 5.35949 6.30406 5.85087
#
# Compressibility (1/GPa) = 0.01817658
#
# Stress axis : x y z
#
# Youngs Moduli (GPa) = 87.95857 72.65025 66.35841
#
# Poissons Ratio (x) = 0.32398 0.14801
# Poissons Ratio (y) = 0.39225 0.28690
# Poissons Ratio (z) = 0.19619 0.31410
#
# Static dielectric constant tensor:
#      x y z
#    x 3.999790 0.000000 -0.332050 
#    y 0.000000 4.157720 0.000000 
#    z -0.332050 0.000000 3.794550 
# 
# 
# High freq. dielectric constant tensor:
#      x y z
#    x 1.838450 0.000000 0.007610 
#    y 0.000000 1.810210 0.000000 
#    z 0.007610 0.000000 1.825290 
# 
# From -- ./inp_files/29586.got.cif
#   From: 2010.06.25/outbox.cif.g09.slc.cpg/sg10_15_cif.got.tgz:29586.got - 2010.06.27 22:07:45.
