data_PCOD8057250
_publ_section_title
;
Structure prediction by ZEFSAII (Michael W. Deem and Ramdas Pophale) SiO2 
 PCOD8057250
Probable space group: P 2/M
;
_chemical_formula_sum "Si O2"
_cell_formula_units_Z 32
_cell_length_a 21.652350
_cell_length_b 9.119569
_cell_length_c 20.631432
_cell_angle_alpha 90.000000
_cell_angle_beta 154.131285
_cell_angle_gamma 90.000000
_cell_volume 1777.478804
_symmetry_space_group_name_H-M "P 2/M"
_symmetry_group_IT_number 10
_symmetry_cell_setting 'monoclinic'
loop_
_space_group_symop_operation_xyz
x,y,z
-x,y,-z
-x,-y,-z
x,-y,z
loop_
_atom_site_type_symbol
_atom_site_label
_atom_site_fract_x
_atom_site_fract_y
_atom_site_fract_z
Si Si1 0.240869 0.171730 0.409763
Si Si2 0.542844 0.327997 0.468219
Si Si3 0.842738 0.665662 0.323876
Si Si4 0.603530 0.671029 0.328231
Si Si5 0.258698 0.170309 0.653188
Si Si6 0.946906 0.829811 0.304759
Si Si7 0.075373 0.830086 0.862240
Si Si8 0.661867 0.667485 0.838881
O O1 0.317052 0.237230 0.418227
O O2 0.291968 0.253946 0.522103
O O3 0.074064 0.199936 0.244168
O O4 0.274995 0.000000 0.449788
O O5 0.500000 0.284539 0.500000
O O6 0.576988 0.500000 0.493067
O O7 0.416003 0.281862 0.300484
O O8 0.785427 0.500000 0.264348
O O9 0.741417 0.758199 0.275593
O O10 0.000000 0.668963 0.500000
O O11 0.842374 0.739144 0.252677
O O12 0.643107 0.500000 0.360887
O O13 0.621192 0.748446 0.275458
O O14 0.441753 0.693101 0.197901
O O15 0.109639 0.195255 0.477111
O O16 0.296902 0.000000 0.695878
O O17 0.925121 0.768724 0.211677
O O18 0.907498 0.000000 0.274295
O O19 0.109145 0.000000 0.890809
O O20 0.195490 0.757619 0.018996
O O21 0.707282 0.500000 0.876085
#
# Coordination Sequence:
#
# PCOD8057250 Si02
#       8
#     4   4   4   4   4   4   4   4
#     4  10  19  33  53  80 107 134 173 212 251 302
#     4   9  19  38  60  81 107 138 172 210 251 298
#     4   9  17  27  40  66  98 129 169 214 260 309
#     4  10  19  32  50  74 103 134 173 219 262 305
#     4  10  17  28  47  70  98 132 171 216 263 309
#     4   9  17  30  45  66  98 134 169 207 257 308
#     4  10  20  34  51  75 107 139 170 211 256 305
#     4   9  20  35  52  77 104 134 171 209 253 306
#
# _framework density 18.003026999999999
#
# number of rings (size 3 to 8) (size 9 to 14) (size 15 to 20)
#    0.000    2.500    1.250    2.250    0.000    6.250 
#    0.000    0.625    0.000    4.500    0.000    5.250 
#    0.000    0.000    0.000    0.000    0.000    0.000 
#
# Total GULP energy -396826.669221 kJ/mol
# GULP energy per Si atom -12400.833413 kJ/mol
# Density = 1.796205 g / cm^3
# Si number density = 18.003027 Si / 1000 Ang^3
#
#
#
# Elastic Constant Matrix: (Units=GPa)
#
#
# Indices 1 2 3 4 5 6 
#
# 1 146.4631 67.4047 44.6310 0.0000 -0.4793 0.0000
# 2 67.4047 102.9656 41.2700 0.0000 8.3726 0.0000
# 3 44.6310 41.2700 73.5971 0.0000 5.3115 0.0000
# 4 0.0000 0.0000 0.0000 25.0419 0.0000 2.1823
# 5 -0.4793 8.3726 5.3115 0.0000 16.6543 0.0000
# 6 0.0000 0.0000 0.0000 2.1823 0.0000 28.8741
#
#
#
# Elastic Compliance Matrix: (Units=1/GPa)
#
#
# Indices 1 2 3 4 5 6 
#
# 1 0.010617 -0.005932 -0.003428 0.000000 0.004381 0.000000
# 2 -0.005932 0.016130 -0.004964 0.000000 -0.006696 0.000000
# 3 -0.003428 -0.004964 0.018707 0.000000 -0.003569 0.000000
# 4 0.000000 0.000000 0.000000 0.040198 0.000000 -0.003038
# 5 0.004381 -0.006696 -0.003569 0.000000 0.064676 0.000000
# 6 0.000000 0.000000 0.000000 -0.003038 0.000000 0.034863
#
#
# Mechanical properties :
#
#
# Convention : Reuss Voigt Hill
#
# Bulk Modulus (GPa) = 59.50461 69.95971 64.73216
# Shear Modulus (GPa) = 22.78526 25.42872 24.10699
#
# Velocity S-wave (km/s) = 3.56144 3.76236 3.66328
# Velocity P-wave (km/s) = 7.07362 7.60382 7.34351
#
# Compressibility (1/GPa) = 0.01680542
#
# Stress axis : x y z
#
# Youngs Moduli (GPa) = 94.19100 61.99748 53.45487
#
# Poissons Ratio (x) = 0.36779 0.18323
# Poissons Ratio (y) = 0.55878 0.26535
# Poissons Ratio (z) = 0.32287 0.30775
#
# Static dielectric constant tensor:
#      x y z
#    x 3.468490 0.000000 0.034900 
#    y 0.000000 3.376470 0.000000 
#    z 0.034900 0.000000 2.948140 
# 
# 
# High freq. dielectric constant tensor:
#      x y z
#    x 1.701420 0.000000 0.004950 
#    y 0.000000 1.703590 0.000000 
#    z 0.004950 0.000000 1.657480 
# 
# From -- ./inp_files/86144.got.cif
#   From: 2010.06.25/outbox.cif.g09.slc.cpg/sg10_44_cif.got.tgz:86144.got - 2010.06.27 22:07:45.
