data_PCOD8057778
_publ_section_title
;
Structure prediction by ZEFSAII (Michael W. Deem and Ramdas Pophale) SiO2 
 PCOD8057778
Probable space group: P 2/M
;
_chemical_formula_sum "Si O2"
_cell_formula_units_Z 32
_cell_length_a 22.440978
_cell_length_b 9.703639
_cell_length_c 14.552429
_cell_angle_alpha 90.000000
_cell_angle_beta 30.368832
_cell_angle_gamma 90.000000
_cell_volume 1602.095746
_symmetry_space_group_name_H-M "P 2/M"
_symmetry_group_IT_number 10
_symmetry_cell_setting 'monoclinic'
loop_
_space_group_symop_operation_xyz
x,y,z
-x,y,-z
-x,-y,-z
x,-y,z
loop_
_atom_site_type_symbol
_atom_site_label
_atom_site_fract_x
_atom_site_fract_y
_atom_site_fract_z
Si Si1 0.869312 0.838324 0.504774
Si Si2 0.301395 0.161630 0.110771
Si Si3 0.615298 0.658380 0.400481
Si Si4 0.165387 0.154591 0.939138
Si Si5 0.301154 0.655682 0.516422
Si Si6 0.114614 0.845215 0.220560
Si Si7 0.491492 0.340744 0.117905
Si Si8 0.098539 0.838319 0.741058
O O1 0.751574 0.807215 0.717603
O O2 0.862085 0.780985 0.411485
O O3 0.984736 0.776210 0.403817
O O4 0.895323 0.000000 0.460331
O O5 0.213143 0.227073 0.152350
O O6 0.328526 0.000000 0.060782
O O7 0.420451 0.245648 0.941876
O O8 0.500000 0.717577 0.500000
O O9 0.632932 0.500000 0.347325
O O10 0.732658 0.739081 0.217783
O O11 0.604125 0.673490 0.526102
O O12 0.200983 0.000000 0.860165
O O13 0.149268 0.157211 0.068940
O O14 0.040049 0.194149 0.056866
O O15 0.252507 0.500000 0.580667
O O16 0.365105 0.687579 0.333797
O O17 0.188551 0.754903 0.686855
O O18 0.110390 0.000000 0.265814
O O19 0.527597 0.500000 0.080868
O O20 0.500000 0.296545 0.000000
O O21 0.122504 0.000000 0.722675
#
# Coordination Sequence:
#
# PCOD8057778 Si02
#       8
#     4   4   4   4   4   4   4   4
#     4   8  14  27  48  76 110 143 172 211 263 315
#     4  10  18  28  50  79 103 135 181 224 259 309
#     4  10  23  41  59  79 106 143 185 226 266 315
#     4   9  19  36  57  83 113 142 174 219 275 324
#     4  10  22  39  57  78 106 143 184 223 269 322
#     4   8  15  28  48  77 110 139 171 214 265 318
#     4  10  22  38  53  73 105 143 177 216 270 321
#     4   9  18  34  57  83 111 141 176 220 269 322
#
# _framework density 19.973839000000002
#
# number of rings (size 3 to 8) (size 9 to 14) (size 15 to 20)
#    0.000    2.750    0.000    2.625    1.750    4.000 
#    0.000    2.500    0.000    3.000    0.000    0.000 
#    0.000    0.000    0.000    0.000    0.000    0.000 
#
# Total GULP energy -396524.158908 kJ/mol
# GULP energy per Si atom -12391.379966 kJ/mol
# Density = 1.992838 g / cm^3
# Si number density = 19.973839 Si / 1000 Ang^3
#
#
#
# Elastic Constant Matrix: (Units=GPa)
#
#
# Indices 1 2 3 4 5 6 
#
# 1 90.3190 36.6411 30.9884 0.0000 -29.7936 0.0000
# 2 36.6411 58.8624 45.4758 0.0000 -20.5530 0.0000
# 3 30.9884 45.4758 85.9584 0.0000 -22.3953 0.0000
# 4 0.0000 0.0000 0.0000 26.8271 0.0000 -3.5465
# 5 -29.7936 -20.5530 -22.3953 0.0000 27.1476 0.0000
# 6 0.0000 0.0000 0.0000 -3.5465 0.0000 19.2309
#
#
#
# Elastic Compliance Matrix: (Units=1/GPa)
#
#
# Indices 1 2 3 4 5 6 
#
# 1 0.018914 -0.006885 0.001113 0.000000 0.016463 0.000000
# 2 -0.006885 0.034508 -0.013930 0.000000 0.007078 0.000000
# 3 0.001113 -0.013930 0.020600 0.000000 0.007669 0.000000
# 4 0.000000 0.000000 0.000000 0.038207 0.000000 0.007046
# 5 0.016463 0.007078 0.007669 0.000000 0.066588 0.000000
# 6 0.000000 0.000000 0.000000 0.007046 0.000000 0.053299
#
#
# Mechanical properties :
#
#
# Convention : Reuss Voigt Hill
#
# Bulk Modulus (GPa) = 28.88708 51.26118 40.07413
# Shear Modulus (GPa) = 17.66406 22.77674 20.22040
#
# Velocity S-wave (km/s) = 2.97704 3.38054 3.18519
# Velocity P-wave (km/s) = 5.12942 6.39979 5.79949
#
# Compressibility (1/GPa) = 0.03461755
#
# Stress axis : x y z
#
# Youngs Moduli (GPa) = 52.87145 28.97852 48.54355
#
# Poissons Ratio (x) = 0.19953 -0.05405
# Poissons Ratio (y) = 0.36404 0.67623
# Poissons Ratio (z) = -0.05886 0.40368
#
# Static dielectric constant tensor:
#      x y z
#    x 3.842910 0.000000 0.033580 
#    y 0.000000 3.297240 0.000000 
#    z 0.033580 0.000000 3.563920 
# 
# 
# High freq. dielectric constant tensor:
#      x y z
#    x 1.793880 0.000000 0.000750 
#    y 0.000000 1.737970 0.000000 
#    z 0.000750 0.000000 1.776050 
# 
# From -- ./inp_files/71485.got.cif
#   From: 2010.06.25/outbox.cif.g09.slc.cpg/sg10_36_cif.got.tgz:71485.got - 2010.06.27 22:07:45.
