data_PCOD8057728
_publ_section_title
;
Structure prediction by ZEFSAII (Michael W. Deem and Ramdas Pophale) SiO2 
 PCOD8057728
Probable space group: P 2/M
;
_chemical_formula_sum "Si O2"
_cell_formula_units_Z 28
_cell_length_a 24.449215
_cell_length_b 8.699180
_cell_length_c 19.270937
_cell_angle_alpha 90.000000
_cell_angle_beta 22.188635
_cell_angle_gamma 90.000000
_cell_volume 1547.903040
_symmetry_space_group_name_H-M "P 2/M"
_symmetry_group_IT_number 10
_symmetry_cell_setting 'monoclinic'
loop_
_space_group_symop_operation_xyz
x,y,z
-x,y,-z
-x,-y,-z
x,-y,z
loop_
_atom_site_type_symbol
_atom_site_label
_atom_site_fract_x
_atom_site_fract_y
_atom_site_fract_z
Si Si1 0.089417 0.319773 0.108154
Si Si2 0.334075 0.318080 0.461695
Si Si3 0.867627 0.178578 0.578580
Si Si4 0.652197 0.317930 0.103266
Si Si5 0.950733 0.319295 0.130826
Si Si6 0.822063 0.318528 0.770075
Si Si7 0.807795 0.823047 0.497223
O O1 0.062824 0.500000 0.153498
O O2 0.072379 0.282968 0.046235
O O3 0.972052 0.227337 0.289794
O O4 0.248382 0.267825 0.947973
O O5 0.332555 0.500000 0.467536
O O6 0.489456 0.251481 0.304033
O O7 0.204865 0.250711 0.661936
O O8 0.306201 0.272261 0.414565
O O9 0.774283 0.235296 0.754478
O O10 0.775806 0.206403 0.616227
O O11 0.013791 0.277287 0.403688
O O12 0.908663 0.000000 0.538372
O O13 0.644843 0.500000 0.108223
O O14 0.719350 0.256436 0.952351
O O15 0.932602 0.500000 0.141763
O O16 0.000000 0.243091 0.000000
O O17 0.807989 0.500000 0.777158
O O18 0.790493 0.000000 0.497531
#
# Coordination Sequence:
#
# PCOD8057728 Si02
#       7
#     4   4   4   4   4   4   4
#     4   9  16  29  50  70  94 125 157 195 232 276
#     4   9  18  32  50  68  95 128 156 194 237 279
#     4  10  19  30  44  66  95 122 155 197 242 280
#     4   9  17  30  47  71  95 122 161 197 235 278
#     4   8  14  26  47  74  98 123 155 188 228 278
#     4  10  18  28  46  68  92 120 158 200 233 277
#     4  10  19  31  47  69  94 122 162 201 232 281
#
# _framework density 18.088989000000002
#
# number of rings (size 3 to 8) (size 9 to 14) (size 15 to 20)
#    0.000    2.714    1.429    3.000    0.000    1.714 
#    0.000    3.571    0.000   15.429    0.000    0.000 
#    0.000    9.143    0.000    0.000    0.000    0.000 
#
# Total GULP energy -347020.420363 kJ/mol
# GULP energy per Si atom -12393.586442 kJ/mol
# Density = 1.804782 g / cm^3
# Si number density = 18.088989 Si / 1000 Ang^3
#
#
#
# Elastic Constant Matrix: (Units=GPa)
#
#
# Indices 1 2 3 4 5 6 
#
# 1 140.7208 11.2796 79.9018 0.0000 4.2310 0.0000
# 2 11.2796 18.6104 8.4275 0.0000 4.3696 0.0000
# 3 79.9018 8.4275 106.4383 0.0000 -6.8541 0.0000
# 4 0.0000 0.0000 0.0000 4.9172 0.0000 0.1633
# 5 4.2310 4.3696 -6.8541 0.0000 33.5548 0.0000
# 6 0.0000 0.0000 0.0000 0.1633 0.0000 14.7010
#
#
#
# Elastic Compliance Matrix: (Units=1/GPa)
#
#
# Indices 1 2 3 4 5 6 
#
# 1 0.012929 -0.002675 -0.009704 0.000000 -0.003264 0.000000
# 2 -0.002675 0.058645 -0.003146 0.000000 -0.007942 0.000000
# 3 -0.009704 -0.003146 0.017261 0.000000 0.005159 0.000000
# 4 0.000000 0.000000 0.000000 0.203441 0.000000 -0.002260
# 5 -0.003264 -0.007942 0.005159 0.000000 0.032302 0.000000
# 6 0.000000 0.000000 0.000000 -0.002260 0.000000 0.068048
#
#
# Mechanical properties :
#
#
# Convention : Reuss Voigt Hill
#
# Bulk Modulus (GPa) = 17.30609 51.66525 34.48567
# Shear Modulus (GPa) = 11.28830 21.71198 16.50014
#
# Velocity S-wave (km/s) = 2.50079 3.46827 3.02348
# Velocity P-wave (km/s) = 4.23398 6.68298 5.59414
#
# Compressibility (1/GPa) = 0.05778314
#
# Stress axis : x y z
#
# Youngs Moduli (GPa) = 77.34745 17.05188 57.93431
#
# Poissons Ratio (x) = 0.04562 0.56218
# Poissons Ratio (y) = 0.20693 0.18228
# Poissons Ratio (z) = 0.75056 0.05365
#
# Static dielectric constant tensor:
#      x y z
#    x 3.630250 0.000000 0.082200 
#    y 0.000000 3.052740 0.000000 
#    z 0.082200 0.000000 3.529690 
# 
# 
# High freq. dielectric constant tensor:
#      x y z
#    x 1.707590 0.000000 0.002930 
#    y 0.000000 1.673560 0.000000 
#    z 0.002930 0.000000 1.672100 
# 
# From -- ./inp_files/79846.got.cif
#   From: 2010.06.25/outbox.cif.g09.slc.cpg/sg10_40_cif.got.tgz:79846.got - 2010.06.27 22:07:45.
