data_PCOD8057332
_publ_section_title
;
Structure prediction by ZEFSAII (Michael W. Deem and Ramdas Pophale) SiO2 
 PCOD8057332
Probable space group: P 2/M
;
_chemical_formula_sum "Si O2"
_cell_formula_units_Z 32
_cell_length_a 15.701633
_cell_length_b 12.217667
_cell_length_c 14.453147
_cell_angle_alpha 90.000000
_cell_angle_beta 43.023119
_cell_angle_gamma 90.000000
_cell_volume 1891.762887
_symmetry_space_group_name_H-M "P 2/M"
_symmetry_group_IT_number 10
_symmetry_cell_setting 'monoclinic'
loop_
_space_group_symop_operation_xyz
x,y,z
-x,y,-z
-x,-y,-z
x,-y,z
loop_
_atom_site_type_symbol
_atom_site_label
_atom_site_fract_x
_atom_site_fract_y
_atom_site_fract_z
Si Si1 0.890848 0.624961 0.368329
Si Si2 0.832159 0.127537 0.951365
Si Si3 0.416447 0.874095 0.742723
Si Si4 0.037751 0.720055 0.874354
Si Si5 0.740324 0.122055 0.306852
Si Si6 0.322774 0.204543 0.445920
Si Si7 0.166370 0.879360 0.413776
Si Si8 0.067279 0.794107 0.315313
O O1 0.876211 0.500000 0.410288
O O2 0.754762 0.681801 0.487840
O O3 0.934457 0.631547 0.226930
O O4 0.999824 0.678805 0.344699
O O5 0.932497 0.194800 0.928742
O O6 0.841371 0.163463 0.837155
O O7 0.862698 0.000000 0.938758
O O8 0.695092 0.154929 0.098301
O O9 0.377600 0.857643 0.666539
O O10 0.526887 0.786585 0.676534
O O11 0.460680 0.000000 0.723086
O O12 0.159045 0.789655 0.801807
O O13 0.000000 0.659121 0.000000
O O14 0.706565 0.131077 0.441376
O O15 0.792459 0.000000 0.247310
O O16 0.287467 0.145173 0.378386
O O17 0.148936 0.789791 0.345124
O O18 0.046604 0.878591 0.577473
O O19 0.179307 0.000000 0.359443
#
# Coordination Sequence:
#
# PCOD8057332 Si02
#       8
#     4   4   4   4   4   4   4   4
#     4   9  20  36  53  70  91 121 161 214 255 282
#     4  10  18  28  45  72 107 136 157 187 233 292
#     4  10  19  29  45  70 102 137 166 191 228 287
#     4  10  18  29  47  73  99 128 157 197 244 296
#     4  10  18  28  46  71 101 135 165 194 233 286
#     4  10  20  32  47  67  95 130 172 206 237 276
#     4  10  17  29  50  75 103 129 156 190 238 297
#     4   9  18  31  49  72  96 124 157 195 246 291
#
# _framework density 16.915438000000002
#
# number of rings (size 3 to 8) (size 9 to 14) (size 15 to 20)
#    0.000    2.250    1.250    4.125    0.000    1.750 
#    0.000    5.625    0.000   11.250    0.000    0.000 
#    0.000   13.000    0.000    0.000    0.000    0.000 
#
# Total GULP energy -396552.087049 kJ/mol
# GULP energy per Si atom -12392.252720 kJ/mol
# Density = 1.687694 g / cm^3
# Si number density = 16.915438 Si / 1000 Ang^3
#
#
#
# Elastic Constant Matrix: (Units=GPa)
#
#
# Indices 1 2 3 4 5 6 
#
# 1 117.5845 35.8769 40.3380 0.0000 4.1504 0.0000
# 2 35.8769 83.8994 26.0337 0.0000 -2.1985 0.0000
# 3 40.3380 26.0337 73.6268 0.0000 0.1988 0.0000
# 4 0.0000 0.0000 0.0000 12.4696 0.0000 -1.5814
# 5 4.1504 -2.1985 0.1988 0.0000 26.3359 0.0000
# 6 0.0000 0.0000 0.0000 -1.5814 0.0000 14.3166
#
#
#
# Elastic Compliance Matrix: (Units=1/GPa)
#
#
# Indices 1 2 3 4 5 6 
#
# 1 0.011314 -0.003335 -0.005014 0.000000 -0.002024 0.000000
# 2 -0.003335 0.014406 -0.003271 0.000000 0.001753 0.000000
# 3 -0.005014 -0.003271 0.017484 0.000000 0.000385 0.000000
# 4 0.000000 0.000000 0.000000 0.081335 0.000000 0.008984
# 5 -0.002024 0.001753 0.000385 0.000000 0.038433 0.000000
# 6 0.000000 0.000000 0.000000 0.008984 0.000000 0.070841
#
#
# Mechanical properties :
#
#
# Convention : Reuss Voigt Hill
#
# Bulk Modulus (GPa) = 50.09035 53.28978 51.69006
# Shear Modulus (GPa) = 18.96033 22.14855 20.55444
#
# Velocity S-wave (km/s) = 3.35160 3.62245 3.48965
# Velocity P-wave (km/s) = 6.68237 7.00487 6.84552
#
# Compressibility (1/GPa) = 0.01996393
#
# Stress axis : x y z
#
# Youngs Moduli (GPa) = 88.38994 69.41422 57.19353
#
# Poissons Ratio (x) = 0.23151 0.28674
# Poissons Ratio (y) = 0.29480 0.18710
# Poissons Ratio (z) = 0.44315 0.22708
#
# Static dielectric constant tensor:
#      x y z
#    x 3.278050 0.000000 0.130040 
#    y 0.000000 2.787880 0.000000 
#    z 0.130040 0.000000 3.327140 
# 
# 
# High freq. dielectric constant tensor:
#      x y z
#    x 1.659430 0.000000 0.011520 
#    y 0.000000 1.608590 0.000000 
#    z 0.011520 0.000000 1.646350 
# 
# From -- ./inp_files/64393.got.cif
#   From: 2010.06.25/outbox.cif.g09.slc.cpg/sg10_33_cif.got.tgz:64393.got - 2010.06.27 22:07:45.
