data_PCOD8057233
_publ_section_title
;
Structure prediction by ZEFSAII (Michael W. Deem and Ramdas Pophale) SiO2 
 PCOD8057233
Probable space group: P 2/M
;
_chemical_formula_sum "Si O2"
_cell_formula_units_Z 32
_cell_length_a 23.949586
_cell_length_b 8.970257
_cell_length_c 30.145491
_cell_angle_alpha 90.000000
_cell_angle_beta 16.259312
_cell_angle_gamma 90.000000
_cell_volume 1813.260033
_symmetry_space_group_name_H-M "P 2/M"
_symmetry_group_IT_number 10
_symmetry_cell_setting 'monoclinic'
loop_
_space_group_symop_operation_xyz
x,y,z
-x,y,-z
-x,-y,-z
x,-y,z
loop_
_atom_site_type_symbol
_atom_site_label
_atom_site_fract_x
_atom_site_fract_y
_atom_site_fract_z
Si Si1 0.995912 0.822408 0.285773
Si Si2 0.209104 0.175990 0.470257
Si Si3 0.041941 0.673944 0.854372
Si Si4 0.611208 0.176231 0.058577
Si Si5 0.827113 0.821784 0.600617
Si Si6 0.391808 0.831623 0.629457
Si Si7 0.253066 0.325344 0.601067
Si Si8 0.343488 0.175377 0.876254
O O1 0.937559 0.764571 0.379402
O O2 0.846264 0.751525 0.365102
O O3 0.977127 0.000000 0.296091
O O4 0.223203 0.768251 0.102961
O O5 0.143516 0.239318 0.472110
O O6 0.436501 0.220073 0.308729
O O7 0.196051 0.000000 0.477062
O O8 0.044545 0.500000 0.862402
O O9 0.177215 0.753253 0.788397
O O10 0.122663 0.711395 0.743826
O O11 0.818106 0.736510 0.029586
O O12 0.388646 0.234888 0.216544
O O13 0.675786 0.229747 0.058140
O O14 0.601187 0.000000 0.066849
O O15 0.000000 0.754199 0.500000
O O16 0.835613 0.000000 0.594538
O O17 0.500000 0.828317 0.500000
O O18 0.525141 0.741501 0.562992
O O19 0.362153 0.000000 0.669146
O O20 0.270906 0.500000 0.579067
O O21 0.302577 0.000000 0.902888
#
# Coordination Sequence:
#
# PCOD8057233 Si02
#       8
#     4   4   4   4   4   4   4   4
#     4  10  17  28  45  65  91 121 156 193 229 272
#     4   8  16  27  42  65  91 121 155 191 228 272
#     4  10  18  27  42  66  93 117 150 196 238 272
#     4   8  14  23  40  63  86 118 156 188 221 269
#     4   8  13  24  41  63  95 129 153 181 229 277
#     4   9  17  28  43  64  90 122 157 189 229 279
#     4  10  19  29  42  64  94 122 151 190 238 277
#     4   9  15  27  44  62  86 118 155 190 230 277
#
# _framework density 17.647772
#
# number of rings (size 3 to 8) (size 9 to 14) (size 15 to 20)
#    0.000    3.000    1.250    2.625    0.000    2.500 
#    0.000    1.250    0.000    4.500    0.000    5.250 
#    0.000   19.000    0.000    0.000    0.000    0.000 
#
# Total GULP energy -396610.930320 kJ/mol
# GULP energy per Si atom -12394.091572 kJ/mol
# Density = 1.760761 g / cm^3
# Si number density = 17.647772 Si / 1000 Ang^3
#
#
#
# Elastic Constant Matrix: (Units=GPa)
#
#
# Indices 1 2 3 4 5 6 
#
# 1 95.0112 24.6463 76.5457 0.0000 -14.7685 0.0000
# 2 24.6463 40.1862 26.4059 0.0000 -4.6087 0.0000
# 3 76.5457 26.4059 138.7279 0.0000 -11.6991 0.0000
# 4 0.0000 0.0000 0.0000 4.3935 0.0000 3.5855
# 5 -14.7685 -4.6087 -11.6991 0.0000 35.0581 0.0000
# 6 0.0000 0.0000 0.0000 3.5855 0.0000 6.6091
#
#
#
# Elastic Compliance Matrix: (Units=1/GPa)
#
#
# Indices 1 2 3 4 5 6 
#
# 1 0.020759 -0.005633 -0.009988 0.000000 0.004671 0.000000
# 2 -0.005633 0.030105 -0.002561 0.000000 0.000730 0.000000
# 3 -0.009988 -0.002561 0.013195 0.000000 -0.000141 0.000000
# 4 0.000000 0.000000 0.000000 0.408432 0.000000 -0.221577
# 5 0.004671 0.000730 -0.000141 0.000000 0.030541 0.000000
# 6 0.000000 0.000000 0.000000 -0.221577 0.000000 0.271512
#
#
# Mechanical properties :
#
#
# Convention : Reuss Voigt Hill
#
# Bulk Modulus (GPa) = 36.10630 58.79123 47.44876
# Shear Modulus (GPa) = 6.09652 18.96732 12.53192
#
# Velocity S-wave (km/s) = 1.86066 3.28193 2.66769
# Velocity P-wave (km/s) = 5.01198 6.90995 6.03603
#
# Compressibility (1/GPa) = 0.02769600
#
# Stress axis : x y z
#
# Youngs Moduli (GPa) = 48.17086 33.21685 75.78581
#
# Poissons Ratio (x) = 0.18711 0.75697
# Poissons Ratio (y) = 0.27134 0.19406
# Poissons Ratio (z) = 0.48114 0.08506
#
# Static dielectric constant tensor:
#      x y z
#    x 3.297130 0.000000 -0.053070 
#    y 0.000000 2.895530 0.000000 
#    z -0.053070 0.000000 3.623800 
# 
# 
# High freq. dielectric constant tensor:
#      x y z
#    x 1.658050 0.000000 -0.017600 
#    y 0.000000 1.645120 0.000000 
#    z -0.017600 0.000000 1.681020 
# 
# From -- ./inp_files/93652.got.cif
#   From: 2010.06.25/outbox.cif.g09.slc.cpg/sg10_47_cif.got.tgz:93652.got - 2010.06.27 22:07:45.
