data_PCOD8057625
_publ_section_title
;
Structure prediction by ZEFSAII (Michael W. Deem and Ramdas Pophale) SiO2 
 PCOD8057625
Probable space group: P 2/M
;
_chemical_formula_sum "Si O2"
_cell_formula_units_Z 28
_cell_length_a 17.279597
_cell_length_b 12.758014
_cell_length_c 14.478975
_cell_angle_alpha 90.000000
_cell_angle_beta 33.078137
_cell_angle_gamma 90.000000
_cell_volume 1742.103367
_symmetry_space_group_name_H-M "P 2/M"
_symmetry_group_IT_number 10
_symmetry_cell_setting 'monoclinic'
loop_
_space_group_symop_operation_xyz
x,y,z
-x,y,-z
-x,-y,-z
x,-y,z
loop_
_atom_site_type_symbol
_atom_site_label
_atom_site_fract_x
_atom_site_fract_y
_atom_site_fract_z
Si Si1 0.586571 0.123235 0.825241
Si Si2 0.417286 0.806019 0.365716
Si Si3 0.415308 0.619060 0.493483
Si Si4 0.913431 0.876765 0.498380
Si Si5 0.917291 0.806019 0.299707
Si Si6 0.581043 0.000000 0.514390
Si Si7 0.915307 0.380941 0.175900
Si Si8 0.918959 0.000000 0.176476
O O1 0.523668 0.181768 0.797509
O O2 0.750001 0.151305 0.679242
O O3 0.565856 0.000000 0.829893
O O4 0.500000 0.163832 0.000000
O O5 0.463730 0.693931 0.361163
O O6 0.249998 0.817326 0.526028
O O7 0.472530 0.898360 0.376312
O O8 0.500000 0.651528 0.500000
O O9 0.449875 0.500000 0.429337
O O10 0.250001 0.634434 0.681176
O O11 0.976335 0.818231 0.344842
O O12 0.000000 0.836169 0.500000
O O13 0.934147 0.000000 0.461605
O O14 0.963730 0.693929 0.211377
O O15 0.972534 0.898358 0.178620
O O16 0.500000 0.000000 0.500000
O O17 0.750002 0.000000 0.328963
O O18 0.949871 0.500000 0.170920
O O19 0.000000 0.348471 0.000000
O O20 0.000000 0.000000 0.000000
#
# Coordination Sequence:
#
# PCOD8057625 Si02
#       8
#     4   4   4   4   4   2   4   2
#     4   9  16  28  45  63  83 109 140 174 210 250
#     4   9  16  28  45  62  84 114 142 168 208 257
#     4   9  17  29  45  64  85 112 146 178 206 243
#     4   9  16  28  45  63  83 109 140 174 210 250
#     4   9  16  28  45  62  84 114 142 168 208 257
#     4  10  18  28  41  60  86 114 139 166 205 252
#     4   9  17  29  45  64  85 112 146 178 206 243
#     4  10  18  28  41  60  86 114 139 166 205 252
#
# _framework density 16.072524999999999
#
# number of rings (size 3 to 8) (size 9 to 14) (size 15 to 20)
#    0.000    2.857    1.429    0.857    0.000    0.000 
#    0.000    2.857    0.000    0.857    0.000    0.000 
#    0.000    0.000    0.000    0.000    0.000    0.000 
#
# Total GULP energy -347124.741730 kJ/mol
# GULP energy per Si atom -12397.312205 kJ/mol
# Density = 1.603594 g / cm^3
# Si number density = 16.072525 Si / 1000 Ang^3
#
#
#
# Elastic Constant Matrix: (Units=GPa)
#
#
# Indices 1 2 3 4 5 6 
#
# 1 122.6037 57.2160 49.5168 0.0000 35.4927 0.0000
# 2 57.2160 90.3657 45.6642 0.0000 24.3556 0.0000
# 3 49.5168 45.6642 89.2854 0.0000 34.7455 0.0000
# 4 0.0000 0.0000 0.0000 17.6144 0.0000 7.3613
# 5 35.4927 24.3556 34.7455 0.0000 29.6989 0.0000
# 6 0.0000 0.0000 0.0000 7.3613 0.0000 21.1072
#
#
#
# Elastic Compliance Matrix: (Units=1/GPa)
#
#
# Indices 1 2 3 4 5 6 
#
# 1 0.014507 -0.005702 -0.000371 0.000000 -0.012226 0.000000
# 2 -0.005702 0.017786 -0.005342 0.000000 -0.001522 0.000000
# 3 -0.000371 -0.005342 0.022508 0.000000 -0.021508 0.000000
# 4 0.000000 0.000000 0.000000 0.066458 0.000000 -0.023178
# 5 -0.012226 -0.001522 -0.021508 0.000000 0.074694 0.000000
# 6 0.000000 0.000000 0.000000 -0.023178 0.000000 0.055461
#
#
# Mechanical properties :
#
#
# Convention : Reuss Voigt Hill
#
# Bulk Modulus (GPa) = 31.27899 67.44988 49.36444
# Shear Modulus (GPa) = 17.54994 23.67460 20.61227
#
# Velocity S-wave (km/s) = 3.30801 3.84211 3.58502
# Velocity P-wave (km/s) = 5.83900 7.85745 6.92219
#
# Compressibility (1/GPa) = 0.03197034
#
# Stress axis : x y z
#
# Youngs Moduli (GPa) = 68.93332 56.22327 44.42878
#
# Poissons Ratio (x) = 0.32061 0.01648
# Poissons Ratio (y) = 0.39308 0.23734
# Poissons Ratio (z) = 0.02557 0.30034
#
# Static dielectric constant tensor:
#      x y z
#    x 3.053970 0.000000 0.221290 
#    y 0.000000 3.068440 0.000000 
#    z 0.221290 0.000000 2.948900 
# 
# 
# High freq. dielectric constant tensor:
#      x y z
#    x 1.609160 0.000000 0.016160 
#    y 0.000000 1.605380 0.000000 
#    z 0.016160 0.000000 1.601490 
# 
# From -- ./inp_files/51400.got.cif
#   From: 2010.06.25/outbox.cif.g09.slc.cpg/sg10_26_cif.got.tgz:51400.got - 2010.06.27 22:07:45.
