data_PCOD8057551
_publ_section_title
;
Structure prediction by ZEFSAII (Michael W. Deem and Ramdas Pophale) SiO2 
 PCOD8057551
Probable space group: P 2/M
;
_chemical_formula_sum "Si O2"
_cell_formula_units_Z 32
_cell_length_a 20.688977
_cell_length_b 9.110773
_cell_length_c 16.494298
_cell_angle_alpha 90.000000
_cell_angle_beta 138.027193
_cell_angle_gamma 90.000000
_cell_volume 2079.265495
_symmetry_space_group_name_H-M "P 2/M"
_symmetry_group_IT_number 10
_symmetry_cell_setting 'monoclinic'
loop_
_space_group_symop_operation_xyz
x,y,z
-x,y,-z
-x,-y,-z
x,-y,z
loop_
_atom_site_type_symbol
_atom_site_label
_atom_site_fract_x
_atom_site_fract_y
_atom_site_fract_z
Si Si1 0.579270 0.663314 0.681387
Si Si2 0.148260 0.830242 0.505285
Si Si3 0.212338 0.170989 0.742206
Si Si4 0.032873 0.665678 0.623073
Si Si5 0.357495 0.666057 0.424824
Si Si6 0.491671 0.323882 0.221336
Si Si7 0.682557 0.171971 0.458022
Si Si8 0.423938 0.829521 0.998732
O O1 0.620921 0.500000 0.724940
O O2 0.467479 0.659748 0.554475
O O3 0.642706 0.736787 0.667498
O O4 0.580987 0.732714 0.773622
O O5 0.200677 0.782329 0.637548
O O6 0.218826 0.794701 0.497080
O O7 0.048937 0.742126 0.398278
O O8 0.120387 0.000000 0.483068
O O9 0.135940 0.254537 0.728317
O O10 0.319221 0.215491 0.868650
O O11 0.193085 0.000000 0.735817
O O12 0.044874 0.500000 0.664348
O O13 0.000000 0.676667 0.500000
O O14 0.314638 0.500000 0.386468
O O15 0.300462 0.769639 0.434395
O O16 0.501538 0.500000 0.232624
O O17 0.597351 0.254808 0.331375
O O18 0.446103 0.271646 0.095628
O O19 0.657983 0.000000 0.436738
O O20 0.429808 0.000000 0.029390
O O21 0.500000 0.792839 0.000000
#
# Coordination Sequence:
#
# PCOD8057551 Si02
#       8
#     4   4   4   4   4   4   4   4
#     4   7  12  24  40  55  75 106 140 171 204 244
#     4   9  17  29  44  60  81 111 140 164 200 252
#     4   9  17  30  46  59  77 110 144 170 202 245
#     4   9  17  28  43  63  83 101 129 173 213 242
#     4   8  13  24  40  56  77 107 139 168 203 247
#     4  10  19  30  43  59  81 112 148 180 209 243
#     4  10  18  27  40  61  88 113 139 172 208 247
#     4  10  20  33  46  61  84 113 145 178 209 241
#
# _framework density 15.390051
#
# number of rings (size 3 to 8) (size 9 to 14) (size 15 to 20)
#    0.000    3.000    0.000    3.375    0.000    5.250 
#    0.000    8.125    0.000    0.000    0.000    0.000 
#    0.000    1.000    0.000   11.250    0.000    5.250 
#
# Total GULP energy -396489.221481 kJ/mol
# GULP energy per Si atom -12390.288171 kJ/mol
# Density = 1.535502 g / cm^3
# Si number density = 15.390051 Si / 1000 Ang^3
#
#
#
# Elastic Constant Matrix: (Units=GPa)
#
#
# Indices 1 2 3 4 5 6 
#
# 1 132.1222 59.0033 56.7915 0.0000 -3.9627 0.0000
# 2 59.0033 67.9611 33.0073 0.0000 1.3339 0.0000
# 3 56.7915 33.0073 53.6743 0.0000 1.6837 0.0000
# 4 0.0000 0.0000 0.0000 9.9364 0.0000 -4.8433
# 5 -3.9627 1.3339 1.6837 0.0000 25.0846 0.0000
# 6 0.0000 0.0000 0.0000 -4.8433 0.0000 23.6293
#
#
#
# Elastic Compliance Matrix: (Units=1/GPa)
#
#
# Indices 1 2 3 4 5 6 
#
# 1 0.017100 -0.008664 -0.012891 0.000000 0.004027 0.000000
# 2 -0.008664 0.025372 -0.006364 0.000000 -0.002291 0.000000
# 3 -0.012891 -0.006364 0.036314 0.000000 -0.004136 0.000000
# 4 0.000000 0.000000 0.000000 0.111811 0.000000 0.022918
# 5 0.004027 -0.002291 -0.004136 0.000000 0.040901 0.000000
# 6 0.000000 0.000000 0.000000 0.022918 0.000000 0.047018
#
#
# Mechanical properties :
#
#
# Convention : Reuss Voigt Hill
#
# Bulk Modulus (GPa) = 43.57686 61.26242 52.41964
# Shear Modulus (GPa) = 14.61976 18.72709 16.67342
#
# Velocity S-wave (km/s) = 3.08547 3.49209 3.29506
# Velocity P-wave (km/s) = 6.40858 7.49350 6.97218
#
# Compressibility (1/GPa) = 0.02294796
#
# Stress axis : x y z
#
# Youngs Moduli (GPa) = 58.47942 39.41360 27.53749
#
# Poissons Ratio (x) = 0.34148 0.35500
# Poissons Ratio (y) = 0.50667 0.17524
# Poissons Ratio (z) = 0.75389 0.25081
#
# Static dielectric constant tensor:
#      x y z
#    x 3.255890 0.000000 -0.250490 
#    y 0.000000 2.917640 0.000000 
#    z -0.250490 0.000000 2.736960 
# 
# 
# High freq. dielectric constant tensor:
#      x y z
#    x 1.595260 0.000000 -0.011770 
#    y 0.000000 1.584350 0.000000 
#    z -0.011770 0.000000 1.542350 
# 
# From -- ./inp_files/66163.got.cif
#   From: 2010.06.25/outbox.cif.g09.slc.cpg/sg10_34_cif.got.tgz:66163.got - 2010.06.27 22:07:45.
