data_PCOD8057860
_publ_section_title
;
Structure prediction by ZEFSAII (Michael W. Deem and Ramdas Pophale) SiO2 
 PCOD8057860
Probable space group: P 2/M
;
_chemical_formula_sum "Si O2"
_cell_formula_units_Z 32
_cell_length_a 20.329156
_cell_length_b 8.711125
_cell_length_c 31.542757
_cell_angle_alpha 90.000000
_cell_angle_beta 160.864618
_cell_angle_gamma 90.000000
_cell_volume 1831.066060
_symmetry_space_group_name_H-M "P 2/M"
_symmetry_group_IT_number 10
_symmetry_cell_setting 'monoclinic'
loop_
_space_group_symop_operation_xyz
x,y,z
-x,y,-z
-x,-y,-z
x,-y,z
loop_
_atom_site_type_symbol
_atom_site_label
_atom_site_fract_x
_atom_site_fract_y
_atom_site_fract_z
Si Si1 0.788567 0.320733 0.912026
Si Si2 0.314003 0.320074 0.413363
Si Si3 0.011298 0.170082 0.837939
Si Si4 0.620957 0.177092 0.891681
Si Si5 0.205687 0.821950 0.608795
Si Si6 0.594782 0.819052 0.354867
Si Si7 0.836594 0.824800 0.825383
Si Si8 0.588617 0.679723 0.435544
O O1 0.807231 0.500000 0.913383
O O2 0.694004 0.294814 0.900660
O O3 0.636003 0.242479 0.785527
O O4 0.011030 0.244901 0.046524
O O5 0.500000 0.246187 0.500000
O O6 0.347635 0.500000 0.435809
O O7 0.313498 0.256489 0.461173
O O8 0.101678 0.285821 0.261977
O O9 0.938768 0.182440 0.841819
O O10 0.973262 0.000000 0.796522
O O11 0.252404 0.206528 0.987698
O O12 0.381038 0.202132 0.751011
O O13 0.659749 0.000000 0.899932
O O14 0.278346 0.752260 0.607735
O O15 0.000000 0.741551 0.500000
O O16 0.160841 0.000000 0.573942
O O17 0.693423 0.763208 0.459127
O O18 0.588243 0.000000 0.348412
O O19 0.645442 0.716851 0.705812
O O20 0.778746 0.000000 0.802176
O O21 0.622823 0.500000 0.451264
#
# Coordination Sequence:
#
# PCOD8057860 Si02
#       8
#     4   4   4   4   4   4   4   4
#     4  10  18  29  46  66  91 125 162 194 230 276
#     4  10  20  33  47  65  90 122 163 208 245 275
#     4   9  17  28  45  67  93 124 158 199 240 277
#     4   8  15  28  45  71 101 125 154 192 234 280
#     4   8  14  28  53  79 100 123 150 183 229 286
#     4  10  20  34  49  68  96 124 154 192 234 282
#     4  10  19  31  46  66  91 123 162 201 240 275
#     4  11  22  34  47  65  91 123 162 201 240 282
#
# _framework density 17.476158999999999
#
# number of rings (size 3 to 8) (size 9 to 14) (size 15 to 20)
#    0.000    2.500    1.250    3.750    0.000    3.750 
#    0.000    2.500    0.000    9.375    0.000    0.875 
#    0.000    7.000    0.000    0.000    0.000    0.000 
#
# Total GULP energy -396556.306408 kJ/mol
# GULP energy per Si atom -12392.384575 kJ/mol
# Density = 1.743638 g / cm^3
# Si number density = 17.476159 Si / 1000 Ang^3
#
#
#
# Elastic Constant Matrix: (Units=GPa)
#
#
# Indices 1 2 3 4 5 6 
#
# 1 60.2726 13.1709 50.8594 0.0000 -10.3521 0.0000
# 2 13.1709 43.1562 12.9411 0.0000 -9.7763 0.0000
# 3 50.8594 12.9411 112.6729 0.0000 -13.1029 0.0000
# 4 0.0000 0.0000 0.0000 19.4905 0.0000 -8.7733
# 5 -10.3521 -9.7763 -13.1029 0.0000 30.5881 0.0000
# 6 0.0000 0.0000 0.0000 -8.7733 0.0000 15.5106
#
#
#
# Elastic Compliance Matrix: (Units=1/GPa)
#
#
# Indices 1 2 3 4 5 6 
#
# 1 0.028010 -0.004322 -0.011793 0.000000 0.003047 0.000000
# 2 -0.004322 0.026102 -0.000260 0.000000 0.006768 0.000000
# 3 -0.011793 -0.000260 0.014476 0.000000 0.002127 0.000000
# 4 0.000000 0.000000 0.000000 0.068833 0.000000 0.038934
# 5 0.003047 0.006768 0.002127 0.000000 0.036798 0.000000
# 6 0.000000 0.000000 0.000000 0.038934 0.000000 0.086495
#
#
# Mechanical properties :
#
#
# Convention : Reuss Voigt Hill
#
# Bulk Modulus (GPa) = 27.90329 41.11605 34.50967
# Shear Modulus (GPa) = 16.37155 22.39317 19.38236
#
# Velocity S-wave (km/s) = 3.06403 3.58349 3.33389
# Velocity P-wave (km/s) = 5.34030 6.37964 5.88297
#
# Compressibility (1/GPa) = 0.03583806
#
# Stress axis : x y z
#
# Youngs Moduli (GPa) = 35.70155 38.31141 69.08211
#
# Poissons Ratio (x) = 0.16558 0.81467
# Poissons Ratio (y) = 0.15430 0.01796
# Poissons Ratio (z) = 0.42102 0.00996
#
# Static dielectric constant tensor:
#      x y z
#    x 3.223300 0.000000 -0.087700 
#    y 0.000000 3.055740 0.000000 
#    z -0.087700 0.000000 3.490120 
# 
# 
# High freq. dielectric constant tensor:
#      x y z
#    x 1.637670 0.000000 -0.017410 
#    y 0.000000 1.662670 0.000000 
#    z -0.017410 0.000000 1.670710 
# 
# From -- ./inp_files/95684.got.cif
#   From: 2010.06.25/outbox.cif.g09.slc.cpg/sg10_48_cif.got.tgz:95684.got - 2010.06.27 22:07:45.
