data_PCOD8057063
_publ_section_title
;
Structure prediction by ZEFSAII (Michael W. Deem and Ramdas Pophale) SiO2 
 PCOD8057063
Probable space group: P 2/M
;
_chemical_formula_sum "Si O2"
_cell_formula_units_Z 32
_cell_length_a 17.187341
_cell_length_b 9.333249
_cell_length_c 13.517099
_cell_angle_alpha 90.000000
_cell_angle_beta 102.243594
_cell_angle_gamma 90.000000
_cell_volume 2119.009301
_symmetry_space_group_name_H-M "P 2/M"
_symmetry_group_IT_number 10
_symmetry_cell_setting 'monoclinic'
loop_
_space_group_symop_operation_xyz
x,y,z
-x,y,-z
-x,-y,-z
x,-y,z
loop_
_atom_site_type_symbol
_atom_site_label
_atom_site_fract_x
_atom_site_fract_y
_atom_site_fract_z
Si Si1 0.159743 0.833235 0.932566
Si Si2 0.012229 0.158764 0.120191
Si Si3 0.161534 0.668809 0.136486
Si Si4 0.672498 0.661437 0.738226
Si Si5 0.455291 0.164091 0.788929
Si Si6 0.677325 0.162814 0.107978
Si Si7 0.413071 0.663395 0.078739
Si Si8 0.463878 0.831180 0.388189
O O1 0.227990 0.804241 0.868357
O O2 0.074219 0.792078 0.860112
O O3 0.157280 0.000000 0.964272
O O4 0.178108 0.742115 0.035506
O O5 0.081867 0.269553 0.167410
O O6 0.035550 0.000000 0.165109
O O7 0.000000 0.156780 0.000000
O O8 0.151932 0.500000 0.115732
O O9 0.234029 0.701768 0.231644
O O10 0.660719 0.500000 0.696367
O O11 0.641231 0.678788 0.840243
O O12 0.623563 0.764207 0.651800
O O13 0.361481 0.182376 0.792422
O O14 0.503961 0.255228 0.882325
O O15 0.474460 0.215362 0.682296
O O16 0.482817 0.000000 0.806754
O O17 0.662631 0.000000 0.067469
O O18 0.634405 0.270313 0.023787
O O19 0.433151 0.500000 0.059008
O O20 0.500000 0.771501 0.500000
O O21 0.451903 0.000000 0.390284
#
# Coordination Sequence:
#
# PCOD8057063 Si02
#       8
#     4   4   4   4   4   4   4   4
#     4   9  17  27  38  53  77 110 142 167 195 231
#     4   8  15  26  37  52  75 105 139 169 197 231
#     4  10  17  26  39  57  80 105 137 170 198 231
#     4   9  18  29  41  60  83 107 135 165 200 241
#     4   9  18  30  42  58  78 102 134 167 200 241
#     4  10  18  27  40  56  78 109 140 166 194 232
#     4  10  18  28  39  55  81 109 136 167 199 229
#     4   9  18  32  48  63  79 101 131 168 208 247
#
# _framework density 15.101397
#
# number of rings (size 3 to 8) (size 9 to 14) (size 15 to 20)
#    0.000    2.750    1.250    1.875    0.000    6.000 
#    0.000    0.000    0.000    0.000    0.000    0.000 
#    0.000    1.000    0.000   12.500    0.000    2.000 
#
# Total GULP energy -396549.558548 kJ/mol
# GULP energy per Si atom -12392.173705 kJ/mol
# Density = 1.506703 g / cm^3
# Si number density = 15.101397 Si / 1000 Ang^3
#
#
#
# Elastic Constant Matrix: (Units=GPa)
#
#
# Indices 1 2 3 4 5 6 
#
# 1 135.9208 42.2670 42.5189 0.0000 11.1920 0.0000
# 2 42.2670 61.1534 28.5127 0.0000 8.0590 0.0000
# 3 42.5189 28.5127 51.6098 0.0000 10.1270 0.0000
# 4 0.0000 0.0000 0.0000 12.3390 0.0000 3.7048
# 5 11.1920 8.0590 10.1270 0.0000 12.6638 0.0000
# 6 0.0000 0.0000 0.0000 3.7048 0.0000 17.2937
#
#
#
# Elastic Compliance Matrix: (Units=1/GPa)
#
#
# Indices 1 2 3 4 5 6 
#
# 1 0.010775 -0.004355 -0.006104 0.000000 -0.001870 0.000000
# 2 -0.004355 0.024065 -0.008846 0.000000 -0.004392 0.000000
# 3 -0.006104 -0.008846 0.032178 0.000000 -0.014708 0.000000
# 4 0.000000 0.000000 0.000000 0.086615 0.000000 -0.018556
# 5 -0.001870 -0.004392 -0.014708 0.000000 0.095175 0.000000
# 6 0.000000 0.000000 0.000000 -0.018556 0.000000 0.061800
#
#
# Mechanical properties :
#
#
# Convention : Reuss Voigt Hill
#
# Bulk Modulus (GPa) = 35.20001 52.80901 44.00451
# Shear Modulus (GPa) = 13.93971 17.48498 15.71235
#
# Velocity S-wave (km/s) = 3.04151 3.40639 3.22911
# Velocity P-wave (km/s) = 5.97445 7.10752 6.56548
#
# Compressibility (1/GPa) = 0.02840908
#
# Stress axis : x y z
#
# Youngs Moduli (GPa) = 92.80830 41.55358 31.07698
#
# Poissons Ratio (x) = 0.18096 0.18970
# Poissons Ratio (y) = 0.40416 0.27490
# Poissons Ratio (z) = 0.56652 0.36757
#
# Static dielectric constant tensor:
#      x y z
#    x 3.478920 0.000000 0.042920 
#    y 0.000000 2.977140 0.000000 
#    z 0.042920 0.000000 2.524090 
# 
# 
# High freq. dielectric constant tensor:
#      x y z
#    x 1.590110 0.000000 0.005870 
#    y 0.000000 1.584210 0.000000 
#    z 0.005870 0.000000 1.513080 
# 
# From -- ./inp_files/68197.got.cif
#   From: 2010.06.25/outbox.cif.g09.slc.cpg/sg10_35_cif.got.tgz:68197.got - 2010.06.27 22:07:45.
