data_PCOD8057527
_publ_section_title
;
Structure prediction by ZEFSAII (Michael W. Deem and Ramdas Pophale) SiO2 
 PCOD8057527
Probable space group: P 2/M
;
_chemical_formula_sum "Si O2"
_cell_formula_units_Z 32
_cell_length_a 14.303071
_cell_length_b 9.697702
_cell_length_c 26.106514
_cell_angle_alpha 90.000000
_cell_angle_beta 35.295952
_cell_angle_gamma 90.000000
_cell_volume 2092.302734
_symmetry_space_group_name_H-M "P 2/M"
_symmetry_group_IT_number 10
_symmetry_cell_setting 'monoclinic'
loop_
_space_group_symop_operation_xyz
x,y,z
-x,y,-z
-x,-y,-z
x,-y,z
loop_
_atom_site_type_symbol
_atom_site_label
_atom_site_fract_x
_atom_site_fract_y
_atom_site_fract_z
Si Si1 0.487734 0.347473 0.851750
Si Si2 0.741462 0.836485 0.596202
Si Si3 0.087517 0.663586 0.910336
Si Si4 0.254263 0.158635 0.217227
Si Si5 0.547247 0.339356 0.250234
Si Si6 0.685461 0.841106 0.923055
Si Si7 0.169894 0.655605 0.054202
Si Si8 0.049027 0.162235 0.401300
O O1 0.557784 0.500000 0.831699
O O2 0.582566 0.238793 0.843388
O O3 0.501737 0.312746 0.786229
O O4 0.301062 0.340123 0.950523
O O5 0.575636 0.752579 0.661043
O O6 0.819565 0.790023 0.615501
O O7 0.867890 0.786164 0.495557
O O8 0.705872 0.000000 0.610037
O O9 0.089052 0.500000 0.915919
O O10 0.271153 0.716880 0.822327
O O11 0.994508 0.706664 0.899773
O O12 0.000000 0.727304 0.000000
O O13 0.217080 0.177953 0.173886
O O14 0.105921 0.212762 0.319279
O O15 0.289921 0.000000 0.214327
O O16 0.531291 0.500000 0.272553
O O17 0.784444 0.753832 0.919601
O O18 0.683826 0.000000 0.941502
O O19 0.500000 0.788795 0.000000
O O20 0.151977 0.500000 0.083794
O O21 0.039407 0.000000 0.409024
#
# Coordination Sequence:
#
# PCOD8057527 Si02
#       8
#     4   4   4   4   4   4   4   4
#     4  10  18  26  41  66  91 115 147 184 215 246
#     4   9  16  28  45  64  88 115 147 182 216 260
#     4   9  16  29  47  65  87 118 153 182 212 259
#     4  10  18  30  46  62  86 123 154 173 211 267
#     4  10  18  28  44  67  92 117 147 181 219 260
#     4  10  20  31  44  65  91 118 146 182 225 261
#     4  10  19  31  47  64  86 120 155 185 213 249
#     4   8  15  27  44  64  85 116 151 179 209 260
#
# _framework density 15.294154000000001
#
# number of rings (size 3 to 8) (size 9 to 14) (size 15 to 20)
#    0.000    2.500    3.750    0.750    0.000    0.750 
#    0.000    2.500    0.000    0.750    0.000    0.875 
#    0.000    7.000    0.000    0.000    0.000    0.000 
#
# Total GULP energy -396616.744722 kJ/mol
# GULP energy per Si atom -12394.273273 kJ/mol
# Density = 1.525934 g / cm^3
# Si number density = 15.294154 Si / 1000 Ang^3
#
#
#
# Elastic Constant Matrix: (Units=GPa)
#
#
# Indices 1 2 3 4 5 6 
#
# 1 68.8388 35.3812 47.0898 0.0000 -5.9374 0.0000
# 2 35.3812 46.0484 33.4416 0.0000 -6.4886 0.0000
# 3 47.0898 33.4416 110.8554 0.0000 -6.0585 0.0000
# 4 0.0000 0.0000 0.0000 22.0123 0.0000 0.3228
# 5 -5.9374 -6.4886 -6.0585 0.0000 24.9478 0.0000
# 6 0.0000 0.0000 0.0000 0.3228 0.0000 12.6499
#
#
#
# Elastic Compliance Matrix: (Units=1/GPa)
#
#
# Indices 1 2 3 4 5 6 
#
# 1 0.027510 -0.016108 -0.006788 0.000000 0.000709 0.000000
# 2 -0.016108 0.037940 -0.004331 0.000000 0.004982 0.000000
# 3 -0.006788 -0.004331 0.013236 0.000000 0.000473 0.000000
# 4 0.000000 0.000000 0.000000 0.045446 0.000000 -0.001160
# 5 0.000709 0.004982 0.000473 0.000000 0.041663 0.000000
# 6 0.000000 0.000000 0.000000 -0.001160 0.000000 0.079082
#
#
# Mechanical properties :
#
#
# Convention : Reuss Voigt Hill
#
# Bulk Modulus (GPa) = 41.26493 50.84087 46.05290
# Shear Modulus (GPa) = 16.26504 19.24400 17.75452
#
# Velocity S-wave (km/s) = 3.26464 3.55104 3.41085
# Velocity P-wave (km/s) = 6.42261 7.08007 6.75934
#
# Compressibility (1/GPa) = 0.02423366
#
# Stress axis : x y z
#
# Youngs Moduli (GPa) = 36.35012 26.35760 75.54930
#
# Poissons Ratio (x) = 0.42457 0.51282
# Poissons Ratio (y) = 0.58552 0.32717
# Poissons Ratio (z) = 0.24674 0.11414
#
# Static dielectric constant tensor:
#      x y z
#    x 2.755300 0.000000 0.080770 
#    y 0.000000 2.738210 0.000000 
#    z 0.080770 0.000000 3.169790 
# 
# 
# High freq. dielectric constant tensor:
#      x y z
#    x 1.557910 0.000000 0.004500 
#    y 0.000000 1.565990 0.000000 
#    z 0.004500 0.000000 1.585250 
# 
# From -- ./inp_files/55716.got.cif
#   From: 2010.06.25/outbox.cif.g09.slc.cpg/sg10_28_cif.got.tgz:55716.got - 2010.06.27 22:07:45.
