data_PCOD8057326
_publ_section_title
;
Structure prediction by ZEFSAII (Michael W. Deem and Ramdas Pophale) SiO2 
 PCOD8057326
Probable space group: P 2/M
;
_chemical_formula_sum "Si O2"
_cell_formula_units_Z 32
_cell_length_a 22.996834
_cell_length_b 8.990745
_cell_length_c 15.069807
_cell_angle_alpha 90.000000
_cell_angle_beta 39.434191
_cell_angle_gamma 90.000000
_cell_volume 1979.138176
_symmetry_space_group_name_H-M "P 2/M"
_symmetry_group_IT_number 10
_symmetry_cell_setting 'monoclinic'
loop_
_space_group_symop_operation_xyz
x,y,z
-x,y,-z
-x,-y,-z
x,-y,z
loop_
_atom_site_type_symbol
_atom_site_label
_atom_site_fract_x
_atom_site_fract_y
_atom_site_fract_z
Si Si1 0.386202 0.327094 0.489891
Si Si2 0.082195 0.827694 0.786543
Si Si3 0.373011 0.675851 0.209757
Si Si4 0.878718 0.173781 0.059995
Si Si5 0.698555 0.673466 0.219779
Si Si6 0.568601 0.323741 0.046956
Si Si7 0.575298 0.823749 0.220738
Si Si8 0.758429 0.325002 0.487412
O O1 0.410599 0.500000 0.446875
O O2 0.353195 0.293718 0.627671
O O3 0.475871 0.232436 0.366023
O O4 0.306954 0.275651 0.516287
O O5 0.112161 0.774169 0.848935
O O6 0.141225 0.743875 0.642583
O O7 0.102982 0.000000 0.752417
O O8 0.974997 0.795128 0.897149
O O9 0.377557 0.500000 0.208790
O O10 0.465503 0.731734 0.148411
O O11 0.285417 0.734468 0.368326
O O12 0.368701 0.724050 0.111610
O O13 0.803141 0.273486 0.101458
O O14 0.852836 0.000000 0.084955
O O15 0.695962 0.500000 0.199078
O O16 0.650240 0.766692 0.200823
O O17 0.573066 0.500000 0.059004
O O18 0.604851 0.237369 0.089754
O O19 0.575586 0.000000 0.219267
O O20 0.770287 0.500000 0.475242
#
# Coordination Sequence:
#
# PCOD8057326 Si02
#       8
#     4   4   4   4   4   4   4   4
#     4  10  20  34  49  68  97 131 167 203 234 274
#     4   9  18  31  48  70  99 132 159 191 242 292
#     4   8  15  28  51  73  93 124 160 197 243 286
#     4   9  18  33  49  68  97 130 163 198 237 286
#     4  11  22  35  51  70  93 128 170 208 241 276
#     4   9  16  32  52  69  92 126 163 200 239 285
#     4  12  24  34  47  69  97 132 167 202 241 285
#     4  10  17  29  49  75 100 126 162 201 236 281
#
# _framework density 16.168652999999999
#
# number of rings (size 3 to 8) (size 9 to 14) (size 15 to 20)
#    0.000    2.250    2.500    3.375    0.000    3.500 
#    0.000    3.125    0.000    0.000    0.000    0.875 
#    0.000    7.000    0.000    0.000    0.000    0.000 
#
# Total GULP energy -396750.382783 kJ/mol
# GULP energy per Si atom -12398.449462 kJ/mol
# Density = 1.613185 g / cm^3
# Si number density = 16.168653 Si / 1000 Ang^3
#
#
#
# Elastic Constant Matrix: (Units=GPa)
#
#
# Indices 1 2 3 4 5 6 
#
# 1 76.6044 43.4245 50.8081 0.0000 10.1349 0.0000
# 2 43.4245 64.0906 45.9875 0.0000 0.1668 0.0000
# 3 50.8081 45.9875 127.8564 0.0000 8.8230 0.0000
# 4 0.0000 0.0000 0.0000 21.4818 0.0000 -9.2935
# 5 10.1349 0.1668 8.8230 0.0000 20.9981 0.0000
# 6 0.0000 0.0000 0.0000 -9.2935 0.0000 17.8987
#
#
#
# Elastic Compliance Matrix: (Units=1/GPa)
#
#
# Indices 1 2 3 4 5 6 
#
# 1 0.025146 -0.013947 -0.004270 0.000000 -0.010232 0.000000
# 2 -0.013947 0.028964 -0.005483 0.000000 0.008806 0.000000
# 3 -0.004270 -0.005483 0.011684 0.000000 -0.002805 0.000000
# 4 0.000000 0.000000 0.000000 0.060037 0.000000 0.031173
# 5 -0.010232 0.008806 -0.002805 0.000000 0.053671 0.000000
# 6 0.000000 0.000000 0.000000 0.031173 0.000000 0.072056
#
#
# Mechanical properties :
#
#
# Convention : Reuss Voigt Hill
#
# Bulk Modulus (GPa) = 54.36707 60.99909 57.68308
# Shear Modulus (GPa) = 16.38862 20.63113 18.50987
#
# Velocity S-wave (km/s) = 3.18717 3.57598 3.38716
# Velocity P-wave (km/s) = 6.87328 7.40668 7.14496
#
# Compressibility (1/GPa) = 0.01839349
#
# Stress axis : x y z
#
# Youngs Moduli (GPa) = 39.76752 34.52531 85.58811
#
# Poissons Ratio (x) = 0.48153 0.36547
# Poissons Ratio (y) = 0.55464 0.46929
# Poissons Ratio (z) = 0.16981 0.18931
#
# Static dielectric constant tensor:
#      x y z
#    x 2.951250 0.000000 0.117160 
#    y 0.000000 2.894700 0.000000 
#    z 0.117160 0.000000 3.318670 
# 
# 
# High freq. dielectric constant tensor:
#      x y z
#    x 1.596600 0.000000 0.005050 
#    y 0.000000 1.609960 0.000000 
#    z 0.005050 0.000000 1.622940 
# 
# From -- ./inp_files/69970.got.cif
#   From: 2010.06.25/outbox.cif.g09.slc.cpg/sg10_35_cif.got.tgz:69970.got - 2010.06.27 22:07:45.
