data_PCOD8057989
_publ_section_title
;
Structure prediction by ZEFSAII (Michael W. Deem and Ramdas Pophale) SiO2 
 PCOD8057989
Probable space group: P 2/M
;
_chemical_formula_sum "Si O2"
_cell_formula_units_Z 24
_cell_length_a 15.540330
_cell_length_b 13.736877
_cell_length_c 9.616340
_cell_angle_alpha 90.000000
_cell_angle_beta 39.671595
_cell_angle_gamma 90.000000
_cell_volume 1310.513851
_symmetry_space_group_name_H-M "P 2/M"
_symmetry_group_IT_number 10
_symmetry_cell_setting 'monoclinic'
loop_
_space_group_symop_operation_xyz
x,y,z
-x,y,-z
-x,-y,-z
x,-y,z
loop_
_atom_site_type_symbol
_atom_site_label
_atom_site_fract_x
_atom_site_fract_y
_atom_site_fract_z
Si Si1 0.408354 0.613635 0.423285
Si Si2 0.369189 0.105435 0.757278
Si Si3 0.658009 0.305332 0.775212
Si Si4 0.690352 0.686033 0.177036
Si Si5 0.139382 0.388762 0.272489
Si Si6 0.363679 0.895623 0.087456
O O1 0.433917 0.500000 0.357090
O O2 0.322438 0.667768 0.410456
O O3 0.551224 0.668621 0.264730
O O4 0.316858 0.621601 0.675072
O O5 0.500000 0.102580 0.500000
O O6 0.286690 0.200171 0.811080
O O7 0.294035 0.000000 0.832177
O O8 0.401624 0.122653 0.879590
O O9 0.743007 0.381113 0.759699
O O10 0.713816 0.197298 0.749434
O O11 0.500000 0.317470 0.000000
O O12 0.818565 0.659309 0.925306
O O13 0.111902 0.500000 0.272640
O O14 0.000000 0.340016 0.500000
O O15 0.284346 0.000000 0.202180
O O16 0.500000 0.905595 0.000000
#
# Coordination Sequence:
#
# PCOD8057989 Si02
#       6
#     4   4   4   4   4   4
#     4  11  21  31  52  81 109 139 180 230 272 317
#     4  10  18  29  48  76 110 141 173 219 278 333
#     4  11  20  34  54  81 108 142 182 231 270 321
#     4  11  19  35  52  78 111 144 177 224 280 325
#     4  11  23  38  56  78 110 149 186 226 275 330
#     4   9  17  29  47  75 110 140 170 218 274 322
#
# _framework density 18.313427999999998
#
# number of rings (size 3 to 8) (size 9 to 14) (size 15 to 20)
#    0.000    1.500    5.000    3.500    0.000    0.667 
#    0.000    0.833    0.000    5.000    0.000    0.000 
#    0.000    2.667    0.000    0.000    0.000    0.000 
#
# Total GULP energy -297332.780609 kJ/mol
# GULP energy per Si atom -12388.865859 kJ/mol
# Density = 1.827175 g / cm^3
# Si number density = 18.313428 Si / 1000 Ang^3
#
#
#
# Elastic Constant Matrix: (Units=GPa)
#
#
# Indices 1 2 3 4 5 6 
#
# 1 46.2394 12.8510 26.2421 0.0000 15.2479 0.0000
# 2 12.8510 134.8792 40.1591 0.0000 7.2756 0.0000
# 3 26.2421 40.1591 108.2951 0.0000 8.8564 0.0000
# 4 0.0000 0.0000 0.0000 23.1071 0.0000 10.1173
# 5 15.2479 7.2756 8.8564 0.0000 26.3300 0.0000
# 6 0.0000 0.0000 0.0000 10.1173 0.0000 18.3639
#
#
#
# Elastic Compliance Matrix: (Units=1/GPa)
#
#
# Indices 1 2 3 4 5 6 
#
# 1 0.030151 -0.000272 -0.005947 0.000000 -0.015385 0.000000
# 2 -0.000272 0.008380 -0.002946 0.000000 -0.001167 0.000000
# 3 -0.005947 -0.002946 0.011742 0.000000 0.000308 0.000000
# 4 0.000000 0.000000 0.000000 0.057035 0.000000 -0.031422
# 5 -0.015385 -0.001167 0.000308 0.000000 0.047108 0.000000
# 6 0.000000 0.000000 0.000000 -0.031422 0.000000 0.071766
#
#
# Mechanical properties :
#
#
# Convention : Reuss Voigt Hill
#
# Bulk Modulus (GPa) = 31.30626 49.76866 40.53746
# Shear Modulus (GPa) = 19.59553 27.57096 23.58325
#
# Velocity S-wave (km/s) = 3.27465 3.88429 3.59243
# Velocity P-wave (km/s) = 5.60621 6.88128 6.27621
#
# Compressibility (1/GPa) = 0.03194250
#
# Stress axis : x y z
#
# Youngs Moduli (GPa) = 33.16682 119.32988 85.16123
#
# Poissons Ratio (x) = 0.03247 0.50645
# Poissons Ratio (y) = 0.00903 0.25090
# Poissons Ratio (z) = 0.19724 0.35157
#
# Static dielectric constant tensor:
#      x y z
#    x 3.200470 0.000000 0.381700 
#    y 0.000000 4.353030 0.000000 
#    z 0.381700 0.000000 3.370320 
# 
# 
# High freq. dielectric constant tensor:
#      x y z
#    x 1.670860 0.000000 0.049590 
#    y 0.000000 1.736910 0.000000 
#    z 0.049590 0.000000 1.681930 
# 
# From -- ./inp_files/29295.got.cif
#   From: 2010.06.25/outbox.cif.g09.slc.cpg/sg10_15_cif.got.tgz:29295.got - 2010.06.27 22:07:45.
