data_PCOD8057619
_publ_section_title
;
Structure prediction by ZEFSAII (Michael W. Deem and Ramdas Pophale) SiO2 
 PCOD8057619
Probable space group: P 2/M
;
_chemical_formula_sum "Si O2"
_cell_formula_units_Z 32
_cell_length_a 23.226097
_cell_length_b 8.533814
_cell_length_c 14.608046
_cell_angle_alpha 90.000000
_cell_angle_beta 143.568125
_cell_angle_gamma 90.000000
_cell_volume 1719.493028
_symmetry_space_group_name_H-M "P 2/M"
_symmetry_group_IT_number 10
_symmetry_cell_setting 'monoclinic'
loop_
_space_group_symop_operation_xyz
x,y,z
-x,y,-z
-x,-y,-z
x,-y,z
loop_
_atom_site_type_symbol
_atom_site_label
_atom_site_fract_x
_atom_site_fract_y
_atom_site_fract_z
Si Si1 0.504606 0.181905 0.604908
Si Si2 0.004769 0.684805 0.109942
Si Si3 0.819923 0.819735 0.967885
Si Si4 0.387366 0.685465 0.762108
Si Si5 0.791078 0.679446 0.582183
Si Si6 0.595438 0.814914 0.019940
Si Si7 0.710911 0.176393 0.648052
Si Si8 0.680668 0.185977 0.942324
O O1 0.500000 0.264688 0.500000
O O2 0.400966 0.203832 0.519443
O O3 0.586905 0.261236 0.772494
O O4 0.531014 0.000000 0.625083
O O5 0.015344 0.500000 0.113724
O O6 0.099675 0.749609 0.286967
O O7 0.912578 0.723202 0.054184
O O8 0.000000 0.756866 0.000000
O O9 0.733043 0.796485 0.783610
O O10 0.778452 0.758666 0.013655
O O11 0.851642 0.000000 0.015415
O O12 0.398521 0.500000 0.761104
O O13 0.293255 0.757499 0.588306
O O14 0.485138 0.769540 0.851322
O O15 0.371108 0.720912 0.848185
O O16 0.792079 0.500000 0.555276
O O17 0.768765 0.699609 0.661314
O O18 0.671834 0.765296 0.037626
O O19 0.598541 0.000000 0.042808
O O20 0.742154 0.000000 0.660600
O O21 0.675384 0.000000 0.928538
#
# Coordination Sequence:
#
# PCOD8057619 Si02
#       8
#     4   4   4   4   4   4   4   4
#     4   9  14  23  40  65  97 130 158 186 225 280
#     4  10  20  35  52  69  96 134 173 211 253 299
#     4  10  19  31  48  73 101 130 166 206 246 291
#     4  10  20  35  54  76 103 132 167 210 253 296
#     4  10  21  35  51  70  97 133 167 206 256 301
#     4  10  19  33  55  80 106 133 165 202 247 302
#     4  10  18  27  46  73  99 128 165 203 238 288
#     4   9  17  29  46  71 103 135 164 198 243 296
#
# _framework density 18.610136000000001
#
# number of rings (size 3 to 8) (size 9 to 14) (size 15 to 20)
#    0.000    2.250    2.500    2.250    0.000    2.750 
#    0.000    1.250    0.000    1.875    0.000    5.250 
#    0.000    0.000    0.000    0.000    0.000    0.000 
#
# Total GULP energy -396477.175660 kJ/mol
# GULP energy per Si atom -12389.911739 kJ/mol
# Density = 1.856778 g / cm^3
# Si number density = 18.610136 Si / 1000 Ang^3
#
#
#
# Elastic Constant Matrix: (Units=GPa)
#
#
# Indices 1 2 3 4 5 6 
#
# 1 127.4855 0.9421 39.3905 0.0000 6.9636 0.0000
# 2 0.9421 14.5248 9.8639 0.0000 1.5609 0.0000
# 3 39.3905 9.8639 90.1593 0.0000 10.9156 0.0000
# 4 0.0000 0.0000 0.0000 16.9515 0.0000 2.3405
# 5 6.9636 1.5609 10.9156 0.0000 17.9837 0.0000
# 6 0.0000 0.0000 0.0000 2.3405 0.0000 6.0611
#
#
#
# Elastic Compliance Matrix: (Units=1/GPa)
#
#
# Indices 1 2 3 4 5 6 
#
# 1 0.009164 0.002329 -0.004106 0.000000 -0.001258 0.000000
# 2 0.002329 0.075010 -0.008987 0.000000 -0.001957 0.000000
# 3 -0.004106 -0.008987 0.014659 0.000000 -0.006528 0.000000
# 4 0.000000 0.000000 0.000000 0.062314 0.000000 -0.024063
# 5 -0.001258 -0.001957 -0.006528 0.000000 0.060225 0.000000
# 6 0.000000 0.000000 0.000000 -0.024063 0.000000 0.174278
#
#
# Mechanical properties :
#
#
# Convention : Reuss Voigt Hill
#
# Bulk Modulus (GPa) = 12.93571 36.95142 24.94356
# Shear Modulus (GPa) = 11.28800 20.33079 15.80940
#
# Velocity S-wave (km/s) = 2.46550 3.30882 2.91779
# Velocity P-wave (km/s) = 3.88212 5.87336 4.97832
#
# Compressibility (1/GPa) = 0.07730540
#
# Stress axis : x y z
#
# Youngs Moduli (GPa) = 109.11858 13.33148 68.21695
#
# Poissons Ratio (x) = -0.03106 0.28013
# Poissons Ratio (y) = -0.25419 0.61309
# Poissons Ratio (z) = 0.44809 0.11981
#
# Static dielectric constant tensor:
#      x y z
#    x 3.471620 0.000000 0.021350 
#    y 0.000000 3.053800 0.000000 
#    z 0.021350 0.000000 3.556170 
# 
# 
# High freq. dielectric constant tensor:
#      x y z
#    x 1.720030 0.000000 0.006120 
#    y 0.000000 1.686710 0.000000 
#    z 0.006120 0.000000 1.708310 
# 
# From -- ./inp_files/70011.got.cif
#   From: 2010.06.25/outbox.cif.g09.slc.cpg/sg10_36_cif.got.tgz:70011.got - 2010.06.27 22:07:45.
