data_PCOD8057139
_publ_section_title
;
Structure prediction by ZEFSAII (Michael W. Deem and Ramdas Pophale) SiO2 
 PCOD8057139
Probable space group: P 2/M
;
_chemical_formula_sum "Si O2"
_cell_formula_units_Z 32
_cell_length_a 26.861139
_cell_length_b 8.749774
_cell_length_c 21.525018
_cell_angle_alpha 90.000000
_cell_angle_beta 160.043067
_cell_angle_gamma 90.000000
_cell_volume 1726.706505
_symmetry_space_group_name_H-M "P 2/M"
_symmetry_group_IT_number 10
_symmetry_cell_setting 'monoclinic'
loop_
_space_group_symop_operation_xyz
x,y,z
-x,y,-z
-x,-y,-z
x,-y,z
loop_
_atom_site_type_symbol
_atom_site_label
_atom_site_fract_x
_atom_site_fract_y
_atom_site_fract_z
Si Si1 0.393877 0.179016 0.949516
Si Si2 0.076896 0.180689 0.906079
Si Si3 0.888825 0.675702 0.920653
Si Si4 0.787634 0.181756 0.498739
Si Si5 0.298082 0.680346 0.723076
Si Si6 0.637076 0.180613 0.825690
Si Si7 0.439956 0.324570 0.494897
Si Si8 0.525868 0.178232 0.824384
O O1 0.266955 0.246885 0.755581
O O2 0.416567 0.000000 0.962978
O O3 0.540383 0.269742 0.106003
O O4 0.365153 0.207901 0.989229
O O5 0.922913 0.240278 0.698776
O O6 0.081159 0.000000 0.908525
O O7 0.095944 0.229576 0.999017
O O8 0.210176 0.248528 0.021040
O O9 0.921737 0.500000 0.975558
O O10 0.732289 0.696104 0.705886
O O11 0.000000 0.740468 0.000000
O O12 0.809992 0.252504 0.456019
O O13 0.637239 0.243686 0.353535
O O14 0.784368 0.000000 0.487832
O O15 0.280979 0.500000 0.706741
O O16 0.505010 0.222481 0.625584
O O17 0.599338 0.252259 0.849288
O O18 0.649998 0.000000 0.845371
O O19 0.500000 0.262850 0.500000
O O20 0.488185 0.500000 0.561254
O O21 0.505749 0.000000 0.788719
#
# Coordination Sequence:
#
# PCOD8057139 Si02
#       8
#     4   4   4   4   4   4   4   4
#     4   9  15  27  47  69  99 136 166 198 246 300
#     4  10  21  35  53  76 102 130 167 208 251 299
#     4  10  22  38  54  73 101 133 166 205 251 300
#     4   9  18  33  49  69  99 134 166 200 247 303
#     4  10  17  26  44  73 102 128 163 209 249 288
#     4  10  20  34  53  77 101 129 165 210 251 291
#     4  10  20  36  54  72  97 132 169 203 243 300
#     4   8  16  30  49  72  98 128 163 201 245 291
#
# _framework density 18.532391000000001
#
# number of rings (size 3 to 8) (size 9 to 14) (size 15 to 20)
#    0.000    2.500    1.250    3.000    1.750    1.500 
#    0.000    3.125    0.000    0.750    0.000    5.250 
#    0.000    0.000    0.000    0.000    0.000    0.000 
#
# Total GULP energy -396610.889207 kJ/mol
# GULP energy per Si atom -12394.090288 kJ/mol
# Density = 1.849021 g / cm^3
# Si number density = 18.532391 Si / 1000 Ang^3
#
#
#
# Elastic Constant Matrix: (Units=GPa)
#
#
# Indices 1 2 3 4 5 6 
#
# 1 153.0750 23.5860 64.1385 0.0000 -14.0113 0.0000
# 2 23.5860 25.0349 18.1006 0.0000 -3.0998 0.0000
# 3 64.1385 18.1006 74.8738 0.0000 -5.0124 0.0000
# 4 0.0000 0.0000 0.0000 16.4624 0.0000 -3.2803
# 5 -14.0113 -3.0998 -5.0124 0.0000 28.9138 0.0000
# 6 0.0000 0.0000 0.0000 -3.2803 0.0000 4.8022
#
#
#
# Elastic Compliance Matrix: (Units=1/GPa)
#
#
# Indices 1 2 3 4 5 6 
#
# 1 0.010854 -0.003932 -0.008117 0.000000 0.003431 0.000000
# 2 -0.003932 0.050123 -0.008617 0.000000 0.001974 0.000000
# 3 -0.008117 -0.008617 0.022326 0.000000 -0.000987 0.000000
# 4 0.000000 0.000000 0.000000 0.070315 0.000000 0.048031
# 5 0.003431 0.001974 -0.000987 0.000000 0.036289 0.000000
# 6 0.000000 0.000000 0.000000 0.048031 0.000000 0.241045
#
#
# Mechanical properties :
#
#
# Convention : Reuss Voigt Hill
#
# Bulk Modulus (GPa) = 23.82596 51.62601 37.72598
# Shear Modulus (GPa) = 10.28224 19.84625 15.06425
#
# Velocity S-wave (km/s) = 2.35803 3.27600 2.85416
# Velocity P-wave (km/s) = 4.50533 6.49825 5.59130
#
# Compressibility (1/GPa) = 0.04197103
#
# Stress axis : x y z
#
# Youngs Moduli (GPa) = 92.13352 19.95088 44.79002
#
# Poissons Ratio (x) = 0.07844 0.36358
# Poissons Ratio (y) = 0.36225 0.38595
# Poissons Ratio (z) = 0.74789 0.17191
#
# Static dielectric constant tensor:
#      x y z
#    x 3.847090 0.000000 -0.249240 
#    y 0.000000 3.160220 0.000000 
#    z -0.249240 0.000000 3.558490 
# 
# 
# High freq. dielectric constant tensor:
#      x y z
#    x 1.720540 0.000000 -0.025080 
#    y 0.000000 1.696870 0.000000 
#    z -0.025080 0.000000 1.705680 
# 
# From -- ./inp_files/86938.got.cif
#   From: 2010.06.25/outbox.cif.g09.slc.cpg/sg10_44_cif.got.tgz:86938.got - 2010.06.27 22:07:45.
