data_PCOD8057306
_publ_section_title
;
Structure prediction by ZEFSAII (Michael W. Deem and Ramdas Pophale) SiO2 
 PCOD8057306
Probable space group: P 2/M
;
_chemical_formula_sum "Si O2"
_cell_formula_units_Z 32
_cell_length_a 14.305920
_cell_length_b 9.045311
_cell_length_c 14.545071
_cell_angle_alpha 90.000000
_cell_angle_beta 107.319279
_cell_angle_gamma 90.000000
_cell_volume 1796.818368
_symmetry_space_group_name_H-M "P 2/M"
_symmetry_group_IT_number 10
_symmetry_cell_setting 'monoclinic'
loop_
_space_group_symop_operation_xyz
x,y,z
-x,y,-z
-x,-y,-z
x,-y,z
loop_
_atom_site_type_symbol
_atom_site_label
_atom_site_fract_x
_atom_site_fract_y
_atom_site_fract_z
Si Si1 0.617948 0.325077 0.128705
Si Si2 0.683808 0.823571 0.771806
Si Si3 0.815757 0.170759 0.651421
Si Si4 0.600611 0.325317 0.915616
Si Si5 0.008328 0.175835 0.609431
Si Si6 0.710484 0.833717 0.440160
Si Si7 0.203614 0.325980 0.696043
Si Si8 0.507362 0.169384 0.601582
O O1 0.617694 0.500000 0.136490
O O2 0.511645 0.269616 0.134520
O O3 0.709209 0.261210 0.213931
O O4 0.632283 0.277389 0.027270
O O5 0.778842 0.768764 0.740306
O O6 0.679105 0.751678 0.871043
O O7 0.588331 0.759156 0.690996
O O8 0.682481 0.000000 0.781533
O O9 0.915232 0.240642 0.639336
O O10 0.726977 0.196156 0.553254
O O11 0.837396 0.000000 0.671284
O O12 0.607973 0.500000 0.904869
O O13 0.000000 0.225284 0.500000
O O14 0.101180 0.247065 0.688415
O O15 0.015537 0.000000 0.617323
O O16 0.771412 0.714083 0.401555
O O17 0.597390 0.817603 0.380015
O O18 0.748776 0.000000 0.427713
O O19 0.191138 0.500000 0.704313
O O20 0.500000 0.249384 0.500000
O O21 0.539268 0.000000 0.594243
#
# Coordination Sequence:
#
# PCOD8057306 Si02
#       8
#     4   4   4   4   4   4   4   4
#     4   8  17  34  54  73  97 131 165 197 243 300
#     4  10  18  29  47  74 102 128 159 202 247 282
#     4   9  17  30  48  67  95 132 165 194 232 287
#     4   9  17  34  56  73  95 132 169 195 234 301
#     4  10  19  34  53  70  92 131 176 204 233 291
#     4  10  17  29  47  68  95 133 168 190 225 290
#     4  11  21  32  49  74 100 123 156 211 260 285
#     4   9  15  24  43  68  95 127 162 191 222 276
#
# _framework density 17.809256999999999
#
# number of rings (size 3 to 8) (size 9 to 14) (size 15 to 20)
#    0.000    2.500    2.500    1.875    0.000    0.250 
#    0.000    4.375    0.000    1.500    0.000    5.250 
#    0.000    0.000    0.000    0.000    0.000    0.000 
#
# Total GULP energy -396530.963862 kJ/mol
# GULP energy per Si atom -12391.592621 kJ/mol
# Density = 1.776872 g / cm^3
# Si number density = 17.809257 Si / 1000 Ang^3
#
#
#
# Elastic Constant Matrix: (Units=GPa)
#
#
# Indices 1 2 3 4 5 6 
#
# 1 118.5312 25.7016 54.3551 0.0000 -16.6576 0.0000
# 2 25.7016 26.2045 19.7754 0.0000 -3.7411 0.0000
# 3 54.3551 19.7754 80.1052 0.0000 -16.5563 0.0000
# 4 0.0000 0.0000 0.0000 21.4231 0.0000 1.0171
# 5 -16.6576 -3.7411 -16.5563 0.0000 34.6919 0.0000
# 6 0.0000 0.0000 0.0000 1.0171 0.0000 14.3417
#
#
#
# Elastic Compliance Matrix: (Units=1/GPa)
#
#
# Indices 1 2 3 4 5 6 
#
# 1 0.013594 -0.007871 -0.006776 0.000000 0.002445 0.000000
# 2 -0.007871 0.051464 -0.007764 0.000000 -0.001935 0.000000
# 3 -0.006776 -0.007764 0.020139 0.000000 0.005520 0.000000
# 4 0.000000 0.000000 0.000000 0.046836 0.000000 -0.003322
# 5 0.002445 -0.001935 0.005520 0.000000 0.032425 0.000000
# 6 0.000000 0.000000 0.000000 -0.003322 0.000000 0.069962
#
#
# Mechanical properties :
#
#
# Convention : Reuss Voigt Hill
#
# Bulk Modulus (GPa) = 24.76731 47.16725 35.96728
# Shear Modulus (GPa) = 17.08232 22.42526 19.75379
#
# Velocity S-wave (km/s) = 3.10043 3.55236 3.33406
# Velocity P-wave (km/s) = 5.17243 6.58543 5.92123
#
# Compressibility (1/GPa) = 0.04037581
#
# Stress axis : x y z
#
# Youngs Moduli (GPa) = 73.56166 19.43107 49.65497
#
# Poissons Ratio (x) = 0.15294 0.33646
# Poissons Ratio (y) = 0.57898 0.38552
# Poissons Ratio (z) = 0.49844 0.15086
#
# Static dielectric constant tensor:
#      x y z
#    x 3.544030 0.000000 -0.007300 
#    y 0.000000 2.832370 0.000000 
#    z -0.007300 0.000000 3.318500 
# 
# 
# High freq. dielectric constant tensor:
#      x y z
#    x 1.692280 0.000000 -0.008790 
#    y 0.000000 1.642410 0.000000 
#    z -0.008790 0.000000 1.673110 
# 
# From -- ./inp_files/66193.got.cif
#   From: 2010.06.25/outbox.cif.g09.slc.cpg/sg10_34_cif.got.tgz:66193.got - 2010.06.27 22:07:45.
