data_PCOD8057696
_publ_section_title
;
Structure prediction by ZEFSAII (Michael W. Deem and Ramdas Pophale) SiO2 
 PCOD8057696
Probable space group: P 2/M
;
_chemical_formula_sum "Si O2"
_cell_formula_units_Z 32
_cell_length_a 11.790499
_cell_length_b 8.853866
_cell_length_c 20.265767
_cell_angle_alpha 90.000000
_cell_angle_beta 121.455976
_cell_angle_gamma 90.000000
_cell_volume 1804.671980
_symmetry_space_group_name_H-M "P 2/M"
_symmetry_group_IT_number 10
_symmetry_cell_setting 'monoclinic'
loop_
_space_group_symop_operation_xyz
x,y,z
-x,y,-z
-x,-y,-z
x,-y,z
loop_
_atom_site_type_symbol
_atom_site_label
_atom_site_fract_x
_atom_site_fract_y
_atom_site_fract_z
Si Si1 0.847256 0.675708 0.601502
Si Si2 0.423533 0.677057 0.539940
Si Si3 0.598785 0.822211 0.231133
Si Si4 0.136917 0.672849 0.686379
Si Si5 0.888040 0.171665 0.187041
Si Si6 0.427513 0.321647 0.286964
Si Si7 0.397926 0.825587 0.917666
Si Si8 0.822024 0.173120 0.734092
O O1 0.838969 0.500000 0.620711
O O2 0.733570 0.713279 0.513106
O O3 0.820867 0.776404 0.657691
O O4 0.990900 0.709546 0.610810
O O5 0.500000 0.747595 0.500000
O O6 0.452000 0.500000 0.550082
O O7 0.483492 0.744804 0.625632
O O8 0.742189 0.772894 0.305408
O O9 0.478749 0.749126 0.234750
O O10 0.588671 0.760741 0.152698
O O11 0.586963 0.000000 0.231988
O O12 0.176780 0.500000 0.686471
O O13 0.115972 0.704417 0.757169
O O14 0.754708 0.196741 0.102553
O O15 0.027417 0.191471 0.190482
O O16 0.881216 0.000000 0.214904
O O17 0.436972 0.500000 0.284270
O O18 0.274822 0.274055 0.251028
O O19 0.436993 0.000000 0.925411
O O20 0.500000 0.745025 0.000000
O O21 0.775269 0.000000 0.723506
#
# Coordination Sequence:
#
# PCOD8057696 Si02
#       8
#     4   4   4   4   4   4   4   4
#     4   9  16  29  48  69  91 120 161 206 242 274
#     4   9  16  29  48  68  91 120 161 207 242 271
#     4  10  20  34  50  70  99 126 153 192 238 286
#     4   9  16  27  47  70  92 121 159 196 233 281
#     4   8  15  27  45  71 100 125 151 191 235 274
#     4  11  21  33  50  68  92 128 166 200 236 281
#     4   8  14  28  53  79  97 118 151 190 231 275
#     4  10  18  28  44  69  99 127 157 194 240 283
#
# _framework density 17.731753999999999
#
# number of rings (size 3 to 8) (size 9 to 14) (size 15 to 20)
#    0.000    2.750    1.250    2.250    0.000    1.000 
#    0.000    2.500    0.000   13.875    0.000    5.250 
#    0.000    0.000    0.000    0.000    0.000    0.000 
#
# Total GULP energy -396480.224815 kJ/mol
# GULP energy per Si atom -12390.007025 kJ/mol
# Density = 1.769140 g / cm^3
# Si number density = 17.731754 Si / 1000 Ang^3
#
#
#
# Elastic Constant Matrix: (Units=GPa)
#
#
# Indices 1 2 3 4 5 6 
#
# 1 119.8808 31.3496 53.9423 0.0000 15.8535 0.0000
# 2 31.3496 50.1970 20.2566 0.0000 2.8492 0.0000
# 3 53.9423 20.2566 86.2499 0.0000 21.0477 0.0000
# 4 0.0000 0.0000 0.0000 12.4876 0.0000 0.8026
# 5 15.8535 2.8492 21.0477 0.0000 27.2293 0.0000
# 6 0.0000 0.0000 0.0000 0.8026 0.0000 29.7269
#
#
#
# Elastic Compliance Matrix: (Units=1/GPa)
#
#
# Indices 1 2 3 4 5 6 
#
# 1 0.012838 -0.005374 -0.006262 0.000000 -0.002072 0.000000
# 2 -0.005374 0.024353 -0.003082 0.000000 0.002962 0.000000
# 3 -0.006262 -0.003082 0.018815 0.000000 -0.010575 0.000000
# 4 0.000000 0.000000 0.000000 0.080219 0.000000 -0.002166
# 5 -0.002072 0.002962 -0.010575 0.000000 0.045796 0.000000
# 6 0.000000 0.000000 0.000000 -0.002166 0.000000 0.033698
#
#
# Mechanical properties :
#
#
# Convention : Reuss Voigt Hill
#
# Bulk Modulus (GPa) = 37.63306 51.93609 44.78458
# Shear Modulus (GPa) = 19.68422 23.94070 21.81246
#
# Velocity S-wave (km/s) = 3.33545 3.67844 3.51113
# Velocity P-wave (km/s) = 6.00860 6.88438 6.46134
#
# Compressibility (1/GPa) = 0.02657238
#
# Stress axis : x y z
#
# Youngs Moduli (GPa) = 77.89119 41.06286 53.14944
#
# Poissons Ratio (x) = 0.22065 0.33280
# Poissons Ratio (y) = 0.41855 0.16379
# Poissons Ratio (z) = 0.48773 0.12655
#
# Static dielectric constant tensor:
#      x y z
#    x 3.465150 0.000000 0.396000 
#    y 0.000000 3.119990 0.000000 
#    z 0.396000 0.000000 3.294180 
# 
# 
# High freq. dielectric constant tensor:
#      x y z
#    x 1.688650 0.000000 0.034250 
#    y 0.000000 1.669250 0.000000 
#    z 0.034250 0.000000 1.646490 
# 
# From -- ./inp_files/52736.got.cif
#   From: 2010.06.25/outbox.cif.g09.slc.cpg/sg10_27_cif.got.tgz:52736.got - 2010.06.27 22:07:45.
