data_PCOD8057488
_publ_section_title
;
Structure prediction by ZEFSAII (Michael W. Deem and Ramdas Pophale) SiO2 
 PCOD8057488
Probable space group: P 2/M
;
_chemical_formula_sum "Si O2"
_cell_formula_units_Z 28
_cell_length_a 25.747639
_cell_length_b 9.275136
_cell_length_c 17.667526
_cell_angle_alpha 90.000000
_cell_angle_beta 25.133737
_cell_angle_gamma 90.000000
_cell_volume 1792.045367
_symmetry_space_group_name_H-M "P 2/M"
_symmetry_group_IT_number 10
_symmetry_cell_setting 'monoclinic'
loop_
_space_group_symop_operation_xyz
x,y,z
-x,y,-z
-x,-y,-z
x,-y,z
loop_
_atom_site_type_symbol
_atom_site_label
_atom_site_fract_x
_atom_site_fract_y
_atom_site_fract_z
Si Si1 0.332313 0.661865 0.286347
Si Si2 0.416165 0.329236 0.722148
Si Si3 0.859743 0.669878 0.193219
Si Si4 0.329049 0.330427 0.679452
Si Si5 0.710001 0.831812 0.516120
Si Si6 0.572095 0.832136 0.144640
Si Si7 0.617522 0.661727 0.943580
O O1 0.281566 0.500000 0.366436
O O2 0.265662 0.771285 0.431451
O O3 0.309623 0.709442 0.228788
O O4 0.475246 0.664281 0.113425
O O5 0.412595 0.500000 0.742670
O O6 0.326582 0.282405 0.770872
O O7 0.551519 0.272162 0.521769
O O8 0.373790 0.246175 0.852952
O O9 0.843071 0.500000 0.229319
O O10 0.792301 0.719596 0.204679
O O11 0.803634 0.753010 0.337625
O O12 0.000000 0.714324 0.000000
O O13 0.343266 0.500000 0.660511
O O14 0.572071 0.798818 0.671789
O O15 0.738903 0.000000 0.478115
O O16 0.599723 0.000000 0.113795
O O17 0.645422 0.770679 0.975337
O O18 0.656965 0.500000 0.915121
#
# Coordination Sequence:
#
# PCOD8057488 Si02
#       7
#     4   4   4   4   4   4   4
#     4   8  14  25  40  56  76 105 142 175 200 238
#     4   9  15  26  44  59  78 108 139 172 204 246
#     4  10  19  31  47  63  80 105 141 182 214 243
#     4   8  15  27  43  62  78 101 139 175 211 246
#     4  10  19  28  39  57  83 113 140 169 209 251
#     4  10  18  25  36  59  87 112 139 169 203 245
#     4   8  14  24  38  56  78 108 140 169 203 240
#
# _framework density 15.624605000000001
#
# number of rings (size 3 to 8) (size 9 to 14) (size 15 to 20)
#    0.000    3.000    1.429    2.571    0.000    2.000 
#    0.000    5.000    0.000    0.000    0.000    0.000 
#    0.000    1.143    0.000   13.143    0.000    4.286 
#
# Total GULP energy -347004.551197 kJ/mol
# GULP energy per Si atom -12393.019686 kJ/mol
# Density = 1.558904 g / cm^3
# Si number density = 15.624605 Si / 1000 Ang^3
#
#
#
# Elastic Constant Matrix: (Units=GPa)
#
#
# Indices 1 2 3 4 5 6 
#
# 1 132.3940 56.4746 54.2510 0.0000 28.0933 0.0000
# 2 56.4746 71.7429 36.4294 0.0000 20.0502 0.0000
# 3 54.2510 36.4294 53.4056 0.0000 11.0711 0.0000
# 4 0.0000 0.0000 0.0000 13.0553 0.0000 2.0563
# 5 28.0933 20.0502 11.0711 0.0000 27.2891 0.0000
# 6 0.0000 0.0000 0.0000 2.0563 0.0000 6.6070
#
#
#
# Elastic Compliance Matrix: (Units=1/GPa)
#
#
# Indices 1 2 3 4 5 6 
#
# 1 0.015891 -0.004318 -0.011424 0.000000 -0.008552 0.000000
# 2 -0.004318 0.025777 -0.011128 0.000000 -0.009979 0.000000
# 3 -0.011424 -0.011128 0.036890 0.000000 0.004971 0.000000
# 4 0.000000 0.000000 0.000000 0.080545 0.000000 -0.025068
# 5 -0.008552 -0.009979 0.004971 0.000000 0.050764 0.000000
# 6 0.000000 0.000000 0.000000 -0.025068 0.000000 0.159157
#
#
# Mechanical properties :
#
#
# Convention : Reuss Voigt Hill
#
# Bulk Modulus (GPa) = 40.29441 61.31694 50.80567
# Shear Modulus (GPa) = 11.59986 16.74944 14.17465
#
# Velocity S-wave (km/s) = 2.72768 3.27768 3.01524
# Velocity P-wave (km/s) = 5.98041 7.32484 6.68650
#
# Compressibility (1/GPa) = 0.02481734
#
# Stress axis : x y z
#
# Youngs Moduli (GPa) = 62.92768 38.79353 27.10751
#
# Poissons Ratio (x) = 0.16752 0.30969
# Poissons Ratio (y) = 0.27173 0.30166
# Poissons Ratio (z) = 0.71891 0.43170
#
# Static dielectric constant tensor:
#      x y z
#    x 3.319970 0.000000 0.270240 
#    y 0.000000 2.859100 0.000000 
#    z 0.270240 0.000000 2.636820 
# 
# 
# High freq. dielectric constant tensor:
#      x y z
#    x 1.601260 0.000000 0.034630 
#    y 0.000000 1.588210 0.000000 
#    z 0.034630 0.000000 1.544540 
# 
# From -- ./inp_files/72460.got.cif
#   From: 2010.06.25/outbox.cif.g09.slc.cpg/sg10_37_cif.got.tgz:72460.got - 2010.06.27 22:07:45.
