data_PCOD8057060
_publ_section_title
;
Structure prediction by ZEFSAII (Michael W. Deem and Ramdas Pophale) SiO2 
 PCOD8057060
Probable space group: P 2/M
;
_chemical_formula_sum "Si O2"
_cell_formula_units_Z 24
_cell_length_a 11.833250
_cell_length_b 23.527526
_cell_length_c 5.361673
_cell_angle_alpha 90.000000
_cell_angle_beta 121.751754
_cell_angle_gamma 90.000000
_cell_volume 1269.320372
_symmetry_space_group_name_H-M "P 2/M"
_symmetry_group_IT_number 10
_symmetry_cell_setting 'monoclinic'
loop_
_space_group_symop_operation_xyz
x,y,z
-x,y,-z
-x,-y,-z
x,-y,z
loop_
_atom_site_type_symbol
_atom_site_label
_atom_site_fract_x
_atom_site_fract_y
_atom_site_fract_z
Si Si1 0.652845 0.624515 0.914780
Si Si2 0.500000 0.888619 0.000000
Si Si3 0.851381 0.870985 0.855293
Si Si4 0.647680 0.671073 0.402898
Si Si5 0.225816 0.934455 0.744641
Si Si6 0.584883 0.500000 0.846012
Si Si7 0.378015 0.205514 0.517599
O O1 0.719398 0.653014 0.745917
O O2 0.499430 0.644268 0.753743
O O3 0.673046 0.556708 0.934449
O O4 0.724338 0.645902 0.251290
O O5 0.615774 0.927897 0.020136
O O6 0.567823 0.848971 0.279721
O O7 0.815914 0.905538 0.563431
O O8 0.752082 0.817258 0.780213
O O9 0.848727 0.909223 0.101202
O O10 0.000000 0.846815 0.000000
O O11 0.657070 0.738943 0.362835
O O12 0.187189 0.000000 0.680537
O O13 0.500000 0.500000 0.500000
O O14 0.500000 0.500000 0.000000
O O15 0.500000 0.229443 0.500000
#
# Coordination Sequence:
#
# PCOD8057060 Si02
#       7
#     4   2   4   4   4   2   4
#     4  10  17  26  37  63  93 129 168 203 247 301
#     4  10  21  36  54  86 110 133 176 220 270 308
#     4  11  25  41  58  82 110 140 176 217 268 322
#     4  10  18  26  43  63  90 121 172 206 244 294
#     4  11  23  39  62  83 109 139 174 218 263 320
#     4  12  16  24  36  54  92 140 164 198 248 304
#     4  11  20  35  56  76 104 139 176 218 262 315
#
# _framework density 18.907755999999999
#
# number of rings (size 3 to 8) (size 9 to 14) (size 15 to 20)
#    0.000    1.333    6.667    2.250    0.000    2.000 
#    0.000    2.500    0.000    0.000    0.000    0.000 
#    0.000    0.000    0.000    8.250    0.000    0.167 
#
# Total GULP energy -297345.523113 kJ/mol
# GULP energy per Si atom -12389.396796 kJ/mol
# Density = 1.886472 g / cm^3
# Si number density = 18.907756 Si / 1000 Ang^3
#
#
#
# Elastic Constant Matrix: (Units=GPa)
#
#
# Indices 1 2 3 4 5 6 
#
# 1 69.1265 16.8098 38.6001 0.0000 -7.8405 0.0000
# 2 16.8098 110.3094 32.3124 0.0000 -2.1070 0.0000
# 3 38.6001 32.3124 87.6723 0.0000 -39.0555 0.0000
# 4 0.0000 0.0000 0.0000 24.0486 0.0000 -12.4620
# 5 -7.8405 -2.1070 -39.0555 0.0000 41.7138 0.0000
# 6 0.0000 0.0000 0.0000 -12.4620 0.0000 8.7341
#
#
#
# Elastic Compliance Matrix: (Units=1/GPa)
#
#
# Indices 1 2 3 4 5 6 
#
# 1 0.020626 0.000480 -0.012901 0.000000 -0.008177 0.000000
# 2 0.000480 0.010858 -0.006739 0.000000 -0.005671 0.000000
# 3 -0.012901 -0.006739 0.031459 0.000000 0.026689 0.000000
# 4 0.000000 0.000000 0.000000 0.159557 0.000000 0.227661
# 5 -0.008177 -0.005671 0.026689 0.000000 0.047138 0.000000
# 6 0.000000 0.000000 0.000000 0.227661 0.000000 0.439328
#
#
# Mechanical properties :
#
#
# Convention : Reuss Voigt Hill
#
# Bulk Modulus (GPa) = 40.61410 49.17251 44.89331
# Shear Modulus (GPa) = 6.61819 26.85834 16.73827
#
# Velocity S-wave (km/s) = 1.87293 3.77303 2.97856
# Velocity P-wave (km/s) = 5.11897 6.71148 5.96858
#
# Compressibility (1/GPa) = 0.02462199
#
# Stress axis : x y z
#
# Youngs Moduli (GPa) = 48.48298 92.09664 31.78730
#
# Poissons Ratio (x) = -0.04417 0.41008
# Poissons Ratio (y) = -0.02325 0.21423
# Poissons Ratio (z) = 0.62546 0.62068
#
# Static dielectric constant tensor:
#      x y z
#    x 3.797770 0.000000 -0.613420 
#    y 0.000000 3.703450 0.000000 
#    z -0.613420 0.000000 4.045350 
# 
# 
# High freq. dielectric constant tensor:
#      x y z
#    x 1.690230 0.000000 -0.042240 
#    y 0.000000 1.742490 0.000000 
#    z -0.042240 0.000000 1.730670 
# 
# From -- ./inp_files/10020.got.cif
#   From: 2010.06.25/outbox.cif.g09.slc.cpg/sg10_6_cif.got.tgz:10020.got - 2010.06.27 22:07:45.
