data_PCOD8057644
_publ_section_title
;
Structure prediction by ZEFSAII (Michael W. Deem and Ramdas Pophale) SiO2 
 PCOD8057644
Probable space group: P 2/M
;
_chemical_formula_sum "Si O2"
_cell_formula_units_Z 32
_cell_length_a 14.161257
_cell_length_b 13.916921
_cell_length_c 8.631206
_cell_angle_alpha 90.000000
_cell_angle_beta 93.616968
_cell_angle_gamma 90.000000
_cell_volume 1697.659194
_symmetry_space_group_name_H-M "P 2/M"
_symmetry_group_IT_number 10
_symmetry_cell_setting 'monoclinic'
loop_
_space_group_symop_operation_xyz
x,y,z
-x,y,-z
-x,-y,-z
x,-y,z
loop_
_atom_site_type_symbol
_atom_site_label
_atom_site_fract_x
_atom_site_fract_y
_atom_site_fract_z
Si Si1 0.958942 0.346558 0.662922
Si Si2 0.697130 0.388394 0.312452
Si Si3 0.706391 0.207872 0.849339
Si Si4 0.419032 0.755131 0.882387
Si Si5 0.251751 0.606667 0.338960
Si Si6 0.127130 0.605795 0.880072
Si Si7 0.533223 0.886715 0.674792
Si Si8 0.910804 0.784935 0.905058
O O1 0.860380 0.402213 0.647507
O O2 0.945436 0.240509 0.736307
O O3 0.000000 0.328503 0.500000
O O4 0.031966 0.407624 0.771901
O O5 0.674207 0.500000 0.290747
O O6 0.609757 0.328526 0.237220
O O7 0.705414 0.359747 0.492712
O O8 0.790802 0.359299 0.227495
O O9 0.718014 0.317409 0.789236
O O10 0.639688 0.150420 0.722878
O O11 0.811167 0.157659 0.878537
O O12 0.666014 0.207873 0.018663
O O13 0.459105 0.845086 0.790449
O O14 0.500000 0.710745 0.000000
O O15 0.289145 0.500000 0.296805
O O16 0.150736 0.500000 0.954360
O O17 0.113294 0.683309 0.013286
O O18 0.500000 0.855441 0.500000
O O19 0.532834 0.000000 0.693499
O O20 0.000000 0.838481 0.000000
#
# Coordination Sequence:
#
# PCOD8057644 Si02
#       8
#     4   4   4   4   4   4   4   4
#     4  10  18  28  42  67 100 143 197 240 266 292
#     4  10  19  31  47  69 103 147 187 221 262 310
#     4  10  20  35  55  82 112 143 177 223 269 316
#     4  10  21  36  57  80 106 135 174 222 271 321
#     4  10  20  31  47  72 110 153 191 228 264 306
#     4  10  18  28  42  62  96 142 187 229 261 294
#     4  10  22  42  67  90 106 125 161 217 281 337
#     4   9  19  31  46  71 108 147 183 218 260 315
#
# _framework density 18.849484
#
# number of rings (size 3 to 8) (size 9 to 14) (size 15 to 20)
#    0.000    2.125    2.500    1.125    0.000    7.750 
#    0.000    1.875    0.000    7.125    0.000    0.000 
#    0.000   10.000    0.000    0.000    0.000    0.000 
#
# Total GULP energy -396589.924699 kJ/mol
# GULP energy per Si atom -12393.435147 kJ/mol
# Density = 1.880658 g / cm^3
# Si number density = 18.849484 Si / 1000 Ang^3
#
#
#
# Elastic Constant Matrix: (Units=GPa)
#
#
# Indices 1 2 3 4 5 6 
#
# 1 117.3961 37.9816 42.7741 0.0000 14.8630 0.0000
# 2 37.9816 48.5606 30.8981 0.0000 5.7640 0.0000
# 3 42.7741 30.8981 98.0028 0.0000 7.2291 0.0000
# 4 0.0000 0.0000 0.0000 12.0510 0.0000 2.2962
# 5 14.8630 5.7640 7.2291 0.0000 40.6844 0.0000
# 6 0.0000 0.0000 0.0000 2.2962 0.0000 14.0698
#
#
#
# Elastic Compliance Matrix: (Units=1/GPa)
#
#
# Indices 1 2 3 4 5 6 
#
# 1 0.012346 -0.007526 -0.002798 0.000000 -0.002947 0.000000
# 2 -0.007526 0.030551 -0.006313 0.000000 -0.000457 0.000000
# 3 -0.002798 -0.006313 0.013451 0.000000 -0.000473 0.000000
# 4 0.000000 0.000000 0.000000 0.085644 0.000000 -0.013977
# 5 -0.002947 -0.000457 -0.000473 0.000000 0.025805 0.000000
# 6 0.000000 0.000000 0.000000 -0.013977 0.000000 0.073356
#
#
# Mechanical properties :
#
#
# Convention : Reuss Voigt Hill
#
# Bulk Modulus (GPa) = 43.34348 54.14080 48.74214
# Shear Modulus (GPa) = 17.72314 23.51474 20.61894
#
# Velocity S-wave (km/s) = 3.06967 3.53583 3.31096
# Velocity P-wave (km/s) = 5.96727 6.74200 6.36643
#
# Compressibility (1/GPa) = 0.02307152
#
# Stress axis : x y z
#
# Youngs Moduli (GPa) = 80.99995 32.73266 74.34667
#
# Poissons Ratio (x) = 0.24634 0.20804
# Poissons Ratio (y) = 0.60960 0.46938
# Poissons Ratio (z) = 0.22666 0.20666
#
# Static dielectric constant tensor:
#      x y z
#    x 3.829730 0.000000 0.192300 
#    y 0.000000 2.930210 0.000000 
#    z 0.192300 0.000000 3.705150 
# 
# 
# High freq. dielectric constant tensor:
#      x y z
#    x 1.742440 0.000000 0.008970 
#    y 0.000000 1.675290 0.000000 
#    z 0.008970 0.000000 1.748750 
# 
# From -- ./inp_files/28580.got.cif
#   From: 2010.06.25/outbox.cif.g09.slc.cpg/sg10_15_cif.got.tgz:28580.got - 2010.06.27 22:07:45.
