data_PCOD8057559
_publ_section_title
;
Structure prediction by ZEFSAII (Michael W. Deem and Ramdas Pophale) SiO2 
 PCOD8057559
Probable space group: P 2/M
;
_chemical_formula_sum "Si O2"
_cell_formula_units_Z 32
_cell_length_a 12.023405
_cell_length_b 9.027183
_cell_length_c 20.230665
_cell_angle_alpha 90.000000
_cell_angle_beta 116.148562
_cell_angle_gamma 90.000000
_cell_volume 1971.056319
_symmetry_space_group_name_H-M "P 2/M"
_symmetry_group_IT_number 10
_symmetry_cell_setting 'monoclinic'
loop_
_space_group_symop_operation_xyz
x,y,z
-x,y,-z
-x,-y,-z
x,-y,z
loop_
_atom_site_type_symbol
_atom_site_label
_atom_site_fract_x
_atom_site_fract_y
_atom_site_fract_z
Si Si1 0.451604 0.674341 0.763507
Si Si2 0.585889 0.829729 0.119099
Si Si3 0.314587 0.828994 0.993740
Si Si4 0.318139 0.666363 0.336504
Si Si5 0.144540 0.670728 0.047620
Si Si6 0.709629 0.823700 0.802392
Si Si7 0.646510 0.165867 0.527555
Si Si8 0.611070 0.663912 0.393678
O O1 0.481687 0.500000 0.773046
O O2 0.377457 0.725909 0.809290
O O3 0.579397 0.763909 0.795000
O O4 0.367339 0.712448 0.676958
O O5 0.445949 0.794633 0.061379
O O6 0.599438 0.000000 0.143929
O O7 0.677764 0.793848 0.082466
O O8 0.211741 0.723837 0.998385
O O9 0.278700 0.000000 0.996124
O O10 0.264281 0.500000 0.320391
O O11 0.258013 0.761821 0.261898
O O12 0.284238 0.738677 0.398240
O O13 0.464683 0.664439 0.366378
O O14 0.179055 0.500000 0.070132
O O15 0.184356 0.770274 0.120093
O O16 0.000000 0.693175 0.000000
O O17 0.705148 0.000000 0.798588
O O18 0.500000 0.171048 0.500000
O O19 0.678684 0.227702 0.462952
O O20 0.697773 0.000000 0.545229
O O21 0.664302 0.500000 0.420515
#
# Coordination Sequence:
#
# PCOD8057559 Si02
#       8
#     4   4   4   4   4   4   4   4
#     4  10  18  27  41  62  86 113 145 179 217 258
#     4   9  17  29  46  67  90 113 141 181 222 260
#     4   9  18  32  48  67  88 112 143 179 221 267
#     4   9  16  26  39  53  74 104 137 175 215 252
#     4  11  23  36  49  66  88 113 145 185 225 266
#     4  11  20  30  44  61  82 108 143 182 218 261
#     4   9  15  22  33  51  73 101 139 175 207 247
#     4   8  15  24  33  49  76 108 139 171 207 249
#
# _framework density 16.234950000000001
#
# number of rings (size 3 to 8) (size 9 to 14) (size 15 to 20)
#    0.000    2.500    1.250    4.125    0.000    6.500 
#    0.000    1.250    0.000    0.000    0.000    0.000 
#    0.000    0.000    0.000    1.125    0.000   21.125 
#
# Total GULP energy -396707.804459 kJ/mol
# GULP energy per Si atom -12397.118889 kJ/mol
# Density = 1.619800 g / cm^3
# Si number density = 16.234950 Si / 1000 Ang^3
#
#
#
# Elastic Constant Matrix: (Units=GPa)
#
#
# Indices 1 2 3 4 5 6 
#
# 1 44.0914 33.2916 35.2422 0.0000 -12.1119 0.0000
# 2 33.2916 125.8237 67.1408 0.0000 -18.6444 0.0000
# 3 35.2422 67.1408 113.7475 0.0000 -37.3936 0.0000
# 4 0.0000 0.0000 0.0000 31.2703 0.0000 -9.5541
# 5 -12.1119 -18.6444 -37.3936 0.0000 22.5945 0.0000
# 6 0.0000 0.0000 0.0000 -9.5541 0.0000 17.2585
#
#
#
# Elastic Compliance Matrix: (Units=1/GPa)
#
#
# Indices 1 2 3 4 5 6 
#
# 1 0.031990 -0.004763 -0.006041 0.000000 0.003219 0.000000
# 2 -0.004763 0.012467 -0.007326 0.000000 -0.004391 0.000000
# 3 -0.006041 -0.007326 0.026178 0.000000 0.034041 0.000000
# 4 0.000000 0.000000 0.000000 0.038489 0.000000 0.021307
# 5 0.003219 -0.004391 0.034041 0.000000 0.098698 0.000000
# 6 0.000000 0.000000 0.000000 0.021307 0.000000 0.069738
#
#
# Mechanical properties :
#
#
# Convention : Reuss Voigt Hill
#
# Bulk Modulus (GPa) = 29.09289 61.66798 45.38044
# Shear Modulus (GPa) = 15.37135 24.09053 19.73094
#
# Velocity S-wave (km/s) = 3.08036 3.85628 3.48995
# Velocity P-wave (km/s) = 5.53266 7.60888 6.65227
#
# Compressibility (1/GPa) = 0.03437266
#
# Stress axis : x y z
#
# Youngs Moduli (GPa) = 31.25971 80.21349 38.19933
#
# Poissons Ratio (x) = 0.38209 0.23078
# Poissons Ratio (y) = 0.14890 0.27987
# Poissons Ratio (z) = 0.18885 0.58768
#
# Static dielectric constant tensor:
#      x y z
#    x 2.611260 0.000000 -0.434240 
#    y 0.000000 3.194170 0.000000 
#    z -0.434240 0.000000 3.242320 
# 
# 
# High freq. dielectric constant tensor:
#      x y z
#    x 1.554170 0.000000 -0.043170 
#    y 0.000000 1.637600 0.000000 
#    z -0.043170 0.000000 1.625670 
# 
# From -- ./inp_files/56396.got.cif
#   From: 2010.06.25/outbox.cif.g09.slc.cpg/sg10_29_cif.got.tgz:56396.got - 2010.06.27 22:07:45.
