data_PCOD8057373
_publ_section_title
;
Structure prediction by ZEFSAII (Michael W. Deem and Ramdas Pophale) SiO2 
 PCOD8057373
Probable space group: P 2/M
;
_chemical_formula_sum "Si O2"
_cell_formula_units_Z 30
_cell_length_a 20.210601
_cell_length_b 12.876938
_cell_length_c 11.981580
_cell_angle_alpha 90.000000
_cell_angle_beta 33.483004
_cell_angle_gamma 90.000000
_cell_volume 1720.286266
_symmetry_space_group_name_H-M "P 2/M"
_symmetry_group_IT_number 10
_symmetry_cell_setting 'monoclinic'
loop_
_space_group_symop_operation_xyz
x,y,z
-x,y,-z
-x,-y,-z
x,-y,z
loop_
_atom_site_type_symbol
_atom_site_label
_atom_site_fract_x
_atom_site_fract_y
_atom_site_fract_z
Si Si1 0.000000 0.244877 0.000000
Si Si2 0.750082 0.119827 0.707249
Si Si3 0.488583 0.618598 0.386221
Si Si4 0.257082 0.731444 0.673450
Si Si5 0.367554 0.883541 0.354210
Si Si6 0.752128 0.117282 0.110277
Si Si7 0.614634 0.195639 0.096140
Si Si8 0.978912 0.119237 0.253038
O O1 0.880088 0.312196 0.140289
O O2 0.969908 0.174359 0.147436
O O3 0.647280 0.130800 0.757671
O O4 0.878461 0.160363 0.480543
O O5 0.758069 0.000000 0.737664
O O6 0.716313 0.195977 0.857344
O O7 0.500000 0.646592 0.500000
O O8 0.523713 0.500000 0.312954
O O9 0.350226 0.636423 0.544764
O O10 0.578073 0.688400 0.185890
O O11 0.277213 0.803165 0.537965
O O12 0.282683 0.802505 0.744742
O O13 0.502841 0.865194 0.202116
O O14 0.329556 0.000000 0.441477
O O15 0.662840 0.132701 0.133708
O O16 0.736647 0.000000 0.177713
O O17 0.889719 0.135605 0.877730
O O18 0.949428 0.000000 0.270032
#
# Coordination Sequence:
#
# PCOD8057373 Si02
#       8
#     2   4   4   4   4   4   4   4
#     4  10  17  30  51  76 106 136 172 214 246 292
#     4  10  19  32  48  74 108 150 182 199 235 297
#     4  10  21  40  59  76  97 124 168 222 274 324
#     4  10  19  32  52  79 104 132 171 213 257 303
#     4  10  19  30  47  73 106 146 177 203 238 294
#     4  10  19  30  46  77 112 140 169 209 249 292
#     4  11  21  33  51  74 102 135 174 214 259 305
#     4   9  18  29  46  72 108 149 182 202 234 286
#
# _framework density 17.438959000000001
#
# number of rings (size 3 to 8) (size 9 to 14) (size 15 to 20)
#    0.000    2.000    2.667    2.200    0.000    2.667 
#    0.000    4.333    0.000    6.400    0.000    2.800 
#    0.000    0.000    0.000    0.000    0.000    0.000 
#
# Total GULP energy -371873.372840 kJ/mol
# GULP energy per Si atom -12395.779095 kJ/mol
# Density = 1.739927 g / cm^3
# Si number density = 17.438959 Si / 1000 Ang^3
#
#
#
# Elastic Constant Matrix: (Units=GPa)
#
#
# Indices 1 2 3 4 5 6 
#
# 1 52.6118 24.0721 18.3099 0.0000 0.3114 0.0000
# 2 24.0721 61.6751 33.0482 0.0000 5.5715 0.0000
# 3 18.3099 33.0482 96.1943 0.0000 6.6493 0.0000
# 4 0.0000 0.0000 0.0000 18.6961 0.0000 1.2258
# 5 0.3114 5.5715 6.6493 0.0000 30.6524 0.0000
# 6 0.0000 0.0000 0.0000 1.2258 0.0000 7.3034
#
#
#
# Elastic Compliance Matrix: (Units=1/GPa)
#
#
# Indices 1 2 3 4 5 6 
#
# 1 0.023423 -0.008385 -0.001692 0.000000 0.001653 0.000000
# 2 -0.008385 0.023016 -0.006120 0.000000 -0.002771 0.000000
# 3 -0.001692 -0.006120 0.012936 0.000000 -0.001677 0.000000
# 4 0.000000 0.000000 0.000000 0.054082 0.000000 -0.009077
# 5 0.001653 -0.002771 -0.001677 0.000000 0.033474 0.000000
# 6 0.000000 0.000000 0.000000 -0.009077 0.000000 0.138446
#
#
# Mechanical properties :
#
#
# Convention : Reuss Voigt Hill
#
# Bulk Modulus (GPa) = 37.06201 40.14906 38.60554
# Shear Modulus (GPa) = 15.30157 20.33380 17.81768
#
# Velocity S-wave (km/s) = 2.96537 3.41838 3.19990
# Velocity P-wave (km/s) = 5.74657 6.21715 5.98649
#
# Compressibility (1/GPa) = 0.02698181
#
# Stress axis : x y z
#
# Youngs Moduli (GPa) = 42.69398 43.44776 77.30309
#
# Poissons Ratio (x) = 0.36429 0.13079
# Poissons Ratio (y) = 0.35797 0.47308
# Poissons Ratio (z) = 0.07224 0.26589
#
# Static dielectric constant tensor:
#      x y z
#    x 3.341370 0.000000 -0.145470 
#    y 0.000000 2.799940 0.000000 
#    z -0.145470 0.000000 3.479320 
# 
# 
# High freq. dielectric constant tensor:
#      x y z
#    x 1.685670 0.000000 -0.010790 
#    y 0.000000 1.621210 0.000000 
#    z -0.010790 0.000000 1.680830 
# 
# From -- ./inp_files/55922.got.cif
#   From: 2010.06.25/outbox.cif.g09.slc.cpg/sg10_28_cif.got.tgz:55922.got - 2010.06.27 22:07:45.
