data_PCOD8057126
_publ_section_title
;
Structure prediction by ZEFSAII (Michael W. Deem and Ramdas Pophale) SiO2 
 PCOD8057126
Probable space group: P 2/M
;
_chemical_formula_sum "Si O2"
_cell_formula_units_Z 28
_cell_length_a 13.658230
_cell_length_b 11.769270
_cell_length_c 11.267037
_cell_angle_alpha 90.000000
_cell_angle_beta 77.390753
_cell_angle_gamma 90.000000
_cell_volume 1767.464797
_symmetry_space_group_name_H-M "P 2/M"
_symmetry_group_IT_number 10
_symmetry_cell_setting 'monoclinic'
loop_
_space_group_symop_operation_xyz
x,y,z
-x,y,-z
-x,-y,-z
x,-y,z
loop_
_atom_site_type_symbol
_atom_site_label
_atom_site_fract_x
_atom_site_fract_y
_atom_site_fract_z
Si Si1 0.212630 0.239774 0.538579
Si Si2 0.132787 0.000000 0.577563
Si Si3 0.448244 0.367301 0.838517
Si Si4 0.653830 0.633914 0.893708
Si Si5 0.831889 0.239906 0.725995
Si Si6 0.910584 0.000000 0.687053
Si Si7 0.977589 0.626477 0.367412
Si Si8 0.604153 0.369481 0.405208
O O1 0.200869 0.110065 0.585436
O O2 0.204112 0.251285 0.399579
O O3 0.319412 0.288391 0.547191
O O4 0.126990 0.311021 0.628326
O O5 0.099093 0.000000 0.451073
O O6 0.030376 0.000000 0.683408
O O7 0.464128 0.500000 0.819331
O O8 0.558338 0.320476 0.843987
O O9 0.409386 0.318510 0.723846
O O10 0.367184 0.341876 0.962069
O O11 0.674569 0.500000 0.865535
O O12 0.748582 0.709113 0.834148
O O13 0.933587 0.309015 0.723090
O O14 0.854888 0.109839 0.755578
O O15 0.969986 0.500000 0.317388
O O16 0.000000 0.625641 0.500000
O O17 0.500000 0.362028 0.500000
O O18 0.643363 0.500000 0.393944
#
# Coordination Sequence:
#
# PCOD8057126 Si02
#       8
#     4   2   4   4   4   2   4   4
#     4  10  18  28  44  65  92 124 151 184 228 269
#     4   9  16  30  45  61  89 126 158 184 223 273
#     4   8  16  30  46  66  93 124 151 177 222 276
#     4   9  16  28  48  70  91 117 150 188 225 266
#     4  10  17  26  44  68  92 118 152 190 225 267
#     4   9  16  28  44  64  91 121 156 189 224 270
#     4   9  16  24  37  63  94 116 140 181 229 269
#     4  10  19  30  46  69  96 122 148 181 224 275
#
# _framework density 15.841900000000001
#
# number of rings (size 3 to 8) (size 9 to 14) (size 15 to 20)
#    0.000    2.714    1.429    2.571    0.000    2.857 
#    0.000    0.357    0.000    4.286    0.000    5.000 
#    0.000    0.000    0.000    0.000    0.000    0.000 
#
# Total GULP energy -347095.104983 kJ/mol
# GULP energy per Si atom -12396.253749 kJ/mol
# Density = 1.580584 g / cm^3
# Si number density = 15.841900 Si / 1000 Ang^3
#
#
#
# Elastic Constant Matrix: (Units=GPa)
#
#
# Indices 1 2 3 4 5 6 
#
# 1 77.3773 47.0286 29.8857 0.0000 -14.8363 0.0000
# 2 47.0286 114.0079 30.4575 0.0000 -14.1233 0.0000
# 3 29.8857 30.4575 63.4089 0.0000 -11.6699 0.0000
# 4 0.0000 0.0000 0.0000 8.3436 0.0000 2.5113
# 5 -14.8363 -14.1233 -11.6699 0.0000 27.5997 0.0000
# 6 0.0000 0.0000 0.0000 2.5113 0.0000 15.3229
#
#
#
# Elastic Compliance Matrix: (Units=1/GPa)
#
#
# Indices 1 2 3 4 5 6 
#
# 1 0.019677 -0.006023 -0.005423 0.000000 0.005202 0.000000
# 2 -0.006023 0.012204 -0.002678 0.000000 0.001875 0.000000
# 3 -0.005423 -0.002678 0.020413 0.000000 0.004345 0.000000
# 4 0.000000 0.000000 0.000000 0.126071 0.000000 -0.020662
# 5 0.005202 0.001875 0.004345 0.000000 0.041825 0.000000
# 6 0.000000 0.000000 0.000000 -0.020662 0.000000 0.068648
#
#
# Mechanical properties :
#
#
# Convention : Reuss Voigt Hill
#
# Bulk Modulus (GPa) = 41.59075 52.17086 46.88081
# Shear Modulus (GPa) = 15.37983 20.08141 17.73062
#
# Velocity S-wave (km/s) = 3.11920 3.56422 3.34911
# Velocity P-wave (km/s) = 6.26763 7.06696 6.67926
#
# Compressibility (1/GPa) = 0.02404381
#
# Stress axis : x y z
#
# Youngs Moduli (GPa) = 50.82153 81.94280 48.98891
#
# Poissons Ratio (x) = 0.49358 0.26568
# Poissons Ratio (y) = 0.30612 0.13119
# Poissons Ratio (z) = 0.27562 0.21943
#
# Static dielectric constant tensor:
#      x y z
#    x 2.999260 0.000000 0.001140 
#    y 0.000000 3.058920 0.000000 
#    z 0.001140 0.000000 2.914990 
# 
# 
# High freq. dielectric constant tensor:
#      x y z
#    x 1.603940 0.000000 -0.020280 
#    y 0.000000 1.595790 0.000000 
#    z -0.020280 0.000000 1.578060 
# 
# From -- ./inp_files/50356.got.cif
#   From: 2010.06.25/outbox.cif.g09.slc.cpg/sg10_26_cif.got.tgz:50356.got - 2010.06.27 22:07:45.
