data_PCOD8057539
_publ_section_title
;
Structure prediction by ZEFSAII (Michael W. Deem and Ramdas Pophale) SiO2 
 PCOD8057539
Probable space group: P 2/M
;
_chemical_formula_sum "Si O2"
_cell_formula_units_Z 24
_cell_length_a 12.499091
_cell_length_b 16.013698
_cell_length_c 17.778730
_cell_angle_alpha 90.000000
_cell_angle_beta 18.860452
_cell_angle_gamma 90.000000
_cell_volume 1150.346196
_symmetry_space_group_name_H-M "P 2/M"
_symmetry_group_IT_number 10
_symmetry_cell_setting 'monoclinic'
loop_
_space_group_symop_operation_xyz
x,y,z
-x,y,-z
-x,-y,-z
x,-y,z
loop_
_atom_site_type_symbol
_atom_site_label
_atom_site_fract_x
_atom_site_fract_y
_atom_site_fract_z
Si Si1 0.238689 0.178186 0.240243
Si Si2 0.267151 0.264866 0.986145
Si Si3 0.200424 0.708811 0.561641
Si Si4 0.292123 0.828455 0.713383
Si Si5 0.128459 0.000000 0.276431
Si Si6 0.660083 0.595384 0.181496
Si Si7 0.499039 0.000000 0.410649
O O1 0.970105 0.246766 0.395623
O O2 0.078633 0.085422 0.358755
O O3 0.500000 0.168936 0.000000
O O4 0.410195 0.213961 0.201194
O O5 0.036690 0.295099 0.208645
O O6 0.080054 0.199235 0.056868
O O7 0.359455 0.348065 0.880126
O O8 0.540065 0.758618 0.347715
O O9 0.337468 0.617340 0.447591
O O10 0.500000 0.838850 0.500000
O O11 0.303054 0.917644 0.748947
O O12 0.500000 0.000000 0.000000
O O13 0.874064 0.000000 0.375020
O O14 0.627895 0.500000 0.176999
O O15 0.000000 0.610045 0.000000
O O16 0.500000 0.000000 0.500000
#
# Coordination Sequence:
#
# PCOD8057539 Si02
#       7
#     4   4   4   4   2   4   2
#     4   9  19  33  57  85 121 161 198 235 288 344
#     4  10  21  38  59  88 119 154 197 239 291 355
#     4  10  19  38  60  85 118 157 189 237 294 348
#     4   9  17  29  52  80 116 157 194 233 280 330
#     4  10  18  28  48  85 124 158 203 246 279 338
#     4  11  24  40  63  91 114 145 193 248 304 360
#     4  10  18  26  48  87 123 159 204 244 281 332
#
# _framework density 20.863285999999999
#
# number of rings (size 3 to 8) (size 9 to 14) (size 15 to 20)
#    0.000    2.167    3.333    0.000    7.000    1.333 
#    0.000    3.333    0.000    9.000    0.000    0.000 
#    0.000    0.000    0.000    0.000    0.000    0.000 
#
# Total GULP energy -297423.579927 kJ/mol
# GULP energy per Si atom -12392.649164 kJ/mol
# Density = 2.081580 g / cm^3
# Si number density = 20.863286 Si / 1000 Ang^3
#
#
#
# Elastic Constant Matrix: (Units=GPa)
#
#
# Indices 1 2 3 4 5 6 
#
# 1 99.2636 56.1582 44.7965 0.0000 -36.8261 0.0000
# 2 56.1582 160.3230 42.7294 0.0000 -18.8147 0.0000
# 3 44.7965 42.7294 54.4554 0.0000 -21.2369 0.0000
# 4 0.0000 0.0000 0.0000 19.0430 0.0000 -5.8957
# 5 -36.8261 -18.8147 -21.2369 0.0000 43.5412 0.0000
# 6 0.0000 0.0000 0.0000 -5.8957 0.0000 25.1187
#
#
#
# Elastic Compliance Matrix: (Units=1/GPa)
#
#
# Indices 1 2 3 4 5 6 
#
# 1 0.020541 -0.003215 -0.010053 0.000000 0.011080 0.000000
# 2 -0.003215 0.008398 -0.004433 0.000000 -0.001253 0.000000
# 3 -0.010053 -0.004433 0.032168 0.000000 0.005271 0.000000
# 4 0.000000 0.000000 0.000000 0.056628 0.000000 0.013291
# 5 0.011080 -0.001253 0.005271 0.000000 0.034368 0.000000
# 6 0.000000 0.000000 0.000000 0.013291 0.000000 0.042931
#
#
# Mechanical properties :
#
#
# Convention : Reuss Voigt Hill
#
# Bulk Modulus (GPa) = 38.90573 66.82334 52.86453
# Shear Modulus (GPa) = 20.92005 28.89779 24.90892
#
# Velocity S-wave (km/s) = 3.17001 3.72573 3.45905
# Velocity P-wave (km/s) = 5.66454 7.11385 6.43016
#
# Compressibility (1/GPa) = 0.02570316
#
# Stress axis : x y z
#
# Youngs Moduli (GPa) = 48.68340 119.07249 31.08656
#
# Poissons Ratio (x) = 0.38286 0.31252
# Poissons Ratio (y) = 0.15653 0.13782
# Poissons Ratio (z) = 0.48943 0.52789
#
# Static dielectric constant tensor:
#      x y z
#    x 3.471080 0.000000 -0.156020 
#    y 0.000000 4.131980 0.000000 
#    z -0.156020 0.000000 3.562430 
# 
# 
# High freq. dielectric constant tensor:
#      x y z
#    x 1.811820 0.000000 -0.015940 
#    y 0.000000 1.815560 0.000000 
#    z -0.015940 0.000000 1.806190 
# 
# From -- ./inp_files/77168.got.cif
#   From: 2010.06.25/outbox.cif.g09.slc.cpg/sg10_39_cif.got.tgz:77168.got - 2010.06.27 22:07:45.
