data_PCOD8057321
_publ_section_title
;
Structure prediction by ZEFSAII (Michael W. Deem and Ramdas Pophale) SiO2 
 PCOD8057321
Probable space group: P 2/M
;
_chemical_formula_sum "Si O2"
_cell_formula_units_Z 32
_cell_length_a 12.637894
_cell_length_b 9.469934
_cell_length_c 19.592533
_cell_angle_alpha 90.000000
_cell_angle_beta 49.582877
_cell_angle_gamma 90.000000
_cell_volume 1785.227255
_symmetry_space_group_name_H-M "P 2/M"
_symmetry_group_IT_number 10
_symmetry_cell_setting 'monoclinic'
loop_
_space_group_symop_operation_xyz
x,y,z
-x,y,-z
-x,-y,-z
x,-y,z
loop_
_atom_site_type_symbol
_atom_site_label
_atom_site_fract_x
_atom_site_fract_y
_atom_site_fract_z
Si Si1 0.068735 0.666096 0.815467
Si Si2 0.325367 0.658251 0.207681
Si Si3 0.684568 0.331441 0.197663
Si Si4 0.973664 0.668182 0.709938
Si Si5 0.622797 0.342040 0.660546
Si Si6 0.792100 0.334434 0.005608
Si Si7 0.896943 0.330748 0.483975
Si Si8 0.441073 0.158593 0.949771
O O1 0.078395 0.500000 0.801719
O O2 0.215540 0.723521 0.783111
O O3 0.036187 0.732047 0.754301
O O4 0.951422 0.701300 0.920993
O O5 0.363854 0.500000 0.165559
O O6 0.187019 0.715273 0.228541
O O7 0.300534 0.654373 0.298717
O O8 0.451226 0.764053 0.144313
O O9 0.678547 0.500000 0.197716
O O10 0.529386 0.266279 0.273915
O O11 0.751629 0.280822 0.098118
O O12 0.979713 0.500000 0.707037
O O13 0.057529 0.726871 0.609419
O O14 0.592766 0.500000 0.647299
O O15 0.738797 0.272381 0.562355
O O16 0.761322 0.500000 0.008877
O O17 0.701006 0.246877 0.989746
O O18 0.896650 0.500000 0.486316
O O19 0.000000 0.273117 0.500000
O O20 0.415773 0.000000 0.933248
O O21 0.500000 0.156725 0.000000
#
# Coordination Sequence:
#
# PCOD8057321 Si02
#       8
#     4   4   4   4   4   4   4   4
#     4   9  17  27  41  65  93 121 156 199 239 273
#     4  10  17  29  49  70  92 120 159 197 227 270
#     4   9  16  27  43  65  92 119 155 199 238 273
#     4   9  16  25  40  65  95 123 156 196 233 275
#     4   9  15  24  41  66  90 116 154 195 231 271
#     4  10  18  31  51  70  88 121 166 200 226 269
#     4   9  14  22  37  60  93 126 153 187 234 282
#     4  11  23  34  44  66 101 131 151 184 240 291
#
# _framework density 17.924887999999999
#
# number of rings (size 3 to 8) (size 9 to 14) (size 15 to 20)
#    0.000    2.500    2.500    1.500    0.000    3.500 
#    0.000    0.625    0.000    5.250    0.000    1.750 
#    0.000    0.000    0.000    1.125    0.000    1.250 
#
# Total GULP energy -396544.579292 kJ/mol
# GULP energy per Si atom -12392.018103 kJ/mol
# Density = 1.788409 g / cm^3
# Si number density = 17.924888 Si / 1000 Ang^3
#
#
#
# Elastic Constant Matrix: (Units=GPa)
#
#
# Indices 1 2 3 4 5 6 
#
# 1 131.9366 12.1406 52.1877 0.0000 -12.1826 0.0000
# 2 12.1406 28.6570 12.0799 0.0000 -3.3334 0.0000
# 3 52.1877 12.0799 106.3722 0.0000 -12.1010 0.0000
# 4 0.0000 0.0000 0.0000 2.4371 0.0000 1.4470
# 5 -12.1826 -3.3334 -12.1010 0.0000 25.7423 0.0000
# 6 0.0000 0.0000 0.0000 1.4470 0.0000 4.3323
#
#
#
# Elastic Compliance Matrix: (Units=1/GPa)
#
#
# Indices 1 2 3 4 5 6 
#
# 1 0.009659 -0.002034 -0.004245 0.000000 0.002312 0.000000
# 2 -0.002034 0.037291 -0.002955 0.000000 0.002477 0.000000
# 3 -0.004245 -0.002955 0.012199 0.000000 0.003343 0.000000
# 4 0.000000 0.000000 0.000000 0.511833 0.000000 -0.170953
# 5 0.002312 0.002477 0.003343 0.000000 0.041833 0.000000
# 6 0.000000 0.000000 0.000000 -0.170953 0.000000 0.287921
#
#
# Mechanical properties :
#
#
# Convention : Reuss Voigt Hill
#
# Bulk Modulus (GPa) = 24.58108 46.64250 35.61179
# Shear Modulus (GPa) = 5.36041 19.20617 12.28329
#
# Velocity S-wave (km/s) = 1.73118 3.27690 2.62060
# Velocity P-wave (km/s) = 4.21178 6.35571 5.39139
#
# Compressibility (1/GPa) = 0.04068169
#
# Stress axis : x y z
#
# Youngs Moduli (GPa) = 103.52897 26.81617 81.97069
#
# Poissons Ratio (x) = 0.05454 0.34796
# Poissons Ratio (y) = 0.21056 0.24225
# Poissons Ratio (z) = 0.43947 0.07925
#
# Static dielectric constant tensor:
#      x y z
#    x 3.567380 0.000000 -0.049730 
#    y 0.000000 2.736280 0.000000 
#    z -0.049730 0.000000 3.546580 
# 
# 
# High freq. dielectric constant tensor:
#      x y z
#    x 1.697860 0.000000 -0.007720 
#    y 0.000000 1.608950 0.000000 
#    z -0.007720 0.000000 1.699280 
# 
# From -- ./inp_files/83525.got.cif
#   From: 2010.06.25/outbox.cif.g09.slc.cpg/sg10_42_cif.got.tgz:83525.got - 2010.06.27 22:07:45.
