data_PCOD8057375
_publ_section_title
;
Structure prediction by ZEFSAII (Michael W. Deem and Ramdas Pophale) SiO2 
 PCOD8057375
Probable space group: P 2/M
;
_chemical_formula_sum "Si O2"
_cell_formula_units_Z 24
_cell_length_a 14.246215
_cell_length_b 17.985920
_cell_length_c 8.021567
_cell_angle_alpha 90.000000
_cell_angle_beta 143.065113
_cell_angle_gamma 90.000000
_cell_volume 1235.090145
_symmetry_space_group_name_H-M "P 2/M"
_symmetry_group_IT_number 10
_symmetry_cell_setting 'monoclinic'
loop_
_space_group_symop_operation_xyz
x,y,z
-x,y,-z
-x,-y,-z
x,-y,z
loop_
_atom_site_type_symbol
_atom_site_label
_atom_site_fract_x
_atom_site_fract_y
_atom_site_fract_z
Si Si1 0.343440 0.086696 0.454096
Si Si2 0.857663 0.295781 0.689366
Si Si3 0.040865 0.415104 0.749071
Si Si4 0.675650 0.840486 0.888318
Si Si5 0.325413 0.677313 0.254529
Si Si6 0.686537 0.169849 0.269058
O O1 0.242345 0.111017 0.145470
O O2 0.495193 0.137055 0.647358
O O3 0.269114 0.108140 0.527154
O O4 0.381732 0.000000 0.505119
O O5 0.714645 0.311686 0.608745
O O6 0.791351 0.241687 0.454277
O O7 0.918069 0.370684 0.688280
O O8 0.000000 0.260075 0.000000
O O9 0.034556 0.500000 0.799847
O O10 0.000000 0.406348 0.500000
O O11 0.215095 0.384178 0.016769
O O12 0.690772 0.753451 0.872284
O O13 0.746700 0.858076 0.172607
O O14 0.500000 0.646124 0.500000
O O15 0.500000 0.187028 0.000000
#
# Coordination Sequence:
#
# PCOD8057375 Si02
#       6
#     4   4   4   4   4   4
#     4  10  19  31  50  83 123 153 188 248 306 344
#     4  10  21  37  60  85 118 158 196 242 293 358
#     4  10  23  41  59  85 119 154 196 242 295 358
#     4  10  17  30  51  78 117 149 191 238 292 340
#     4  11  19  35  61  86 117 152 197 247 291 342
#     4  10  19  32  55  84 114 149 202 249 286 340
#
# _framework density 19.431781000000001
#
# number of rings (size 3 to 8) (size 9 to 14) (size 15 to 20)
#    0.000    1.833    3.333    3.000    0.000    7.000 
#    0.000    0.000    0.000    3.000    0.000    1.167 
#    0.000    0.000    0.000    0.000    0.000    0.000 
#
# Total GULP energy -297383.977202 kJ/mol
# GULP energy per Si atom -12390.999050 kJ/mol
# Density = 1.938755 g / cm^3
# Si number density = 19.431781 Si / 1000 Ang^3
#
#
#
# Elastic Constant Matrix: (Units=GPa)
#
#
# Indices 1 2 3 4 5 6 
#
# 1 126.4872 56.6215 62.1367 0.0000 -29.0290 0.0000
# 2 56.6215 104.9178 44.4085 0.0000 -18.5735 0.0000
# 3 62.1367 44.4085 82.8227 0.0000 -25.6643 0.0000
# 4 0.0000 0.0000 0.0000 2.1328 0.0000 -15.9782
# 5 -29.0290 -18.5735 -25.6643 0.0000 45.9192 0.0000
# 6 0.0000 0.0000 0.0000 -15.9782 0.0000 17.1787
#
#
#
# Elastic Compliance Matrix: (Units=1/GPa)
#
#
# Indices 1 2 3 4 5 6 
#
# 1 0.014024 -0.003844 -0.007492 0.000000 0.003123 0.000000
# 2 -0.003844 0.013477 -0.004119 0.000000 0.000719 0.000000
# 3 -0.007492 -0.004119 0.021673 0.000000 0.005711 0.000000
# 4 0.000000 0.000000 0.000000 -0.078562 0.000000 -0.073072
# 5 0.003123 0.000719 0.005711 0.000000 0.027234 0.000000
# 6 0.000000 0.000000 0.000000 -0.073072 0.000000 -0.009754
#
#
# Mechanical properties :
#
#
# Convention : Reuss Voigt Hill
#
# Bulk Modulus (GPa) = 54.75759 71.17345 62.96552
# Shear Modulus (GPa) = 199.26509 23.11688 111.19098
#
# Velocity S-wave (km/s) = 10.13748 3.45286 7.57268
# Velocity P-wave (km/s) = 12.85556 7.25281 10.43716
#
# Compressibility (1/GPa) = 0.01826231
#
# Stress axis : x y z
#
# Youngs Moduli (GPa) = 71.30480 74.20214 46.13968
#
# Poissons Ratio (x) = 0.28526 0.34570
# Poissons Ratio (y) = 0.27412 0.19006
# Poissons Ratio (z) = 0.53425 0.30566
#
# Static dielectric constant tensor:
#      x y z
#    x 4.098900 0.000000 -0.682870 
#    y 0.000000 3.395570 0.000000 
#    z -0.682870 0.000000 3.858320 
# 
# 
# High freq. dielectric constant tensor:
#      x y z
#    x 1.765210 0.000000 -0.034530 
#    y 0.000000 1.739650 0.000000 
#    z -0.034530 0.000000 1.744430 
# 
# From -- ./inp_files/29698.got.cif
#   From: 2010.06.25/outbox.cif.g09.slc.cpg/sg10_15_cif.got.tgz:29698.got - 2010.06.27 22:07:45.
