data_PCOD8057914
_publ_section_title
;
Structure prediction by ZEFSAII (Michael W. Deem and Ramdas Pophale) SiO2 
 PCOD8057914
Probable space group: P 2/M
;
_chemical_formula_sum "Si O2"
_cell_formula_units_Z 32
_cell_length_a 30.845839
_cell_length_b 8.846720
_cell_length_c 21.413958
_cell_angle_alpha 90.000000
_cell_angle_beta 160.859402
_cell_angle_gamma 90.000000
_cell_volume 1916.022104
_symmetry_space_group_name_H-M "P 2/M"
_symmetry_group_IT_number 10
_symmetry_cell_setting 'monoclinic'
loop_
_space_group_symop_operation_xyz
x,y,z
-x,y,-z
-x,-y,-z
x,-y,z
loop_
_atom_site_type_symbol
_atom_site_label
_atom_site_fract_x
_atom_site_fract_y
_atom_site_fract_z
Si Si1 0.470658 0.821043 0.551036
Si Si2 0.695833 0.320840 0.780357
Si Si3 0.615261 0.177624 0.428108
Si Si4 0.632116 0.332966 0.139528
Si Si5 0.087061 0.820356 0.175094
Si Si6 0.544270 0.321037 0.208186
Si Si7 0.763938 0.826532 0.424643
Si Si8 0.030299 0.174962 0.853399
O O1 0.349296 0.751725 0.346656
O O2 0.607605 0.746302 0.716140
O O3 0.450299 0.780318 0.595426
O O4 0.474089 0.000000 0.544208
O O5 0.678312 0.500000 0.753990
O O6 0.846522 0.276948 0.999019
O O7 0.764317 0.242658 0.628899
O O8 0.528801 0.255351 0.256437
O O9 0.615165 0.000000 0.415909
O O10 0.695366 0.500000 0.220009
O O11 0.737577 0.225337 0.317359
O O12 0.500000 0.341479 0.000000
O O13 0.586361 0.270975 0.009257
O O14 0.023984 0.766382 0.154109
O O15 0.091003 0.000000 0.176976
O O16 0.000000 0.753609 0.000000
O O17 0.552739 0.500000 0.221630
O O18 0.678655 0.263462 0.359169
O O19 0.918240 0.801601 0.648606
O O20 0.723400 0.000000 0.376781
O O21 0.073649 0.000000 0.916872
#
# Coordination Sequence:
#
# PCOD8057914 Si02
#       8
#     4   4   4   4   4   4   4   4
#     4  10  20  36  57  74  94 126 166 209 253 291
#     4  11  22  35  52  73  99 127 165 210 248 290
#     4  10  19  32  51  74  96 126 166 204 241 288
#     4   8  16  29  43  63  94 132 165 192 236 292
#     4   9  16  28  46  67  94 126 158 194 237 286
#     4  10  19  30  45  67 101 136 160 194 242 294
#     4  10  18  29  47  70  96 128 166 208 241 280
#     4  10  19  32  49  70  99 130 164 202 244 291
#
# _framework density 16.701267999999999
#
# number of rings (size 3 to 8) (size 9 to 14) (size 15 to 20)
#    0.000    2.250    1.250    4.500    0.000    6.750 
#    0.000    0.000    0.000    1.500    0.000    0.875 
#    0.000    7.000    0.000    0.000    0.000    0.000 
#
# Total GULP energy -396770.968651 kJ/mol
# GULP energy per Si atom -12399.092770 kJ/mol
# Density = 1.666325 g / cm^3
# Si number density = 16.701268 Si / 1000 Ang^3
#
#
#
# Elastic Constant Matrix: (Units=GPa)
#
#
# Indices 1 2 3 4 5 6 
#
# 1 104.3961 46.1359 68.4197 0.0000 -17.3145 0.0000
# 2 46.1359 75.6863 46.2913 0.0000 -5.0724 0.0000
# 3 68.4197 46.2913 103.6961 0.0000 -17.4613 0.0000
# 4 0.0000 0.0000 0.0000 19.8564 0.0000 -5.0669
# 5 -17.3145 -5.0724 -17.4613 0.0000 27.6290 0.0000
# 6 0.0000 0.0000 0.0000 -5.0669 0.0000 17.7527
#
#
#
# Elastic Compliance Matrix: (Units=1/GPa)
#
#
# Indices 1 2 3 4 5 6 
#
# 1 0.018840 -0.005588 -0.009088 0.000000 0.005037 0.000000
# 2 -0.005588 0.019932 -0.005802 0.000000 -0.003509 0.000000
# 3 -0.009088 -0.005802 0.019127 0.000000 0.005328 0.000000
# 4 0.000000 0.000000 0.000000 0.054318 0.000000 0.015503
# 5 0.005037 -0.003509 0.005328 0.000000 0.042073 0.000000
# 6 0.000000 0.000000 0.000000 0.015503 0.000000 0.060754
#
#
# Mechanical properties :
#
#
# Convention : Reuss Voigt Hill
#
# Bulk Modulus (GPa) = 59.02053 67.27471 63.14762
# Shear Modulus (GPa) = 19.10963 21.24305 20.17634
#
# Velocity S-wave (km/s) = 3.38628 3.57030 3.47950
# Velocity P-wave (km/s) = 7.12073 7.57395 7.35083
#
# Compressibility (1/GPa) = 0.01694326
#
# Stress axis : x y z
#
# Youngs Moduli (GPa) = 53.07822 50.17023 52.28221
#
# Poissons Ratio (x) = 0.28037 0.47514
# Poissons Ratio (y) = 0.29662 0.30332
# Poissons Ratio (z) = 0.48237 0.29107
#
# Static dielectric constant tensor:
#      x y z
#    x 3.124560 0.000000 -0.308240 
#    y 0.000000 3.067930 0.000000 
#    z -0.308240 0.000000 3.238070 
# 
# 
# High freq. dielectric constant tensor:
#      x y z
#    x 1.623020 0.000000 -0.022090 
#    y 0.000000 1.638570 0.000000 
#    z -0.022090 0.000000 1.635180 
# 
# From -- ./inp_files/87227.got.cif
#   From: 2010.06.25/outbox.cif.g09.slc.cpg/sg10_44_cif.got.tgz:87227.got - 2010.06.27 22:07:45.
