data_PCOD8057262
_publ_section_title
;
Structure prediction by ZEFSAII (Michael W. Deem and Ramdas Pophale) SiO2 
 PCOD8057262
Probable space group: P 2/M
;
_chemical_formula_sum "Si O2"
_cell_formula_units_Z 20
_cell_length_a 12.210163
_cell_length_b 8.667993
_cell_length_c 12.418807
_cell_angle_alpha 90.000000
_cell_angle_beta 61.938811
_cell_angle_gamma 90.000000
_cell_volume 1159.866196
_symmetry_space_group_name_H-M "P 2/M"
_symmetry_group_IT_number 10
_symmetry_cell_setting 'monoclinic'
loop_
_space_group_symop_operation_xyz
x,y,z
-x,y,-z
-x,-y,-z
x,-y,z
loop_
_atom_site_type_symbol
_atom_site_label
_atom_site_fract_x
_atom_site_fract_y
_atom_site_fract_z
Si Si1 0.515669 0.817534 0.165611
Si Si2 0.929346 0.181230 0.678969
Si Si3 0.309809 0.817715 0.097969
Si Si4 0.558871 0.318288 0.581776
Si Si5 0.835941 0.681027 0.503542
O O1 0.397255 0.752930 0.153580
O O2 0.519166 0.743513 0.281368
O O3 0.510381 0.000000 0.181595
O O4 0.639682 0.765115 0.042410
O O5 0.832875 0.233981 0.817402
O O6 0.864288 0.219649 0.595925
O O7 0.057994 0.275152 0.633442
O O8 0.957195 0.000000 0.671773
O O9 0.321151 0.000000 0.100752
O O10 0.500000 0.248518 0.500000
O O11 0.546264 0.500000 0.587885
O O12 0.702721 0.267954 0.520050
O O13 0.841777 0.500000 0.527722
#
# Coordination Sequence:
#
# PCOD8057262 Si02
#       5
#     4   4   4   4   4
#     4   9  16  30  49  70  94 121 156 190 233 281
#     4  10  17  28  48  71  96 122 148 185 236 286
#     4   8  15  27  47  72  98 121 143 189 242 281
#     4  10  21  35  48  65  95 130 161 196 232 268
#     4  10  19  30  44  66  95 124 156 192 231 272
#
# _framework density 17.243368
#
# number of rings (size 3 to 8) (size 9 to 14) (size 15 to 20)
#    0.000    2.600    2.000    3.600    0.000    1.200 
#    0.000    4.000    0.000    1.200    0.000    8.400 
#    0.000    0.000    0.000    0.000    0.000    0.000 
#
# Total GULP energy -247865.645681 kJ/mol
# GULP energy per Si atom -12393.282284 kJ/mol
# Density = 1.720412 g / cm^3
# Si number density = 17.243368 Si / 1000 Ang^3
#
#
#
# Elastic Constant Matrix: (Units=GPa)
#
#
# Indices 1 2 3 4 5 6 
#
# 1 86.2200 15.2493 64.3870 0.0000 -10.8030 0.0000
# 2 15.2493 19.8259 13.6009 0.0000 -3.4212 0.0000
# 3 64.3870 13.6009 144.3184 0.0000 -15.8323 0.0000
# 4 0.0000 0.0000 0.0000 -0.8793 0.0000 6.8495
# 5 -10.8030 -3.4212 -15.8323 0.0000 32.7404 0.0000
# 6 0.0000 0.0000 0.0000 6.8495 0.0000 12.3573
#
#
#
# Elastic Compliance Matrix: (Units=1/GPa)
#
#
# Indices 1 2 3 4 5 6 
#
# 1 0.018977 -0.009217 -0.007409 0.000000 0.001715 0.000000
# 2 -0.009217 0.058754 -0.001146 0.000000 0.002544 0.000000
# 3 -0.007409 -0.001146 0.010625 0.000000 0.002573 0.000000
# 4 0.000000 0.000000 0.000000 -0.213864 0.000000 0.118541
# 5 0.001715 0.002544 0.002573 0.000000 0.032620 0.000000
# 6 0.000000 0.000000 0.000000 0.118541 0.000000 0.015219
#
#
# Mechanical properties :
#
#
# Convention : Reuss Voigt Hill
#
# Bulk Modulus (GPa) = 18.93560 48.53762 33.73661
# Shear Modulus (GPa) = -203.89947 19.31881 -92.29033
#
# Velocity S-wave (km/s) = -10.88599 3.35081 -7.32382
# Velocity P-wave (km/s) = 12.12440 6.57117 7.20489
#
# Compressibility (1/GPa) = 0.05281058
#
# Stress axis : x y z
#
# Youngs Moduli (GPa) = 52.69654 17.02024 94.11642
#
# Poissons Ratio (x) = 0.15688 0.69736
# Poissons Ratio (y) = 0.48571 0.10784
# Poissons Ratio (z) = 0.39045 0.01950
#
# Static dielectric constant tensor:
#      x y z
#    x 3.351280 0.000000 -0.461530 
#    y 0.000000 2.980740 0.000000 
#    z -0.461530 0.000000 3.596090 
# 
# 
# High freq. dielectric constant tensor:
#      x y z
#    x 1.637730 0.000000 -0.034560 
#    y 0.000000 1.650030 0.000000 
#    z -0.034560 0.000000 1.664270 
# 
# From -- ./inp_files/44322.got.cif
#   From: 2010.06.25/outbox.cif.g09.slc.cpg/sg10_23_cif.got.tgz:44322.got - 2010.06.27 22:07:45.
