data_PCOD8057231
_publ_section_title
;
Structure prediction by ZEFSAII (Michael W. Deem and Ramdas Pophale) SiO2 
 PCOD8057231
Probable space group: P 2/M
;
_chemical_formula_sum "Si O2"
_cell_formula_units_Z 28
_cell_length_a 22.300485
_cell_length_b 9.093586
_cell_length_c 17.769911
_cell_angle_alpha 90.000000
_cell_angle_beta 27.296833
_cell_angle_gamma 90.000000
_cell_volume 1652.605533
_symmetry_space_group_name_H-M "P 2/M"
_symmetry_group_IT_number 10
_symmetry_cell_setting 'monoclinic'
loop_
_space_group_symop_operation_xyz
x,y,z
-x,y,-z
-x,-y,-z
x,-y,z
loop_
_atom_site_type_symbol
_atom_site_label
_atom_site_fract_x
_atom_site_fract_y
_atom_site_fract_z
Si Si1 0.687208 0.165227 0.158358
Si Si2 0.566805 0.174067 0.740395
Si Si3 0.857800 0.672809 0.674791
Si Si4 0.637235 0.327239 0.807949
Si Si5 0.345033 0.664825 0.661941
Si Si6 0.297061 0.326654 0.007542
Si Si7 0.622495 0.162672 0.515540
O O1 0.726030 0.240852 0.193986
O O2 0.532391 0.163315 0.322827
O O3 0.744013 0.000000 0.093883
O O4 0.747820 0.257188 0.021653
O O5 0.650636 0.236398 0.715865
O O6 0.648955 0.209235 0.572470
O O7 0.541702 0.000000 0.775617
O O8 0.428625 0.256144 0.893040
O O9 0.863663 0.500000 0.655595
O O10 0.751244 0.734275 0.734851
O O11 0.817098 0.708643 0.805643
O O12 0.000000 0.743965 0.500000
O O13 0.650275 0.500000 0.776005
O O14 0.500000 0.291700 0.000000
O O15 0.500000 0.669283 0.500000
O O16 0.290888 0.500000 0.726968
O O17 0.308478 0.728128 0.620357
O O18 0.320762 0.500000 0.970972
O O19 0.677638 0.000000 0.437755
#
# Coordination Sequence:
#
# PCOD8057231 Si02
#       7
#     4   4   4   4   4   4   4
#     4   9  16  25  37  55  82 116 150 183 225 273
#     4  10  19  29  43  65  91 120 152 187 232 276
#     4   9  18  32  49  68  92 121 152 191 239 280
#     4  10  18  31  49  70  90 116 156 196 230 270
#     4   9  15  22  34  54  79 111 149 184 221 264
#     4  10  17  28  45  64  87 115 154 195 229 270
#     4   8  15  25  35  51  80 115 146 178 220 270
#
# _framework density 16.942941999999999
#
# number of rings (size 3 to 8) (size 9 to 14) (size 15 to 20)
#    0.000    2.714    1.429    2.571    0.000    6.000 
#    0.000    0.000    0.000    3.857    0.000    0.000 
#    0.000    1.143    0.000   13.143    0.000    6.429 
#
# Total GULP energy -347094.990540 kJ/mol
# GULP energy per Si atom -12396.249662 kJ/mol
# Density = 1.690438 g / cm^3
# Si number density = 16.942942 Si / 1000 Ang^3
#
#
#
# Elastic Constant Matrix: (Units=GPa)
#
#
# Indices 1 2 3 4 5 6 
#
# 1 118.8734 60.6706 58.6369 0.0000 35.3805 0.0000
# 2 60.6706 105.0337 37.6003 0.0000 23.3050 0.0000
# 3 58.6369 37.6003 67.8667 0.0000 13.2013 0.0000
# 4 0.0000 0.0000 0.0000 8.7788 0.0000 11.2082
# 5 35.3805 23.3050 13.2013 0.0000 28.0076 0.0000
# 6 0.0000 0.0000 0.0000 11.2082 0.0000 29.2911
#
#
#
# Elastic Compliance Matrix: (Units=1/GPa)
#
#
# Indices 1 2 3 4 5 6 
#
# 1 0.023096 -0.004085 -0.013957 0.000000 -0.019198 0.000000
# 2 -0.004085 0.014209 -0.003354 0.000000 -0.005082 0.000000
# 3 -0.013957 -0.003354 0.027171 0.000000 0.007616 0.000000
# 4 0.000000 0.000000 0.000000 0.222715 0.000000 -0.085221
# 5 -0.019198 -0.005082 0.007616 0.000000 0.060596 0.000000
# 6 0.000000 0.000000 0.000000 -0.085221 0.000000 0.066750
#
#
# Mechanical properties :
#
#
# Convention : Reuss Voigt Hill
#
# Bulk Modulus (GPa) = 46.11995 67.28769 56.70382
# Shear Modulus (GPa) = 10.76297 22.20658 16.48478
#
# Velocity S-wave (km/s) = 2.52315 3.62424 3.12261
# Velocity P-wave (km/s) = 5.98065 7.57060 6.82210
#
# Compressibility (1/GPa) = 0.02168259
#
# Stress axis : x y z
#
# Youngs Moduli (GPa) = 43.29800 70.38031 36.80402
#
# Poissons Ratio (x) = 0.28747 0.51369
# Poissons Ratio (y) = 0.17685 0.12345
# Poissons Ratio (z) = 0.60433 0.23608
#
# Static dielectric constant tensor:
#      x y z
#    x 3.312670 0.000000 0.355020 
#    y 0.000000 3.196950 0.000000 
#    z 0.355020 0.000000 2.879670 
# 
# 
# High freq. dielectric constant tensor:
#      x y z
#    x 1.649620 0.000000 0.044510 
#    y 0.000000 1.652370 0.000000 
#    z 0.044510 0.000000 1.599160 
# 
# From -- ./inp_files/79251.got.cif
#   From: 2010.06.25/outbox.cif.g09.slc.cpg/sg10_40_cif.got.tgz:79251.got - 2010.06.27 22:07:45.
