data_PCOD8057842
_publ_section_title
;
Structure prediction by ZEFSAII (Michael W. Deem and Ramdas Pophale) SiO2 
 PCOD8057842
Probable space group: P 2/M
;
_chemical_formula_sum "Si O2"
_cell_formula_units_Z 32
_cell_length_a 23.787337
_cell_length_b 9.195272
_cell_length_c 29.948321
_cell_angle_alpha 90.000000
_cell_angle_beta 16.177586
_cell_angle_gamma 90.000000
_cell_volume 1825.105750
_symmetry_space_group_name_H-M "P 2/M"
_symmetry_group_IT_number 10
_symmetry_cell_setting 'monoclinic'
loop_
_space_group_symop_operation_xyz
x,y,z
-x,y,-z
-x,-y,-z
x,-y,z
loop_
_atom_site_type_symbol
_atom_site_label
_atom_site_fract_x
_atom_site_fract_y
_atom_site_fract_z
Si Si1 0.985007 0.832648 0.291280
Si Si2 0.225968 0.169772 0.458695
Si Si3 0.056071 0.666205 0.842843
Si Si4 0.616676 0.167734 0.060222
Si Si5 0.832646 0.830119 0.595499
Si Si6 0.388496 0.835539 0.632149
Si Si7 0.264512 0.329693 0.591403
Si Si8 0.379845 0.331010 0.851878
O O1 0.943863 0.798821 0.374712
O O2 0.843036 0.731481 0.370226
O O3 0.934070 0.000000 0.318661
O O4 0.221217 0.799222 0.102259
O O5 0.149193 0.229594 0.469205
O O6 0.432077 0.251640 0.314972
O O7 0.278673 0.000000 0.414920
O O8 0.114877 0.500000 0.807998
O O9 0.167205 0.764995 0.794918
O O10 0.125533 0.707277 0.739855
O O11 0.816479 0.692213 0.029436
O O12 0.391169 0.203520 0.214475
O O13 0.669388 0.266197 0.062146
O O14 0.626939 0.000000 0.067887
O O15 0.000000 0.754738 0.500000
O O16 0.877554 0.000000 0.559869
O O17 0.500000 0.827703 0.500000
O O18 0.517150 0.745987 0.570184
O O19 0.363327 0.000000 0.668322
O O20 0.299450 0.500000 0.558509
O O21 0.429580 0.500000 0.819865
#
# Coordination Sequence:
#
# PCOD8057842 Si02
#       8
#     4   4   4   4   4   4   4   4
#     4  10  19  31  47  69  99 129 162 201 243 292
#     4   9  19  33  48  70  99 130 161 199 244 288
#     4   9  17  28  43  66  94 122 157 202 247 288
#     4   9  17  29  48  72  97 127 161 199 241 284
#     4   8  14  28  50  73  98 129 163 196 234 283
#     4   9  17  27  41  65  94 125 161 199 241 290
#     4  10  18  29  45  66  95 128 160 198 247 291
#     4  10  18  30  48  71  96 125 163 205 245 289
#
# _framework density 17.533228999999999
#
# number of rings (size 3 to 8) (size 9 to 14) (size 15 to 20)
#    0.000    2.750    1.250    1.875    0.000    3.500 
#    0.000    0.625    0.000   10.500    0.000    5.250 
#    0.000    9.000    0.000    0.000    0.000    0.000 
#
# Total GULP energy -396703.311004 kJ/mol
# GULP energy per Si atom -12396.978469 kJ/mol
# Density = 1.749332 g / cm^3
# Si number density = 17.533229 Si / 1000 Ang^3
#
#
#
# Elastic Constant Matrix: (Units=GPa)
#
#
# Indices 1 2 3 4 5 6 
#
# 1 83.6830 36.5644 62.5793 0.0000 -13.9241 0.0000
# 2 36.5644 71.7277 41.1756 0.0000 -8.8213 0.0000
# 3 62.5793 41.1756 116.0128 0.0000 -4.9432 0.0000
# 4 0.0000 0.0000 0.0000 18.8384 0.0000 0.1231
# 5 -13.9241 -8.8213 -4.9432 0.0000 31.2725 0.0000
# 6 0.0000 0.0000 0.0000 0.1231 0.0000 10.9189
#
#
#
# Elastic Compliance Matrix: (Units=1/GPa)
#
#
# Indices 1 2 3 4 5 6 
#
# 1 0.023073 -0.004902 -0.010397 0.000000 0.007247 0.000000
# 2 -0.004902 0.019058 -0.004011 0.000000 0.002559 0.000000
# 3 -0.010397 -0.004011 0.015511 0.000000 -0.003309 0.000000
# 4 0.000000 0.000000 0.000000 0.053087 0.000000 -0.000599
# 5 0.007247 0.002559 -0.003309 0.000000 0.035403 0.000000
# 6 0.000000 0.000000 0.000000 -0.000599 0.000000 0.091591
#
#
# Mechanical properties :
#
#
# Convention : Reuss Voigt Hill
#
# Bulk Modulus (GPa) = 52.57288 61.34024 56.95656
# Shear Modulus (GPa) = 17.68772 20.94623 19.31697
#
# Velocity S-wave (km/s) = 3.17962 3.46013 3.32284
# Velocity P-wave (km/s) = 6.59771 7.14314 6.87584
#
# Compressibility (1/GPa) = 0.01902121
#
# Stress axis : x y z
#
# Youngs Moduli (GPa) = 43.34123 52.47266 64.47161
#
# Poissons Ratio (x) = 0.25721 0.67033
# Poissons Ratio (y) = 0.21245 0.25858
# Poissons Ratio (z) = 0.45063 0.21045
#
# Static dielectric constant tensor:
#      x y z
#    x 3.123800 0.000000 -0.173600 
#    y 0.000000 3.180210 0.000000 
#    z -0.173600 0.000000 3.330490 
# 
# 
# High freq. dielectric constant tensor:
#      x y z
#    x 1.648260 0.000000 -0.015520 
#    y 0.000000 1.668590 0.000000 
#    z -0.015520 0.000000 1.671950 
# 
# From -- ./inp_files/86161.got.cif
#   From: 2010.06.25/outbox.cif.g09.slc.cpg/sg10_44_cif.got.tgz:86161.got - 2010.06.27 22:07:45.
