data_PCOD8057963
_publ_section_title
;
Structure prediction by ZEFSAII (Michael W. Deem and Ramdas Pophale) SiO2 
 PCOD8057963
Probable space group: P 2/M
;
_chemical_formula_sum "Si O2"
_cell_formula_units_Z 32
_cell_length_a 30.868533
_cell_length_b 8.665266
_cell_length_c 15.110787
_cell_angle_alpha 90.000000
_cell_angle_beta 151.391052
_cell_angle_gamma 90.000000
_cell_volume 1935.376173
_symmetry_space_group_name_H-M "P 2/M"
_symmetry_group_IT_number 10
_symmetry_cell_setting 'monoclinic'
loop_
_space_group_symop_operation_xyz
x,y,z
-x,y,-z
-x,-y,-z
x,-y,z
loop_
_atom_site_type_symbol
_atom_site_label
_atom_site_fract_x
_atom_site_fract_y
_atom_site_fract_z
Si Si1 0.934533 0.682028 0.267554
Si Si2 0.075897 0.683115 0.949085
Si Si3 0.877794 0.683629 0.637375
Si Si4 0.792259 0.682634 0.664850
Si Si5 0.753767 0.318682 0.253668
Si Si6 0.409570 0.181102 0.949497
Si Si7 0.612164 0.819491 0.290183
Si Si8 0.878555 0.181235 0.341380
O O1 0.925064 0.500000 0.265610
O O2 0.901473 0.732540 0.110761
O O3 0.872749 0.771809 0.227688
O O4 0.039470 0.726928 0.465888
O O5 0.070591 0.500000 0.946046
O O6 0.978613 0.750372 0.804460
O O7 0.153515 0.748767 0.153097
O O8 0.878578 0.500000 0.640788
O O9 0.838535 0.749634 0.658950
O O10 0.814624 0.741651 0.444326
O O11 0.796514 0.500000 0.672180
O O12 0.688203 0.734273 0.484060
O O13 0.762803 0.500000 0.254677
O O14 0.649943 0.274426 0.086523
O O15 0.785928 0.230947 0.222932
O O16 0.383924 0.236439 0.804588
O O17 0.391740 0.000000 0.927922
O O18 0.514460 0.220864 0.156341
O O19 0.630036 0.000000 0.326507
O O20 0.895550 0.000000 0.380181
#
# Coordination Sequence:
#
# PCOD8057963 Si02
#       8
#     4   4   4   4   4   4   4   4
#     4  10  18  32  50  69  93 125 163 202 237 278
#     4   9  17  29  47  69  95 127 163 199 237 272
#     4   9  16  27  43  67  96 126 160 193 227 268
#     4  10  18  29  48  71  94 126 166 202 230 270
#     4  11  19  30  49  73  95 125 161 197 238 282
#     4   9  18  32  48  66  93 128 160 194 239 286
#     4   9  18  32  47  65  94 129 160 194 239 284
#     4  11  21  32  47  69  96 126 157 196 244 290
#
# _framework density 16.534253
#
# number of rings (size 3 to 8) (size 9 to 14) (size 15 to 20)
#    0.000    2.250    2.500    3.750    0.000    2.000 
#    0.000    2.500    0.000    0.750    0.000    0.875 
#    0.000    7.000    0.000    0.000    0.000    0.000 
#
# Total GULP energy -396785.733495 kJ/mol
# GULP energy per Si atom -12399.554172 kJ/mol
# Density = 1.649662 g / cm^3
# Si number density = 16.534253 Si / 1000 Ang^3
#
#
#
# Elastic Constant Matrix: (Units=GPa)
#
#
# Indices 1 2 3 4 5 6 
#
# 1 121.6628 26.3724 56.1374 0.0000 4.0948 0.0000
# 2 26.3724 34.2017 16.4903 0.0000 0.2344 0.0000
# 3 56.1374 16.4903 99.3840 0.0000 3.6172 0.0000
# 4 0.0000 0.0000 0.0000 16.0442 0.0000 5.5617
# 5 4.0948 0.2344 3.6172 0.0000 23.6267 0.0000
# 6 0.0000 0.0000 0.0000 5.5617 0.0000 21.3693
#
#
#
# Elastic Compliance Matrix: (Units=1/GPa)
#
#
# Indices 1 2 3 4 5 6 
#
# 1 0.012424 -0.006749 -0.005854 0.000000 -0.001190 0.000000
# 2 -0.006749 0.035453 -0.002112 0.000000 0.001141 0.000000
# 3 -0.005854 -0.002112 0.013758 0.000000 -0.001071 0.000000
# 4 0.000000 0.000000 0.000000 0.068509 0.000000 -0.017830
# 5 -0.001190 0.001141 -0.001071 0.000000 0.042684 0.000000
# 6 0.000000 0.000000 0.000000 -0.017830 0.000000 0.051437
#
#
# Mechanical properties :
#
#
# Convention : Reuss Voigt Hill
#
# Bulk Modulus (GPa) = 31.05182 50.36098 40.70640
# Shear Modulus (GPa) = 18.90863 22.62459 20.76661
#
# Velocity S-wave (km/s) = 3.38539 3.70313 3.54782
# Velocity P-wave (km/s) = 5.83971 6.98634 6.43860
#
# Compressibility (1/GPa) = 0.03220423
#
# Stress axis : x y z
#
# Youngs Moduli (GPa) = 80.49068 28.20655 72.68342
#
# Poissons Ratio (x) = 0.19036 0.42552
# Poissons Ratio (y) = 0.54323 0.15350
# Poissons Ratio (z) = 0.47123 0.05957
#
# Static dielectric constant tensor:
#      x y z
#    x 3.215850 0.000000 -0.018570 
#    y 0.000000 2.841080 0.000000 
#    z -0.018570 0.000000 3.082210 
# 
# 
# High freq. dielectric constant tensor:
#      x y z
#    x 1.632840 0.000000 0.007970 
#    y 0.000000 1.619710 0.000000 
#    z 0.007970 0.000000 1.611580 
# 
# From -- ./inp_files/72552.got.cif
#   From: 2010.06.25/outbox.cif.g09.slc.cpg/sg10_37_cif.got.tgz:72552.got - 2010.06.27 22:07:45.
