data_PCOD8057918
_publ_section_title
;
Structure prediction by ZEFSAII (Michael W. Deem and Ramdas Pophale) SiO2 
 PCOD8057918
Probable space group: P 2/M
;
_chemical_formula_sum "Si O2"
_cell_formula_units_Z 32
_cell_length_a 24.996405
_cell_length_b 17.109453
_cell_length_c 12.742107
_cell_angle_alpha 90.000000
_cell_angle_beta 18.464201
_cell_angle_gamma 90.000000
_cell_volume 1725.915555
_symmetry_space_group_name_H-M "P 2/M"
_symmetry_group_IT_number 10
_symmetry_cell_setting 'monoclinic'
loop_
_space_group_symop_operation_xyz
x,y,z
-x,y,-z
-x,-y,-z
x,-y,z
loop_
_atom_site_type_symbol
_atom_site_label
_atom_site_fract_x
_atom_site_fract_y
_atom_site_fract_z
Si Si1 0.686302 0.088560 0.662737
Si Si2 0.223947 0.721541 0.208089
Si Si3 0.315249 0.322516 0.816033
Si Si4 0.085784 0.318528 0.948605
Si Si5 0.744606 0.911477 0.319884
Si Si6 0.021881 0.410125 0.267039
Si Si7 0.596206 0.246971 0.562326
Si Si8 0.937027 0.827479 0.337844
O O1 0.787473 0.093422 0.364372
O O2 0.772749 0.134417 0.594960
O O3 0.670273 0.000000 0.731485
O O4 0.500000 0.125558 0.000000
O O5 0.108312 0.794202 0.462072
O O6 0.138343 0.639251 0.395456
O O7 0.246811 0.729135 0.040656
O O8 0.405811 0.722759 0.927993
O O9 0.500000 0.357798 0.500000
O O10 0.322757 0.265453 0.702323
O O11 0.185901 0.392744 0.033916
O O12 0.283629 0.290566 0.574779
O O13 0.066721 0.391302 0.062933
O O14 0.000000 0.345524 0.000000
O O15 0.981298 0.244956 0.182538
O O16 0.599276 0.847656 0.566473
O O17 0.685724 0.000000 0.400321
O O18 0.911286 0.890190 0.942447
O O19 0.972574 0.500000 0.370305
#
# Coordination Sequence:
#
# PCOD8057918 Si02
#       8
#     4   4   4   4   4   4   4   4
#     4  10  19  29  44  70 102 134 170 215 265 307
#     4  10  20  34  54  77 103 137 172 213 264 312
#     4   9  19  36  58  80 101 133 174 213 256 303
#     4   9  18  33  53  74  99 138 180 211 248 302
#     4  10  19  31  49  72 101 136 173 218 266 304
#     4  10  21  35  53  81 110 133 164 208 260 314
#     4   9  18  35  55  76 102 135 180 220 254 308
#     4  10  18  29  47  71 100 133 172 212 256 312
#
# _framework density 18.540883999999998
#
# number of rings (size 3 to 8) (size 9 to 14) (size 15 to 20)
#    0.000    2.375    0.000    4.125    0.000    2.500 
#    0.000    7.500    0.000    6.375    0.000    0.000 
#    0.000    0.000    0.000    0.000    0.000    0.000 
#
# Total GULP energy -396660.889273 kJ/mol
# GULP energy per Si atom -12395.652790 kJ/mol
# Density = 1.849868 g / cm^3
# Si number density = 18.540884 Si / 1000 Ang^3
#
#
#
# Elastic Constant Matrix: (Units=GPa)
#
#
# Indices 1 2 3 4 5 6 
#
# 1 86.9278 31.8094 34.8043 0.0000 -11.1089 0.0000
# 2 31.8094 110.9318 40.3625 0.0000 -10.0624 0.0000
# 3 34.8043 40.3625 101.0550 0.0000 -10.2090 0.0000
# 4 0.0000 0.0000 0.0000 16.7623 0.0000 -3.9132
# 5 -11.1089 -10.0624 -10.2090 0.0000 31.3253 0.0000
# 6 0.0000 0.0000 0.0000 -3.9132 0.0000 19.0591
#
#
#
# Elastic Compliance Matrix: (Units=1/GPa)
#
#
# Indices 1 2 3 4 5 6 
#
# 1 0.014253 -0.002498 -0.003600 0.000000 0.003079 0.000000
# 2 -0.002498 0.011118 -0.003422 0.000000 0.001570 0.000000
# 3 -0.003600 -0.003422 0.012680 0.000000 0.001756 0.000000
# 4 0.000000 0.000000 0.000000 0.062661 0.000000 0.012865
# 5 0.003079 0.001570 0.001756 0.000000 0.034092 0.000000
# 6 0.000000 0.000000 0.000000 0.012865 0.000000 0.055110
#
#
# Mechanical properties :
#
#
# Convention : Reuss Voigt Hill
#
# Bulk Modulus (GPa) = 52.60054 56.98522 54.79288
# Shear Modulus (GPa) = 23.22451 26.22524 24.72488
#
# Velocity S-wave (km/s) = 3.54306 3.76500 3.65572
# Velocity P-wave (km/s) = 6.72081 7.04996 6.88735
#
# Compressibility (1/GPa) = 0.01901121
#
# Stress axis : x y z
#
# Youngs Moduli (GPa) = 70.16237 89.94210 78.86635
#
# Poissons Ratio (x) = 0.22465 0.28393
# Poissons Ratio (y) = 0.17525 0.26987
# Poissons Ratio (z) = 0.25259 0.30777
#
# Static dielectric constant tensor:
#      x y z
#    x 3.412540 0.000000 -0.030890 
#    y 0.000000 3.212500 0.000000 
#    z -0.030890 0.000000 3.659680 
# 
# 
# High freq. dielectric constant tensor:
#      x y z
#    x 1.705750 0.000000 -0.004810 
#    y 0.000000 1.696910 0.000000 
#    z -0.004810 0.000000 1.729790 
# 
# From -- ./inp_files/57086.got.cif
#   From: 2010.06.25/outbox.cif.g09.slc.cpg/sg10_29_cif.got.tgz:57086.got - 2010.06.27 22:07:45.
