data_PCOD8057734
_publ_section_title
;
Structure prediction by ZEFSAII (Michael W. Deem and Ramdas Pophale) SiO2 
 PCOD8057734
Probable space group: P 2/M
;
_chemical_formula_sum "Si O2"
_cell_formula_units_Z 28
_cell_length_a 13.761745
_cell_length_b 9.206217
_cell_length_c 13.844790
_cell_angle_alpha 90.000000
_cell_angle_beta 81.545751
_cell_angle_gamma 90.000000
_cell_volume 1734.986221
_symmetry_space_group_name_H-M "P 2/M"
_symmetry_group_IT_number 10
_symmetry_cell_setting 'monoclinic'
loop_
_space_group_symop_operation_xyz
x,y,z
-x,y,-z
-x,-y,-z
x,-y,z
loop_
_atom_site_type_symbol
_atom_site_label
_atom_site_fract_x
_atom_site_fract_y
_atom_site_fract_z
Si Si1 0.172490 0.167626 0.341497
Si Si2 0.090476 0.831411 0.918066
Si Si3 0.890998 0.335987 0.474420
Si Si4 0.517184 0.659681 0.110869
Si Si5 0.725509 0.671889 0.025087
Si Si6 0.331405 0.830209 0.160094
Si Si7 0.962828 0.831504 0.291402
O O1 0.181490 0.258709 0.438945
O O2 0.266994 0.202865 0.263486
O O3 0.075741 0.211274 0.295028
O O4 0.167810 0.000000 0.371864
O O5 0.180983 0.731248 0.932886
O O6 0.059614 0.789470 0.814787
O O7 0.120324 0.000000 0.923419
O O8 0.000000 0.793697 0.000000
O O9 0.854981 0.500000 0.465058
O O10 0.888661 0.256319 0.371464
O O11 0.000000 0.326789 0.500000
O O12 0.498984 0.500000 0.159632
O O13 0.630789 0.708121 0.106732
O O14 0.441621 0.774586 0.168117
O O15 0.500000 0.650371 0.000000
O O16 0.734473 0.500000 0.006486
O O17 0.716893 0.747627 0.922524
O O18 0.334513 0.000000 0.134776
O O19 0.944548 0.000000 0.314445
#
# Coordination Sequence:
#
# PCOD8057734 Si02
#       7
#     4   4   4   4   4   4   4
#     4   9  17  29  45  66  91 117 145 179 223 269
#     4  10  20  33  48  67  91 120 156 191 219 255
#     4   9  17  28  43  64  88 114 147 184 218 259
#     4   8  16  30  44  61  88 119 149 182 223 269
#     4  10  20  32  45  63  91 125 155 184 221 266
#     4  10  18  28  46  70  92 116 149 188 226 266
#     4   9  17  30  46  62  87 122 151 180 219 259
#
# _framework density 16.138456999999999
#
# number of rings (size 3 to 8) (size 9 to 14) (size 15 to 20)
#    0.000    2.714    0.000    3.000    0.000    9.143 
#    0.000    2.857    0.000    0.000    0.000    1.000 
#    0.000    8.000    0.000    0.000    0.000    0.000 
#
# Total GULP energy -347153.584740 kJ/mol
# GULP energy per Si atom -12398.342312 kJ/mol
# Density = 1.610173 g / cm^3
# Si number density = 16.138457 Si / 1000 Ang^3
#
#
#
# Elastic Constant Matrix: (Units=GPa)
#
#
# Indices 1 2 3 4 5 6 
#
# 1 90.7288 53.6478 51.6173 0.0000 -15.1160 0.0000
# 2 53.6478 96.3869 67.0234 0.0000 -13.9947 0.0000
# 3 51.6173 67.0234 118.0653 0.0000 -14.0016 0.0000
# 4 0.0000 0.0000 0.0000 11.8528 0.0000 -2.9581
# 5 -15.1160 -13.9947 -14.0016 0.0000 19.4398 0.0000
# 6 0.0000 0.0000 0.0000 -2.9581 0.0000 25.2574
#
#
#
# Elastic Compliance Matrix: (Units=1/GPa)
#
#
# Indices 1 2 3 4 5 6 
#
# 1 0.017998 -0.006807 -0.003199 0.000000 0.006790 0.000000
# 2 -0.006807 0.020342 -0.008160 0.000000 0.003474 0.000000
# 3 -0.003199 -0.008160 0.014771 0.000000 0.002277 0.000000
# 4 0.000000 0.000000 0.000000 0.086908 0.000000 0.010178
# 5 0.006790 0.003474 0.002277 0.000000 0.060862 0.000000
# 6 0.000000 0.000000 0.000000 0.010178 0.000000 0.040784
#
#
# Mechanical properties :
#
#
# Convention : Reuss Voigt Hill
#
# Bulk Modulus (GPa) = 59.59870 72.19532 65.89701
# Shear Modulus (GPa) = 17.63108 20.16952 18.90030
#
# Velocity S-wave (km/s) = 3.30887 3.53906 3.42590
# Velocity P-wave (km/s) = 7.18387 7.84423 7.52130
#
# Compressibility (1/GPa) = 0.01677889
#
# Stress axis : x y z
#
# Youngs Moduli (GPa) = 55.56087 49.15948 67.70174
#
# Poissons Ratio (x) = 0.33464 0.21659
# Poissons Ratio (y) = 0.37821 0.55243
# Poissons Ratio (z) = 0.17775 0.40113
#
# Static dielectric constant tensor:
#      x y z
#    x 3.103490 0.000000 -0.183820 
#    y 0.000000 3.135170 0.000000 
#    z -0.183820 0.000000 2.950220 
# 
# 
# High freq. dielectric constant tensor:
#      x y z
#    x 1.598140 0.000000 -0.019120 
#    y 0.000000 1.628580 0.000000 
#    z -0.019120 0.000000 1.603680 
# 
# From -- ./inp_files/54728.got.cif
#   From: 2010.06.25/outbox.cif.g09.slc.cpg/sg10_28_cif.got.tgz:54728.got - 2010.06.27 22:07:45.
