data_PCOD8057819
_publ_section_title
;
Structure prediction by ZEFSAII (Michael W. Deem and Ramdas Pophale) SiO2 
 PCOD8057819
Probable space group: P 2/M
;
_chemical_formula_sum "Si O2"
_cell_formula_units_Z 26
_cell_length_a 14.186688
_cell_length_b 9.538747
_cell_length_c 11.482714
_cell_angle_alpha 90.000000
_cell_angle_beta 87.865572
_cell_angle_gamma 90.000000
_cell_volume 1552.799832
_symmetry_space_group_name_H-M "P 2/M"
_symmetry_group_IT_number 10
_symmetry_cell_setting 'monoclinic'
loop_
_space_group_symop_operation_xyz
x,y,z
-x,y,-z
-x,-y,-z
x,-y,z
loop_
_atom_site_type_symbol
_atom_site_label
_atom_site_fract_x
_atom_site_fract_y
_atom_site_fract_z
Si Si1 0.511502 0.338807 0.130058
Si Si2 0.994163 0.341095 0.639103
Si Si3 0.500000 0.250283 0.500000
Si Si4 0.371003 0.157771 0.707207
Si Si5 0.834120 0.842802 0.358773
Si Si6 0.357004 0.654610 0.322390
Si Si7 0.820748 0.841711 0.634171
O O1 0.543641 0.500000 0.127787
O O2 0.593470 0.254210 0.190315
O O3 0.412521 0.318924 0.200151
O O4 0.500000 0.280742 0.000000
O O5 0.988674 0.500000 0.687715
O O6 0.085971 0.264607 0.689135
O O7 0.000000 0.343398 0.500000
O O8 0.902923 0.253880 0.686291
O O9 0.438490 0.156738 0.590922
O O10 0.570921 0.344935 0.572225
O O11 0.267096 0.212822 0.678918
O O12 0.366216 0.000000 0.754232
O O13 0.835111 0.847337 0.496907
O O14 0.855050 0.000000 0.310680
O O15 0.309525 0.500000 0.324371
O O16 0.280070 0.775495 0.332524
O O17 0.824612 0.000000 0.685270
#
# Coordination Sequence:
#
# PCOD8057819 Si02
#       7
#     4   4   2   4   4   4   4
#     4   9  20  37  51  66  92 126 163 201 241 279
#     4   9  17  28  42  63  90 125 161 194 223 267
#     4  10  18  30  44  68  98 128 152 190 236 282
#     4  10  19  30  48  71  96 125 159 194 233 280
#     4   9  17  29  42  64  95 128 156 186 230 280
#     4  10  19  30  47  69  93 124 160 197 233 278
#     4  10  18  29  44  65  95 129 156 188 233 282
#
# _framework density 16.743948
#
# number of rings (size 3 to 8) (size 9 to 14) (size 15 to 20)
#    0.000    2.462    1.538    1.385    0.000    6.462 
#    0.000    0.000    0.000    0.000    0.000    1.077 
#    0.000    8.615    0.000    0.000    0.000    0.000 
#
# Total GULP energy -322329.835183 kJ/mol
# GULP energy per Si atom -12397.301353 kJ/mol
# Density = 1.670584 g / cm^3
# Si number density = 16.743948 Si / 1000 Ang^3
#
#
#
# Elastic Constant Matrix: (Units=GPa)
#
#
# Indices 1 2 3 4 5 6 
#
# 1 126.5783 70.9094 28.4866 0.0000 11.3376 0.0000
# 2 70.9094 122.8661 24.7487 0.0000 4.8443 0.0000
# 3 28.4866 24.7487 62.7798 0.0000 5.4177 0.0000
# 4 0.0000 0.0000 0.0000 14.5263 0.0000 4.2064
# 5 11.3376 4.8443 5.4177 0.0000 13.0727 0.0000
# 6 0.0000 0.0000 0.0000 4.2064 0.0000 17.4063
#
#
#
# Elastic Compliance Matrix: (Units=1/GPa)
#
#
# Indices 1 2 3 4 5 6 
#
# 1 0.012864 -0.006604 -0.002574 0.000000 -0.007642 0.000000
# 2 -0.006604 0.012277 -0.002017 0.000000 0.002014 0.000000
# 3 -0.002574 -0.002017 0.018289 0.000000 -0.004600 0.000000
# 4 0.000000 0.000000 0.000000 0.074021 0.000000 -0.017888
# 5 -0.007642 0.002014 -0.004600 0.000000 0.084284 0.000000
# 6 0.000000 0.000000 0.000000 -0.017888 0.000000 0.061774
#
#
# Mechanical properties :
#
#
# Convention : Reuss Voigt Hill
#
# Bulk Modulus (GPa) = 47.52997 62.27927 54.90462
# Shear Modulus (GPa) = 17.07002 21.53967 19.30485
#
# Velocity S-wave (km/s) = 3.19638 3.59055 3.39919
# Velocity P-wave (km/s) = 6.48618 7.38006 6.94751
#
# Compressibility (1/GPa) = 0.02103935
#
# Stress axis : x y z
#
# Youngs Moduli (GPa) = 77.73782 81.45120 54.67854
#
# Poissons Ratio (x) = 0.53792 0.14074
# Poissons Ratio (y) = 0.51340 0.11029
# Poissons Ratio (z) = 0.20010 0.16429
#
# Static dielectric constant tensor:
#      x y z
#    x 3.264740 0.000000 0.030180 
#    y 0.000000 3.288090 0.000000 
#    z 0.030180 0.000000 2.738040 
# 
# 
# High freq. dielectric constant tensor:
#      x y z
#    x 1.650940 0.000000 0.003750 
#    y 0.000000 1.656560 0.000000 
#    z 0.003750 0.000000 1.585890 
# 
# From -- ./inp_files/48721.got.cif
#   From: 2010.06.25/outbox.cif.g09.slc.cpg/sg10_25_cif.got.tgz:48721.got - 2010.06.27 22:07:45.
