data_PCOD8057828
_publ_section_title
;
Structure prediction by ZEFSAII (Michael W. Deem and Ramdas Pophale) SiO2 
 PCOD8057828
Probable space group: P 2/M
;
_chemical_formula_sum "Si O2"
_cell_formula_units_Z 32
_cell_length_a 12.095490
_cell_length_b 9.095377
_cell_length_c 20.377590
_cell_angle_alpha 90.000000
_cell_angle_beta 117.657712
_cell_angle_gamma 90.000000
_cell_volume 1985.644595
_symmetry_space_group_name_H-M "P 2/M"
_symmetry_group_IT_number 10
_symmetry_cell_setting 'monoclinic'
loop_
_space_group_symop_operation_xyz
x,y,z
-x,y,-z
-x,-y,-z
x,-y,z
loop_
_atom_site_type_symbol
_atom_site_label
_atom_site_fract_x
_atom_site_fract_y
_atom_site_fract_z
Si Si1 0.576550 0.173298 0.114089
Si Si2 0.317627 0.666400 0.334461
Si Si3 0.718684 0.830352 0.803700
Si Si4 0.352646 0.166060 0.470646
Si Si5 0.573936 0.831237 0.256829
Si Si6 0.312794 0.825977 0.988576
Si Si7 0.852844 0.330762 0.958338
Si Si8 0.612070 0.334572 0.393583
O O1 0.618560 0.229368 0.197743
O O2 0.439494 0.232973 0.057619
O O3 0.560402 0.000000 0.112785
O O4 0.678400 0.214565 0.086665
O O5 0.267187 0.500000 0.323431
O O6 0.250555 0.751303 0.256641
O O7 0.283871 0.747209 0.393161
O O8 0.465150 0.668427 0.364929
O O9 0.574424 0.812710 0.781794
O O10 0.800267 0.756810 0.882195
O O11 0.756807 0.000000 0.807832
O O12 0.500000 0.167068 0.500000
O O13 0.319232 0.243834 0.530213
O O14 0.301643 0.000000 0.458382
O O15 0.642673 0.736917 0.331569
O O16 0.612096 0.000000 0.278664
O O17 0.197924 0.738455 0.987991
O O18 0.293488 0.000000 0.993664
O O19 0.811463 0.500000 0.941722
O O20 0.000000 0.313576 0.000000
O O21 0.663933 0.500000 0.408652
#
# Coordination Sequence:
#
# PCOD8057828 Si02
#       8
#     4   4   4   4   4   4   4   4
#     4   8  14  26  46  67  86 106 134 176 220 255
#     4   9  16  25  37  53  76 103 131 170 213 249
#     4  10  18  29  45  61  77 103 142 179 210 254
#     4   9  15  23  34  49  70 101 140 174 202 240
#     4   9  15  25  40  59  81 107 135 169 210 251
#     4   9  16  30  49  66  82 106 140 176 214 261
#     4  11  23  35  45  60  86 115 142 179 224 262
#     4   9  16  23  32  50  76 106 137 169 204 243
#
# _framework density 16.115673000000001
#
# number of rings (size 3 to 8) (size 9 to 14) (size 15 to 20)
#    0.000    2.750    1.250    2.625    0.000    6.000 
#    0.000    1.875    0.000    0.000    0.000    0.000 
#    0.000    0.000    0.000    1.125    0.000   21.875 
#
# Total GULP energy -396678.914977 kJ/mol
# GULP energy per Si atom -12396.216093 kJ/mol
# Density = 1.607899 g / cm^3
# Si number density = 16.115673 Si / 1000 Ang^3
#
#
#
# Elastic Constant Matrix: (Units=GPa)
#
#
# Indices 1 2 3 4 5 6 
#
# 1 50.0168 35.4348 40.5260 0.0000 -20.0662 0.0000
# 2 35.4348 125.4507 66.5377 0.0000 -22.3322 0.0000
# 3 40.5260 66.5377 113.4693 0.0000 -46.2719 0.0000
# 4 0.0000 0.0000 0.0000 24.7392 0.0000 -0.4686
# 5 -20.0662 -22.3322 -46.2719 0.0000 27.5262 0.0000
# 6 0.0000 0.0000 0.0000 -0.4686 0.0000 8.6869
#
#
#
# Elastic Compliance Matrix: (Units=1/GPa)
#
#
# Indices 1 2 3 4 5 6 
#
# 1 0.031371 -0.005106 -0.001824 0.000000 0.015660 0.000000
# 2 -0.005106 0.012768 -0.009403 0.000000 -0.009170 0.000000
# 3 -0.001824 -0.009403 0.036011 0.000000 0.051576 0.000000
# 4 0.000000 0.000000 0.000000 0.040463 0.000000 0.002183
# 5 0.015660 -0.009170 0.051576 0.000000 0.127005 0.000000
# 6 0.000000 0.000000 0.000000 0.002183 0.000000 0.115234
#
#
# Mechanical properties :
#
#
# Convention : Reuss Voigt Hill
#
# Bulk Modulus (GPa) = 21.05970 63.77042 42.41506
# Shear Modulus (GPa) = 12.15520 21.95301 17.05410
#
# Velocity S-wave (km/s) = 2.74934 3.69482 3.25658
# Velocity P-wave (km/s) = 4.81401 7.60649 6.36527
#
# Compressibility (1/GPa) = 0.04748407
#
# Stress axis : x y z
#
# Youngs Moduli (GPa) = 31.87624 78.31842 27.76966
#
# Poissons Ratio (x) = 0.39988 0.05066
# Poissons Ratio (y) = 0.16275 0.26112
# Poissons Ratio (z) = 0.05815 0.73643
#
# Static dielectric constant tensor:
#      x y z
#    x 2.656560 0.000000 -0.469090 
#    y 0.000000 3.128550 0.000000 
#    z -0.469090 0.000000 3.238980 
# 
# 
# High freq. dielectric constant tensor:
#      x y z
#    x 1.554520 0.000000 -0.043470 
#    y 0.000000 1.622390 0.000000 
#    z -0.043470 0.000000 1.619020 
# 
# From -- ./inp_files/83388.got.cif
#   From: 2010.06.25/outbox.cif.g09.slc.cpg/sg10_42_cif.got.tgz:83388.got - 2010.06.27 22:07:45.
