data_PCOD8057804
_publ_section_title
;
Structure prediction by ZEFSAII (Michael W. Deem and Ramdas Pophale) SiO2 
 PCOD8057804
Probable space group: P 2/M
;
_chemical_formula_sum "Si O2"
_cell_formula_units_Z 24
_cell_length_a 13.900022
_cell_length_b 8.958080
_cell_length_c 12.090673
_cell_angle_alpha 90.000000
_cell_angle_beta 71.905599
_cell_angle_gamma 90.000000
_cell_volume 1431.047595
_symmetry_space_group_name_H-M "P 2/M"
_symmetry_group_IT_number 10
_symmetry_cell_setting 'monoclinic'
loop_
_space_group_symop_operation_xyz
x,y,z
-x,y,-z
-x,-y,-z
x,-y,z
loop_
_atom_site_type_symbol
_atom_site_label
_atom_site_fract_x
_atom_site_fract_y
_atom_site_fract_z
Si Si1 0.124012 0.173347 0.744519
Si Si2 0.892526 0.175669 0.495230
Si Si3 0.388684 0.175793 0.033689
Si Si4 0.923988 0.676454 0.870087
Si Si5 0.213497 0.824576 0.252697
Si Si6 0.772086 0.172369 0.080815
O O1 0.139553 0.237667 0.614551
O O2 0.224612 0.194230 0.786480
O O3 0.037398 0.263835 0.838311
O O4 0.093321 0.000000 0.750483
O O5 0.800264 0.214772 0.612484
O O6 0.000000 0.243494 0.500000
O O7 0.905962 0.000000 0.481829
O O8 0.321092 0.229367 0.163348
O O9 0.402210 0.000000 0.035360
O O10 0.500000 0.251822 0.000000
O O11 0.334569 0.222231 0.936948
O O12 0.924430 0.500000 0.867525
O O13 0.877343 0.739860 0.774204
O O14 0.861726 0.730782 0.997792
O O15 0.199339 0.000000 0.236147
O O16 0.791569 0.000000 0.042002
#
# Coordination Sequence:
#
# PCOD8057804 Si02
#       6
#     4   4   4   4   4   4
#     4  10  18  29  44  61  85 118 152 178 204 252
#     4   9  15  25  44  64  84 114 151 182 203 240
#     4   8  14  26  46  68  85 105 140 185 224 255
#     4  11  20  28  41  63  92 119 144 178 218 254
#     4   9  16  29  47  65  86 116 151 178 210 255
#     4   9  18  30  45  63  84 114 148 178 214 260
#
# _framework density 16.770931000000001
#
# number of rings (size 3 to 8) (size 9 to 14) (size 15 to 20)
#    0.000    2.667    1.667    3.000    0.000    2.667 
#    0.000    1.667    0.000    9.000    0.000    7.000 
#    0.000    0.000    0.000   13.500    0.000   15.000 
#
# Total GULP energy -297315.319679 kJ/mol
# GULP energy per Si atom -12388.138320 kJ/mol
# Density = 1.673276 g / cm^3
# Si number density = 16.770931 Si / 1000 Ang^3
#
#
#
# Elastic Constant Matrix: (Units=GPa)
#
#
# Indices 1 2 3 4 5 6 
#
# 1 117.5816 14.9714 75.5871 0.0000 6.2568 0.0000
# 2 14.9714 41.4446 12.6075 0.0000 2.2919 0.0000
# 3 75.5871 12.6075 116.7166 0.0000 21.1969 0.0000
# 4 0.0000 0.0000 0.0000 4.1950 0.0000 1.1308
# 5 6.2568 2.2919 21.1969 0.0000 24.4168 0.0000
# 6 0.0000 0.0000 0.0000 1.1308 0.0000 1.9520
#
#
#
# Elastic Compliance Matrix: (Units=1/GPa)
#
#
# Indices 1 2 3 4 5 6 
#
# 1 0.015441 -0.002622 -0.010735 0.000000 0.005609 0.000000
# 2 -0.002622 0.025394 -0.000871 0.000000 -0.000955 0.000000
# 3 -0.010735 -0.000871 0.017926 0.000000 -0.012729 0.000000
# 4 0.000000 0.000000 0.000000 0.282490 0.000000 -0.163645
# 5 0.005609 -0.000955 -0.012729 0.000000 0.050658 0.000000
# 6 0.000000 0.000000 0.000000 -0.163645 0.000000 0.607101
#
#
# Mechanical properties :
#
#
# Convention : Reuss Voigt Hill
#
# Bulk Modulus (GPa) = 32.99991 53.56387 43.28189
# Shear Modulus (GPa) = 4.81895 17.61788 11.21842
#
# Velocity S-wave (km/s) = 1.69695 3.24466 2.58916
# Velocity P-wave (km/s) = 4.85377 6.78564 5.89932
#
# Compressibility (1/GPa) = 0.03030311
#
# Stress axis : x y z
#
# Youngs Moduli (GPa) = 64.76093 39.37973 55.78482
#
# Poissons Ratio (x) = 0.10327 0.59887
# Poissons Ratio (y) = 0.16983 0.04860
# Poissons Ratio (z) = 0.69524 0.03431
#
# Static dielectric constant tensor:
#      x y z
#    x 3.242010 0.000000 0.149700 
#    y 0.000000 2.749830 0.000000 
#    z 0.149700 0.000000 3.399640 
# 
# 
# High freq. dielectric constant tensor:
#      x y z
#    x 1.620750 0.000000 0.019200 
#    y 0.000000 1.605310 0.000000 
#    z 0.019200 0.000000 1.647090 
# 
# From -- ./inp_files/48449.got.cif
#   From: 2010.06.25/outbox.cif.g09.slc.cpg/sg10_25_cif.got.tgz:48449.got - 2010.06.27 22:07:45.
