data_PCOD8057643
_publ_section_title
;
Structure prediction by ZEFSAII (Michael W. Deem and Ramdas Pophale) SiO2 
 PCOD8057643
Probable space group: P 2/M
;
_chemical_formula_sum "Si O2"
_cell_formula_units_Z 24
_cell_length_a 12.183535
_cell_length_b 7.843911
_cell_length_c 16.773707
_cell_angle_alpha 90.000000
_cell_angle_beta 117.832492
_cell_angle_gamma 90.000000
_cell_volume 1417.564012
_symmetry_space_group_name_H-M "P 2/M"
_symmetry_group_IT_number 10
_symmetry_cell_setting 'monoclinic'
loop_
_space_group_symop_operation_xyz
x,y,z
-x,y,-z
-x,-y,-z
x,-y,z
loop_
_atom_site_type_symbol
_atom_site_label
_atom_site_fract_x
_atom_site_fract_y
_atom_site_fract_z
Si Si1 0.115995 0.500000 0.932979
Si Si2 0.827273 0.500000 0.873452
Si Si3 0.181399 0.691476 0.519741
Si Si4 0.205229 0.809601 0.243698
Si Si5 0.078236 0.194304 0.812861
Si Si6 0.933085 0.807910 0.368167
Si Si7 0.642924 0.701189 0.557223
O O1 0.147181 0.328075 0.894071
O O2 0.973033 0.500000 0.907922
O O3 0.199686 0.500000 0.041024
O O4 0.766891 0.670361 0.815310
O O5 0.219352 0.500000 0.553691
O O6 0.174752 0.791617 0.601608
O O7 0.285490 0.771185 0.496853
O O8 0.048606 0.689062 0.430050
O O9 0.305374 0.793707 0.347400
O O10 0.069514 0.778722 0.234493
O O11 0.214657 0.000000 0.209821
O O12 0.120963 0.238011 0.737130
O O13 0.114346 0.000000 0.849387
O O14 0.984552 0.000000 0.384435
O O15 0.500000 0.749809 0.500000
O O16 0.665330 0.500000 0.574445
#
# Coordination Sequence:
#
# PCOD8057643 Si02
#       7
#     2   2   4   4   4   4   4
#     4   9  18  28  48  62  92 123 149 189 238 278
#     4   9  18  32  43  67  89 120 154 194 232 276
#     4  10  19  27  43  65  87 121 162 191 225 273
#     4  10  18  30  48  65  89 124 159 191 229 278
#     4   9  18  28  44  68  93 122 155 188 227 280
#     4  10  18  28  42  62  93 123 152 192 228 270
#     4  10  20  33  47  65  94 127 162 202 232 265
#
# _framework density 16.930453
#
# number of rings (size 3 to 8) (size 9 to 14) (size 15 to 20)
#    0.000    2.333    2.500    2.000    2.333    1.667 
#    0.000    3.333    0.000    0.000    0.000    0.000 
#    0.000    2.667    0.000    5.167    0.000    0.333 
#
# Total GULP energy -297531.426899 kJ/mol
# GULP energy per Si atom -12397.142787 kJ/mol
# Density = 1.689192 g / cm^3
# Si number density = 16.930453 Si / 1000 Ang^3
#
#
#
# Elastic Constant Matrix: (Units=GPa)
#
#
# Indices 1 2 3 4 5 6 
#
# 1 63.1297 19.1795 40.7942 0.0000 -12.0021 0.0000
# 2 19.1795 100.5112 62.5908 0.0000 -13.3120 0.0000
# 3 40.7942 62.5908 125.6074 0.0000 -28.7242 0.0000
# 4 0.0000 0.0000 0.0000 16.7638 0.0000 -7.7396
# 5 -12.0021 -13.3120 -28.7242 0.0000 20.1548 0.0000
# 6 0.0000 0.0000 0.0000 -7.7396 0.0000 10.2943
#
#
#
# Elastic Compliance Matrix: (Units=1/GPa)
#
#
# Indices 1 2 3 4 5 6 
#
# 1 0.020267 0.000278 -0.005814 0.000000 0.003967 0.000000
# 2 0.000278 0.014445 -0.007519 0.000000 -0.001010 0.000000
# 3 -0.005814 -0.007519 0.017311 0.000000 0.016243 0.000000
# 4 0.000000 0.000000 0.000000 0.091366 0.000000 0.068692
# 5 0.003967 -0.001010 0.016243 0.000000 0.074460 0.000000
# 6 0.000000 0.000000 0.000000 0.068692 0.000000 0.148787
#
#
# Mechanical properties :
#
#
# Convention : Reuss Voigt Hill
#
# Bulk Modulus (GPa) = 38.59034 59.37526 48.98280
# Shear Modulus (GPa) = 12.45695 20.55482 16.50589
#
# Velocity S-wave (km/s) = 2.71545 3.48814 3.12576
# Velocity P-wave (km/s) = 5.71616 7.16722 6.48242
#
# Compressibility (1/GPa) = 0.02591322
#
# Stress axis : x y z
#
# Youngs Moduli (GPa) = 49.34173 69.22969 57.76764
#
# Poissons Ratio (x) = -0.01928 0.33584
# Poissons Ratio (y) = -0.01374 0.43437
# Poissons Ratio (z) = 0.28686 0.52056
#
# Static dielectric constant tensor:
#      x y z
#    x 2.839950 0.000000 -0.331040 
#    y 0.000000 3.290780 0.000000 
#    z -0.331040 0.000000 3.165900 
# 
# 
# High freq. dielectric constant tensor:
#      x y z
#    x 1.596050 0.000000 -0.031060 
#    y 0.000000 1.666640 0.000000 
#    z -0.031060 0.000000 1.636460 
# 
# From -- ./inp_files/63248.got.cif
#   From: 2010.06.25/outbox.cif.g09.slc.cpg/sg10_32_cif.got.tgz:63248.got - 2010.06.27 22:07:45.
