data_PCOD8057198
_publ_section_title
;
Structure prediction by ZEFSAII (Michael W. Deem and Ramdas Pophale) SiO2 
 PCOD8057198
Probable space group: P 2/M
;
_chemical_formula_sum "Si O2"
_cell_formula_units_Z 28
_cell_length_a 12.542607
_cell_length_b 13.640168
_cell_length_c 15.466382
_cell_angle_alpha 90.000000
_cell_angle_beta 142.026198
_cell_angle_gamma 90.000000
_cell_volume 1628.110803
_symmetry_space_group_name_H-M "P 2/M"
_symmetry_group_IT_number 10
_symmetry_cell_setting 'monoclinic'
loop_
_space_group_symop_operation_xyz
x,y,z
-x,y,-z
-x,-y,-z
x,-y,z
loop_
_atom_site_type_symbol
_atom_site_label
_atom_site_fract_x
_atom_site_fract_y
_atom_site_fract_z
Si Si1 0.399894 0.210000 0.240038
Si Si2 0.362180 0.107260 0.488666
Si Si3 0.861283 0.887840 0.803013
Si Si4 0.834000 0.613359 0.338204
Si Si5 0.765556 0.111702 0.014632
Si Si6 0.455805 0.611478 0.167358
Si Si7 0.687021 0.280563 0.083531
O O1 0.581776 0.185207 0.403067
O O2 0.236860 0.187786 0.197666
O O3 0.392935 0.145222 0.147815
O O4 0.398934 0.324071 0.213669
O O5 0.500000 0.105473 0.500000
O O6 0.182380 0.134732 0.326285
O O7 0.350651 0.000000 0.525329
O O8 0.805015 0.000000 0.790775
O O9 0.067038 0.875660 0.940963
O O10 0.858918 0.500000 0.328166
O O11 0.660129 0.627477 0.282679
O O12 0.815362 0.675302 0.237907
O O13 0.000000 0.650201 0.500000
O O14 0.743566 0.000000 0.032035
O O15 0.775971 0.181528 0.104693
O O16 0.413658 0.500000 0.164093
O O17 0.342514 0.639504 0.010870
O O18 0.500000 0.250469 0.000000
#
# Coordination Sequence:
#
# PCOD8057198 Si02
#       7
#     4   4   4   4   4   4   4
#     4  10  17  27  46  66  88 118 152 185 218 258
#     4   8  14  25  41  61  85 114 147 180 214 254
#     4   9  17  29  45  66  92 120 150 186 223 257
#     4   9  17  31  52  73  89 109 145 192 229 259
#     4  10  19  29  45  69  93 118 149 185 222 260
#     4   9  18  31  47  68  91 117 149 182 223 271
#     4   9  18  32  49  67  90 120 148 179 224 272
#
# _framework density 17.197846999999999
#
# number of rings (size 3 to 8) (size 9 to 14) (size 15 to 20)
#    0.000    2.857    0.000    3.000    0.000    4.286 
#    0.000    0.000    0.000   12.000    0.000    0.000 
#    0.000    0.000    0.000    0.000    0.000    0.000 
#
# Total GULP energy -347030.832412 kJ/mol
# GULP energy per Si atom -12393.958300 kJ/mol
# Density = 1.715870 g / cm^3
# Si number density = 17.197847 Si / 1000 Ang^3
#
#
#
# Elastic Constant Matrix: (Units=GPa)
#
#
# Indices 1 2 3 4 5 6 
#
# 1 54.0333 55.1745 21.3193 0.0000 -11.2295 0.0000
# 2 55.1745 134.3866 51.4725 0.0000 -14.4550 0.0000
# 3 21.3193 51.4725 110.9914 0.0000 -15.3769 0.0000
# 4 0.0000 0.0000 0.0000 22.0106 0.0000 -5.1994
# 5 -11.2295 -14.4550 -15.3769 0.0000 20.3090 0.0000
# 6 0.0000 0.0000 0.0000 -5.1994 0.0000 30.0920
#
#
#
# Elastic Compliance Matrix: (Units=1/GPa)
#
#
# Indices 1 2 3 4 5 6 
#
# 1 0.033548 -0.013085 0.001010 0.000000 0.010001 0.000000
# 2 -0.013085 0.014400 -0.004186 0.000000 -0.000155 0.000000
# 3 0.001010 -0.004186 0.011643 0.000000 0.006394 0.000000
# 4 0.000000 0.000000 0.000000 0.047366 0.000000 0.008184
# 5 0.010001 -0.000155 0.006394 0.000000 0.059500 0.000000
# 6 0.000000 0.000000 0.000000 0.008184 0.000000 0.034645
#
#
# Mechanical properties :
#
#
# Convention : Reuss Voigt Hill
#
# Bulk Modulus (GPa) = 36.94285 61.70489 49.32387
# Shear Modulus (GPa) = 20.60592 25.91198 23.25895
#
# Velocity S-wave (km/s) = 3.46521 3.88583 3.68154
# Velocity P-wave (km/s) = 6.12683 7.48934 6.84208
#
# Compressibility (1/GPa) = 0.02706883
#
# Stress axis : x y z
#
# Youngs Moduli (GPa) = 29.80763 69.44388 85.88838
#
# Poissons Ratio (x) = 0.90866 -0.08672
# Poissons Ratio (y) = 0.39003 0.35955
# Poissons Ratio (z) = -0.03010 0.29071
#
# Static dielectric constant tensor:
#      x y z
#    x 2.886570 0.000000 -0.055040 
#    y 0.000000 3.071520 0.000000 
#    z -0.055040 0.000000 3.658970 
# 
# 
# High freq. dielectric constant tensor:
#      x y z
#    x 1.628290 0.000000 -0.007450 
#    y 0.000000 1.647400 0.000000 
#    z -0.007450 0.000000 1.678320 
# 
# From -- ./inp_files/64952.got.cif
#   From: 2010.06.25/outbox.cif.g09.slc.cpg/sg10_33_cif.got.tgz:64952.got - 2010.06.27 22:07:45.
