data_PCOD8057921
_publ_section_title
;
Structure prediction by ZEFSAII (Michael W. Deem and Ramdas Pophale) SiO2 
 PCOD8057921
Probable space group: P 2/M
;
_chemical_formula_sum "Si O2"
_cell_formula_units_Z 28
_cell_length_a 15.744519
_cell_length_b 9.281593
_cell_length_c 21.080995
_cell_angle_alpha 90.000000
_cell_angle_beta 27.876091
_cell_angle_gamma 90.000000
_cell_volume 1440.393952
_symmetry_space_group_name_H-M "P 2/M"
_symmetry_group_IT_number 10
_symmetry_cell_setting 'monoclinic'
loop_
_space_group_symop_operation_xyz
x,y,z
-x,y,-z
-x,-y,-z
x,-y,z
loop_
_atom_site_type_symbol
_atom_site_label
_atom_site_fract_x
_atom_site_fract_y
_atom_site_fract_z
Si Si1 0.644719 0.835681 0.266231
Si Si2 0.407588 0.166139 0.993450
Si Si3 0.001249 0.168892 0.276619
Si Si4 0.122284 0.835509 0.775588
Si Si5 0.449473 0.664735 0.216945
Si Si6 0.280404 0.170317 0.438327
Si Si7 0.821932 0.662857 0.046027
O O1 0.683848 0.815076 0.316098
O O2 0.442052 0.789507 0.380949
O O3 0.796316 0.741698 0.130069
O O4 0.677066 0.000000 0.224294
O O5 0.203352 0.233173 0.132970
O O6 0.401895 0.000000 0.974427
O O7 0.500000 0.181185 0.000000
O O8 0.530258 0.255931 0.863608
O O9 0.868112 0.205234 0.305107
O O10 0.903213 0.225637 0.405394
O O11 0.024375 0.000000 0.269945
O O12 0.055102 0.000000 0.826782
O O13 0.974785 0.734624 0.903808
O O14 0.387995 0.500000 0.246412
O O15 0.299088 0.745321 0.359635
O O16 0.638229 0.674493 0.128080
O O17 0.276812 0.000000 0.426555
O O18 0.877460 0.500000 0.023752
#
# Coordination Sequence:
#
# PCOD8057921 Si02
#       7
#     4   4   4   4   4   4   4
#     4   9  18  29  45  71 100 136 176 213 254 299
#     4  10  20  36  60  86 107 130 166 212 262 315
#     4   9  18  33  54  79 105 135 171 215 263 309
#     4  10  18  29  47  71 102 135 172 216 259 303
#     4  10  20  35  55  79 106 139 176 212 255 308
#     4   9  18  34  54  75 105 142 177 212 254 305
#     4  10  19  30  46  70 101 137 176 214 253 299
#
# _framework density 19.439126000000002
#
# number of rings (size 3 to 8) (size 9 to 14) (size 15 to 20)
#    0.000    2.429    1.429    1.286    0.000    4.286 
#    0.000    5.000    0.000    4.286    0.000    5.000 
#    0.000    0.000    0.000    0.000    0.000    0.000 
#
# Total GULP energy -347056.357868 kJ/mol
# GULP energy per Si atom -12394.869924 kJ/mol
# Density = 1.939488 g / cm^3
# Si number density = 19.439126 Si / 1000 Ang^3
#
#
#
# Elastic Constant Matrix: (Units=GPa)
#
#
# Indices 1 2 3 4 5 6 
#
# 1 72.9946 32.6619 37.6211 0.0000 21.6412 0.0000
# 2 32.6619 72.2594 31.8452 0.0000 11.5796 0.0000
# 3 37.6211 31.8452 90.1685 0.0000 23.3409 0.0000
# 4 0.0000 0.0000 0.0000 2.8746 0.0000 -6.2736
# 5 21.6412 11.5796 23.3409 0.0000 21.6100 0.0000
# 6 0.0000 0.0000 0.0000 -6.2736 0.0000 11.5617
#
#
#
# Elastic Compliance Matrix: (Units=1/GPa)
#
#
# Indices 1 2 3 4 5 6 
#
# 1 0.022987 -0.006414 -0.003132 0.000000 -0.016200 0.000000
# 2 -0.006414 0.018374 -0.004063 0.000000 0.000966 0.000000
# 3 -0.003132 -0.004063 0.017291 0.000000 -0.013362 0.000000
# 4 0.000000 0.000000 0.000000 -1.888173 0.000000 -1.024568
# 5 -0.016200 0.000966 -0.013362 0.000000 0.076413 0.000000
# 6 0.000000 0.000000 0.000000 -1.024568 0.000000 -0.469463
#
#
# Mechanical properties :
#
#
# Convention : Reuss Voigt Hill
#
# Bulk Modulus (GPa) = 31.81311 48.85322 40.33317
# Shear Modulus (GPa) = -2.28846 16.09554 6.90354
#
# Velocity S-wave (km/s) = -1.08619 2.88062 1.88655
# Velocity P-wave (km/s) = 3.85071 6.02079 5.05360
#
# Compressibility (1/GPa) = 0.03143358
#
# Stress axis : x y z
#
# Youngs Moduli (GPa) = 43.50333 54.42464 57.83319
#
# Poissons Ratio (x) = 0.34907 0.18114
# Poissons Ratio (y) = 0.27902 0.23499
# Poissons Ratio (z) = 0.13625 0.22114
#
# Static dielectric constant tensor:
#      x y z
#    x 3.584700 0.000000 0.037080 
#    y 0.000000 3.440820 0.000000 
#    z 0.037080 0.000000 3.634100 
# 
# 
# High freq. dielectric constant tensor:
#      x y z
#    x 1.753880 0.000000 0.009090 
#    y 0.000000 1.732020 0.000000 
#    z 0.009090 0.000000 1.743420 
# 
# From -- ./inp_files/54659.got.cif
#   From: 2010.06.25/outbox.cif.g09.slc.cpg/sg10_28_cif.got.tgz:54659.got - 2010.06.27 22:07:45.
