data_PCOD8057362
_publ_section_title
;
Structure prediction by ZEFSAII (Michael W. Deem and Ramdas Pophale) SiO2 
 PCOD8057362
Probable space group: P 2/M
;
_chemical_formula_sum "Si O2"
_cell_formula_units_Z 32
_cell_length_a 24.984772
_cell_length_b 8.916428
_cell_length_c 12.445056
_cell_angle_alpha 90.000000
_cell_angle_beta 131.237505
_cell_angle_gamma 90.000000
_cell_volume 2084.834138
_symmetry_space_group_name_H-M "P 2/M"
_symmetry_group_IT_number 10
_symmetry_cell_setting 'monoclinic'
loop_
_space_group_symop_operation_xyz
x,y,z
-x,y,-z
-x,-y,-z
x,-y,z
loop_
_atom_site_type_symbol
_atom_site_label
_atom_site_fract_x
_atom_site_fract_y
_atom_site_fract_z
Si Si1 0.335239 0.676624 0.647838
Si Si2 0.190936 0.665635 0.368535
Si Si3 0.581014 0.824266 0.432841
Si Si4 0.430545 0.323757 0.965664
Si Si5 0.803285 0.333176 0.861531
Si Si6 0.919110 0.176294 0.899145
Si Si7 0.433552 0.678443 0.211001
Si Si8 0.669946 0.824632 0.762156
O O1 0.342730 0.500000 0.632394
O O2 0.252228 0.727174 0.529652
O O3 0.384305 0.765489 0.630336
O O4 0.360980 0.714797 0.802458
O O5 0.164791 0.500000 0.370247
O O6 0.229003 0.655672 0.301812
O O7 0.122120 0.774760 0.266123
O O8 0.506379 0.742917 0.355827
O O9 0.631304 0.787533 0.599548
O O10 0.566976 0.000000 0.403303
O O11 0.442016 0.500000 0.990400
O O12 0.500000 0.252853 0.000000
O O13 0.422366 0.259665 0.074804
O O14 0.812280 0.500000 0.923153
O O15 0.881086 0.253550 0.952345
O O16 0.751010 0.234551 0.865271
O O17 0.914377 0.000000 0.906768
O O18 0.000000 0.232821 0.000000
O O19 0.435728 0.500000 0.219791
O O20 0.367566 0.738007 0.191330
O O21 0.670601 0.000000 0.788055
#
# Coordination Sequence:
#
# PCOD8057362 Si02
#       8
#     4   4   4   4   4   4   4   4
#     4  10  17  30  50  67  87 115 153 190 229 276
#     4   8  16  26  42  66  90 117 148 182 216 258
#     4  11  21  31  44  64  87 113 145 187 237 276
#     4   9  17  31  50  67  83 110 149 197 241 273
#     4   9  17  28  44  66  89 117 150 178 211 256
#     4   9  16  26  42  65  96 129 153 175 210 260
#     4  11  22  34  48  63  82 113 153 193 232 275
#     4  11  22  34  46  62  90 119 147 187 230 275
#
# _framework density 15.348941999999999
#
# number of rings (size 3 to 8) (size 9 to 14) (size 15 to 20)
#    0.750    1.500    2.500    1.875    0.000    4.500 
#    0.000    1.875    0.000    0.000    0.000    0.000 
#    0.000    1.000    0.000   11.500    0.000    2.875 
#
# Total GULP energy -396553.222857 kJ/mol
# GULP energy per Si atom -12392.288214 kJ/mol
# Density = 1.531401 g / cm^3
# Si number density = 15.348942 Si / 1000 Ang^3
#
#
#
# Elastic Constant Matrix: (Units=GPa)
#
#
# Indices 1 2 3 4 5 6 
#
# 1 96.4606 42.8479 42.1721 0.0000 17.3640 0.0000
# 2 42.8479 63.4544 28.8343 0.0000 5.8299 0.0000
# 3 42.1721 28.8343 55.7843 0.0000 14.2078 0.0000
# 4 0.0000 0.0000 0.0000 14.3241 0.0000 5.1991
# 5 17.3640 5.8299 14.2078 0.0000 27.8455 0.0000
# 6 0.0000 0.0000 0.0000 5.1991 0.0000 24.0407
#
#
#
# Elastic Compliance Matrix: (Units=1/GPa)
#
#
# Indices 1 2 3 4 5 6 
#
# 1 0.018775 -0.008317 -0.008455 0.000000 -0.005653 0.000000
# 2 -0.008317 0.024321 -0.007250 0.000000 0.003793 0.000000
# 3 -0.008455 -0.007250 0.030270 0.000000 -0.008654 0.000000
# 4 0.000000 0.000000 0.000000 0.075759 0.000000 -0.016384
# 5 -0.005653 0.003793 -0.008654 0.000000 0.043059 0.000000
# 6 0.000000 0.000000 0.000000 -0.016384 0.000000 0.045139
#
#
# Mechanical properties :
#
#
# Convention : Reuss Voigt Hill
#
# Bulk Modulus (GPa) = 39.49134 49.26756 44.37945
# Shear Modulus (GPa) = 17.01784 20.03174 18.52479
#
# Velocity S-wave (km/s) = 3.33337 3.61652 3.47783
# Velocity P-wave (km/s) = 6.37182 7.04322 6.71592
#
# Compressibility (1/GPa) = 0.02532201
#
# Stress axis : x y z
#
# Youngs Moduli (GPa) = 53.26121 41.11623 33.03577
#
# Poissons Ratio (x) = 0.34195 0.27933
# Poissons Ratio (y) = 0.44295 0.23952
# Poissons Ratio (z) = 0.45035 0.29811
#
# Static dielectric constant tensor:
#      x y z
#    x 2.785540 0.000000 0.053900 
#    y 0.000000 2.890520 0.000000 
#    z 0.053900 0.000000 2.888310 
# 
# 
# High freq. dielectric constant tensor:
#      x y z
#    x 1.564240 0.000000 0.012110 
#    y 0.000000 1.590370 0.000000 
#    z 0.012110 0.000000 1.564090 
# 
# From -- ./inp_files/54909.got.cif
#   From: 2010.06.25/outbox.cif.g09.slc.cpg/sg10_28_cif.got.tgz:54909.got - 2010.06.27 22:07:45.
