data_PCOD8057108
_publ_section_title
;
Structure prediction by ZEFSAII (Michael W. Deem and Ramdas Pophale) SiO2 
 PCOD8057108
Probable space group: P 2/M
;
_chemical_formula_sum "Si O2"
_cell_formula_units_Z 32
_cell_length_a 21.837245
_cell_length_b 8.592954
_cell_length_c 11.589301
_cell_angle_alpha 90.000000
_cell_angle_beta 56.557782
_cell_angle_gamma 90.000000
_cell_volume 1814.653628
_symmetry_space_group_name_H-M "P 2/M"
_symmetry_group_IT_number 10
_symmetry_cell_setting 'monoclinic'
loop_
_space_group_symop_operation_xyz
x,y,z
-x,y,-z
-x,-y,-z
x,-y,z
loop_
_atom_site_type_symbol
_atom_site_label
_atom_site_fract_x
_atom_site_fract_y
_atom_site_fract_z
Si Si1 0.852978 0.319684 0.910758
Si Si2 0.733024 0.815413 0.654149
Si Si3 0.915192 0.182017 0.075464
Si Si4 0.573281 0.180691 0.800352
Si Si5 0.013638 0.178896 0.351624
Si Si6 0.429380 0.681131 0.946803
Si Si7 0.870550 0.816207 0.372968
Si Si8 0.716963 0.817136 0.931968
O O1 0.834367 0.500000 0.921337
O O2 0.915624 0.278174 0.754007
O O3 0.780069 0.224163 0.956623
O O4 0.878255 0.279222 0.012937
O O5 0.655284 0.767536 0.675038
O O6 0.798833 0.742502 0.509257
O O7 0.738495 0.755921 0.780949
O O8 0.739657 0.000000 0.649451
O O9 0.871477 0.226512 0.237183
O O10 0.909230 0.000000 0.052625
O O11 0.000000 0.230341 0.000000
O O12 0.507898 0.277254 0.804115
O O13 0.560224 0.000000 0.789392
O O14 0.572135 0.213132 0.937853
O O15 0.000000 0.194589 0.500000
O O16 0.943882 0.249581 0.356790
O O17 0.027952 0.000000 0.300425
O O18 0.426856 0.500000 0.979822
O O19 0.358075 0.731609 0.947191
O O20 0.870256 0.000000 0.391537
O O21 0.703096 0.000000 0.946856
#
# Coordination Sequence:
#
# PCOD8057108 Si02
#       8
#     4   4   4   4   4   4   4   4
#     4  12  24  35  49  71 102 131 163 206 256 303
#     4   8  15  27  47  75 100 125 160 207 247 284
#     4  10  19  35  56  73  91 123 171 216 249 292
#     4   9  15  25  42  66  98 135 171 198 234 290
#     4  10  19  33  54  75  97 129 168 204 243 296
#     4  10  17  26  42  67  99 132 166 200 244 289
#     4   9  16  29  50  74  96 121 162 210 249 283
#     4  10  19  33  51  71  99 131 168 204 246 300
#
# _framework density 17.634219000000002
#
# number of rings (size 3 to 8) (size 9 to 14) (size 15 to 20)
#    0.000    2.250    1.250    5.250    0.000    2.500 
#    0.000    0.000    0.000    6.000    0.000    0.875 
#    0.000    7.000    0.000    0.000    0.000    0.000 
#
# Total GULP energy -396651.044025 kJ/mol
# GULP energy per Si atom -12395.345126 kJ/mol
# Density = 1.759408 g / cm^3
# Si number density = 17.634219 Si / 1000 Ang^3
#
#
#
# Elastic Constant Matrix: (Units=GPa)
#
#
# Indices 1 2 3 4 5 6 
#
# 1 117.7517 26.2838 46.2823 0.0000 -24.8494 0.0000
# 2 26.2838 50.5729 16.6976 0.0000 -5.5512 0.0000
# 3 46.2823 16.6976 44.3659 0.0000 -4.9194 0.0000
# 4 0.0000 0.0000 0.0000 9.8101 0.0000 -1.2570
# 5 -24.8494 -5.5512 -4.9194 0.0000 27.6509 0.0000
# 6 0.0000 0.0000 0.0000 -1.2570 0.0000 17.3738
#
#
#
# Elastic Compliance Matrix: (Units=1/GPa)
#
#
# Indices 1 2 3 4 5 6 
#
# 1 0.018431 -0.002599 -0.016802 0.000000 0.013053 0.000000
# 2 -0.002599 0.023206 -0.005881 0.000000 0.001277 0.000000
# 3 -0.016802 -0.005881 0.041290 0.000000 -0.008934 0.000000
# 4 0.000000 0.000000 0.000000 0.102890 0.000000 0.007444
# 5 0.013053 0.001277 -0.008934 0.000000 0.046562 0.000000
# 6 0.000000 0.000000 0.000000 0.007444 0.000000 0.058096
#
#
# Mechanical properties :
#
#
# Convention : Reuss Voigt Hill
#
# Bulk Modulus (GPa) = 30.89882 43.46865 37.18374
# Shear Modulus (GPa) = 14.21152 19.19542 16.70347
#
# Velocity S-wave (km/s) = 2.84193 3.30287 3.08103
# Velocity P-wave (km/s) = 5.32249 6.26490 5.81282
#
# Compressibility (1/GPa) = 0.03236369
#
# Stress axis : x y z
#
# Youngs Moduli (GPa) = 54.25644 43.09222 24.21887
#
# Poissons Ratio (x) = 0.11199 0.40692
# Poissons Ratio (y) = 0.14100 0.14244
# Poissons Ratio (z) = 0.91160 0.25343
#
# Static dielectric constant tensor:
#      x y z
#    x 3.619860 0.000000 -0.506760 
#    y 0.000000 3.005660 0.000000 
#    z -0.506760 0.000000 3.373660 
# 
# 
# High freq. dielectric constant tensor:
#      x y z
#    x 1.685130 0.000000 -0.030230 
#    y 0.000000 1.660910 0.000000 
#    z -0.030230 0.000000 1.651410 
# 
# From -- ./inp_files/56429.got.cif
#   From: 2010.06.25/outbox.cif.g09.slc.cpg/sg10_29_cif.got.tgz:56429.got - 2010.06.27 22:07:45.
