data_PCOD8057742
_publ_section_title
;
Structure prediction by ZEFSAII (Michael W. Deem and Ramdas Pophale) SiO2 
 PCOD8057742
Probable space group: P 2/M
;
_chemical_formula_sum "Si O2"
_cell_formula_units_Z 20
_cell_length_a 21.618377
_cell_length_b 9.407654
_cell_length_c 10.285842
_cell_angle_alpha 90.000000
_cell_angle_beta 145.780275
_cell_angle_gamma 90.000000
_cell_volume 1176.426866
_symmetry_space_group_name_H-M "P 2/M"
_symmetry_group_IT_number 10
_symmetry_cell_setting 'monoclinic'
loop_
_space_group_symop_operation_xyz
x,y,z
-x,y,-z
-x,-y,-z
x,-y,z
loop_
_atom_site_type_symbol
_atom_site_label
_atom_site_fract_x
_atom_site_fract_y
_atom_site_fract_z
Si Si1 0.505375 0.657159 0.164458
Si Si2 0.936621 0.162509 0.016993
Si Si3 0.292958 0.837165 0.502280
Si Si4 0.731073 0.335135 0.280581
Si Si5 0.963466 0.334557 0.577079
O O1 0.535717 0.500000 0.269655
O O2 0.598475 0.766689 0.374089
O O3 0.500000 0.657831 0.000000
O O4 0.381754 0.701792 0.994587
O O5 0.805695 0.175193 0.771612
O O6 0.972960 0.000000 0.104330
O O7 0.000000 0.221458 0.000000
O O8 0.967349 0.254030 0.194445
O O9 0.255776 0.759758 0.568866
O O10 0.320107 0.000000 0.582972
O O11 0.727363 0.500000 0.318827
O O12 0.833465 0.304279 0.364753
O O13 0.990911 0.500000 0.640386
O O14 0.000000 0.277544 0.500000
#
# Coordination Sequence:
#
# PCOD8057742 Si02
#       5
#     4   4   4   4   4
#     4   8  15  27  43  66  96 127 157 193 243 293
#     4  10  20  34  50  72 102 132 163 202 248 294
#     4  10  18  28  46  72  99 124 159 203 240 284
#     4   9  17  30  47  68  98 130 158 196 245 291
#     4  10  21  35  52  75 100 129 168 207 243 291
#
# _framework density 17.000632
#
# number of rings (size 3 to 8) (size 9 to 14) (size 15 to 20)
#    0.000    2.600    2.000    1.800    0.000    6.000 
#    0.000    0.000    0.000    1.200    0.000    8.400 
#    0.000    0.000    0.000    0.000    0.000    0.000 
#
# Total GULP energy -247938.716590 kJ/mol
# GULP energy per Si atom -12396.935829 kJ/mol
# Density = 1.696194 g / cm^3
# Si number density = 17.000632 Si / 1000 Ang^3
#
#
#
# Elastic Constant Matrix: (Units=GPa)
#
#
# Indices 1 2 3 4 5 6 
#
# 1 102.7125 50.6345 64.3848 0.0000 11.5644 0.0000
# 2 50.6345 83.5031 54.0005 0.0000 5.9176 0.0000
# 3 64.3848 54.0005 94.0456 0.0000 14.2402 0.0000
# 4 0.0000 0.0000 0.0000 34.7905 0.0000 4.6337
# 5 11.5644 5.9176 14.2402 0.0000 30.9664 0.0000
# 6 0.0000 0.0000 0.0000 4.6337 0.0000 17.5154
#
#
#
# Elastic Compliance Matrix: (Units=1/GPa)
#
#
# Indices 1 2 3 4 5 6 
#
# 1 0.018223 -0.004809 -0.009483 0.000000 -0.001525 0.000000
# 2 -0.004809 0.020383 -0.008699 0.000000 0.001901 0.000000
# 3 -0.009483 -0.008699 0.022929 0.000000 -0.005340 0.000000
# 4 0.000000 0.000000 0.000000 0.029793 0.000000 -0.007882
# 5 -0.001525 0.001901 -0.005340 0.000000 0.034955 0.000000
# 6 0.000000 0.000000 0.000000 -0.007882 0.000000 0.059178
#
#
# Mechanical properties :
#
#
# Convention : Reuss Voigt Hill
#
# Bulk Modulus (GPa) = 64.30200 68.70008 66.50104
# Shear Modulus (GPa) = 21.13020 24.07054 22.60037
#
# Velocity S-wave (km/s) = 3.52931 3.76688 3.65003
# Velocity P-wave (km/s) = 7.38332 7.70825 7.54754
#
# Compressibility (1/GPa) = 0.01555162
#
# Stress axis : x y z
#
# Youngs Moduli (GPa) = 54.87559 49.06130 43.61274
#
# Poissons Ratio (x) = 0.23595 0.41359
# Poissons Ratio (y) = 0.26391 0.37939
# Poissons Ratio (z) = 0.52040 0.42679
#
# Static dielectric constant tensor:
#      x y z
#    x 3.282470 0.000000 0.530180 
#    y 0.000000 3.227130 0.000000 
#    z 0.530180 0.000000 3.184710 
# 
# 
# High freq. dielectric constant tensor:
#      x y z
#    x 1.632310 0.000000 0.040880 
#    y 0.000000 1.657580 0.000000 
#    z 0.040880 0.000000 1.642450 
# 
# From -- ./inp_files/22279.got.cif
#   From: 2010.06.25/outbox.cif.g09.slc.cpg/sg10_12_cif.got.tgz:22279.got - 2010.06.27 22:07:45.
