data_PCOD8057908
_publ_section_title
;
Structure prediction by ZEFSAII (Michael W. Deem and Ramdas Pophale) SiO2 
 PCOD8057908
Probable space group: P 2/M
;
_chemical_formula_sum "Si O2"
_cell_formula_units_Z 32
_cell_length_a 26.472475
_cell_length_b 9.124653
_cell_length_c 21.646200
_cell_angle_alpha 90.000000
_cell_angle_beta 160.127951
_cell_angle_gamma 90.000000
_cell_volume 1777.339180
_symmetry_space_group_name_H-M "P 2/M"
_symmetry_group_IT_number 10
_symmetry_cell_setting 'monoclinic'
loop_
_space_group_symop_operation_xyz
x,y,z
-x,y,-z
-x,-y,-z
x,-y,z
loop_
_atom_site_type_symbol
_atom_site_label
_atom_site_fract_x
_atom_site_fract_y
_atom_site_fract_z
Si Si1 0.808999 0.329606 0.160976
Si Si2 0.823199 0.165316 0.298545
Si Si3 0.067335 0.829204 0.142312
Si Si4 0.658526 0.326578 0.485180
Si Si5 0.841414 0.667794 0.438318
Si Si6 0.082019 0.166677 0.905230
Si Si7 0.183874 0.329850 0.455871
Si Si8 0.646214 0.171474 0.862334
O O1 0.764693 0.500000 0.107981
O O2 0.758479 0.263750 0.168846
O O3 0.983377 0.304972 0.351611
O O4 0.719277 0.243836 0.006000
O O5 0.770516 0.231570 0.303575
O O6 0.000000 0.169489 0.500000
O O7 0.762818 0.000000 0.223071
O O8 0.212311 0.732523 0.321906
O O9 0.942122 0.796669 0.050273
O O10 0.112878 0.000000 0.193573
O O11 0.000000 0.778246 0.000000
O O12 0.643104 0.500000 0.476066
O O13 0.694256 0.282914 0.454855
O O14 0.508013 0.247939 0.331525
O O15 0.811967 0.500000 0.385702
O O16 0.762505 0.709108 0.412858
O O17 0.974272 0.257888 0.737936
O O18 0.039387 0.000000 0.842725
O O19 0.251165 0.198540 0.079935
O O20 0.150730 0.500000 0.412606
O O21 0.621968 0.000000 0.847487
#
# Coordination Sequence:
#
# PCOD8057908 Si02
#       8
#     4   4   4   4   4   4   4   4
#     4  10  18  29  47  69  97 132 169 208 257 306
#     4   9  17  27  40  64  98 131 166 208 254 302
#     4   9  18  36  60  82 105 134 168 206 249 297
#     4  10  21  35  53  77 106 137 171 207 250 300
#     4   9  16  27  45  69  96 126 165 210 257 304
#     4   9  18  31  51  78 103 131 168 208 250 297
#     4   9  17  31  50  73  99 130 168 213 257 301
#     4  11  21  33  50  74 106 137 169 209 254 302
#
# _framework density 18.004439999999999
#
# number of rings (size 3 to 8) (size 9 to 14) (size 15 to 20)
#    0.000    2.500    1.250    1.500    0.000    3.750 
#    0.000    0.625    0.000    4.500    0.000    5.250 
#    0.000    0.000    0.000    0.000    0.000    0.000 
#
# Total GULP energy -396746.971939 kJ/mol
# GULP energy per Si atom -12398.342873 kJ/mol
# Density = 1.796346 g / cm^3
# Si number density = 18.004440 Si / 1000 Ang^3
#
#
#
# Elastic Constant Matrix: (Units=GPa)
#
#
# Indices 1 2 3 4 5 6 
#
# 1 104.9737 46.5855 51.7168 0.0000 -11.4917 0.0000
# 2 46.5855 88.7446 42.8349 0.0000 -2.7325 0.0000
# 3 51.7168 42.8349 67.3124 0.0000 -2.2290 0.0000
# 4 0.0000 0.0000 0.0000 23.7435 0.0000 -6.0909
# 5 -11.4917 -2.7325 -2.2290 0.0000 26.0623 0.0000
# 6 0.0000 0.0000 0.0000 -6.0909 0.0000 23.5798
#
#
#
# Elastic Compliance Matrix: (Units=1/GPa)
#
#
# Indices 1 2 3 4 5 6 
#
# 1 0.017027 -0.003654 -0.010551 0.000000 0.006222 0.000000
# 2 -0.003654 0.017066 -0.008069 0.000000 -0.000512 0.000000
# 3 -0.010551 -0.008069 0.027995 0.000000 -0.003104 0.000000
# 4 0.000000 0.000000 0.000000 0.045106 0.000000 0.011651
# 5 0.006222 -0.000512 -0.003104 0.000000 0.040794 0.000000
# 6 0.000000 0.000000 0.000000 0.011651 0.000000 0.045419
#
#
# Mechanical properties :
#
#
# Convention : Reuss Voigt Hill
#
# Bulk Modulus (GPa) = 57.01600 60.36723 58.69162
# Shear Modulus (GPa) = 20.50863 22.67002 21.58933
#
# Velocity S-wave (km/s) = 3.37870 3.55228 3.46658
# Velocity P-wave (km/s) = 6.85254 7.10118 6.97797
#
# Compressibility (1/GPa) = 0.01753894
#
# Stress axis : x y z
#
# Youngs Moduli (GPa) = 58.73080 58.59767 35.72121
#
# Poissons Ratio (x) = 0.21411 0.37688
# Poissons Ratio (y) = 0.21460 0.28825
# Poissons Ratio (z) = 0.61965 0.47285
#
# Static dielectric constant tensor:
#      x y z
#    x 3.618220 0.000000 -0.049620 
#    y 0.000000 3.422230 0.000000 
#    z -0.049620 0.000000 2.976260 
# 
# 
# High freq. dielectric constant tensor:
#      x y z
#    x 1.701280 0.000000 -0.009170 
#    y 0.000000 1.705290 0.000000 
#    z -0.009170 0.000000 1.658620 
# 
# From -- ./inp_files/86145.got.cif
#   From: 2010.06.25/outbox.cif.g09.slc.cpg/sg10_44_cif.got.tgz:86145.got - 2010.06.27 22:07:45.
