data_PCOD8057678
_publ_section_title
;
Structure prediction by ZEFSAII (Michael W. Deem and Ramdas Pophale) SiO2 
 PCOD8057678
Probable space group: P 2/M
;
_chemical_formula_sum "Si O2"
_cell_formula_units_Z 32
_cell_length_a 23.288045
_cell_length_b 14.169971
_cell_length_c 19.102306
_cell_angle_alpha 90.000000
_cell_angle_beta 17.593435
_cell_angle_gamma 90.000000
_cell_volume 1905.326612
_symmetry_space_group_name_H-M "P 2/M"
_symmetry_group_IT_number 10
_symmetry_cell_setting 'monoclinic'
loop_
_space_group_symop_operation_xyz
x,y,z
-x,y,-z
-x,-y,-z
x,-y,z
loop_
_atom_site_type_symbol
_atom_site_label
_atom_site_fract_x
_atom_site_fract_y
_atom_site_fract_z
Si Si1 0.451418 0.794331 0.398898
Si Si2 0.119359 0.395231 0.966878
Si Si3 0.708082 0.395239 0.378201
Si Si4 0.003146 0.889109 0.694547
Si Si5 0.848024 0.794331 0.002300
Si Si6 0.398358 0.889095 0.903980
Si Si7 0.584805 0.111526 0.830330
Si Si8 0.292422 0.892680 0.707578
O O1 0.429200 0.681004 0.426193
O O2 0.651101 0.826390 0.197836
O O3 0.451364 0.833789 0.320168
O O4 0.287743 0.841874 0.637052
O O5 0.156096 0.500000 0.955284
O O6 0.911199 0.389227 0.177588
O O7 0.272319 0.374401 0.727661
O O8 0.139978 0.319007 0.004597
O O9 0.621042 0.500000 0.490374
O O10 0.195782 0.856411 0.432152
O O11 0.004392 0.000000 0.710035
O O12 0.005691 0.833736 0.765838
O O13 0.821714 0.862713 0.856642
O O14 0.862704 0.841858 0.062105
O O15 0.451480 0.856385 0.920607
O O16 0.433100 0.000000 0.852538
O O17 0.578031 0.000000 0.843755
O O18 0.500000 0.157005 0.000000
O O19 0.500000 0.884083 0.500000
O O20 0.229163 0.000000 0.770826
#
# Coordination Sequence:
#
# PCOD8057678 Si02
#       8
#     4   4   4   4   4   4   4   4
#     4  10  18  28  44  65  87 119 158 192 231 270
#     4   9  18  31  44  59  84 119 157 198 242 278
#     4   9  18  31  44  59  84 119 157 198 242 278
#     4   9  18  31  46  68  99 128 154 191 235 275
#     4  10  18  28  44  65  87 119 158 192 231 270
#     4   9  18  31  46  68  99 128 154 191 235 275
#     4   9  18  32  50  71  92 121 160 191 226 281
#     4   9  16  26  40  59  86 120 157 191 220 262
#
# _framework density 16.795021999999999
#
# number of rings (size 3 to 8) (size 9 to 14) (size 15 to 20)
#    0.000    2.750    1.250    1.500    1.750    4.000 
#    0.000    3.750    0.000    0.750    0.000    0.000 
#    0.000    2.000    0.000    5.500    0.000    0.250 
#
# Total GULP energy -396644.529719 kJ/mol
# GULP energy per Si atom -12395.141554 kJ/mol
# Density = 1.675680 g / cm^3
# Si number density = 16.795022 Si / 1000 Ang^3
#
#
#
# Elastic Constant Matrix: (Units=GPa)
#
#
# Indices 1 2 3 4 5 6 
#
# 1 76.3174 27.1649 55.4326 0.0000 17.8879 0.0000
# 2 27.1649 85.8625 38.4843 0.0000 17.4094 0.0000
# 3 55.4326 38.4843 103.8305 0.0000 24.5094 0.0000
# 4 0.0000 0.0000 0.0000 13.0388 0.0000 -1.3372
# 5 17.8879 17.4094 24.5094 0.0000 26.4597 0.0000
# 6 0.0000 0.0000 0.0000 -1.3372 0.0000 13.8913
#
#
#
# Elastic Compliance Matrix: (Units=1/GPa)
#
#
# Indices 1 2 3 4 5 6 
#
# 1 0.022082 -0.001516 -0.010160 0.000000 -0.004520 0.000000
# 2 -0.001516 0.014757 -0.003341 0.000000 -0.005590 0.000000
# 3 -0.010160 -0.003341 0.018114 0.000000 -0.007712 0.000000
# 4 0.000000 0.000000 0.000000 0.077459 0.000000 0.007456
# 5 -0.004520 -0.005590 -0.007712 0.000000 0.051670 0.000000
# 6 0.000000 0.000000 0.000000 0.007456 0.000000 0.072705
#
#
# Mechanical properties :
#
#
# Convention : Reuss Voigt Hill
#
# Bulk Modulus (GPa) = 40.12987 56.46378 48.29682
# Shear Modulus (GPa) = 16.94180 20.33986 18.64083
#
# Velocity S-wave (km/s) = 3.17951 3.48381 3.33513
# Velocity P-wave (km/s) = 6.11758 7.06222 6.60681
#
# Compressibility (1/GPa) = 0.02491909
#
# Stress axis : x y z
#
# Youngs Moduli (GPa) = 45.28575 67.76492 55.20562
#
# Poissons Ratio (x) = 0.10273 0.56091
# Poissons Ratio (y) = 0.06865 0.18443
# Poissons Ratio (z) = 0.46012 0.22638
#
# Static dielectric constant tensor:
#      x y z
#    x 3.098730 0.000000 0.099700 
#    y 0.000000 3.122560 0.000000 
#    z 0.099700 0.000000 3.162180 
# 
# 
# High freq. dielectric constant tensor:
#      x y z
#    x 1.634890 0.000000 -0.011930 
#    y 0.000000 1.625040 0.000000 
#    z -0.011930 0.000000 1.627050 
# 
# From -- ./inp_files/38305.got.cif
#   From: 2010.06.25/outbox.cif.g09.slc.cpg/sg10_20_cif.got.tgz:38305.got - 2010.06.27 22:07:45.
