data_PCOD8057424
_publ_section_title
;
Structure prediction by ZEFSAII (Michael W. Deem and Ramdas Pophale) SiO2 
 PCOD8057424
Probable space group: P 2/M
;
_chemical_formula_sum "Si O2"
_cell_formula_units_Z 32
_cell_length_a 10.170672
_cell_length_b 14.554065
_cell_length_c 25.682107
_cell_angle_alpha 90.000000
_cell_angle_beta 27.005528
_cell_angle_gamma 90.000000
_cell_volume 1726.209893
_symmetry_space_group_name_H-M "P 2/M"
_symmetry_group_IT_number 10
_symmetry_cell_setting 'monoclinic'
loop_
_space_group_symop_operation_xyz
x,y,z
-x,y,-z
-x,-y,-z
x,-y,z
loop_
_atom_site_type_symbol
_atom_site_label
_atom_site_fract_x
_atom_site_fract_y
_atom_site_fract_z
Si Si1 0.525057 0.902194 0.052955
Si Si2 0.664479 0.292345 0.996676
Si Si3 0.756012 0.399383 0.446715
Si Si4 0.316379 0.103358 0.488992
Si Si5 0.815586 0.395450 0.230276
Si Si6 0.097353 0.351401 0.237362
Si Si7 0.256478 0.281402 0.449383
Si Si8 0.068424 0.146862 0.684715
O O1 0.715433 0.811825 0.000826
O O2 0.213308 0.900142 0.191193
O O3 0.670705 0.000000 0.018860
O O4 0.500000 0.903457 0.000000
O O5 0.444522 0.346206 0.111841
O O6 0.500000 0.282856 0.000000
O O7 0.958765 0.349340 0.889586
O O8 0.500000 0.361129 0.500000
O O9 0.675321 0.500000 0.498165
O O10 0.822980 0.329867 0.468671
O O11 0.037818 0.408641 0.310676
O O12 0.292612 0.173091 0.448428
O O13 0.091585 0.132586 0.614116
O O14 0.646779 0.102398 0.391252
O O15 0.238603 0.000000 0.497701
O O16 0.742978 0.500000 0.238210
O O17 0.538946 0.329506 0.325680
O O18 0.954135 0.401332 0.238569
O O19 0.941086 0.253386 0.297249
O O20 0.000000 0.297446 0.500000
#
# Coordination Sequence:
#
# PCOD8057424 Si02
#       8
#     4   4   4   4   4   4   4   4
#     4   9  16  26  44  77 122 150 171 217 283 342
#     4   8  18  30  47  79 113 145 180 221 279 331
#     4  11  20  34  58  85 111 144 185 234 284 332
#     4  11  21  34  57  81 110 149 188 230 281 333
#     4  11  21  36  56  78 112 151 187 231 280 334
#     4  10  17  31  55  84 118 142 178 229 282 329
#     4  12  26  41  56  80 115 151 190 233 286 340
#     4  10  17  32  53  86 119 147 181 229 282 335
#
# _framework density 18.537723
#
# number of rings (size 3 to 8) (size 9 to 14) (size 15 to 20)
#    0.000    1.750    3.750    3.000    0.000    4.000 
#    0.000    0.000    0.000    0.750    0.000    1.750 
#    0.000    3.250    0.000    0.000    0.000    0.000 
#
# Total GULP energy -396540.745377 kJ/mol
# GULP energy per Si atom -12391.898293 kJ/mol
# Density = 1.849553 g / cm^3
# Si number density = 18.537723 Si / 1000 Ang^3
#
#
#
# Elastic Constant Matrix: (Units=GPa)
#
#
# Indices 1 2 3 4 5 6 
#
# 1 57.0900 33.6410 28.6644 0.0000 -5.0278 0.0000
# 2 33.6410 134.4593 54.2816 0.0000 -0.5551 0.0000
# 3 28.6644 54.2816 136.6159 0.0000 9.9192 0.0000
# 4 0.0000 0.0000 0.0000 40.6196 0.0000 19.5063
# 5 -5.0278 -0.5551 9.9192 0.0000 13.6655 0.0000
# 6 0.0000 0.0000 0.0000 19.5063 0.0000 19.9640
#
#
#
# Elastic Compliance Matrix: (Units=1/GPa)
#
#
# Indices 1 2 3 4 5 6 
#
# 1 0.022906 -0.004070 -0.004000 0.000000 0.011165 0.000000
# 2 -0.004070 0.009706 -0.003085 0.000000 0.001136 0.000000
# 3 -0.004000 -0.003085 0.010029 0.000000 -0.008877 0.000000
# 4 0.000000 0.000000 0.000000 0.046381 0.000000 -0.045318
# 5 0.011165 0.001136 -0.008877 0.000000 0.083774 0.000000
# 6 0.000000 0.000000 0.000000 -0.045318 0.000000 0.094369
#
#
# Mechanical properties :
#
#
# Convention : Reuss Voigt Hill
#
# Bulk Modulus (GPa) = 49.18441 62.37103 55.77772
# Shear Modulus (GPa) = 16.87756 28.95503 22.91630
#
# Velocity S-wave (km/s) = 3.02063 3.95644 3.51978
# Velocity P-wave (km/s) = 6.22537 7.38849 6.83173
#
# Compressibility (1/GPa) = 0.02033164
#
# Stress axis : x y z
#
# Youngs Moduli (GPa) = 43.65655 103.03361 99.70956
#
# Poissons Ratio (x) = 0.41937 0.39879
# Poissons Ratio (y) = 0.17769 0.30758
# Poissons Ratio (z) = 0.17461 0.31784
#
# Static dielectric constant tensor:
#      x y z
#    x 2.779120 0.000000 0.324420 
#    y 0.000000 3.794490 0.000000 
#    z 0.324420 0.000000 3.782740 
# 
# 
# High freq. dielectric constant tensor:
#      x y z
#    x 1.635820 0.000000 0.028790 
#    y 0.000000 1.746310 0.000000 
#    z 0.028790 0.000000 1.730770 
# 
# From -- ./inp_files/88244.got.cif
#   From: 2010.06.25/outbox.cif.g09.slc.cpg/sg10_45_cif.got.tgz:88244.got - 2010.06.27 22:07:45.
