data_PCOD8057687
_publ_section_title
;
Structure prediction by ZEFSAII (Michael W. Deem and Ramdas Pophale) SiO2 
 PCOD8057687
Probable space group: P 2/M
;
_chemical_formula_sum "Si O2"
_cell_formula_units_Z 32
_cell_length_a 20.907454
_cell_length_b 9.245994
_cell_length_c 27.777203
_cell_angle_alpha 90.000000
_cell_angle_beta 21.244643
_cell_angle_gamma 90.000000
_cell_volume 1945.685355
_symmetry_space_group_name_H-M "P 2/M"
_symmetry_group_IT_number 10
_symmetry_cell_setting 'monoclinic'
loop_
_space_group_symop_operation_xyz
x,y,z
-x,y,-z
-x,-y,-z
x,-y,z
loop_
_atom_site_type_symbol
_atom_site_label
_atom_site_fract_x
_atom_site_fract_y
_atom_site_fract_z
Si Si1 0.820713 0.339586 0.156722
Si Si2 0.953018 0.668242 0.477857
Si Si3 0.080488 0.665252 0.048033
Si Si4 0.248463 0.834127 0.215558
Si Si5 0.645675 0.834624 0.205579
Si Si6 0.594455 0.169396 0.710473
Si Si7 0.694592 0.333133 0.023797
Si Si8 0.355144 0.164832 0.033930
O O1 0.743727 0.500000 0.208333
O O2 0.662635 0.241792 0.246041
O O3 0.878861 0.301050 0.171486
O O4 0.000000 0.322310 0.000000
O O5 0.916806 0.500000 0.492804
O O6 0.784874 0.761906 0.581921
O O7 0.000000 0.696108 0.500000
O O8 0.114037 0.721424 0.332457
O O9 0.126478 0.500000 0.999526
O O10 0.118393 0.681850 0.078466
O O11 0.206796 0.776728 0.933473
O O12 0.257555 0.802832 0.152390
O O13 0.189730 0.000000 0.266132
O O14 0.437177 0.805164 0.107254
O O15 0.461268 0.809954 0.306734
O O16 0.682819 0.000000 0.189828
O O17 0.598914 0.000000 0.720990
O O18 0.461334 0.247730 0.840229
O O19 0.636625 0.500000 0.060590
O O20 0.728048 0.269445 0.947611
O O21 0.322358 0.000000 0.041268
#
# Coordination Sequence:
#
# PCOD8057687 Si02
#       8
#     4   4   4   4   4   4   4   4
#     4   8  13  22  35  50  74 111 146 173 208 255
#     4  11  23  35  48  69  93 115 145 186 225 259
#     4   8  15  25  35  52  81 115 146 173 209 260
#     4   9  19  35  52  68  88 117 149 180 217 264
#     4   9  16  24  36  56  79 106 144 184 216 249
#     4  10  20  32  45  62  88 122 154 183 220 268
#     4  10  18  28  44  66  92 120 150 186 224 258
#     4   9  18  33  51  69  89 115 148 181 217 265
#
# _framework density 16.446646000000001
#
# number of rings (size 3 to 8) (size 9 to 14) (size 15 to 20)
#    0.000    2.750    0.000    3.750    0.000    8.250 
#    0.000    1.250    0.000    0.000    0.000    0.000 
#    0.000    1.000    0.000   11.250    0.000    6.375 
#
# Total GULP energy -396497.082869 kJ/mol
# GULP energy per Si atom -12390.533840 kJ/mol
# Density = 1.640921 g / cm^3
# Si number density = 16.446646 Si / 1000 Ang^3
#
#
#
# Elastic Constant Matrix: (Units=GPa)
#
#
# Indices 1 2 3 4 5 6 
#
# 1 139.7112 75.9805 34.9243 0.0000 -9.6933 0.0000
# 2 75.9805 113.0219 34.9588 0.0000 -8.9464 0.0000
# 3 34.9243 34.9588 41.2644 0.0000 1.2556 0.0000
# 4 0.0000 0.0000 0.0000 17.4828 0.0000 -3.7926
# 5 -9.6933 -8.9464 1.2556 0.0000 15.5410 0.0000
# 6 0.0000 0.0000 0.0000 -3.7926 0.0000 28.2403
#
#
#
# Elastic Compliance Matrix: (Units=1/GPa)
#
#
# Indices 1 2 3 4 5 6 
#
# 1 0.012126 -0.006217 -0.005130 0.000000 0.004399 0.000000
# 2 -0.006217 0.016184 -0.008636 0.000000 0.006137 0.000000
# 3 -0.005130 -0.008636 0.036230 0.000000 -0.011098 0.000000
# 4 0.000000 0.000000 0.000000 0.058915 0.000000 0.007912
# 5 0.004399 0.006137 -0.011098 0.000000 0.071519 0.000000
# 6 0.000000 0.000000 0.000000 0.007912 0.000000 0.036473
#
#
# Mechanical properties :
#
#
# Convention : Reuss Voigt Hill
#
# Bulk Modulus (GPa) = 40.69303 65.08051 52.88677
# Shear Modulus (GPa) = 17.88236 22.12843 20.00540
#
# Velocity S-wave (km/s) = 3.30099 3.67204 3.49145
# Velocity P-wave (km/s) = 6.27096 7.59178 6.96276
#
# Compressibility (1/GPa) = 0.02457423
#
# Stress axis : x y z
#
# Youngs Moduli (GPa) = 82.46538 61.78802 27.60161
#
# Poissons Ratio (x) = 0.38414 0.14159
# Poissons Ratio (y) = 0.51270 0.23837
# Poissons Ratio (z) = 0.42304 0.53361
#
# Static dielectric constant tensor:
#      x y z
#    x 3.669190 0.000000 -0.242140 
#    y 0.000000 3.201360 0.000000 
#    z -0.242140 0.000000 2.598090 
# 
# 
# High freq. dielectric constant tensor:
#      x y z
#    x 1.654010 0.000000 -0.017950 
#    y 0.000000 1.645040 0.000000 
#    z -0.017950 0.000000 1.563880 
# 
# From -- ./inp_files/52695.got.cif
#   From: 2010.06.25/outbox.cif.g09.slc.cpg/sg10_27_cif.got.tgz:52695.got - 2010.06.27 22:07:45.
