data_PCOD8057913
_publ_section_title
;
Structure prediction by ZEFSAII (Michael W. Deem and Ramdas Pophale) SiO2 
 PCOD8057913
Probable space group: P 2/M
;
_chemical_formula_sum "Si O2"
_cell_formula_units_Z 22
_cell_length_a 8.037009
_cell_length_b 25.120545
_cell_length_c 9.122195
_cell_angle_alpha 90.000000
_cell_angle_beta 146.817127
_cell_angle_gamma 90.000000
_cell_volume 1007.995711
_symmetry_space_group_name_H-M "P 2/M"
_symmetry_group_IT_number 10
_symmetry_cell_setting 'monoclinic'
loop_
_space_group_symop_operation_xyz
x,y,z
-x,y,-z
-x,-y,-z
x,-y,z
loop_
_atom_site_type_symbol
_atom_site_label
_atom_site_fract_x
_atom_site_fract_y
_atom_site_fract_z
Si Si1 0.714314 0.659760 0.396505
Si Si2 0.708473 0.059777 0.010235
Si Si3 0.787445 0.881131 0.484601
Si Si4 0.909805 0.395039 0.099660
Si Si5 0.654267 0.227035 0.270931
Si Si6 0.852729 0.500000 0.234417
O O1 0.543831 0.717848 0.262344
O O2 0.000000 0.651435 0.500000
O O3 0.854500 0.649015 0.660974
O O4 0.445966 0.620059 0.151169
O O5 0.990961 0.101705 0.219244
O O6 0.832458 0.000000 0.078824
O O7 0.500000 0.063526 0.000000
O O8 0.488739 0.076769 0.715772
O O9 0.635025 0.822202 0.372347
O O10 0.000000 0.885840 0.500000
O O11 0.966406 0.448871 0.229595
O O12 0.000000 0.404174 0.000000
O O13 0.000000 0.240076 0.500000
O O14 0.500000 0.212948 0.000000
O O15 0.000000 0.500000 0.500000
O O16 0.500000 0.500000 0.000000
#
# Coordination Sequence:
#
# PCOD8057913 Si02
#       6
#     4   4   4   4   4   2
#     4  11  22  39  62  86 113 151 197 238 280 337
#     4   9  15  21  30  46  74 116 164 211 259 317
#     4   9  15  23  34  52  80 114 161 218 267 309
#     4  12  25  42  62  90 123 153 187 233 288 337
#     4  10  18  29  47  70  95 128 175 232 277 317
#     4  12  25  42  67  92 119 156 197 234 273 326
#
# _framework density 21.825492000000001
#
# number of rings (size 3 to 8) (size 9 to 14) (size 15 to 20)
#    0.000    1.636    0.000    9.545    0.000    2.182 
#    0.000    2.727    0.000    0.000    0.000    0.000 
#    0.000    0.000    0.000    0.000    0.000   63.636 
#
# Total GULP energy -272557.150729 kJ/mol
# GULP energy per Si atom -12388.961397 kJ/mol
# Density = 2.177582 g / cm^3
# Si number density = 21.825492 Si / 1000 Ang^3
#
#
#
# Elastic Constant Matrix: (Units=GPa)
#
#
# Indices 1 2 3 4 5 6 
#
# 1 43.4409 41.5928 27.8412 0.0000 -9.4967 0.0000
# 2 41.5928 154.1199 65.7111 0.0000 -4.5260 0.0000
# 3 27.8412 65.7111 154.5907 0.0000 3.4502 0.0000
# 4 0.0000 0.0000 0.0000 42.0471 0.0000 3.6046
# 5 -9.4967 -4.5260 3.4502 0.0000 24.0198 0.0000
# 6 0.0000 0.0000 0.0000 3.6046 0.0000 -0.0182
#
#
#
# Elastic Compliance Matrix: (Units=1/GPa)
#
#
# Indices 1 2 3 4 5 6 
#
# 1 0.035453 -0.007741 -0.003386 0.000000 0.013045 0.000000
# 2 -0.007741 0.009710 -0.002715 0.000000 -0.000841 0.000000
# 3 -0.003386 -0.002715 0.008300 0.000000 -0.003042 0.000000
# 4 0.000000 0.000000 0.000000 0.001325 0.000000 0.261960
# 5 0.013045 -0.000841 -0.003042 0.000000 0.047068 0.000000
# 6 0.000000 0.000000 0.000000 0.261960 0.000000 -3.055693
#
#
# Mechanical properties :
#
#
# Convention : Reuss Voigt Hill
#
# Bulk Modulus (GPa) = 38.78841 69.16020 53.97430
# Shear Modulus (GPa) = -1.71376 27.67683 12.98154
#
# Velocity S-wave (km/s) = -0.88708 3.56490 2.44147
# Velocity P-wave (km/s) = 4.09407 6.97863 5.72113
#
# Compressibility (1/GPa) = 0.02578090
#
# Stress axis : x y z
#
# Youngs Moduli (GPa) = 28.20609 102.98318 120.47913
#
# Poissons Ratio (x) = 0.79723 0.40789
# Poissons Ratio (y) = 0.21835 0.32705
# Poissons Ratio (z) = 0.09549 0.27955
#
# Static dielectric constant tensor:
#      x y z
#    x 3.239250 0.000000 0.112070 
#    y 0.000000 4.433060 0.000000 
#    z 0.112070 0.000000 4.300230 
# 
# 
# High freq. dielectric constant tensor:
#      x y z
#    x 1.784110 0.000000 0.015160 
#    y 0.000000 1.873090 0.000000 
#    z 0.015160 0.000000 1.883450 
# 
# From -- ./inp_files/20874.got.cif
#   From: 2010.06.25/outbox.cif.g09.slc.cpg/sg10_11_cif.got.tgz:20874.got - 2010.06.27 22:07:45.
