data_PCOD8057890
_publ_section_title
;
Structure prediction by ZEFSAII (Michael W. Deem and Ramdas Pophale) SiO2 
 PCOD8057890
Probable space group: P 2/M
;
_chemical_formula_sum "Si O2"
_cell_formula_units_Z 32
_cell_length_a 8.481844
_cell_length_b 14.049724
_cell_length_c 15.132969
_cell_angle_alpha 90.000000
_cell_angle_beta 113.536022
_cell_angle_gamma 90.000000
_cell_volume 1653.336212
_symmetry_space_group_name_H-M "P 2/M"
_symmetry_group_IT_number 10
_symmetry_cell_setting 'monoclinic'
loop_
_space_group_symop_operation_xyz
x,y,z
-x,y,-z
-x,-y,-z
x,-y,z
loop_
_atom_site_type_symbol
_atom_site_label
_atom_site_fract_x
_atom_site_fract_y
_atom_site_fract_z
Si Si1 0.874649 0.392931 0.794451
Si Si2 0.870145 0.301511 0.040800
Si Si3 0.410323 0.106292 0.833674
Si Si4 0.595987 0.611365 0.872866
Si Si5 0.623300 0.610826 0.447359
Si Si6 0.685700 0.709048 0.285966
Si Si7 0.039609 0.606856 0.376851
Si Si8 0.251230 0.894750 0.990764
O O1 0.915358 0.500000 0.832806
O O2 0.710905 0.356829 0.813674
O O3 0.051382 0.332245 0.847708
O O4 0.837409 0.385223 0.682051
O O5 0.887847 0.188076 0.031705
O O6 0.677516 0.340615 0.979487
O O7 0.000000 0.351386 0.000000
O O8 0.339519 0.179369 0.743400
O O9 0.326058 0.120210 0.910002
O O10 0.373234 0.000000 0.788631
O O11 0.612700 0.119153 0.898912
O O12 0.584963 0.500000 0.885440
O O13 0.404618 0.651581 0.814669
O O14 0.500000 0.643352 0.500000
O O15 0.585207 0.500000 0.414590
O O16 0.589835 0.678735 0.355658
O O17 0.827029 0.624452 0.513816
O O18 0.886719 0.683304 0.339213
O O19 0.959908 0.500000 0.365585
O O20 0.167740 0.000000 0.979587
#
# Coordination Sequence:
#
# PCOD8057890 Si02
#       8
#     4   4   4   4   4   4   4   4
#     4   9  18  32  47  65 102 148 177 202 247 305
#     4  10  18  29  46  71 101 137 175 213 248 300
#     4   9  19  34  54  74  98 134 171 211 261 316
#     4  10  19  30  45  70 104 142 176 204 247 309
#     4  10  21  37  56  79 108 141 172 204 250 309
#     4  12  20  32  55  80 102 130 173 221 260 299
#     4  10  20  33  50  77 106 132 169 215 254 291
#     4   9  17  33  51  71 100 133 172 216 262 305
#
# _framework density 19.354804999999999
#
# number of rings (size 3 to 8) (size 9 to 14) (size 15 to 20)
#    0.000    2.125    1.250    4.125    0.000    4.750 
#    0.000    0.000    0.000    4.875    0.000    0.000 
#    0.000    0.000    0.000    0.000    0.000    0.000 
#
# Total GULP energy -396546.087057 kJ/mol
# GULP energy per Si atom -12392.065221 kJ/mol
# Density = 1.931075 g / cm^3
# Si number density = 19.354805 Si / 1000 Ang^3
#
#
#
# Elastic Constant Matrix: (Units=GPa)
#
#
# Indices 1 2 3 4 5 6 
#
# 1 34.5050 15.3723 5.4477 0.0000 7.4895 0.0000
# 2 15.3723 118.5795 42.4255 0.0000 8.4480 0.0000
# 3 5.4477 42.4255 76.2240 0.0000 9.7342 0.0000
# 4 0.0000 0.0000 0.0000 27.8735 0.0000 0.1077
# 5 7.4895 8.4480 9.7342 0.0000 25.8611 0.0000
# 6 0.0000 0.0000 0.0000 0.1077 0.0000 20.3893
#
#
#
# Elastic Compliance Matrix: (Units=1/GPa)
#
#
# Indices 1 2 3 4 5 6 
#
# 1 0.032424 -0.003943 0.000958 0.000000 -0.008463 0.000000
# 2 -0.003943 0.011051 -0.005834 0.000000 -0.000272 0.000000
# 3 0.000958 -0.005834 0.016903 0.000000 -0.004734 0.000000
# 4 0.000000 0.000000 0.000000 0.035877 0.000000 -0.000190
# 5 -0.008463 -0.000272 -0.004734 0.000000 0.042990 0.000000
# 6 0.000000 0.000000 0.000000 -0.000190 0.000000 0.049046
#
#
# Mechanical properties :
#
#
# Convention : Reuss Voigt Hill
#
# Bulk Modulus (GPa) = 23.39809 39.53330 31.46570
# Shear Modulus (GPa) = 22.70916 25.89565 24.30240
#
# Velocity S-wave (km/s) = 3.42908 3.66176 3.54733
# Velocity P-wave (km/s) = 5.27194 6.19257 5.75071
#
# Compressibility (1/GPa) = 0.04273852
#
# Stress axis : x y z
#
# Youngs Moduli (GPa) = 30.84171 90.48814 59.16231
#
# Poissons Ratio (x) = 0.35682 -0.05669
# Poissons Ratio (y) = 0.12162 0.34518
# Poissons Ratio (z) = -0.02955 0.52795
#
# Static dielectric constant tensor:
#      x y z
#    x 3.367110 0.000000 0.066850 
#    y 0.000000 3.456250 0.000000 
#    z 0.066850 0.000000 3.586250 
# 
# 
# High freq. dielectric constant tensor:
#      x y z
#    x 1.747050 0.000000 0.004130 
#    y 0.000000 1.727000 0.000000 
#    z 0.004130 0.000000 1.747620 
# 
# From -- ./inp_files/61868.got.cif
#   From: 2010.06.25/outbox.cif.g09.slc.cpg/sg10_31_cif.got.tgz:61868.got - 2010.06.27 22:07:45.
