data_PCOD8057938
_publ_section_title
;
Structure prediction by ZEFSAII (Michael W. Deem and Ramdas Pophale) SiO2 
 PCOD8057938
Probable space group: P 2/M
;
_chemical_formula_sum "Si O2"
_cell_formula_units_Z 28
_cell_length_a 19.328734
_cell_length_b 9.041059
_cell_length_c 14.375833
_cell_angle_alpha 90.000000
_cell_angle_beta 138.504446
_cell_angle_gamma 90.000000
_cell_volume 1664.493906
_symmetry_space_group_name_H-M "P 2/M"
_symmetry_group_IT_number 10
_symmetry_cell_setting 'monoclinic'
loop_
_space_group_symop_operation_xyz
x,y,z
-x,y,-z
-x,-y,-z
x,-y,z
loop_
_atom_site_type_symbol
_atom_site_label
_atom_site_fract_x
_atom_site_fract_y
_atom_site_fract_z
Si Si1 0.315363 0.175108 0.032292
Si Si2 0.479053 0.173036 0.872092
Si Si3 0.386472 0.325422 0.487189
Si Si4 0.892245 0.174758 0.506721
Si Si5 0.874754 0.174643 0.280154
Si Si6 0.622032 0.674887 0.725862
Si Si7 0.291702 0.324318 0.581454
O O1 0.421567 0.224216 0.088159
O O2 0.307258 0.243906 0.126767
O O3 0.307887 0.000000 0.032563
O O4 0.217621 0.240876 0.875947
O O5 0.377902 0.262628 0.738713
O O6 0.455883 0.000000 0.836038
O O7 0.500000 0.212112 0.000000
O O8 0.395377 0.500000 0.497185
O O9 0.339816 0.277826 0.339627
O O10 0.503847 0.265530 0.619048
O O11 0.315199 0.268334 0.499975
O O12 0.862852 0.231783 0.373769
O O13 0.821714 0.261418 0.509027
O O14 0.012558 0.217785 0.648643
O O15 0.873600 0.000000 0.498187
O O16 0.865332 0.000000 0.275026
O O17 0.630822 0.500000 0.749970
O O18 0.291560 0.500000 0.588128
#
# Coordination Sequence:
#
# PCOD8057938 Si02
#       7
#     4   4   4   4   4   4   4
#     4  10  18  29  47  73  98 119 152 202 242 271
#     4  10  20  32  46  67  98 132 159 184 225 287
#     4   8  16  30  48  66  91 127 162 190 228 286
#     4   9  17  33  54  71  90 127 169 196 226 280
#     4   8  16  32  53  71  92 126 165 196 230 280
#     4   9  16  31  50  66  89 127 164 190 229 289
#     4  11  20  31  48  72  99 124 154 198 243 278
#
# _framework density 16.821929999999998
#
# number of rings (size 3 to 8) (size 9 to 14) (size 15 to 20)
#    0.000    2.714    1.429    3.000    0.000    2.571 
#    0.000    7.143    0.000    0.857    0.000    6.000 
#    0.000    0.000    0.000    0.000    0.000    0.000 
#
# Total GULP energy -347100.964385 kJ/mol
# GULP energy per Si atom -12396.463014 kJ/mol
# Density = 1.678364 g / cm^3
# Si number density = 16.821930 Si / 1000 Ang^3
#
#
#
# Elastic Constant Matrix: (Units=GPa)
#
#
# Indices 1 2 3 4 5 6 
#
# 1 122.9862 28.7117 42.8693 0.0000 -5.0329 0.0000
# 2 28.7117 30.0560 16.4732 0.0000 -0.6852 0.0000
# 3 42.8693 16.4732 75.4045 0.0000 -5.1374 0.0000
# 4 0.0000 0.0000 0.0000 17.0346 0.0000 -5.6769
# 5 -5.0329 -0.6852 -5.1374 0.0000 27.5173 0.0000
# 6 0.0000 0.0000 0.0000 -5.6769 0.0000 23.4958
#
#
#
# Elastic Compliance Matrix: (Units=1/GPa)
#
#
# Indices 1 2 3 4 5 6 
#
# 1 0.011869 -0.008697 -0.004776 0.000000 0.001063 0.000000
# 2 -0.008697 0.044179 -0.004802 0.000000 -0.001387 0.000000
# 3 -0.004776 -0.004802 0.017177 0.000000 0.002214 0.000000
# 4 0.000000 0.000000 0.000000 0.063845 0.000000 0.015426
# 5 0.001063 -0.001387 0.002214 0.000000 0.036914 0.000000
# 6 0.000000 0.000000 0.000000 0.015426 0.000000 0.046288
#
#
# Mechanical properties :
#
#
# Convention : Reuss Voigt Hill
#
# Bulk Modulus (GPa) = 27.26515 44.95057 36.10786
# Shear Modulus (GPa) = 18.58417 22.96904 20.77661
#
# Velocity S-wave (km/s) = 3.32740 3.69917 3.51820
# Velocity P-wave (km/s) = 5.56825 6.71004 6.16563
#
# Compressibility (1/GPa) = 0.03667686
#
# Stress axis : x y z
#
# Youngs Moduli (GPa) = 84.24968 22.63506 58.21816
#
# Poissons Ratio (x) = 0.19685 0.27803
# Poissons Ratio (y) = 0.73271 0.27955
# Poissons Ratio (z) = 0.40235 0.10869
#
# Static dielectric constant tensor:
#      x y z
#    x 3.360890 0.000000 -0.115740 
#    y 0.000000 2.825030 0.000000 
#    z -0.115740 0.000000 3.281760 
# 
# 
# High freq. dielectric constant tensor:
#      x y z
#    x 1.648760 0.000000 -0.008860 
#    y 0.000000 1.619820 0.000000 
#    z -0.008860 0.000000 1.639040 
# 
# From -- ./inp_files/68601.got.cif
#   From: 2010.06.25/outbox.cif.g09.slc.cpg/sg10_35_cif.got.tgz:68601.got - 2010.06.27 22:07:45.
