data_PCOD8057763
_publ_section_title
;
Structure prediction by ZEFSAII (Michael W. Deem and Ramdas Pophale) SiO2 
 PCOD8057763
Probable space group: P 2/M
;
_chemical_formula_sum "Si O2"
_cell_formula_units_Z 28
_cell_length_a 11.852130
_cell_length_b 8.902698
_cell_length_c 19.629083
_cell_angle_alpha 90.000000
_cell_angle_beta 51.839642
_cell_angle_gamma 90.000000
_cell_volume 1628.537687
_symmetry_space_group_name_H-M "P 2/M"
_symmetry_group_IT_number 10
_symmetry_cell_setting 'monoclinic'
loop_
_space_group_symop_operation_xyz
x,y,z
-x,y,-z
-x,-y,-z
x,-y,z
loop_
_atom_site_type_symbol
_atom_site_label
_atom_site_fract_x
_atom_site_fract_y
_atom_site_fract_z
Si Si1 0.868871 0.821386 0.505283
Si Si2 0.401859 0.821489 0.598090
Si Si3 0.102074 0.178517 0.657493
Si Si4 0.454811 0.321902 0.178285
Si Si5 0.438038 0.178018 0.327590
Si Si6 0.791584 0.177124 0.817762
Si Si7 0.644545 0.335173 0.988300
O O1 0.880632 0.755619 0.424920
O O2 0.722227 0.768809 0.594849
O O3 0.000000 0.755208 0.500000
O O4 0.875115 0.000000 0.500279
O O5 0.500000 0.756521 0.500000
O O6 0.237931 0.764602 0.651001
O O7 0.459056 0.766126 0.649807
O O8 0.410681 0.000000 0.591697
O O9 0.953320 0.235810 0.745249
O O10 0.102258 0.000000 0.654577
O O11 0.433696 0.500000 0.186708
O O12 0.486808 0.260056 0.241026
O O13 0.311040 0.250839 0.200238
O O14 0.596241 0.277312 0.081060
O O15 0.446955 0.000000 0.313461
O O16 0.751353 0.221088 0.910416
O O17 0.778779 0.000000 0.813632
O O18 0.717872 0.500000 0.965319
O O19 0.500000 0.349686 0.000000
#
# Coordination Sequence:
#
# PCOD8057763 Si02
#       7
#     4   4   4   4   4   4   4
#     4   9  15  23  38  65  98 124 147 183 230 277
#     4   9  15  27  46  70  96 124 161 199 235 276
#     4   9  16  26  42  69 102 126 150 192 240 281
#     4  10  20  33  48  67  97 131 157 189 239 290
#     4  10  18  28  48  73  93 121 163 202 231 270
#     4  10  18  28  48  76 100 122 153 195 238 280
#     4   8  16  31  48  66  92 127 158 187 233 290
#
# _framework density 17.193339000000002
#
# number of rings (size 3 to 8) (size 9 to 14) (size 15 to 20)
#    0.000    2.714    1.429    2.571    0.000    5.429 
#    0.000    0.000    0.000    7.714    0.000    6.000 
#    0.000    0.000    0.000    0.000    0.000    0.000 
#
# Total GULP energy -347065.205533 kJ/mol
# GULP energy per Si atom -12395.185912 kJ/mol
# Density = 1.715421 g / cm^3
# Si number density = 17.193339 Si / 1000 Ang^3
#
#
#
# Elastic Constant Matrix: (Units=GPa)
#
#
# Indices 1 2 3 4 5 6 
#
# 1 127.3177 22.5339 68.6816 0.0000 13.4026 0.0000
# 2 22.5339 37.2390 32.9135 0.0000 5.2130 0.0000
# 3 68.6816 32.9135 142.9144 0.0000 21.8944 0.0000
# 4 0.0000 0.0000 0.0000 2.5200 0.0000 3.7535
# 5 13.4026 5.2130 21.8944 0.0000 20.8616 0.0000
# 6 0.0000 0.0000 0.0000 3.7535 0.0000 4.7288
#
#
#
# Elastic Compliance Matrix: (Units=1/GPa)
#
#
# Indices 1 2 3 4 5 6 
#
# 1 0.010831 -0.002443 -0.004373 0.000000 -0.001758 0.000000
# 2 -0.002443 0.034269 -0.006729 0.000000 0.000068 0.000000
# 3 -0.004373 -0.006729 0.011869 0.000000 -0.007965 0.000000
# 4 0.000000 0.000000 0.000000 -2.177136 0.000000 1.728087
# 5 -0.001758 0.000068 -0.007965 0.000000 0.057407 0.000000
# 6 0.000000 0.000000 0.000000 1.728087 0.000000 -1.160187
#
#
# Mechanical properties :
#
#
# Convention : Reuss Voigt Hill
#
# Bulk Modulus (GPa) = 33.46740 61.74768 47.60754
# Shear Modulus (GPa) = -1.56942 17.84487 8.13773
#
# Velocity S-wave (km/s) = -0.95644 3.22513 2.17792
# Velocity P-wave (km/s) = 4.27643 7.06118 5.83730
#
# Compressibility (1/GPa) = 0.02987982
#
# Stress axis : x y z
#
# Youngs Moduli (GPa) = 92.32851 29.18060 84.25425
#
# Poissons Ratio (x) = 0.07128 0.36846
# Poissons Ratio (y) = 0.22552 0.56693
# Poissons Ratio (z) = 0.40377 0.19635
#
# Static dielectric constant tensor:
#      x y z
#    x 3.249680 0.000000 0.054980 
#    y 0.000000 2.806860 0.000000 
#    z 0.054980 0.000000 3.578710 
# 
# 
# High freq. dielectric constant tensor:
#      x y z
#    x 1.646320 0.000000 0.005330 
#    y 0.000000 1.622510 0.000000 
#    z 0.005330 0.000000 1.672930 
# 
# From -- ./inp_files/54721.got.cif
#   From: 2010.06.25/outbox.cif.g09.slc.cpg/sg10_28_cif.got.tgz:54721.got - 2010.06.27 22:07:45.
