data_PCOD8057673
_publ_section_title
;
Structure prediction by ZEFSAII (Michael W. Deem and Ramdas Pophale) SiO2 
 PCOD8057673
Probable space group: P 2/M
;
_chemical_formula_sum "Si O2"
_cell_formula_units_Z 32
_cell_length_a 33.714870
_cell_length_b 8.945052
_cell_length_c 22.526655
_cell_angle_alpha 90.000000
_cell_angle_beta 162.414951
_cell_angle_gamma 90.000000
_cell_volume 2052.495423
_symmetry_space_group_name_H-M "P 2/M"
_symmetry_group_IT_number 10
_symmetry_cell_setting 'monoclinic'
loop_
_space_group_symop_operation_xyz
x,y,z
-x,y,-z
-x,-y,-z
x,-y,z
loop_
_atom_site_type_symbol
_atom_site_label
_atom_site_fract_x
_atom_site_fract_y
_atom_site_fract_z
Si Si1 0.259459 0.825193 0.024151
Si Si2 0.178672 0.671933 0.738066
Si Si3 0.698945 0.175550 0.551978
Si Si4 0.574198 0.672370 0.840320
Si Si5 0.014866 0.827216 0.605355
Si Si6 0.059668 0.331576 0.150313
Si Si7 0.185093 0.823863 0.156121
Si Si8 0.646932 0.822604 0.714328
O O1 0.351112 0.731458 0.111102
O O2 0.288241 0.770327 0.131696
O O3 0.294190 0.000000 0.064818
O O4 0.103459 0.796587 0.790311
O O5 0.137931 0.500000 0.689485
O O6 0.108122 0.778486 0.684530
O O7 0.121925 0.730802 0.593118
O O8 0.334650 0.690552 0.970535
O O9 0.555659 0.234953 0.332056
O O10 0.801349 0.246831 0.651632
O O11 0.734607 0.220206 0.670266
O O12 0.702542 0.000000 0.547844
O O13 0.538140 0.500000 0.777866
O O14 0.977162 0.000000 0.546451
O O15 0.082517 0.500000 0.204830
O O16 0.000000 0.325424 0.000000
O O17 0.958219 0.251453 0.049946
O O18 0.266792 0.760187 0.217011
O O19 0.163199 0.000000 0.121282
O O20 0.500000 0.756584 0.500000
O O21 0.641857 0.000000 0.702692
#
# Coordination Sequence:
#
# PCOD8057673 Si02
#       8
#     4   4   4   4   4   4   4   4
#     4   9  17  28  41  58  80 109 144 176 205 237
#     4   9  16  25  37  53  75 104 134 162 198 245
#     4  10  18  28  44  63  82 106 137 170 204 245
#     4  10  19  28  39  58  84 111 137 167 205 247
#     4   9  15  23  37  55  75 100 133 171 204 235
#     4   9  17  29  44  61  82 106 132 167 210 249
#     4   9  17  29  45  62  80 107 143 176 203 236
#     4   9  16  27  43  61  82 110 144 177 204 231
#
# _framework density 15.590778
#
# number of rings (size 3 to 8) (size 9 to 14) (size 15 to 20)
#    0.000    2.750    0.000    3.375    0.000    6.000 
#    0.000    0.625    0.000    1.500    0.000    0.000 
#    0.000    1.000    0.000   11.500    0.000    2.875 
#
# Total GULP energy -396578.580163 kJ/mol
# GULP energy per Si atom -12393.080630 kJ/mol
# Density = 1.555529 g / cm^3
# Si number density = 15.590778 Si / 1000 Ang^3
#
#
#
# Elastic Constant Matrix: (Units=GPa)
#
#
# Indices 1 2 3 4 5 6 
#
# 1 62.4904 21.9927 54.4622 0.0000 7.7574 0.0000
# 2 21.9927 54.4476 43.9564 0.0000 3.2437 0.0000
# 3 54.4622 43.9564 128.2861 0.0000 1.3897 0.0000
# 4 0.0000 0.0000 0.0000 26.6459 0.0000 0.8111
# 5 7.7574 3.2437 1.3897 0.0000 25.9626 0.0000
# 6 0.0000 0.0000 0.0000 0.8111 0.0000 7.1365
#
#
#
# Elastic Compliance Matrix: (Units=1/GPa)
#
#
# Indices 1 2 3 4 5 6 
#
# 1 0.026867 -0.001764 -0.010723 0.000000 -0.007233 0.000000
# 2 -0.001764 0.025697 -0.008032 0.000000 -0.002253 0.000000
# 3 -0.010723 -0.008032 0.015063 0.000000 0.003401 0.000000
# 4 0.000000 0.000000 0.000000 0.037659 0.000000 -0.004280
# 5 -0.007233 -0.002253 0.003401 0.000000 0.040778 0.000000
# 6 0.000000 0.000000 0.000000 -0.004280 0.000000 0.140612
#
#
# Mechanical properties :
#
#
# Convention : Reuss Voigt Hill
#
# Bulk Modulus (GPa) = 37.61006 54.00519 45.80763
# Shear Modulus (GPa) = 14.85549 20.26985 17.56267
#
# Velocity S-wave (km/s) = 3.09016 3.60963 3.35995
# Velocity P-wave (km/s) = 6.07517 7.21713 6.67063
#
# Compressibility (1/GPa) = 0.02658863
#
# Stress axis : x y z
#
# Youngs Moduli (GPa) = 37.22074 38.91481 66.39002
#
# Poissons Ratio (x) = 0.06866 0.71190
# Poissons Ratio (y) = 0.06567 0.53321
# Poissons Ratio (z) = 0.39912 0.31255
#
# Static dielectric constant tensor:
#      x y z
#    x 2.765260 0.000000 -0.199900 
#    y 0.000000 2.970790 0.000000 
#    z -0.199900 0.000000 3.443190 
# 
# 
# High freq. dielectric constant tensor:
#      x y z
#    x 1.541950 0.000000 -0.005140 
#    y 0.000000 1.600950 0.000000 
#    z -0.005140 0.000000 1.606660 
# 
# From -- ./inp_files/87199.got.cif
#   From: 2010.06.25/outbox.cif.g09.slc.cpg/sg10_44_cif.got.tgz:87199.got - 2010.06.27 22:07:45.
