data_PCOD8057770
_publ_section_title
;
Structure prediction by ZEFSAII (Michael W. Deem and Ramdas Pophale) SiO2 
 PCOD8057770
Probable space group: P 2/M
;
_chemical_formula_sum "Si O2"
_cell_formula_units_Z 32
_cell_length_a 28.131165
_cell_length_b 8.935770
_cell_length_c 19.803528
_cell_angle_alpha 90.000000
_cell_angle_beta 21.243627
_cell_angle_gamma 90.000000
_cell_volume 1803.731116
_symmetry_space_group_name_H-M "P 2/M"
_symmetry_group_IT_number 10
_symmetry_cell_setting 'monoclinic'
loop_
_space_group_symop_operation_xyz
x,y,z
-x,y,-z
-x,-y,-z
x,-y,z
loop_
_atom_site_type_symbol
_atom_site_label
_atom_site_fract_x
_atom_site_fract_y
_atom_site_fract_z
Si Si1 0.523388 0.327533 0.699250
Si Si2 0.814137 0.676313 0.554602
Si Si3 0.414229 0.675032 0.527769
Si Si4 0.697862 0.823115 0.835990
Si Si5 0.678060 0.824367 0.226476
Si Si6 0.573309 0.675544 0.781907
Si Si7 0.258367 0.175063 0.071791
Si Si8 0.080137 0.825795 0.188272
O O1 0.484408 0.500000 0.754200
O O2 0.616263 0.295418 0.511460
O O3 0.594057 0.280212 0.675636
O O4 0.388541 0.241424 0.866929
O O5 0.813531 0.500000 0.565289
O O6 0.792873 0.753775 0.654690
O O7 0.701857 0.728600 0.651305
O O8 0.952178 0.728966 0.341375
O O9 0.402785 0.500000 0.560412
O O10 0.561867 0.729810 0.346709
O O11 0.311326 0.769199 0.709458
O O12 0.759000 0.774841 0.827460
O O13 0.693620 0.000000 0.832927
O O14 0.551143 0.760357 0.022043
O O15 0.644643 0.000000 0.267251
O O16 0.813809 0.788532 0.009624
O O17 0.547890 0.500000 0.825085
O O18 0.134607 0.223144 0.190031
O O19 0.278256 0.000000 0.040232
O O20 0.042561 0.000000 0.237478
#
# Coordination Sequence:
#
# PCOD8057770 Si02
#       8
#     4   4   4   4   4   4   4   4
#     4   9  17  30  51  76 102 130 161 204 250 292
#     4  11  23  36  52  72  98 134 171 208 250 297
#     4  10  18  28  48  78 106 129 159 201 244 291
#     4  10  20  34  55  78 100 126 163 211 255 297
#     4  10  19  31  49  72 102 137 164 196 241 294
#     4   9  19  36  54  74 100 130 167 209 252 293
#     4   9  18  33  51  73 100 132 165 201 249 297
#     4  10  21  36  52  70 100 136 170 205 242 294
#
# _framework density 17.741002000000002
#
# number of rings (size 3 to 8) (size 9 to 14) (size 15 to 20)
#    0.000    2.250    1.250    2.625    0.000    5.500 
#    0.000    2.500    0.000    0.750    0.000    5.250 
#    0.000    0.000    0.000    0.000    0.000    0.000 
#
# Total GULP energy -396736.591952 kJ/mol
# GULP energy per Si atom -12398.018499 kJ/mol
# Density = 1.770062 g / cm^3
# Si number density = 17.741002 Si / 1000 Ang^3
#
#
#
# Elastic Constant Matrix: (Units=GPa)
#
#
# Indices 1 2 3 4 5 6 
#
# 1 67.6109 20.3086 47.6474 0.0000 13.5819 0.0000
# 2 20.3086 42.6593 32.3828 0.0000 2.4630 0.0000
# 3 47.6474 32.3828 102.4235 0.0000 7.9033 0.0000
# 4 0.0000 0.0000 0.0000 35.7851 0.0000 7.2477
# 5 13.5819 2.4630 7.9033 0.0000 27.0161 0.0000
# 6 0.0000 0.0000 0.0000 7.2477 0.0000 27.6248
#
#
#
# Elastic Compliance Matrix: (Units=1/GPa)
#
#
# Indices 1 2 3 4 5 6 
#
# 1 0.024464 -0.003967 -0.009418 0.000000 -0.009182 0.000000
# 2 -0.003967 0.031488 -0.008228 0.000000 0.001531 0.000000
# 3 -0.009418 -0.008228 0.016700 0.000000 0.000599 0.000000
# 4 0.000000 0.000000 0.000000 0.029513 0.000000 -0.007743
# 5 -0.009182 0.001531 0.000599 0.000000 0.041316 0.000000
# 6 0.000000 0.000000 0.000000 -0.007743 0.000000 0.038231
#
#
# Mechanical properties :
#
#
# Convention : Reuss Voigt Hill
#
# Bulk Modulus (GPa) = 33.98433 45.93014 39.95724
# Shear Modulus (GPa) = 21.29979 25.57554 23.43766
#
# Velocity S-wave (km/s) = 3.46872 3.80097 3.63864
# Velocity P-wave (km/s) = 5.93634 6.72373 6.34227
#
# Compressibility (1/GPa) = 0.02942533
#
# Stress axis : x y z
#
# Youngs Moduli (GPa) = 40.87719 31.75856 59.88174
#
# Poissons Ratio (x) = 0.12599 0.56394
# Poissons Ratio (y) = 0.16217 0.49270
# Poissons Ratio (z) = 0.38497 0.26131
#
# Static dielectric constant tensor:
#      x y z
#    x 3.646110 0.000000 0.263010 
#    y 0.000000 3.298920 0.000000 
#    z 0.263010 0.000000 3.152390 
# 
# 
# High freq. dielectric constant tensor:
#      x y z
#    x 1.688360 0.000000 0.022670 
#    y 0.000000 1.691420 0.000000 
#    z 0.022670 0.000000 1.663050 
# 
# From -- ./inp_files/87182.got.cif
#   From: 2010.06.25/outbox.cif.g09.slc.cpg/sg10_44_cif.got.tgz:87182.got - 2010.06.27 22:07:45.
