data_PCOD8057210
_publ_section_title
;
Structure prediction by ZEFSAII (Michael W. Deem and Ramdas Pophale) SiO2 
 PCOD8057210
Probable space group: P 2/M
;
_chemical_formula_sum "Si O2"
_cell_formula_units_Z 28
_cell_length_a 19.525380
_cell_length_b 9.184147
_cell_length_c 16.614499
_cell_angle_alpha 90.000000
_cell_angle_beta 31.860886
_cell_angle_gamma 90.000000
_cell_volume 1572.690308
_symmetry_space_group_name_H-M "P 2/M"
_symmetry_group_IT_number 10
_symmetry_cell_setting 'monoclinic'
loop_
_space_group_symop_operation_xyz
x,y,z
-x,y,-z
-x,-y,-z
x,-y,z
loop_
_atom_site_type_symbol
_atom_site_label
_atom_site_fract_x
_atom_site_fract_y
_atom_site_fract_z
Si Si1 0.130912 0.830357 0.538115
Si Si2 0.845487 0.160931 0.659137
Si Si3 0.742211 0.170479 0.422813
Si Si4 0.021456 0.664752 0.884653
Si Si5 0.497113 0.327570 0.596553
Si Si6 0.863818 0.668790 0.793677
Si Si7 0.236543 0.330919 0.937395
O O1 0.201445 0.787122 0.382959
O O2 0.230425 0.797399 0.510464
O O3 0.999715 0.740726 0.682524
O O4 0.090848 0.000000 0.574968
O O5 0.799647 0.266969 0.776349
O O6 0.000000 0.160283 0.500000
O O7 0.791750 0.000000 0.732573
O O8 0.857442 0.233178 0.254056
O O9 0.610712 0.249633 0.531012
O O10 0.729518 0.000000 0.417993
O O11 0.048020 0.500000 0.826119
O O12 0.000000 0.661503 0.000000
O O13 0.894685 0.736037 0.969352
O O14 0.500000 0.284841 0.500000
O O15 0.512409 0.500000 0.593012
O O16 0.364460 0.264891 0.768114
O O17 0.890632 0.500000 0.752531
O O18 0.762265 0.695839 0.967639
O O19 0.234208 0.500000 0.917691
#
# Coordination Sequence:
#
# PCOD8057210 Si02
#       7
#     4   4   4   4   4   4   4
#     4   9  18  32  48  70 104 141 170 202 251 311
#     4   8  15  28  45  67 100 138 171 202 246 307
#     4  11  22  35  53  79 109 136 170 217 265 308
#     4  10  19  34  56  78 101 134 174 213 259 314
#     4  10  21  39  59  75  98 139 183 216 256 313
#     4  10  17  27  47  76 106 130 165 216 262 301
#     4   9  18  32  51  77 104 131 170 219 260 304
#
# _framework density 17.803885999999999
#
# number of rings (size 3 to 8) (size 9 to 14) (size 15 to 20)
#    0.000    2.429    1.429    2.571    0.000    6.000 
#    0.000    2.143    0.000    0.857    0.000    6.000 
#    0.000    0.000    0.000    0.000    0.000    0.000 
#
# Total GULP energy -347113.267906 kJ/mol
# GULP energy per Si atom -12396.902425 kJ/mol
# Density = 1.776336 g / cm^3
# Si number density = 17.803886 Si / 1000 Ang^3
#
#
#
# Elastic Constant Matrix: (Units=GPa)
#
#
# Indices 1 2 3 4 5 6 
#
# 1 107.0591 43.9883 47.0106 0.0000 14.1101 0.0000
# 2 43.9883 64.2194 36.0476 0.0000 6.4662 0.0000
# 3 47.0106 36.0476 97.3221 0.0000 4.9707 0.0000
# 4 0.0000 0.0000 0.0000 7.2961 0.0000 3.9638
# 5 14.1101 6.4662 4.9707 0.0000 29.3132 0.0000
# 6 0.0000 0.0000 0.0000 3.9638 0.0000 28.7528
#
#
#
# Elastic Compliance Matrix: (Units=1/GPa)
#
#
# Indices 1 2 3 4 5 6 
#
# 1 0.014826 -0.007308 -0.004209 0.000000 -0.004811 0.000000
# 2 -0.007308 0.023550 -0.005152 0.000000 -0.000803 0.000000
# 3 -0.004209 -0.005152 0.014178 0.000000 0.000758 0.000000
# 4 0.000000 0.000000 0.000000 0.148156 0.000000 -0.020424
# 5 -0.004811 -0.000803 0.000758 0.000000 0.036479 0.000000
# 6 0.000000 0.000000 0.000000 -0.020424 0.000000 0.037595
#
#
# Mechanical properties :
#
#
# Convention : Reuss Voigt Hill
#
# Bulk Modulus (GPa) = 52.03979 58.07707 55.05843
# Shear Modulus (GPa) = 15.89698 22.50936 19.20317
#
# Velocity S-wave (km/s) = 2.99137 3.55955 3.28776
# Velocity P-wave (km/s) = 6.42059 7.04167 6.73829
#
# Compressibility (1/GPa) = 0.01921606
#
# Stress axis : x y z
#
# Youngs Moduli (GPa) = 67.45121 42.46263 70.53404
#
# Poissons Ratio (x) = 0.31033 0.29686
# Poissons Ratio (y) = 0.49295 0.36337
# Poissons Ratio (z) = 0.28388 0.21875
#
# Static dielectric constant tensor:
#      x y z
#    x 3.597930 0.000000 0.264840 
#    y 0.000000 3.246520 0.000000 
#    z 0.264840 0.000000 3.229260 
# 
# 
# High freq. dielectric constant tensor:
#      x y z
#    x 1.697040 0.000000 0.024660 
#    y 0.000000 1.675260 0.000000 
#    z 0.024660 0.000000 1.665420 
# 
# From -- ./inp_files/79249.got.cif
#   From: 2010.06.25/outbox.cif.g09.slc.cpg/sg10_40_cif.got.tgz:79249.got - 2010.06.27 22:07:45.
