data_PCOD8057203
_publ_section_title
;
Structure prediction by ZEFSAII (Michael W. Deem and Ramdas Pophale) SiO2 
 PCOD8057203
Probable space group: P 2/M
;
_chemical_formula_sum "Si O2"
_cell_formula_units_Z 28
_cell_length_a 15.796218
_cell_length_b 14.560883
_cell_length_c 9.058969
_cell_angle_alpha 90.000000
_cell_angle_beta 128.260640
_cell_angle_gamma 90.000000
_cell_volume 1636.066581
_symmetry_space_group_name_H-M "P 2/M"
_symmetry_group_IT_number 10
_symmetry_cell_setting 'monoclinic'
loop_
_space_group_symop_operation_xyz
x,y,z
-x,y,-z
-x,-y,-z
x,-y,z
loop_
_atom_site_type_symbol
_atom_site_label
_atom_site_fract_x
_atom_site_fract_y
_atom_site_fract_z
Si Si1 0.085355 0.399651 0.381522
Si Si2 0.148452 0.600266 0.788883
Si Si3 0.350309 0.894935 0.465605
Si Si4 0.235989 0.211316 0.852335
Si Si5 0.588688 0.895099 0.802973
Si Si6 0.172875 0.211034 0.445033
Si Si7 0.031593 0.103059 0.703775
O O1 0.119791 0.500000 0.354218
O O2 0.109339 0.395644 0.579658
O O3 0.150514 0.317061 0.374467
O O4 0.956848 0.385473 0.221876
O O5 0.201344 0.500000 0.879774
O O6 0.232921 0.682747 0.904763
O O7 0.462489 0.870395 0.667141
O O8 0.361408 0.879717 0.303985
O O9 0.258555 0.827502 0.423147
O O10 0.318656 0.000000 0.466981
O O11 0.219278 0.202341 0.659775
O O12 0.144758 0.155356 0.843412
O O13 0.352693 0.170757 0.016888
O O14 0.605626 0.000000 0.871459
O O15 0.061513 0.155315 0.306962
O O16 0.000000 0.100963 0.500000
O O17 0.044030 0.000000 0.780336
#
# Coordination Sequence:
#
# PCOD8057203 Si02
#       7
#     4   4   4   4   4   4   4
#     4   8  13  23  41  66  95 123 150 180 217 265
#     4   8  13  23  41  66  95 123 150 180 217 265
#     4   9  19  35  50  63  85 120 157 190 227 270
#     4  10  17  27  46  71  94 118 150 186 224 266
#     4   9  19  35  50  63  85 120 157 190 227 270
#     4  10  17  27  46  71  94 118 150 186 224 266
#     4   9  16  24  36  62  98 123 137 169 224 271
#
# _framework density 17.114218000000001
#
# number of rings (size 3 to 8) (size 9 to 14) (size 15 to 20)
#    0.000    3.000    1.429    2.571    0.000    2.286 
#    0.000    2.143    0.000    4.286    0.000    8.000 
#    0.000    0.000    0.000    0.000    0.000    0.000 
#
# Total GULP energy -347030.918474 kJ/mol
# GULP energy per Si atom -12393.961374 kJ/mol
# Density = 1.707527 g / cm^3
# Si number density = 17.114218 Si / 1000 Ang^3
#
#
#
# Elastic Constant Matrix: (Units=GPa)
#
#
# Indices 1 2 3 4 5 6 
#
# 1 57.7466 22.9967 -18.0648 0.0000 4.0249 0.0000
# 2 22.9967 110.5277 -3.9088 0.0000 1.7253 0.0000
# 3 -18.0648 -3.9088 11.9824 0.0000 1.8509 0.0000
# 4 0.0000 0.0000 0.0000 13.7738 0.0000 4.0769
# 5 4.0249 1.7253 1.8509 0.0000 8.7228 0.0000
# 6 0.0000 0.0000 0.0000 4.0769 0.0000 20.4075
#
#
#
# Elastic Compliance Matrix: (Units=1/GPa)
#
#
# Indices 1 2 3 4 5 6 
#
# 1 0.043720 -0.006128 0.069107 0.000000 -0.033625 0.000000
# 2 -0.006128 0.010066 -0.006290 0.000000 0.002171 0.000000
# 3 0.069107 -0.006290 0.196773 0.000000 -0.072396 0.000000
# 4 0.000000 0.000000 0.000000 0.077165 0.000000 -0.015416
# 5 -0.033625 0.002171 -0.072396 0.000000 0.145090 0.000000
# 6 0.000000 0.000000 0.000000 -0.015416 0.000000 0.052081
#
#
# Mechanical properties :
#
#
# Convention : Reuss Voigt Hill
#
# Bulk Modulus (GPa) = 2.74771 20.25587 11.50179
# Shear Modulus (GPa) = 9.38390 20.52973 14.95682
#
# Velocity S-wave (km/s) = 2.34414 3.46724 2.95946
# Velocity P-wave (km/s) = 2.98926 5.28114 4.29104
#
# Compressibility (1/GPa) = 0.36393898
#
# Stress axis : x y z
#
# Youngs Moduli (GPa) = 22.87308 99.34340 5.08199
#
# Poissons Ratio (x) = 0.60873 -0.35120
# Poissons Ratio (y) = 0.14016 0.03196
# Poissons Ratio (z) = -1.58069 0.62483
#
# Static dielectric constant tensor:
#      x y z
#    x 2.909580 0.000000 0.171160 
#    y 0.000000 3.603490 0.000000 
#    z 0.171160 0.000000 2.822880 
# 
# 
# High freq. dielectric constant tensor:
#      x y z
#    x 1.632330 0.000000 0.011690 
#    y 0.000000 1.669910 0.000000 
#    z 0.011690 0.000000 1.621750 
# 
# From -- ./inp_files/24640.got.cif
#   From: 2010.06.25/outbox.cif.g09.slc.cpg/sg10_13_cif.got.tgz:24640.got - 2010.06.27 22:07:45.
