data_PCOD8057229
_publ_section_title
;
Structure prediction by ZEFSAII (Michael W. Deem and Ramdas Pophale) SiO2 
 PCOD8057229
Probable space group: P 2/M
;
_chemical_formula_sum "Si O2"
_cell_formula_units_Z 32
_cell_length_a 22.887191
_cell_length_b 13.621730
_cell_length_c 20.621600
_cell_angle_alpha 90.000000
_cell_angle_beta 17.401986
_cell_angle_gamma 90.000000
_cell_volume 1922.762255
_symmetry_space_group_name_H-M "P 2/M"
_symmetry_group_IT_number 10
_symmetry_cell_setting 'monoclinic'
loop_
_space_group_symop_operation_xyz
x,y,z
-x,y,-z
-x,-y,-z
x,-y,z
loop_
_atom_site_type_symbol
_atom_site_label
_atom_site_fract_x
_atom_site_fract_y
_atom_site_fract_z
Si Si1 0.054144 0.386979 0.709601
Si Si2 0.837760 0.793878 0.481161
Si Si3 0.278690 0.705689 0.866463
Si Si4 0.733125 0.607941 0.249618
Si Si5 0.692351 0.386210 0.433232
Si Si6 0.043834 0.113988 0.380011
Si Si7 0.568965 0.889425 0.099305
Si Si8 0.170468 0.110843 0.051332
O O1 0.071881 0.500000 0.669751
O O2 0.130028 0.321139 0.569378
O O3 0.174883 0.361697 0.646388
O O4 0.831424 0.359220 0.962312
O O5 0.608313 0.814404 0.718951
O O6 0.909011 0.816984 0.478319
O O7 0.956153 0.860060 0.304249
O O8 0.200666 0.682408 0.876627
O O9 0.505798 0.683757 0.634838
O O10 0.235647 0.820621 0.922869
O O11 0.500000 0.605765 0.500000
O O12 0.812293 0.500000 0.145924
O O13 0.809764 0.636282 0.241010
O O14 0.624731 0.500000 0.504019
O O15 0.000000 0.142098 0.500000
O O16 0.994066 0.000000 0.417420
O O17 0.272333 0.134085 0.124584
O O18 0.671954 0.875749 0.059083
O O19 0.489088 0.000000 0.175677
O O20 0.162571 0.000000 0.033801
#
# Coordination Sequence:
#
# PCOD8057229 Si02
#       8
#     4   4   4   4   4   4   4   4
#     4  10  20  30  44  68  90 113 148 184 218 260
#     4  10  18  30  47  66  92 121 145 175 217 261
#     4  10  17  28  45  62  86 118 147 181 227 271
#     4   8  14  25  42  62  83 110 142 179 227 277
#     4   9  17  29  44  64  89 111 140 186 231 270
#     4   9  18  31  48  74 100 116 141 181 216 252
#     4   9  16  28  47  68  91 118 145 174 215 261
#     4   9  18  29  42  64  89 115 151 187 215 255
#
# _framework density 16.642724000000001
#
# number of rings (size 3 to 8) (size 9 to 14) (size 15 to 20)
#    0.000    2.750    0.000    4.500    0.000    1.000 
#    0.000    3.750    0.000    3.750    0.000    4.375 
#    0.000    0.000    0.000    0.000    0.000    0.000 
#
# Total GULP energy -396744.234789 kJ/mol
# GULP energy per Si atom -12398.257337 kJ/mol
# Density = 1.660484 g / cm^3
# Si number density = 16.642724 Si / 1000 Ang^3
#
#
#
# Elastic Constant Matrix: (Units=GPa)
#
#
# Indices 1 2 3 4 5 6 
#
# 1 73.9753 54.0429 30.5092 0.0000 17.3666 0.0000
# 2 54.0429 115.9938 47.5185 0.0000 14.3689 0.0000
# 3 30.5092 47.5185 70.3135 0.0000 10.1817 0.0000
# 4 0.0000 0.0000 0.0000 21.8140 0.0000 5.6631
# 5 17.3666 14.3689 10.1817 0.0000 23.1543 0.0000
# 6 0.0000 0.0000 0.0000 5.6631 0.0000 24.6655
#
#
#
# Elastic Compliance Matrix: (Units=1/GPa)
#
#
# Indices 1 2 3 4 5 6 
#
# 1 0.023423 -0.008342 -0.002917 0.000000 -0.011109 0.000000
# 2 -0.008342 0.015272 -0.006659 0.000000 -0.000292 0.000000
# 3 -0.002917 -0.006659 0.020370 0.000000 -0.002637 0.000000
# 4 0.000000 0.000000 0.000000 0.048748 0.000000 -0.011192
# 5 -0.011109 -0.000292 -0.002637 0.000000 0.052861 0.000000
# 6 0.000000 0.000000 0.000000 -0.011192 0.000000 0.043112
#
#
# Mechanical properties :
#
#
# Convention : Reuss Voigt Hill
#
# Bulk Modulus (GPa) = 43.05021 58.26932 50.65977
# Shear Modulus (GPa) = 20.21298 22.47424 21.34361
#
# Velocity S-wave (km/s) = 3.48878 3.67876 3.58503
# Velocity P-wave (km/s) = 6.49248 7.28919 6.90234
#
# Compressibility (1/GPa) = 0.02322869
#
# Stress axis : x y z
#
# Youngs Moduli (GPa) = 42.69233 65.47951 49.09225
#
# Poissons Ratio (x) = 0.54623 0.14321
# Poissons Ratio (y) = 0.35614 0.32690
# Poissons Ratio (z) = 0.12454 0.43602
#
# Static dielectric constant tensor:
#      x y z
#    x 3.104210 0.000000 0.033050 
#    y 0.000000 3.008630 0.000000 
#    z 0.033050 0.000000 3.109690 
# 
# 
# High freq. dielectric constant tensor:
#      x y z
#    x 1.627670 0.000000 -0.008020 
#    y 0.000000 1.616150 0.000000 
#    z -0.008020 0.000000 1.645920 
# 
# From -- ./inp_files/79723.got.cif
#   From: 2010.06.25/outbox.cif.g09.slc.cpg/sg10_40_cif.got.tgz:79723.got - 2010.06.27 22:07:45.
