data_PCOD8057468
_publ_section_title
;
Structure prediction by ZEFSAII (Michael W. Deem and Ramdas Pophale) SiO2 
 PCOD8057468
Probable space group: P 2/M
;
_chemical_formula_sum "Si O2"
_cell_formula_units_Z 26
_cell_length_a 5.343681
_cell_length_b 12.585850
_cell_length_c 22.970349
_cell_angle_alpha 90.000000
_cell_angle_beta 65.324812
_cell_angle_gamma 90.000000
_cell_volume 1403.802347
_symmetry_space_group_name_H-M "P 2/M"
_symmetry_group_IT_number 10
_symmetry_cell_setting 'monoclinic'
loop_
_space_group_symop_operation_xyz
x,y,z
-x,y,-z
-x,-y,-z
x,-y,z
loop_
_atom_site_type_symbol
_atom_site_label
_atom_site_fract_x
_atom_site_fract_y
_atom_site_fract_z
Si Si1 0.496867 0.751111 0.275987
Si Si2 0.000000 0.680564 0.500000
Si Si3 0.630121 0.374056 0.928179
Si Si4 0.509665 0.618035 0.613408
Si Si5 0.261195 0.373580 0.855313
Si Si6 0.743869 0.201450 0.431464
Si Si7 0.048077 0.119367 0.699108
O O1 0.391871 0.668253 0.335089
O O2 0.620846 0.681602 0.212772
O O3 0.238642 0.817207 0.276500
O O4 0.735335 0.828022 0.277598
O O5 0.744608 0.606413 0.540608
O O6 0.994751 0.763040 0.446860
O O7 0.622945 0.500000 0.931249
O O8 0.443908 0.334610 0.892329
O O9 0.945599 0.335215 0.893193
O O10 0.500000 0.326632 0.000000
O O11 0.388220 0.500000 0.635884
O O12 0.288857 0.695028 0.606290
O O13 0.278607 0.500000 0.845857
O O14 0.500000 0.170472 0.500000
O O15 0.821168 0.108494 0.379147
O O16 0.988791 0.000000 0.726603
#
# Coordination Sequence:
#
# PCOD8057468 Si02
#       7
#     4   2   4   4   4   4   4
#     4  11  22  39  55  81 110 138 183 227 267 330
#     4  10  17  34  49  72 100 132 179 218 261 324
#     4   9  17  30  50  80 119 160 192 213 241 295
#     4  10  20  32  50  73 105 143 174 215 264 317
#     4  10  19  32  53  82 119 157 183 214 260 309
#     4   9  20  35  52  74 103 127 175 226 275 337
#     4  11  23  41  59  76 100 136 177 233 293 329
#
# _framework density 18.521127
#
# number of rings (size 3 to 8) (size 9 to 14) (size 15 to 20)
#    0.000    2.000    1.538    2.538    0.000    5.538 
#    0.000    1.923    0.000    0.000    0.000    0.000 
#    0.000   43.077    0.000    0.000    0.000    0.000 
#
# Total GULP energy -322105.093732 kJ/mol
# GULP energy per Si atom -12388.657451 kJ/mol
# Density = 1.847897 g / cm^3
# Si number density = 18.521127 Si / 1000 Ang^3
#
#
#
# Elastic Constant Matrix: (Units=GPa)
#
#
# Indices 1 2 3 4 5 6 
#
# 1 126.9650 24.2535 44.8684 0.0000 0.2060 0.0000
# 2 24.2535 65.1806 25.0078 0.0000 -0.3182 0.0000
# 3 44.8684 25.0078 118.3209 0.0000 1.9773 0.0000
# 4 0.0000 0.0000 0.0000 13.2283 0.0000 -0.2053
# 5 0.2060 -0.3182 1.9773 0.0000 28.9990 0.0000
# 6 0.0000 0.0000 0.0000 -0.2053 0.0000 15.8315
#
#
#
# Elastic Compliance Matrix: (Units=1/GPa)
#
#
# Indices 1 2 3 4 5 6 
#
# 1 0.009407 -0.002318 -0.003079 0.000000 0.000118 0.000000
# 2 -0.002318 0.017272 -0.002778 0.000000 0.000395 0.000000
# 3 -0.003079 -0.002778 0.010218 0.000000 -0.000705 0.000000
# 4 0.000000 0.000000 0.000000 0.075611 0.000000 0.000981
# 5 0.000118 0.000395 -0.000705 0.000000 0.034536 0.000000
# 6 0.000000 0.000000 0.000000 0.000981 0.000000 0.063178
#
#
# Mechanical properties :
#
#
# Convention : Reuss Voigt Hill
#
# Bulk Modulus (GPa) = 48.67042 55.41401 52.04222
# Shear Modulus (GPa) = 21.42044 26.03421 23.72733
#
# Velocity S-wave (km/s) = 3.40448 3.75327 3.58312
# Velocity P-wave (km/s) = 6.46447 6.98334 6.72891
#
# Compressibility (1/GPa) = 0.02054636
#
# Stress axis : x y z
#
# Youngs Moduli (GPa) = 106.30349 57.89571 97.86453
#
# Poissons Ratio (x) = 0.13422 0.30134
# Poissons Ratio (y) = 0.24645 0.27188
# Poissons Ratio (z) = 0.32733 0.16084
#
# Static dielectric constant tensor:
#      x y z
#    x 3.618710 0.000000 0.024170 
#    y 0.000000 3.062410 0.000000 
#    z 0.024170 0.000000 3.582680 
# 
# 
# High freq. dielectric constant tensor:
#      x y z
#    x 1.731580 0.000000 0.005470 
#    y 0.000000 1.678360 0.000000 
#    z 0.005470 0.000000 1.715550 
# 
# From -- ./inp_files/12208.got.cif
#   From: 2010.06.25/outbox.cif.g09.slc.cpg/sg10_7_cif.got.tgz:12208.got - 2010.06.27 22:07:45.
