data_PCOD8057460
_publ_section_title
;
Structure prediction by ZEFSAII (Michael W. Deem and Ramdas Pophale) SiO2 
 PCOD8057460
Probable space group: P 2/M
;
_chemical_formula_sum "Si O2"
_cell_formula_units_Z 30
_cell_length_a 21.760610
_cell_length_b 16.405075
_cell_length_c 9.221708
_cell_angle_alpha 90.000000
_cell_angle_beta 150.433810
_cell_angle_gamma 90.000000
_cell_volume 1624.370353
_symmetry_space_group_name_H-M "P 2/M"
_symmetry_group_IT_number 10
_symmetry_cell_setting 'monoclinic'
loop_
_space_group_symop_operation_xyz
x,y,z
-x,y,-z
-x,-y,-z
x,-y,z
loop_
_atom_site_type_symbol
_atom_site_label
_atom_site_fract_x
_atom_site_fract_y
_atom_site_fract_z
Si Si1 0.812119 0.760655 0.221576
Si Si2 0.500000 0.217058 0.000000
Si Si3 0.908589 0.731267 0.118777
Si Si4 0.732108 0.293297 0.342056
Si Si5 0.650696 0.912169 0.473172
Si Si6 0.876811 0.590582 0.839131
Si Si7 0.646236 0.093081 0.793413
Si Si8 0.134691 0.155127 0.233324
O O1 0.813960 0.726961 0.060973
O O2 0.743110 0.696274 0.189439
O O3 0.956573 0.766823 0.563581
O O4 0.735343 0.846682 0.069827
O O5 0.407107 0.275205 0.894714
O O6 0.439784 0.160852 0.753770
O O7 0.907667 0.640793 0.048194
O O8 0.854632 0.791569 0.889470
O O9 0.773494 0.370398 0.521357
O O10 0.821793 0.214494 0.548539
O O11 0.694613 0.900529 0.728172
O O12 0.768264 0.916515 0.602720
O O13 0.582271 0.000000 0.318426
O O14 0.831917 0.500000 0.791932
O O15 0.000000 0.586128 0.000000
O O16 0.500000 0.118542 0.500000
O O17 0.662153 0.000000 0.884942
O O18 0.000000 0.119577 0.000000
#
# Coordination Sequence:
#
# PCOD8057460 Si02
#       8
#     4   2   4   4   4   4   4   4
#     4  11  19  33  55  82 111 141 187 227 266 318
#     4  10  21  34  57  78 104 140 196 226 265 314
#     4  10  19  33  55  82 108 143 175 220 270 331
#     4  10  19  34  56  83 107 143 183 223 262 329
#     4  10  20  34  50  74 105 141 184 237 281 315
#     4  10  19  37  61  86 114 143 170 217 281 334
#     4  10  21  36  52  73 108 149 189 233 276 314
#     4  10  17  33  52  71 104 142 182 222 273 334
#
# _framework density 18.468695
#
# number of rings (size 3 to 8) (size 9 to 14) (size 15 to 20)
#    0.000    1.867    4.000    1.800    0.000    0.267 
#    0.000    7.000    0.000    0.000    0.000    0.933 
#    0.000    0.000    0.000    0.000    0.000    0.000 
#
# Total GULP energy -371723.375428 kJ/mol
# GULP energy per Si atom -12390.779181 kJ/mol
# Density = 1.842666 g / cm^3
# Si number density = 18.468695 Si / 1000 Ang^3
#
#
#
# Elastic Constant Matrix: (Units=GPa)
#
#
# Indices 1 2 3 4 5 6 
#
# 1 105.4213 31.1168 34.7951 0.0000 3.8027 0.0000
# 2 31.1168 96.2529 44.4845 0.0000 1.9713 0.0000
# 3 34.7951 44.4845 76.6383 0.0000 10.4994 0.0000
# 4 0.0000 0.0000 0.0000 24.6266 0.0000 -4.4940
# 5 3.8027 1.9713 10.4994 0.0000 31.2210 0.0000
# 6 0.0000 0.0000 0.0000 -4.4940 0.0000 20.3876
#
#
#
# Elastic Compliance Matrix: (Units=1/GPa)
#
#
# Indices 1 2 3 4 5 6 
#
# 1 0.011373 -0.001756 -0.004161 0.000000 0.000125 0.000000
# 2 -0.001756 0.014585 -0.007938 0.000000 0.001962 0.000000
# 3 -0.004161 -0.007938 0.020344 0.000000 -0.005834 0.000000
# 4 0.000000 0.000000 0.000000 0.042308 0.000000 0.009326
# 5 0.000125 0.001962 -0.005834 0.000000 0.033852 0.000000
# 6 0.000000 0.000000 0.000000 0.009326 0.000000 0.051105
#
#
# Mechanical properties :
#
#
# Convention : Reuss Voigt Hill
#
# Bulk Modulus (GPa) = 53.78506 55.45615 54.62060
# Shear Modulus (GPa) = 24.09916 26.44142 25.27029
#
# Velocity S-wave (km/s) = 3.61621 3.78787 3.70304
# Velocity P-wave (km/s) = 6.82799 7.01590 6.92259
#
# Compressibility (1/GPa) = 0.01859252
#
# Stress axis : x y z
#
# Youngs Moduli (GPa) = 87.92702 68.56247 49.15408
#
# Poissons Ratio (x) = 0.12040 0.20455
# Poissons Ratio (y) = 0.15440 0.39016
# Poissons Ratio (z) = 0.36590 0.54422
#
# Static dielectric constant tensor:
#      x y z
#    x 3.660950 0.000000 -0.098330 
#    y 0.000000 3.399750 0.000000 
#    z -0.098330 0.000000 3.341720 
# 
# 
# High freq. dielectric constant tensor:
#      x y z
#    x 1.734240 0.000000 -0.001350 
#    y 0.000000 1.682660 0.000000 
#    z -0.001350 0.000000 1.704720 
# 
# From -- ./inp_files/35421.got.cif
#   From: 2010.06.25/outbox.cif.g09.slc.cpg/sg10_18_cif.got.tgz:35421.got - 2010.06.27 22:07:45.
