data_PCOD8057818
_publ_section_title
;
Structure prediction by ZEFSAII (Michael W. Deem and Ramdas Pophale) SiO2 
 PCOD8057818
Probable space group: P 2/M
;
_chemical_formula_sum "Si O2"
_cell_formula_units_Z 28
_cell_length_a 19.548220
_cell_length_b 7.966655
_cell_length_c 15.279225
_cell_angle_alpha 90.000000
_cell_angle_beta 44.616693
_cell_angle_gamma 90.000000
_cell_volume 1671.262296
_symmetry_space_group_name_H-M "P 2/M"
_symmetry_group_IT_number 10
_symmetry_cell_setting 'monoclinic'
loop_
_space_group_symop_operation_xyz
x,y,z
-x,y,-z
-x,-y,-z
x,-y,z
loop_
_atom_site_type_symbol
_atom_site_label
_atom_site_fract_x
_atom_site_fract_y
_atom_site_fract_z
Si Si1 0.677390 0.191190 0.982016
Si Si2 0.287445 0.808697 0.243361
Si Si3 0.855424 0.000000 0.072315
Si Si4 0.518538 0.309826 0.882649
Si Si5 0.917232 0.694393 0.510584
Si Si6 0.074466 0.000000 0.806284
Si Si7 0.816215 0.312284 0.998703
Si Si8 0.969216 0.308968 0.264294
O O1 0.708118 0.268844 0.859056
O O2 0.729155 0.300636 0.008811
O O3 0.712654 0.000000 0.960404
O O4 0.559725 0.202379 0.101823
O O5 0.367229 0.729377 0.237621
O O6 0.182267 0.791596 0.381792
O O7 0.317093 0.000000 0.205855
O O8 0.848754 0.000000 0.183792
O O9 0.803484 0.830214 0.084714
O O10 0.966439 0.000000 0.941943
O O11 0.496678 0.500000 0.878252
O O12 0.500000 0.265833 0.000000
O O13 0.897898 0.500000 0.547483
O O14 0.951663 0.728695 0.381446
O O15 0.000000 0.765224 0.500000
O O16 0.091687 0.829015 0.735163
O O17 0.813909 0.500000 0.042897
O O18 0.916649 0.283662 0.855764
O O19 0.936580 0.500000 0.269099
#
# Coordination Sequence:
#
# PCOD8057818 Si02
#       8
#     4   4   2   4   4   2   4   4
#     4  10  18  29  44  65  95 124 156 195 232 277
#     4  10  20  30  43  64  90 124 162 198 231 267
#     4   9  18  32  46  72  92 117 153 189 234 286
#     4   9  17  29  44  61  84 120 160 193 231 275
#     4  10  20  33  46  64  93 126 163 201 229 262
#     4   9  18  32  51  64  93 123 151 193 236 281
#     4  10  18  30  48  69  96 124 153 190 234 282
#     4   9  19  32  47  68  93 126 163 195 229 271
#
# _framework density 16.753805
#
# number of rings (size 3 to 8) (size 9 to 14) (size 15 to 20)
#    0.000    2.429    0.714    2.143    1.000    5.429 
#    0.000    2.857    0.000    0.000    0.000    0.000 
#    0.000    2.286    0.000    6.000    0.000    0.286 
#
# Total GULP energy -347098.882405 kJ/mol
# GULP energy per Si atom -12396.388657 kJ/mol
# Density = 1.671567 g / cm^3
# Si number density = 16.753805 Si / 1000 Ang^3
#
#
#
# Elastic Constant Matrix: (Units=GPa)
#
#
# Indices 1 2 3 4 5 6 
#
# 1 103.3984 55.7079 39.3504 0.0000 5.6326 0.0000
# 2 55.7079 96.5069 23.5371 0.0000 7.2811 0.0000
# 3 39.3504 23.5371 47.3653 0.0000 -4.7715 0.0000
# 4 0.0000 0.0000 0.0000 19.0340 0.0000 -1.4645
# 5 5.6326 7.2811 -4.7715 0.0000 24.0003 0.0000
# 6 0.0000 0.0000 0.0000 -1.4645 0.0000 25.1439
#
#
#
# Elastic Compliance Matrix: (Units=1/GPa)
#
#
# Indices 1 2 3 4 5 6 
#
# 1 0.018534 -0.007385 -0.012185 0.000000 -0.004532 0.000000
# 2 -0.007385 0.015311 -0.001803 0.000000 -0.003270 0.000000
# 3 -0.012185 -0.001803 0.033138 0.000000 0.009995 0.000000
# 4 0.000000 0.000000 0.000000 0.052774 0.000000 0.003074
# 5 -0.004532 -0.003270 0.009995 0.000000 0.045709 0.000000
# 6 0.000000 0.000000 0.000000 0.003074 0.000000 0.039950
#
#
# Mechanical properties :
#
#
# Convention : Reuss Voigt Hill
#
# Bulk Modulus (GPa) = 41.25619 53.82904 47.54261
# Shear Modulus (GPa) = 19.51292 22.21399 20.86346
#
# Velocity S-wave (km/s) = 3.41645 3.64525 3.53270
# Velocity P-wave (km/s) = 6.34360 7.06515 6.71408
#
# Compressibility (1/GPa) = 0.02423879
#
# Stress axis : x y z
#
# Youngs Moduli (GPa) = 53.95452 65.31119 30.17695
#
# Poissons Ratio (x) = 0.48233 0.36769
# Poissons Ratio (y) = 0.39846 0.05440
# Poissons Ratio (z) = 0.65741 0.11773
#
# Static dielectric constant tensor:
#      x y z
#    x 3.160730 0.000000 -0.095840 
#    y 0.000000 3.254250 0.000000 
#    z -0.095840 0.000000 2.809580 
# 
# 
# High freq. dielectric constant tensor:
#      x y z
#    x 1.633080 0.000000 -0.015640 
#    y 0.000000 1.660880 0.000000 
#    z -0.015640 0.000000 1.595200 
# 
# From -- ./inp_files/68655.got.cif
#   From: 2010.06.25/outbox.cif.g09.slc.cpg/sg10_35_cif.got.tgz:68655.got - 2010.06.27 22:07:45.
