data_PCOD8057793
_publ_section_title
;
Structure prediction by ZEFSAII (Michael W. Deem and Ramdas Pophale) SiO2 
 PCOD8057793
Probable space group: P 2/M
;
_chemical_formula_sum "Si O2"
_cell_formula_units_Z 32
_cell_length_a 33.439429
_cell_length_b 9.198525
_cell_length_c 22.367519
_cell_angle_alpha 90.000000
_cell_angle_beta 17.358091
_cell_angle_gamma 90.000000
_cell_volume 2052.628360
_symmetry_space_group_name_H-M "P 2/M"
_symmetry_group_IT_number 10
_symmetry_cell_setting 'monoclinic'
loop_
_space_group_symop_operation_xyz
x,y,z
-x,y,-z
-x,-y,-z
x,-y,z
loop_
_atom_site_type_symbol
_atom_site_label
_atom_site_fract_x
_atom_site_fract_y
_atom_site_fract_z
Si Si1 0.073791 0.168837 0.614545
Si Si2 0.775069 0.832832 0.054654
Si Si3 0.695536 0.336910 0.761594
Si Si4 0.575449 0.665020 0.801339
Si Si5 0.186213 0.828561 0.582895
Si Si6 0.260394 0.169360 0.755092
Si Si7 0.016512 0.666344 0.046767
Si Si8 0.479948 0.335861 0.599169
O O1 0.168547 0.243319 0.429658
O O2 0.111975 0.214231 0.627405
O O3 0.096437 0.000000 0.574201
O O4 0.919871 0.212873 0.822148
O O5 0.778344 0.808018 0.120850
O O6 0.664290 0.734163 0.180091
O O7 0.741276 0.000000 0.088792
O O8 0.735699 0.500000 0.721233
O O9 0.636350 0.328967 0.780121
O O10 0.580258 0.282260 0.972422
O O11 0.583124 0.500000 0.765743
O O12 0.659775 0.772246 0.638304
O O13 0.111120 0.746595 0.743040
O O14 0.184181 0.000000 0.597918
O O15 0.404430 0.240456 0.534932
O O16 0.264760 0.000000 0.731694
O O17 0.151760 0.249961 0.870121
O O18 0.023944 0.500000 0.059336
O O19 0.000000 0.671420 0.000000
O O20 0.500000 0.333467 0.500000
O O21 0.484583 0.500000 0.617575
#
# Coordination Sequence:
#
# PCOD8057793 Si02
#       8
#     4   4   4   4   4   4   4   4
#     4   9  16  25  37  56  82 108 137 170 204 240
#     4   9  16  27  40  58  83 110 138 169 205 245
#     4   8  14  23  35  53  76 104 136 165 198 238
#     4   8  14  25  38  53  75 102 133 168 202 240
#     4  10  18  29  43  59  76 102 138 173 211 250
#     4  10  18  31  47  60  78 105 136 172 212 251
#     4  11  23  35  46  61  81 106 138 178 220 255
#     4   9  17  27  40  61  82 103 135 169 203 245
#
# _framework density 15.589767999999999
#
# number of rings (size 3 to 8) (size 9 to 14) (size 15 to 20)
#    0.000    2.750    1.250    2.250    0.000    4.500 
#    0.000    2.500    0.000    0.000    0.000    0.000 
#    0.000    0.000    0.000    1.125    0.000   21.000 
#
# Total GULP energy -396661.113803 kJ/mol
# GULP energy per Si atom -12395.659806 kJ/mol
# Density = 1.555429 g / cm^3
# Si number density = 15.589768 Si / 1000 Ang^3
#
#
#
# Elastic Constant Matrix: (Units=GPa)
#
#
# Indices 1 2 3 4 5 6 
#
# 1 22.7199 27.1902 28.4077 0.0000 -1.9064 0.0000
# 2 27.1902 104.7627 71.3376 0.0000 -2.9795 0.0000
# 3 28.4077 71.3376 146.2094 0.0000 -4.4788 0.0000
# 4 0.0000 0.0000 0.0000 35.1677 0.0000 -1.9475
# 5 -1.9064 -2.9795 -4.4788 0.0000 11.5481 0.0000
# 6 0.0000 0.0000 0.0000 -1.9475 0.0000 13.2015
#
#
#
# Elastic Compliance Matrix: (Units=1/GPa)
#
#
# Indices 1 2 3 4 5 6 
#
# 1 0.068532 -0.012998 -0.006811 0.000000 0.005318 0.000000
# 2 -0.012998 0.016771 -0.005658 0.000000 -0.000013 0.000000
# 3 -0.006811 -0.005658 0.010975 0.000000 0.001672 0.000000
# 4 0.000000 0.000000 0.000000 0.028669 0.000000 0.004229
# 5 0.005318 -0.000013 0.001672 0.000000 0.088117 0.000000
# 6 0.000000 0.000000 0.000000 0.004229 0.000000 0.076373
#
#
# Mechanical properties :
#
#
# Convention : Reuss Voigt Hill
#
# Bulk Modulus (GPa) = 22.05332 58.61813 40.33573
# Shear Modulus (GPa) = 14.06532 21.76723 17.91628
#
# Velocity S-wave (km/s) = 3.00695 3.74070 3.39371
# Velocity P-wave (km/s) = 5.12176 7.50594 6.42540
#
# Compressibility (1/GPa) = 0.04534465
#
# Stress axis : x y z
#
# Youngs Moduli (GPa) = 14.59182 59.62601 91.11995
#
# Poissons Ratio (x) = 0.77501 0.62058
# Poissons Ratio (y) = 0.18966 0.51555
# Poissons Ratio (z) = 0.09938 0.33736
#
# Static dielectric constant tensor:
#      x y z
#    x 2.361580 0.000000 -0.029590 
#    y 0.000000 3.126410 0.000000 
#    z -0.029590 0.000000 3.374930 
# 
# 
# High freq. dielectric constant tensor:
#      x y z
#    x 1.515850 0.000000 -0.006310 
#    y 0.000000 1.609030 0.000000 
#    z -0.006310 0.000000 1.614240 
# 
# From -- ./inp_files/87188.got.cif
#   From: 2010.06.25/outbox.cif.g09.slc.cpg/sg10_44_cif.got.tgz:87188.got - 2010.06.27 22:07:45.
