data_PCOD8057956
_publ_section_title
;
Structure prediction by ZEFSAII (Michael W. Deem and Ramdas Pophale) SiO2 
 PCOD8057956
Probable space group: P 2/M
;
_chemical_formula_sum "Si O2"
_cell_formula_units_Z 28
_cell_length_a 17.942626
_cell_length_b 9.064170
_cell_length_c 22.070728
_cell_angle_alpha 90.000000
_cell_angle_beta 153.147363
_cell_angle_gamma 90.000000
_cell_volume 1621.355529
_symmetry_space_group_name_H-M "P 2/M"
_symmetry_group_IT_number 10
_symmetry_cell_setting 'monoclinic'
loop_
_space_group_symop_operation_xyz
x,y,z
-x,y,-z
-x,-y,-z
x,-y,z
loop_
_atom_site_type_symbol
_atom_site_label
_atom_site_fract_x
_atom_site_fract_y
_atom_site_fract_z
Si Si1 0.805193 0.828548 0.354150
Si Si2 0.670188 0.663983 0.660568
Si Si3 0.691254 0.328348 0.150458
Si Si4 0.249096 0.328565 0.565070
Si Si5 0.440114 0.330695 0.590659
Si Si6 0.169126 0.831384 0.319800
Si Si7 0.035524 0.826351 0.718344
O O1 0.738664 0.743805 0.248114
O O2 0.716621 0.756912 0.348038
O O3 0.000000 0.805405 0.500000
O O4 0.757617 0.000000 0.315467
O O5 0.500000 0.683220 0.500000
O O6 0.738987 0.500000 0.708229
O O7 0.623734 0.707561 0.697083
O O8 0.818840 0.756366 0.737864
O O9 0.739962 0.500000 0.186234
O O10 0.786615 0.244150 0.165572
O O11 0.500000 0.304704 0.000000
O O12 0.208595 0.500000 0.548381
O O13 0.417183 0.313202 0.646433
O O14 0.095072 0.256455 0.418959
O O15 0.398036 0.500000 0.540816
O O16 0.313364 0.221305 0.467907
O O17 0.001392 0.801999 0.236486
O O18 0.195313 0.000000 0.324869
O O19 0.032021 0.000000 0.699162
#
# Coordination Sequence:
#
# PCOD8057956 Si02
#       7
#     4   4   4   4   4   4   4
#     4  11  22  35  53  76 101 129 163 201 244 298
#     4   8  13  22  34  50  79 117 154 187 227 279
#     4  11  24  39  55  75  97 125 164 207 249 293
#     4  10  18  29  48  70  94 125 163 205 242 279
#     4   8  15  25  36  55  84 119 154 190 234 279
#     4   9  16  23  35  57  84 115 154 193 229 276
#     4  10  19  31  46  67  95 126 160 199 244 293
#
# _framework density 17.269500000000001
#
# number of rings (size 3 to 8) (size 9 to 14) (size 15 to 20)
#    0.000    2.429    1.429    3.000    0.000    6.571 
#    0.000    0.000    0.000    0.000    0.000    0.000 
#    0.000    1.143    0.000   12.857    0.000    8.000 
#
# Total GULP energy -346891.640899 kJ/mol
# GULP energy per Si atom -12388.987175 kJ/mol
# Density = 1.723019 g / cm^3
# Si number density = 17.269500 Si / 1000 Ang^3
#
#
#
# Elastic Constant Matrix: (Units=GPa)
#
#
# Indices 1 2 3 4 5 6 
#
# 1 174.0581 75.8738 27.7430 0.0000 9.7618 0.0000
# 2 75.8738 104.3845 26.9666 0.0000 8.2937 0.0000
# 3 27.7430 26.9666 34.7211 0.0000 2.7115 0.0000
# 4 0.0000 0.0000 0.0000 292.2540 0.0000 -207.2200
# 5 9.7618 8.2937 2.7115 0.0000 8.6138 0.0000
# 6 0.0000 0.0000 0.0000 -207.2200 0.0000 184.0792
#
#
#
# Elastic Compliance Matrix: (Units=1/GPa)
#
#
# Indices 1 2 3 4 5 6 
#
# 1 0.008702 -0.005376 -0.002473 0.000000 -0.003907 0.000000
# 2 -0.005376 0.015998 -0.007589 0.000000 -0.006922 0.000000
# 3 -0.002473 -0.007589 0.036786 0.000000 -0.001470 0.000000
# 4 0.000000 0.000000 0.000000 0.016954 0.000000 0.019085
# 5 -0.003907 -0.006922 -0.001470 0.000000 0.127648 0.000000
# 6 0.000000 0.000000 0.000000 0.019085 0.000000 0.026917
#
#
# Mechanical properties :
#
#
# Convention : Reuss Voigt Hill
#
# Bulk Modulus (GPa) = 32.66864 63.81449 48.24156
# Shear Modulus (GPa) = 18.24270 109.16143 63.70206
#
# Velocity S-wave (km/s) = 3.25369 7.95913 6.08006
# Velocity P-wave (km/s) = 5.75094 11.02252 8.79117
#
# Compressibility (1/GPa) = 0.03061040
#
# Stress axis : x y z
#
# Youngs Moduli (GPa) = 114.91810 62.50755 27.18456
#
# Poissons Ratio (x) = 0.33603 0.06722
# Poissons Ratio (y) = 0.61779 0.20630
# Poissons Ratio (z) = 0.28415 0.47437
#
# Static dielectric constant tensor:
#      x y z
#    x 4.113440 0.000000 0.049150 
#    y 0.000000 3.400830 0.000000 
#    z 0.049150 0.000000 2.192460 
# 
# 
# High freq. dielectric constant tensor:
#      x y z
#    x 1.702540 0.000000 0.004690 
#    y 0.000000 1.683080 0.000000 
#    z 0.004690 0.000000 1.574300 
# 
# From -- ./inp_files/75747.got.cif
#   From: 2010.06.25/outbox.cif.g09.slc.cpg/sg10_38_cif.got.tgz:75747.got - 2010.06.27 22:07:45.
