data_PCOD8057870
_publ_section_title
;
Structure prediction by ZEFSAII (Michael W. Deem and Ramdas Pophale) SiO2 
 PCOD8057870
Probable space group: P 2/M
;
_chemical_formula_sum "Si O2"
_cell_formula_units_Z 32
_cell_length_a 20.993428
_cell_length_b 9.486067
_cell_length_c 20.591475
_cell_angle_alpha 90.000000
_cell_angle_beta 152.012043
_cell_angle_gamma 90.000000
_cell_volume 1924.396557
_symmetry_space_group_name_H-M "P 2/M"
_symmetry_group_IT_number 10
_symmetry_cell_setting 'monoclinic'
loop_
_space_group_symop_operation_xyz
x,y,z
-x,y,-z
-x,-y,-z
x,-y,z
loop_
_atom_site_type_symbol
_atom_site_label
_atom_site_fract_x
_atom_site_fract_y
_atom_site_fract_z
Si Si1 0.558493 0.661056 0.851709
Si Si2 0.756791 0.163820 0.572120
Si Si3 0.256808 0.663821 0.572138
Si Si4 0.988165 0.333774 0.560937
Si Si5 0.825468 0.336294 0.158477
Si Si6 0.674552 0.163706 0.841537
Si Si7 0.058473 0.161055 0.851696
Si Si8 0.488177 0.833775 0.560948
O O1 0.581139 0.500000 0.850329
O O2 0.405194 0.684541 0.738672
O O3 0.583314 0.755690 0.811369
O O4 0.665628 0.700120 0.005543
O O5 0.749999 0.249999 0.499998
O O6 0.645717 0.223441 0.522671
O O7 0.905173 0.184536 0.738656
O O8 0.729138 0.000000 0.531007
O O9 0.229159 0.500000 0.531029
O O10 0.145739 0.723435 0.522697
O O11 0.973278 0.500000 0.539764
O O12 0.000000 0.264157 0.500000
O O13 0.123509 0.293256 0.723710
O O14 0.854844 0.500000 0.173020
O O15 0.916704 0.255693 0.188643
O O16 0.623529 0.206737 0.723723
O O17 0.645176 0.000000 0.826995
O O18 0.834393 0.200119 0.994470
O O19 0.081123 0.000000 0.850319
O O20 0.500000 0.764156 0.500000
O O21 0.473276 0.000000 0.539762
#
# Coordination Sequence:
#
# PCOD8057870 Si02
#       8
#     4   4   4   4   4   4   4   4
#     4   9  17  27  43  68  92 111 143 189 224 255
#     4  10  18  29  46  68  91 115 149 188 222 258
#     4  10  18  29  46  68  91 115 149 188 222 258
#     4   9  17  29  45  65  91 122 151 179 218 269
#     4   9  16  28  45  65  89 118 147 177 221 267
#     4   9  16  28  45  65  89 118 147 177 221 267
#     4   9  17  27  43  68  92 111 143 189 224 255
#     4   9  17  29  45  65  91 122 151 179 218 269
#
# _framework density 16.628589000000002
#
# number of rings (size 3 to 8) (size 9 to 14) (size 15 to 20)
#    0.000    2.750    2.500    0.000    0.000    0.000 
#    0.000    1.250    0.000   10.500    0.000    0.000 
#    0.000   10.000    0.000    0.000    0.000    0.000 
#
# Total GULP energy -396571.365516 kJ/mol
# GULP energy per Si atom -12392.855172 kJ/mol
# Density = 1.659074 g / cm^3
# Si number density = 16.628589 Si / 1000 Ang^3
#
#
#
# Elastic Constant Matrix: (Units=GPa)
#
#
# Indices 1 2 3 4 5 6 
#
# 1 125.2731 24.1938 80.2524 0.0000 -8.5107 0.0000
# 2 24.1938 27.3945 25.3705 0.0000 -3.0846 0.0000
# 3 80.2524 25.3705 142.5446 0.0000 -4.9609 0.0000
# 4 0.0000 0.0000 0.0000 17.4125 0.0000 -0.1718
# 5 -8.5107 -3.0846 -4.9609 0.0000 27.5088 0.0000
# 6 0.0000 0.0000 0.0000 -0.1718 0.0000 15.3841
#
#
#
# Elastic Compliance Matrix: (Units=1/GPa)
#
#
# Indices 1 2 3 4 5 6 
#
# 1 0.013340 -0.005553 -0.006441 0.000000 0.002343 0.000000
# 2 -0.005553 0.046361 -0.005036 0.000000 0.002573 0.000000
# 3 -0.006441 -0.005036 0.011521 0.000000 -0.000480 0.000000
# 4 0.000000 0.000000 0.000000 0.057436 0.000000 0.000642
# 5 0.002343 0.002573 -0.000480 0.000000 0.037279 0.000000
# 6 0.000000 0.000000 0.000000 0.000642 0.000000 0.065009
#
#
# Mechanical properties :
#
#
# Convention : Reuss Voigt Hill
#
# Bulk Modulus (GPa) = 26.90787 61.64950 44.27869
# Shear Modulus (GPa) = 18.02497 23.08746 20.55622
#
# Velocity S-wave (km/s) = 3.29595 3.73019 3.51977
# Velocity P-wave (km/s) = 5.54087 7.46374 6.57300
#
# Compressibility (1/GPa) = 0.03716384
#
# Stress axis : x y z
#
# Youngs Moduli (GPa) = 74.96162 21.56977 86.79818
#
# Poissons Ratio (x) = 0.11978 0.55903
# Poissons Ratio (y) = 0.41626 0.43709
# Poissons Ratio (z) = 0.48280 0.10862
#
# Static dielectric constant tensor:
#      x y z
#    x 3.106650 0.000000 0.059520 
#    y 0.000000 2.941520 0.000000 
#    z 0.059520 0.000000 3.620200 
# 
# 
# High freq. dielectric constant tensor:
#      x y z
#    x 1.606040 0.000000 0.007540 
#    y 0.000000 1.613570 0.000000 
#    z 0.007540 0.000000 1.664880 
# 
# From -- ./inp_files/86166.got.cif
#   From: 2010.06.25/outbox.cif.g09.slc.cpg/sg10_44_cif.got.tgz:86166.got - 2010.06.27 22:07:45.
