data_PCOD8057812
_publ_section_title
;
Structure prediction by ZEFSAII (Michael W. Deem and Ramdas Pophale) SiO2 
 PCOD8057812
Probable space group: P 2/M
;
_chemical_formula_sum "Si O2"
_cell_formula_units_Z 32
_cell_length_a 15.094160
_cell_length_b 8.846273
_cell_length_c 15.266263
_cell_angle_alpha 90.000000
_cell_angle_beta 78.521020
_cell_angle_gamma 90.000000
_cell_volume 1997.685508
_symmetry_space_group_name_H-M "P 2/M"
_symmetry_group_IT_number 10
_symmetry_cell_setting 'monoclinic'
loop_
_space_group_symop_operation_xyz
x,y,z
-x,y,-z
-x,-y,-z
x,-y,z
loop_
_atom_site_type_symbol
_atom_site_label
_atom_site_fract_x
_atom_site_fract_y
_atom_site_fract_z
Si Si1 0.573247 0.823271 0.380173
Si Si2 0.756561 0.175719 0.261920
Si Si3 0.122634 0.177798 0.915263
Si Si4 0.080914 0.679514 0.289070
Si Si5 0.929814 0.178902 0.888908
Si Si6 0.882864 0.679247 0.378632
Si Si7 0.394116 0.678943 0.440358
Si Si8 0.198155 0.678803 0.425575
O O1 0.649481 0.792869 0.291447
O O2 0.480716 0.740248 0.369153
O O3 0.608489 0.756376 0.464484
O O4 0.554111 0.000000 0.395895
O O5 0.789178 0.226047 0.158119
O O6 0.809716 0.270359 0.322820
O O7 0.778748 0.000000 0.273552
O O8 0.032769 0.236446 0.883308
O O9 0.111947 0.000000 0.923843
O O10 0.127975 0.235673 0.014743
O O11 0.081795 0.500000 0.285562
O O12 0.110640 0.742304 0.188954
O O13 0.152105 0.742644 0.346588
O O14 0.981850 0.741770 0.334772
O O15 0.924149 0.000000 0.876744
O O16 0.883676 0.500000 0.380579
O O17 0.853860 0.744382 0.479190
O O18 0.401485 0.500000 0.451906
O O19 0.303603 0.725764 0.406306
O O20 0.188578 0.500000 0.429161
#
# Coordination Sequence:
#
# PCOD8057812 Si02
#       8
#     4   4   4   4   4   4   4   4
#     4  10  19  29  44  66  91 113 139 184 231 259
#     4  10  18  29  46  66  90 119 146 177 220 265
#     4   8  15  28  46  64  86 117 148 176 216 268
#     4  10  19  30  45  65  90 119 150 187 221 250
#     4   9  16  29  47  64  85 116 150 182 214 262
#     4  10  18  29  44  63  89 121 154 182 207 251
#     4  10  18  30  47  63  84 118 153 181 209 261
#     4   9  18  31  45  62  87 122 157 180 212 258
#
# _framework density 16.018536999999998
#
# number of rings (size 3 to 8) (size 9 to 14) (size 15 to 20)
#    0.000    2.500    2.500    2.625    0.000    2.000 
#    0.000    3.750    0.000    1.500    0.000    0.875 
#    0.000    7.000    0.000    0.000    0.000    0.000 
#
# Total GULP energy -396629.361414 kJ/mol
# GULP energy per Si atom -12394.667544 kJ/mol
# Density = 1.598208 g / cm^3
# Si number density = 16.018537 Si / 1000 Ang^3
#
#
#
# Elastic Constant Matrix: (Units=GPa)
#
#
# Indices 1 2 3 4 5 6 
#
# 1 95.0450 16.2593 62.2375 0.0000 -5.7627 0.0000
# 2 16.2593 24.1328 16.1409 0.0000 0.0811 0.0000
# 3 62.2375 16.1409 130.5330 0.0000 -5.8688 0.0000
# 4 0.0000 0.0000 0.0000 20.2945 0.0000 0.0087
# 5 -5.7627 0.0811 -5.8688 0.0000 25.5394 0.0000
# 6 0.0000 0.0000 0.0000 0.0087 0.0000 -3.5101
#
#
#
# Elastic Compliance Matrix: (Units=1/GPa)
#
#
# Indices 1 2 3 4 5 6 
#
# 1 0.016225 -0.006353 -0.006856 0.000000 0.002106 0.000000
# 2 -0.006353 0.047714 -0.002973 0.000000 -0.002268 0.000000
# 3 -0.006856 -0.002973 0.011345 0.000000 0.001070 0.000000
# 4 0.000000 0.000000 0.000000 0.049274 0.000000 0.000122
# 5 0.002106 -0.002268 0.001070 0.000000 0.039883 0.000000
# 6 0.000000 0.000000 0.000000 0.000122 0.000000 -0.284888
#
#
# Mechanical properties :
#
#
# Convention : Reuss Voigt Hill
#
# Bulk Modulus (GPa) = 23.29878 48.77624 36.03751
# Shear Modulus (GPa) = -67.77280 18.80297 -24.48491
#
# Velocity S-wave (km/s) = -6.51159 3.42983 -3.91389
# Velocity P-wave (km/s) = 6.47750 6.79713 1.45653
#
# Compressibility (1/GPa) = 0.04292069
#
# Stress axis : x y z
#
# Youngs Moduli (GPa) = 61.63267 20.95831 88.14148
#
# Poissons Ratio (x) = 0.13315 0.60428
# Poissons Ratio (y) = 0.39157 0.26203
# Poissons Ratio (z) = 0.42254 0.06230
#
# Static dielectric constant tensor:
#      x y z
#    x 3.160680 0.000000 -0.205270 
#    y 0.000000 2.826240 0.000000 
#    z -0.205270 0.000000 3.250870 
# 
# 
# High freq. dielectric constant tensor:
#      x y z
#    x 1.599770 0.000000 -0.014660 
#    y 0.000000 1.597340 0.000000 
#    z -0.014660 0.000000 1.606200 
# 
# From -- ./inp_files/66092.got.cif
#   From: 2010.06.25/outbox.cif.g09.slc.cpg/sg10_34_cif.got.tgz:66092.got - 2010.06.27 22:07:45.
