data_PCOD8057070
_publ_section_title
;
Structure prediction by ZEFSAII (Michael W. Deem and Ramdas Pophale) SiO2 
 PCOD8057070
Probable space group: P 2/M
;
_chemical_formula_sum "Si O2"
_cell_formula_units_Z 32
_cell_length_a 16.467527
_cell_length_b 8.562029
_cell_length_c 15.254455
_cell_angle_alpha 90.000000
_cell_angle_beta 88.513671
_cell_angle_gamma 90.000000
_cell_volume 2150.084996
_symmetry_space_group_name_H-M "P 2/M"
_symmetry_group_IT_number 10
_symmetry_cell_setting 'monoclinic'
loop_
_space_group_symop_operation_xyz
x,y,z
-x,y,-z
-x,-y,-z
x,-y,z
loop_
_atom_site_type_symbol
_atom_site_label
_atom_site_fract_x
_atom_site_fract_y
_atom_site_fract_z
Si Si1 0.101944 0.816780 0.059139
Si Si2 0.050282 0.683003 0.875774
Si Si3 0.340951 0.676855 0.705914
Si Si4 0.425938 0.818676 0.063516
Si Si5 0.210293 0.182904 0.825564
Si Si6 0.471275 0.184920 0.595246
Si Si7 0.489367 0.323491 0.234022
Si Si8 0.740458 0.317899 0.991515
O O1 0.195539 0.771165 0.075153
O O2 0.038997 0.761263 0.136903
O O3 0.092722 0.000000 0.042962
O O4 0.079134 0.720936 0.972929
O O5 0.043943 0.500000 0.859387
O O6 0.118520 0.756049 0.809698
O O7 0.313308 0.500000 0.687056
O O8 0.263986 0.776509 0.739350
O O9 0.379076 0.754068 0.616510
O O10 0.412009 0.679855 0.778578
O O11 0.448698 0.786470 0.163308
O O12 0.349086 0.716804 0.039487
O O13 0.405496 0.000000 0.051300
O O14 0.500000 0.765644 0.000000
O O15 0.208643 0.000000 0.842762
O O16 0.250165 0.264395 0.908582
O O17 0.500000 0.246382 0.500000
O O18 0.531555 0.256153 0.668149
O O19 0.473610 0.000000 0.600583
O O20 0.456228 0.500000 0.225690
O O21 0.758217 0.500000 0.985237
#
# Coordination Sequence:
#
# PCOD8057070 Si02
#       8
#     4   4   4   4   4   4   4   4
#     4  10  17  28  41  56  75  99 136 175 214 253
#     4  10  17  26  40  56  77 102 134 171 214 255
#     4   9  18  29  43  61  84 109 138 172 210 253
#     4  11  22  33  45  60  82 113 149 186 221 255
#     4  11  19  28  41  59  82 109 142 177 215 255
#     4   9  17  30  48  67  86 111 142 176 215 260
#     4   9  19  31  45  62  84 111 143 180 216 255
#     4  11  21  31  43  57  79 108 144 181 218 255
#
# _framework density 14.883133000000001
#
# number of rings (size 3 to 8) (size 9 to 14) (size 15 to 20)
#    0.750    1.250    0.000    8.625    0.000    4.000 
#    0.000    0.000    0.000    0.000    0.000    0.000 
#    0.000    0.000    0.000    1.125    0.000   20.750 
#
# Total GULP energy -396573.230095 kJ/mol
# GULP energy per Si atom -12392.913440 kJ/mol
# Density = 1.484926 g / cm^3
# Si number density = 14.883133 Si / 1000 Ang^3
#
#
#
# Elastic Constant Matrix: (Units=GPa)
#
#
# Indices 1 2 3 4 5 6 
#
# 1 72.5975 27.4678 37.5350 0.0000 -24.6780 0.0000
# 2 27.4678 79.9215 21.6255 0.0000 -10.0367 0.0000
# 3 37.5350 21.6255 79.7069 0.0000 -16.4697 0.0000
# 4 0.0000 0.0000 0.0000 16.5709 0.0000 -4.9079
# 5 -24.6780 -10.0367 -16.4697 0.0000 21.8852 0.0000
# 6 0.0000 0.0000 0.0000 -4.9079 0.0000 24.9208
#
#
#
# Elastic Compliance Matrix: (Units=1/GPa)
#
#
# Indices 1 2 3 4 5 6 
#
# 1 0.026755 -0.004505 -0.006596 0.000000 0.023140 0.000000
# 2 -0.004505 0.014575 -0.001778 0.000000 0.000267 0.000000
# 3 -0.006596 -0.001778 0.017086 0.000000 0.004605 0.000000
# 4 0.000000 0.000000 0.000000 0.064085 0.000000 0.012621
# 5 0.023140 0.000267 0.004605 0.000000 0.075374 0.000000
# 6 0.000000 0.000000 0.000000 0.012621 0.000000 0.042613
#
#
# Mechanical properties :
#
#
# Convention : Reuss Voigt Hill
#
# Bulk Modulus (GPa) = 30.61924 45.05361 37.83643
# Shear Modulus (GPa) = 18.04205 22.38190 20.21197
#
# Velocity S-wave (km/s) = 3.48551 3.88215 3.68916
# Velocity P-wave (km/s) = 6.06763 7.10155 6.60486
#
# Compressibility (1/GPa) = 0.03265921
#
# Stress axis : x y z
#
# Youngs Moduli (GPa) = 37.37609 68.61040 58.52765
#
# Poissons Ratio (x) = 0.30907 0.38604
# Poissons Ratio (y) = 0.16837 0.10406
# Poissons Ratio (z) = 0.24652 0.12199
#
# Static dielectric constant tensor:
#      x y z
#    x 3.121270 0.000000 -0.426350 
#    y 0.000000 2.936100 0.000000 
#    z -0.426350 0.000000 2.650680 
# 
# 
# High freq. dielectric constant tensor:
#      x y z
#    x 1.551130 0.000000 -0.037120 
#    y 0.000000 1.593340 0.000000 
#    z -0.037120 0.000000 1.521490 
# 
# From -- ./inp_files/77393.got.cif
#   From: 2010.06.25/outbox.cif.g09.slc.cpg/sg10_39_cif.got.tgz:77393.got - 2010.06.27 22:07:45.
