data_PCOD8057722
_publ_section_title
;
Structure prediction by ZEFSAII (Michael W. Deem and Ramdas Pophale) SiO2 
 PCOD8057722
Probable space group: P 2/M
;
_chemical_formula_sum "Si O2"
_cell_formula_units_Z 32
_cell_length_a 23.749874
_cell_length_b 8.936781
_cell_length_c 29.814373
_cell_angle_alpha 90.000000
_cell_angle_beta 16.073710
_cell_angle_gamma 90.000000
_cell_volume 1752.063836
_symmetry_space_group_name_H-M "P 2/M"
_symmetry_group_IT_number 10
_symmetry_cell_setting 'monoclinic'
loop_
_space_group_symop_operation_xyz
x,y,z
-x,y,-z
-x,-y,-z
x,-y,z
loop_
_atom_site_type_symbol
_atom_site_label
_atom_site_fract_x
_atom_site_fract_y
_atom_site_fract_z
Si Si1 0.021266 0.822640 0.264829
Si Si2 0.193006 0.173643 0.480549
Si Si3 0.029741 0.672296 0.867419
Si Si4 0.620138 0.323528 0.053100
Si Si5 0.841094 0.675728 0.585587
Si Si6 0.392208 0.830771 0.630308
Si Si7 0.244003 0.327377 0.608153
Si Si8 0.343917 0.175433 0.880798
O O1 0.937196 0.772731 0.377470
O O2 0.872231 0.761734 0.341100
O O3 0.035021 0.000000 0.249822
O O4 0.245454 0.750549 0.088947
O O5 0.110758 0.257535 0.499804
O O6 0.428836 0.210780 0.309956
O O7 0.164509 0.000000 0.492696
O O8 0.999773 0.500000 0.903289
O O9 0.175555 0.748016 0.792673
O O10 0.123869 0.691560 0.746259
O O11 0.812687 0.756335 0.035360
O O12 0.657764 0.500000 0.025390
O O13 0.385107 0.281765 0.224622
O O14 0.697517 0.256386 0.040496
O O15 0.867190 0.500000 0.560997
O O16 0.000000 0.741811 0.500000
O O17 0.500000 0.829390 0.500000
O O18 0.531030 0.742388 0.559635
O O19 0.358930 0.000000 0.672762
O O20 0.263539 0.500000 0.579380
O O21 0.303987 0.000000 0.917455
#
# Coordination Sequence:
#
# PCOD8057722 Si02
#       8
#     4   4   4   4   4   4   4   4
#     4  11  21  34  52  75 107 140 174 213 257 307
#     4   9  21  37  53  78 107 138 174 213 255 305
#     4  10  18  28  45  71 102 131 170 218 263 310
#     4  10  19  32  52  79 106 133 171 213 254 302
#     4   9  19  37  60  83 107 137 172 210 253 303
#     4   9  17  28  43  66  97 133 174 214 261 312
#     4  10  19  30  46  70 102 135 171 213 263 311
#     4  10  18  31  51  73 100 133 173 217 262 306
#
# _framework density 18.264174000000001
#
# number of rings (size 3 to 8) (size 9 to 14) (size 15 to 20)
#    0.000    2.250    1.250    2.250    0.000    4.750 
#    0.000    0.625    0.000    4.500    0.000    5.250 
#    0.000    0.000    0.000    0.000    0.000    0.000 
#
# Total GULP energy -396852.690960 kJ/mol
# GULP energy per Si atom -12401.646593 kJ/mol
# Density = 1.822260 g / cm^3
# Si number density = 18.264174 Si / 1000 Ang^3
#
#
#
# Elastic Constant Matrix: (Units=GPa)
#
#
# Indices 1 2 3 4 5 6 
#
# 1 67.3863 35.5323 56.9061 0.0000 -10.8682 0.0000
# 2 35.5323 90.8230 47.4699 0.0000 -3.3317 0.0000
# 3 56.9061 47.4699 107.1143 0.0000 -6.7447 0.0000
# 4 0.0000 0.0000 0.0000 22.3340 0.0000 -6.4371
# 5 -10.8682 -3.3317 -6.7447 0.0000 33.4868 0.0000
# 6 0.0000 0.0000 0.0000 -6.4371 0.0000 24.3816
#
#
#
# Elastic Compliance Matrix: (Units=1/GPa)
#
#
# Indices 1 2 3 4 5 6 
#
# 1 0.029371 -0.004309 -0.013290 0.000000 0.006427 0.000000
# 2 -0.004309 0.014962 -0.004392 0.000000 -0.000794 0.000000
# 3 -0.013290 -0.004392 0.018275 0.000000 -0.001069 0.000000
# 4 0.000000 0.000000 0.000000 0.048462 0.000000 0.012795
# 5 0.006427 -0.000794 -0.001069 0.000000 0.031654 0.000000
# 6 0.000000 0.000000 0.000000 0.012795 0.000000 0.044393
#
#
# Mechanical properties :
#
#
# Convention : Reuss Voigt Hill
#
# Bulk Modulus (GPa) = 53.68228 60.57114 57.12671
# Shear Modulus (GPa) = 21.06969 24.40151 22.73560
#
# Velocity S-wave (km/s) = 3.40016 3.65914 3.53203
# Velocity P-wave (km/s) = 6.69856 7.14761 6.92673
#
# Compressibility (1/GPa) = 0.01862812
#
# Stress axis : x y z
#
# Youngs Moduli (GPa) = 34.04691 66.83386 54.71938
#
# Poissons Ratio (x) = 0.28799 0.72720
# Poissons Ratio (y) = 0.14671 0.24031
# Poissons Ratio (z) = 0.45247 0.29351
#
# Static dielectric constant tensor:
#      x y z
#    x 3.217250 0.000000 -0.179700 
#    y 0.000000 3.453700 0.000000 
#    z -0.179700 0.000000 3.492600 
# 
# 
# High freq. dielectric constant tensor:
#      x y z
#    x 1.679330 0.000000 -0.020720 
#    y 0.000000 1.720490 0.000000 
#    z -0.020720 0.000000 1.702800 
# 
# From -- ./inp_files/86982.got.cif
#   From: 2010.06.25/outbox.cif.g09.slc.cpg/sg10_44_cif.got.tgz:86982.got - 2010.06.27 22:07:45.
