data_PCOD8057888
_publ_section_title
;
Structure prediction by ZEFSAII (Michael W. Deem and Ramdas Pophale) SiO2 
 PCOD8057888
Probable space group: P 2/M
;
_chemical_formula_sum "Si O2"
_cell_formula_units_Z 32
_cell_length_a 21.490449
_cell_length_b 8.820880
_cell_length_c 12.366741
_cell_angle_alpha 90.000000
_cell_angle_beta 129.232165
_cell_angle_gamma 90.000000
_cell_volume 1815.868123
_symmetry_space_group_name_H-M "P 2/M"
_symmetry_group_IT_number 10
_symmetry_cell_setting 'monoclinic'
loop_
_space_group_symop_operation_xyz
x,y,z
-x,y,-z
-x,-y,-z
x,-y,z
loop_
_atom_site_type_symbol
_atom_site_label
_atom_site_fract_x
_atom_site_fract_y
_atom_site_fract_z
Si Si1 0.332400 0.321409 0.447008
Si Si2 0.948208 0.823883 0.804541
Si Si3 0.279325 0.320456 0.161750
Si Si4 0.547133 0.320272 0.242856
Si Si5 0.897743 0.678772 0.971662
Si Si6 0.363687 0.679978 0.040453
Si Si7 0.668591 0.177222 0.215408
Si Si8 0.212818 0.825971 0.470603
O O1 0.333404 0.500000 0.440700
O O2 0.327908 0.255846 0.319856
O O3 0.410847 0.264547 0.599002
O O4 0.252124 0.275926 0.421445
O O5 0.908116 0.769146 0.871917
O O6 0.883225 0.796645 0.636999
O O7 0.970622 0.000000 0.839060
O O8 0.029163 0.728632 0.868516
O O9 0.287411 0.500000 0.168103
O O10 0.185917 0.273265 0.065051
O O11 0.318847 0.253249 0.096719
O O12 0.554104 0.500000 0.236855
O O13 0.455764 0.264969 0.145645
O O14 0.590521 0.245491 0.188296
O O15 0.901374 0.500000 0.952545
O O16 0.358347 0.500000 0.029527
O O17 0.319617 0.747524 0.887930
O O18 0.749762 0.215170 0.371639
O O19 0.654734 0.000000 0.186336
O O20 0.232447 0.000000 0.463678
#
# Coordination Sequence:
#
# PCOD8057888 Si02
#       8
#     4   4   4   4   4   4   4   4
#     4   9  16  29  48  71  96 125 158 191 235 285
#     4  10  18  29  47  72  98 124 154 191 235 280
#     4   9  18  31  48  69  99 131 158 192 232 280
#     4   9  18  31  51  74  95 121 158 202 242 282
#     4  10  18  29  46  71 100 128 154 187 229 280
#     4  10  20  34  49  69  96 128 163 198 237 280
#     4  10  20  34  51  71  94 123 161 204 243 279
#     4   9  18  31  48  70  97 124 154 197 242 279
#
# _framework density 17.622423999999999
#
# number of rings (size 3 to 8) (size 9 to 14) (size 15 to 20)
#    0.000    2.500    1.250    2.250    0.000    3.500 
#    0.000    4.375    0.000    0.750    0.000    9.625 
#    0.000    0.000    0.000    0.000    0.000    0.000 
#
# Total GULP energy -396669.774664 kJ/mol
# GULP energy per Si atom -12395.930458 kJ/mol
# Density = 1.758231 g / cm^3
# Si number density = 17.622424 Si / 1000 Ang^3
#
#
#
# Elastic Constant Matrix: (Units=GPa)
#
#
# Indices 1 2 3 4 5 6 
#
# 1 73.1825 14.6327 62.0744 0.0000 -8.1330 0.0000
# 2 14.6327 21.0489 16.0245 0.0000 -0.0334 0.0000
# 3 62.0744 16.0245 129.4139 0.0000 -4.6470 0.0000
# 4 0.0000 0.0000 0.0000 23.9944 0.0000 5.5509
# 5 -8.1330 -0.0334 -4.6470 0.0000 29.6341 0.0000
# 6 0.0000 0.0000 0.0000 5.5509 0.0000 0.9107
#
#
#
# Elastic Compliance Matrix: (Units=1/GPa)
#
#
# Indices 1 2 3 4 5 6 
#
# 1 0.025244 -0.009347 -0.010763 0.000000 0.005230 0.000000
# 2 -0.009347 0.055941 -0.002548 0.000000 -0.002902 0.000000
# 3 -0.010763 -0.002548 0.013173 0.000000 -0.000891 0.000000
# 4 0.000000 0.000000 0.000000 -0.101635 0.000000 0.619477
# 5 0.005230 -0.002902 -0.000891 0.000000 0.035037 0.000000
# 6 0.000000 0.000000 0.000000 0.619477 0.000000 -2.677753
#
#
# Mechanical properties :
#
#
# Convention : Reuss Voigt Hill
#
# Bulk Modulus (GPa) = 20.39032 45.45651 32.92342
# Shear Modulus (GPa) = -1.93175 19.63541 8.85183
#
# Velocity S-wave (km/s) = -1.04813 3.34163 2.24365
# Velocity P-wave (km/s) = 3.18293 6.38274 5.04333
#
# Compressibility (1/GPa) = 0.04904287
#
# Stress axis : x y z
#
# Youngs Moduli (GPa) = 39.61300 17.87594 75.91042
#
# Poissons Ratio (x) = 0.16708 0.81706
# Poissons Ratio (y) = 0.37025 0.19341
# Poissons Ratio (z) = 0.42637 0.04555
#
# Static dielectric constant tensor:
#      x y z
#    x 3.226740 0.000000 0.151730 
#    y 0.000000 3.136510 0.000000 
#    z 0.151730 0.000000 3.696940 
# 
# 
# High freq. dielectric constant tensor:
#      x y z
#    x 1.652280 0.000000 0.018230 
#    y 0.000000 1.669650 0.000000 
#    z 0.018230 0.000000 1.691840 
# 
# From -- ./inp_files/54893.got.cif
#   From: 2010.06.25/outbox.cif.g09.slc.cpg/sg10_28_cif.got.tgz:54893.got - 2010.06.27 22:07:45.
