data_PCOD8057712
_publ_section_title
;
Structure prediction by ZEFSAII (Michael W. Deem and Ramdas Pophale) SiO2 
 PCOD8057712
Probable space group: P 2/M
;
_chemical_formula_sum "Si O2"
_cell_formula_units_Z 32
_cell_length_a 15.471901
_cell_length_b 9.381644
_cell_length_c 14.098132
_cell_angle_alpha 90.000000
_cell_angle_beta 89.999978
_cell_angle_gamma 90.000000
_cell_volume 2046.370184
_symmetry_space_group_name_H-M "P 2/M"
_symmetry_group_IT_number 10
_symmetry_cell_setting 'monoclinic'
loop_
_space_group_symop_operation_xyz
x,y,z
-x,y,-z
-x,-y,-z
x,-y,z
loop_
_atom_site_type_symbol
_atom_site_label
_atom_site_fract_x
_atom_site_fract_y
_atom_site_fract_z
Si Si1 0.500000 0.838990 0.387287
Si Si2 0.900794 0.165375 0.107968
Si Si3 0.000000 0.669454 0.394033
Si Si4 0.664897 0.665335 0.390007
Si Si5 0.164494 0.332086 0.722859
Si Si6 0.664896 0.334666 0.609994
Si Si7 0.835506 0.667914 0.722860
Si Si8 0.099206 0.834625 0.107967
O O1 0.500000 0.836959 0.500000
O O2 0.585012 0.757476 0.350624
O O3 0.414988 0.757477 0.350624
O O4 0.500000 0.000000 0.347580
O O5 0.838294 0.256643 0.175131
O O6 0.000000 0.212783 0.123218
O O7 0.889833 0.000000 0.132634
O O8 0.872703 0.195583 0.000000
O O9 0.000000 0.500000 0.398979
O O10 0.915039 0.724896 0.340249
O O11 0.000000 0.733604 0.500000
O O12 0.084962 0.724896 0.340249
O O13 0.641815 0.500000 0.375728
O O14 0.747919 0.711268 0.329918
O O15 0.684748 0.697617 0.500000
O O16 0.158254 0.500000 0.738878
O O17 0.641813 0.500000 0.624272
O O18 0.747918 0.288733 0.670084
O O19 0.841746 0.500000 0.738879
O O20 0.838294 0.743357 0.824870
O O21 0.110167 0.000000 0.132634
#
# Coordination Sequence:
#
# PCOD8057712 Si02
#       8
#     4   4   4   4   4   4   4   4
#     4   9  17  29  45  65  88 117 154 193 227 258
#     4   9  18  32  47  62  85 119 154 189 231 272
#     4   9  16  26  40  61  92 124 151 179 212 255
#     4   9  17  29  45  66  93 123 152 183 223 270
#     4  10  18  28  45  69  91 117 153 189 223 260
#     4   9  17  29  45  66  93 123 152 183 223 270
#     4  10  18  28  45  69  91 117 153 189 223 260
#     4   9  18  32  47  62  85 119 154 189 231 272
#
# _framework density 15.637445
#
# number of rings (size 3 to 8) (size 9 to 14) (size 15 to 20)
#    0.000    2.750    1.250    1.875    0.000    6.000 
#    0.000    1.250    0.000    3.000    0.000    0.875 
#    0.000    7.000    0.000    0.000    0.000    0.000 
#
# Total GULP energy -396810.643268 kJ/mol
# GULP energy per Si atom -12400.332602 kJ/mol
# Density = 1.560185 g / cm^3
# Si number density = 15.637445 Si / 1000 Ang^3
#
#
#
# Elastic Constant Matrix: (Units=GPa)
#
#
# Indices 1 2 3 4 5 6 
#
# 1 132.8353 57.6584 57.3433 0.0000 0.0006 0.0000
# 2 57.6584 57.4653 42.1092 0.0000 0.0003 0.0000
# 3 57.3433 42.1092 90.3461 0.0000 0.0005 0.0000
# 4 0.0000 0.0000 0.0000 22.3283 0.0000 0.0000
# 5 0.0006 0.0003 0.0005 0.0000 12.8710 0.0000
# 6 0.0000 0.0000 0.0000 0.0000 0.0000 20.4815
#
#
#
# Elastic Compliance Matrix: (Units=1/GPa)
#
#
# Indices 1 2 3 4 5 6 
#
# 1 0.014054 -0.011488 -0.003566 0.000000 0.000000 0.000000
# 2 -0.011488 0.035819 -0.009403 0.000000 0.000000 0.000000
# 3 -0.003566 -0.009403 0.017714 0.000000 0.000000 0.000000
# 4 0.000000 0.000000 0.000000 0.044786 0.000000 0.000000
# 5 0.000000 0.000000 0.000000 0.000000 0.077694 0.000000
# 6 0.000000 0.000000 0.000000 0.000000 0.000000 0.048825
#
#
# Mechanical properties :
#
#
# Convention : Reuss Voigt Hill
#
# Bulk Modulus (GPa) = 53.55238 66.09651 59.82445
# Shear Modulus (GPa) = 17.00503 19.37189 18.18846
#
# Velocity S-wave (km/s) = 3.30124 3.52350 3.41418
# Velocity P-wave (km/s) = 6.98938 7.67550 7.34046
#
# Compressibility (1/GPa) = 0.01867331
#
# Stress axis : x y z
#
# Youngs Moduli (GPa) = 71.15415 27.91796 56.45157
#
# Poissons Ratio (x) = 0.32073 0.20128
# Poissons Ratio (y) = 0.81745 0.53082
# Poissons Ratio (z) = 0.25370 0.26252
#
# Static dielectric constant tensor:
#      x y z
#    x 2.956480 0.000000 0.000000 
#    y 0.000000 2.851880 0.000000 
#    z 0.000000 0.000000 2.842320 
# 
# 
# High freq. dielectric constant tensor:
#      x y z
#    x 1.591030 0.000000 0.000000 
#    y 0.000000 1.589150 0.000000 
#    z 0.000000 0.000000 1.580660 
# 
# From -- ./inp_files/29108.got.cif
#   From: 2010.06.25/outbox.cif.g09.slc.cpg/sg10_15_cif.got.tgz:29108.got - 2010.06.27 22:07:45.
