data_PCOD8057947
_publ_section_title
;
Structure prediction by ZEFSAII (Michael W. Deem and Ramdas Pophale) SiO2 
 PCOD8057947
Probable space group: P 2/M
;
_chemical_formula_sum "Si O2"
_cell_formula_units_Z 24
_cell_length_a 5.629396
_cell_length_b 21.821212
_cell_length_c 12.518353
_cell_angle_alpha 90.000000
_cell_angle_beta 49.070005
_cell_angle_gamma 90.000000
_cell_volume 1161.792117
_symmetry_space_group_name_H-M "P 2/M"
_symmetry_group_IT_number 10
_symmetry_cell_setting 'monoclinic'
loop_
_space_group_symop_operation_xyz
x,y,z
-x,y,-z
-x,-y,-z
x,-y,z
loop_
_atom_site_type_symbol
_atom_site_label
_atom_site_fract_x
_atom_site_fract_y
_atom_site_fract_z
Si Si1 0.594457 0.746741 0.858579
Si Si2 0.473382 0.381068 0.836101
Si Si3 0.221200 0.185169 0.658056
Si Si4 0.037388 0.427598 0.153948
Si Si5 0.922129 0.068899 0.645740
Si Si6 0.682711 0.863322 0.141932
O O1 0.491158 0.692501 0.808716
O O2 0.409075 0.810831 0.914316
O O3 0.957454 0.762722 0.728652
O O4 0.500000 0.717586 0.000000
O O5 0.825559 0.403927 0.770739
O O6 0.328434 0.408988 0.767459
O O7 0.242881 0.398762 0.999700
O O8 0.500000 0.208505 0.500000
O O9 0.322169 0.176693 0.749392
O O10 0.120895 0.116840 0.653846
O O11 0.068190 0.500000 0.143693
O O12 0.554602 0.080125 0.777337
O O13 0.000000 0.079391 0.500000
O O14 0.008913 0.000000 0.656563
O O15 0.000000 0.892331 0.000000
#
# Coordination Sequence:
#
# PCOD8057947 Si02
#       6
#     4   4   4   4   4   4
#     4  11  22  35  56  85 114 156 197 244 295 365
#     4  10  19  29  49  75 116 159 200 243 298 366
#     4  11  23  40  60  85 116 153 195 245 303 357
#     4  10  18  29  47  76 119 160 198 250 306 356
#     4  10  22  40  61  88 114 148 200 244 295 369
#     4  11  23  37  61  84 119 152 192 242 305 356
#
# _framework density 20.657741000000001
#
# number of rings (size 3 to 8) (size 9 to 14) (size 15 to 20)
#    0.000    1.500    5.000    2.500    4.667    1.333 
#    0.000    0.833    0.000    0.000    0.000    0.000 
#    0.000    7.333    0.000    0.000    0.000    0.000 
#
# Total GULP energy -297314.575366 kJ/mol
# GULP energy per Si atom -12388.107307 kJ/mol
# Density = 2.061072 g / cm^3
# Si number density = 20.657741 Si / 1000 Ang^3
#
#
#
# Elastic Constant Matrix: (Units=GPa)
#
#
# Indices 1 2 3 4 5 6 
#
# 1 117.7094 21.7579 18.2112 0.0000 -7.7025 0.0000
# 2 21.7579 116.2846 13.3699 0.0000 -12.5164 0.0000
# 3 18.2112 13.3699 91.0829 0.0000 -21.3779 0.0000
# 4 0.0000 0.0000 0.0000 9.1008 0.0000 -6.1964
# 5 -7.7025 -12.5164 -21.3779 0.0000 26.4721 0.0000
# 6 0.0000 0.0000 0.0000 -6.1964 0.0000 37.4513
#
#
#
# Elastic Compliance Matrix: (Units=1/GPa)
#
#
# Indices 1 2 3 4 5 6 
#
# 1 0.009032 -0.001441 -0.001403 0.000000 0.000813 0.000000
# 2 -0.001441 0.009302 -0.000177 0.000000 0.003836 0.000000
# 3 -0.001403 -0.000177 0.013782 0.000000 0.010638 0.000000
# 4 0.000000 0.000000 0.000000 0.123830 0.000000 0.020488
# 5 0.000813 0.003836 0.010638 0.000000 0.048417 0.000000
# 6 0.000000 0.000000 0.000000 0.020488 0.000000 0.030091
#
#
# Mechanical properties :
#
#
# Convention : Reuss Voigt Hill
#
# Bulk Modulus (GPa) = 38.35233 47.97274 43.16253
# Shear Modulus (GPa) = 20.06506 32.72071 26.39288
#
# Velocity S-wave (km/s) = 3.11996 3.98420 3.57827
# Velocity P-wave (km/s) = 5.62004 6.66620 6.16535
#
# Compressibility (1/GPa) = 0.02607404
#
# Stress axis : x y z
#
# Youngs Moduli (GPa) = 110.71456 107.49809 72.55592
#
# Poissons Ratio (x) = 0.15492 0.10183
# Poissons Ratio (y) = 0.15955 0.01284
# Poissons Ratio (z) = 0.15539 0.01903
#
# Static dielectric constant tensor:
#      x y z
#    x 4.413780 0.000000 -0.248700 
#    y 0.000000 3.642430 0.000000 
#    z -0.248700 0.000000 3.186750 
# 
# 
# High freq. dielectric constant tensor:
#      x y z
#    x 1.821960 0.000000 -0.004470 
#    y 0.000000 1.812130 0.000000 
#    z -0.004470 0.000000 1.757520 
# 
# From -- ./inp_files/39924.got.cif
#   From: 2010.06.25/outbox.cif.g09.slc.cpg/sg10_20_cif.got.tgz:39924.got - 2010.06.27 22:07:45.
