data_PCOD8057026
_publ_section_title
;
Structure prediction by ZEFSAII (Michael W. Deem and Ramdas Pophale) SiO2 
 PCOD8057026
Probable space group: P 2/M
;
_chemical_formula_sum "Si O2"
_cell_formula_units_Z 32
_cell_length_a 16.784362
_cell_length_b 9.391395
_cell_length_c 14.773305
_cell_angle_alpha 90.000000
_cell_angle_beta 63.890188
_cell_angle_gamma 90.000000
_cell_volume 2091.056842
_symmetry_space_group_name_H-M "P 2/M"
_symmetry_group_IT_number 10
_symmetry_cell_setting 'monoclinic'
loop_
_space_group_symop_operation_xyz
x,y,z
-x,y,-z
-x,-y,-z
x,-y,z
loop_
_atom_site_type_symbol
_atom_site_label
_atom_site_fract_x
_atom_site_fract_y
_atom_site_fract_z
Si Si1 0.746201 0.668292 0.947779
Si Si2 0.453696 0.330468 0.273151
Si Si3 0.898022 0.165227 0.947531
Si Si4 0.746200 0.331708 0.306020
Si Si5 0.412456 0.669330 0.096801
Si Si6 0.649928 0.331695 0.175037
Si Si7 0.412457 0.330671 0.490742
Si Si8 0.101979 0.834773 0.845552
O O1 0.762872 0.500000 0.935541
O O2 0.840904 0.747490 0.901607
O O3 0.680415 0.719938 0.900870
O O4 0.700193 0.721674 0.062113
O O5 0.455352 0.500000 0.272322
O O6 0.407801 0.276294 0.203297
O O7 0.552128 0.265906 0.223934
O O8 0.407802 0.276294 0.388901
O O9 0.000000 0.192595 0.871223
O O10 0.874044 0.000000 0.950911
O O11 0.880354 0.217110 0.059823
O O12 0.762870 0.500000 0.301583
O O13 0.700191 0.278317 0.237695
O O14 0.680415 0.280065 0.418716
O O15 0.840903 0.252511 0.257489
O O16 0.418258 0.500000 0.088925
O O17 0.500000 0.729106 0.000000
O O18 0.641972 0.500000 0.179021
O O19 0.500000 0.270893 0.500000
O O20 0.418261 0.500000 0.492813
O O21 0.125957 0.000000 0.824955
#
# Coordination Sequence:
#
# PCOD8057026 Si02
#       8
#     4   4   4   4   4   4   4   4
#     4  10  17  25  40  64  87 110 141 174 205 238
#     4   9  14  22  34  54  87 120 144 169 201 238
#     4   9  18  31  44  59  82 111 139 167 206 258
#     4  10  17  25  40  64  87 110 141 174 205 238
#     4   9  15  22  35  58  87 115 142 171 203 241
#     4   9  14  20  34  58  87 111 135 168 201 232
#     4   9  15  22  35  58  87 115 142 171 203 241
#     4   9  18  31  44  59  82 111 139 167 206 258
#
# _framework density 15.303267
#
# number of rings (size 3 to 8) (size 9 to 14) (size 15 to 20)
#    0.000    2.750    3.750    0.750    0.000    0.500 
#    0.000    1.250    0.000    0.750    0.000    1.750 
#    0.000    7.000    0.000    0.000    0.000    0.000 
#
# Total GULP energy -396485.552284 kJ/mol
# GULP energy per Si atom -12390.173509 kJ/mol
# Density = 1.526844 g / cm^3
# Si number density = 15.303267 Si / 1000 Ang^3
#
#
#
# Elastic Constant Matrix: (Units=GPa)
#
#
# Indices 1 2 3 4 5 6 
#
# 1 103.7548 29.9962 58.1524 0.0000 -4.0088 0.0000
# 2 29.9962 23.9931 21.8863 0.0000 -7.0245 0.0000
# 3 58.1524 21.8863 102.0711 0.0000 2.5602 0.0000
# 4 0.0000 0.0000 0.0000 7.9366 0.0000 2.1062
# 5 -4.0088 -7.0245 2.5602 0.0000 26.1748 0.0000
# 6 0.0000 0.0000 0.0000 2.1062 0.0000 5.5045
#
#
#
# Elastic Compliance Matrix: (Units=1/GPa)
#
#
# Indices 1 2 3 4 5 6 
#
# 1 0.018308 -0.017064 -0.006744 0.000000 -0.001116 0.000000
# 2 -0.017064 0.074372 -0.006677 0.000000 0.017999 0.000000
# 3 -0.006744 -0.006677 0.015179 0.000000 -0.004309 0.000000
# 4 0.000000 0.000000 0.000000 0.140238 0.000000 -0.053658
# 5 -0.001116 0.017999 -0.004309 0.000000 0.043286 0.000000
# 6 0.000000 0.000000 0.000000 -0.053658 0.000000 0.202199
#
#
# Mechanical properties :
#
#
# Convention : Reuss Voigt Hill
#
# Bulk Modulus (GPa) = 21.32638 49.98764 35.65701
# Shear Modulus (GPa) = 8.76916 15.90879 12.33898
#
# Velocity S-wave (km/s) = 2.39639 3.22773 2.84262
# Velocity P-wave (km/s) = 4.65006 6.82837 5.84164
#
# Compressibility (1/GPa) = 0.04689027
#
# Stress axis : x y z
#
# Youngs Moduli (GPa) = 54.62118 13.44595 65.88128
#
# Poissons Ratio (x) = 0.22944 0.44428
# Poissons Ratio (y) = 0.93205 0.43987
# Poissons Ratio (z) = 0.36834 0.08977
#
# Static dielectric constant tensor:
#      x y z
#    x 3.004230 0.000000 0.032800 
#    y 0.000000 2.433400 0.000000 
#    z 0.032800 0.000000 3.042070 
# 
# 
# High freq. dielectric constant tensor:
#      x y z
#    x 1.580950 0.000000 -0.007100 
#    y 0.000000 1.535250 0.000000 
#    z -0.007100 0.000000 1.572760 
# 
# From -- ./inp_files/67009.got.cif
#   From: 2010.06.25/outbox.cif.g09.slc.cpg/sg10_34_cif.got.tgz:67009.got - 2010.06.27 22:07:45.
