data_PCOD8057280
_publ_section_title
;
Structure prediction by ZEFSAII (Michael W. Deem and Ramdas Pophale) SiO2 
 PCOD8057280
Probable space group: P 2/M
;
_chemical_formula_sum "Si O2"
_cell_formula_units_Z 22
_cell_length_a 11.996621
_cell_length_b 7.507913
_cell_length_c 13.717565
_cell_angle_alpha 90.000000
_cell_angle_beta 98.094500
_cell_angle_gamma 90.000000
_cell_volume 1223.225992
_symmetry_space_group_name_H-M "P 2/M"
_symmetry_group_IT_number 10
_symmetry_cell_setting 'monoclinic'
loop_
_space_group_symop_operation_xyz
x,y,z
-x,y,-z
-x,-y,-z
x,-y,z
loop_
_atom_site_type_symbol
_atom_site_label
_atom_site_fract_x
_atom_site_fract_y
_atom_site_fract_z
Si Si1 0.797011 0.000000 0.737934
Si Si2 0.702360 0.000000 0.925704
Si Si3 0.373107 0.298010 0.954313
Si Si4 0.911959 0.289258 0.628453
Si Si5 0.625370 0.707280 0.272661
Si Si6 0.153341 0.290424 0.592498
Si Si7 0.549941 0.000000 0.735361
O O1 0.856297 0.179815 0.708952
O O2 0.665634 0.000000 0.686832
O O3 0.802307 0.000000 0.857297
O O4 0.711155 0.825618 0.994491
O O5 0.417923 0.000000 0.145802
O O6 0.342250 0.500000 0.977211
O O7 0.354100 0.260099 0.838543
O O8 0.500000 0.253746 0.000000
O O9 0.900817 0.500000 0.648424
O O10 0.848732 0.233350 0.520793
O O11 0.041548 0.225472 0.635051
O O12 0.600582 0.500000 0.292314
O O13 0.735080 0.782792 0.341882
O O14 0.519976 0.821650 0.297756
O O15 0.151650 0.500000 0.598078
#
# Coordination Sequence:
#
# PCOD8057280 Si02
#       7
#     2   2   4   4   4   4   2
#     4  10  22  33  50  75  99 140 177 197 232 305
#     4  10  20  33  43  68 104 130 172 203 226 286
#     4  10  17  28  50  72  95 133 167 201 249 291
#     4   9  18  36  57  75  98 128 167 212 253 292
#     4  10  19  32  52  79 105 127 161 209 259 299
#     4   8  17  34  57  81  99 121 162 217 262 293
#     4  10  21  32  46  71 106 140 164 199 238 295
#
# _framework density 17.985230000000001
#
# number of rings (size 3 to 8) (size 9 to 14) (size 15 to 20)
#    0.545    2.000    1.818    1.909    0.000    4.364 
#    0.000    1.818    0.000    5.455    0.000    5.091 
#    0.000    0.000    0.000    0.000    0.000    0.000 
#
# Total GULP energy -272676.985330 kJ/mol
# GULP energy per Si atom -12394.408424 kJ/mol
# Density = 1.794430 g / cm^3
# Si number density = 17.985230 Si / 1000 Ang^3
#
#
#
# Elastic Constant Matrix: (Units=GPa)
#
#
# Indices 1 2 3 4 5 6 
#
# 1 38.4919 13.2655 -6.5214 0.0000 -7.9039 0.0000
# 2 13.2655 89.4449 21.9458 0.0000 -22.8866 0.0000
# 3 -6.5214 21.9458 36.3099 0.0000 -21.7539 0.0000
# 4 0.0000 0.0000 0.0000 18.3621 0.0000 -11.0424
# 5 -7.9039 -22.8866 -21.7539 0.0000 33.8927 0.0000
# 6 0.0000 0.0000 0.0000 -11.0424 0.0000 21.6871
#
#
#
# Elastic Compliance Matrix: (Units=1/GPa)
#
#
# Indices 1 2 3 4 5 6 
#
# 1 0.034814 -0.005683 0.019908 0.000000 0.017059 0.000000
# 2 -0.005683 0.014887 -0.007782 0.000000 0.003733 0.000000
# 3 0.019908 -0.007782 0.057604 0.000000 0.036360 0.000000
# 4 0.000000 0.000000 0.000000 0.078495 0.000000 0.039967
# 5 0.017059 0.003733 0.036360 0.000000 0.059341 0.000000
# 6 0.000000 0.000000 0.000000 0.039967 0.000000 0.066460
#
#
# Mechanical properties :
#
#
# Convention : Reuss Voigt Hill
#
# Bulk Modulus (GPa) = 8.32013 24.62517 16.47265
# Shear Modulus (GPa) = 14.75886 23.82551 19.29219
#
# Velocity S-wave (km/s) = 2.86774 3.64363 3.27871
# Velocity P-wave (km/s) = 3.94986 5.60562 4.84893
#
# Compressibility (1/GPa) = 0.12019036
#
# Stress axis : x y z
#
# Youngs Moduli (GPa) = 28.72441 67.17097 17.35989
#
# Poissons Ratio (x) = 0.38171 -0.34559
# Poissons Ratio (y) = 0.16323 0.13510
# Poissons Ratio (z) = -0.57184 0.52274
#
# Static dielectric constant tensor:
#      x y z
#    x 3.591320 0.000000 0.372460 
#    y 0.000000 3.273920 0.000000 
#    z 0.372460 0.000000 3.269880 
# 
# 
# High freq. dielectric constant tensor:
#      x y z
#    x 1.674620 0.000000 0.008040 
#    y 0.000000 1.704660 0.000000 
#    z 0.008040 0.000000 1.678540 
# 
# From -- ./inp_files/45079.got.cif
#   From: 2010.06.25/outbox.cif.g09.slc.cpg/sg10_23_cif.got.tgz:45079.got - 2010.06.27 22:07:45.
