data_PCOD8057246
_publ_section_title
;
Structure prediction by ZEFSAII (Michael W. Deem and Ramdas Pophale) SiO2 
 PCOD8057246
Probable space group: P 2/M
;
_chemical_formula_sum "Si O2"
_cell_formula_units_Z 20
_cell_length_a 5.223211
_cell_length_b 16.744961
_cell_length_c 13.417962
_cell_angle_alpha 90.000000
_cell_angle_beta 100.580727
_cell_angle_gamma 90.000000
_cell_volume 1153.614048
_symmetry_space_group_name_H-M "P 2/M"
_symmetry_group_IT_number 10
_symmetry_cell_setting 'monoclinic'
loop_
_space_group_symop_operation_xyz
x,y,z
-x,y,-z
-x,-y,-z
x,-y,z
loop_
_atom_site_type_symbol
_atom_site_label
_atom_site_fract_x
_atom_site_fract_y
_atom_site_fract_z
Si Si1 0.630211 0.654299 0.112484
Si Si2 0.223025 0.405065 0.444001
Si Si3 0.822576 0.407505 0.785014
Si Si4 0.727731 0.093512 0.888076
Si Si5 0.228671 0.838340 0.886179
O O1 0.409014 0.642094 0.179894
O O2 0.723645 0.745006 0.116692
O O3 0.891389 0.602897 0.146981
O O4 0.500000 0.627368 0.000000
O O5 0.500000 0.370683 0.500000
O O6 0.223240 0.500000 0.450669
O O7 0.164377 0.377111 0.327635
O O8 0.000000 0.369519 0.500000
O O9 0.743354 0.500000 0.786219
O O10 0.436044 0.114863 0.830639
O O11 0.937118 0.137308 0.830653
O O12 0.782057 0.000000 0.894250
O O13 0.748384 0.130974 0.999265
#
# Coordination Sequence:
#
# PCOD8057246 Si02
#       5
#     4   4   4   4   4
#     4  12  23  35  50  64 100 144 174 206 232 279
#     4   9  17  33  56  75  91 109 141 207 278 318
#     4  11  24  37  51  73  93 123 178 218 248 292
#     4  10  17  28  47  67  85 112 169 217 233 268
#     4  10  18  29  43  64  88 123 164 200 229 288
#
# _framework density 17.336821
#
# number of rings (size 3 to 8) (size 9 to 14) (size 15 to 20)
#    0.000    1.600    2.000    6.600    2.800    5.600 
#    0.000    0.000    0.000    0.000    0.000    0.000 
#    0.000    0.000    0.000    0.000    0.000  412.000 
#
# Total GULP energy -247872.244664 kJ/mol
# GULP energy per Si atom -12393.612233 kJ/mol
# Density = 1.729736 g / cm^3
# Si number density = 17.336821 Si / 1000 Ang^3
#
#
#
# Elastic Constant Matrix: (Units=GPa)
#
#
# Indices 1 2 3 4 5 6 
#
# 1 180.4386 24.2196 40.9134 0.0000 -5.8411 0.0000
# 2 24.2196 47.1136 31.1438 0.0000 3.8765 0.0000
# 3 40.9134 31.1438 67.6883 0.0000 -5.1382 0.0000
# 4 0.0000 0.0000 0.0000 0.7190 0.0000 -5.0178
# 5 -5.8411 3.8765 -5.1382 0.0000 20.2594 0.0000
# 6 0.0000 0.0000 0.0000 -5.0178 0.0000 33.7236
#
#
#
# Elastic Compliance Matrix: (Units=1/GPa)
#
#
# Indices 1 2 3 4 5 6 
#
# 1 0.006491 -0.001317 -0.003218 0.000000 0.001307 0.000000
# 2 -0.001317 0.032709 -0.015047 0.000000 -0.010455 0.000000
# 3 -0.003218 -0.015047 0.024257 0.000000 0.008103 0.000000
# 4 0.000000 0.000000 0.000000-36.216843 0.000000 -5.388805
# 5 0.001307 -0.010455 0.008103 0.000000 0.053792 0.000000
# 6 0.000000 0.000000 0.000000 -5.388805 0.000000 -0.772162
#
#
# Mechanical properties :
#
#
# Convention : Reuss Voigt Hill
#
# Bulk Modulus (GPa) = 41.16490 54.19935 47.68213
# Shear Modulus (GPa) = -0.13578 24.20464 12.03443
#
# Velocity S-wave (km/s) = -0.28016 3.74055 2.63754
# Velocity P-wave (km/s) = 4.86735 7.07008 6.06948
#
# Compressibility (1/GPa) = 0.02429254
#
# Stress axis : x y z
#
# Youngs Moduli (GPa) = 154.06347 30.57225 41.22472
#
# Poissons Ratio (x) = 0.04026 0.13267
# Poissons Ratio (y) = 0.20290 0.62032
# Poissons Ratio (z) = 0.49580 0.46003
#
# Static dielectric constant tensor:
#      x y z
#    x 1.115700 0.000000 0.341800 
#    y 0.000000 3.049470 0.000000 
#    z 0.341800 0.000000 2.876900 
# 
# 
# High freq. dielectric constant tensor:
#      x y z
#    x 1.713690 0.000000 -0.006000 
#    y 0.000000 1.649490 0.000000 
#    z -0.006000 0.000000 1.606980 
# 
# From -- ./inp_files/6721.got.cif
#   From: 2010.06.25/outbox.cif.g09.slc.cpg/sg10_4_cif.got.tgz:6721.got - 2010.06.27 22:07:45.
