data_PCOD8057480
_publ_section_title
;
Structure prediction by ZEFSAII (Michael W. Deem and Ramdas Pophale) SiO2 
 PCOD8057480
Probable space group: P 2/M
;
_chemical_formula_sum "Si O2"
_cell_formula_units_Z 28
_cell_length_a 19.256201
_cell_length_b 14.471985
_cell_length_c 9.141012
_cell_angle_alpha 90.000000
_cell_angle_beta 150.585750
_cell_angle_gamma 90.000000
_cell_volume 1251.068193
_symmetry_space_group_name_H-M "P 2/M"
_symmetry_group_IT_number 10
_symmetry_cell_setting 'monoclinic'
loop_
_space_group_symop_operation_xyz
x,y,z
-x,y,-z
-x,-y,-z
x,-y,z
loop_
_atom_site_type_symbol
_atom_site_label
_atom_site_fract_x
_atom_site_fract_y
_atom_site_fract_z
Si Si1 0.246434 0.106555 0.687984
Si Si2 0.435008 0.212512 0.230841
Si Si3 0.681433 0.206224 0.468401
Si Si4 0.024770 0.794177 0.830567
Si Si5 0.279699 0.598597 0.382992
Si Si6 0.000000 0.646273 0.000000
Si Si7 0.289959 0.394018 0.056449
Si Si8 0.000000 0.313028 0.500000
O O1 0.327123 0.153442 0.699760
O O2 0.076354 0.116331 0.361957
O O3 0.287868 0.000000 0.771000
O O4 0.291985 0.158799 0.921794
O O5 0.500000 0.174351 0.500000
O O6 0.546233 0.179210 0.314169
O O7 0.401396 0.323211 0.184944
O O8 0.661563 0.317591 0.412209
O O9 0.826611 0.181695 0.820092
O O10 0.936370 0.716814 0.760333
O O11 0.056204 0.753458 0.729982
O O12 0.356623 0.500000 0.553608
O O13 0.286988 0.624962 0.225251
O O14 0.116810 0.584342 0.134479
O O15 0.336656 0.500000 0.108706
O O16 0.133454 0.377634 0.702624
#
# Coordination Sequence:
#
# PCOD8057480 Si02
#       8
#     4   4   4   4   4   2   4   2
#     4  12  27  48  75 101 131 178 234 291 356 423
#     4  12  25  46  71  99 142 184 224 285 343 409
#     4  11  23  44  68 102 137 184 222 283 349 404
#     4  11  21  40  73  98 135 173 226 286 348 407
#     4  10  19  34  60  98 135 176 225 271 327 396
#     4  10  17  36  59  96 132 180 215 270 331 394
#     4  11  23  38  67 104 142 188 234 275 333 410
#     4  12  19  40  65 102 144 182 225 284 345 398
#
# _framework density 22.380873999999999
#
# number of rings (size 3 to 8) (size 9 to 14) (size 15 to 20)
#    0.000    0.857    8.571    0.857    0.000    3.429 
#    0.000    2.500    0.000    1.714    0.000    0.000 
#    0.000    0.000    0.000    0.000    0.000    0.000 
#
# Total GULP energy -346950.302387 kJ/mol
# GULP energy per Si atom -12391.082228 kJ/mol
# Density = 2.232993 g / cm^3
# Si number density = 22.380874 Si / 1000 Ang^3
#
#
#
# Elastic Constant Matrix: (Units=GPa)
#
#
# Indices 1 2 3 4 5 6 
#
# 1 76.4768 30.6757 30.3604 0.0000 -2.3243 0.0000
# 2 30.6757 135.7528 31.9302 0.0000 -16.9323 0.0000
# 3 30.3604 31.9302 100.9492 0.0000 -7.2436 0.0000
# 4 0.0000 0.0000 0.0000 16.2244 0.0000 -3.7246
# 5 -2.3243 -16.9323 -7.2436 0.0000 34.1524 0.0000
# 6 0.0000 0.0000 0.0000 -3.7246 0.0000 25.0937
#
#
#
# Elastic Compliance Matrix: (Units=1/GPa)
#
#
# Indices 1 2 3 4 5 6 
#
# 1 0.015712 -0.002767 -0.003932 0.000000 -0.001137 0.000000
# 2 -0.002767 0.008871 -0.001697 0.000000 0.003850 0.000000
# 3 -0.003932 -0.001697 0.011724 0.000000 0.001378 0.000000
# 4 0.000000 0.000000 0.000000 0.063810 0.000000 0.009471
# 5 -0.001137 0.003850 0.001378 0.000000 0.031404 0.000000
# 6 0.000000 0.000000 0.000000 0.009471 0.000000 0.041256
#
#
# Mechanical properties :
#
#
# Convention : Reuss Voigt Hill
#
# Bulk Modulus (GPa) = 51.24398 55.45681 53.35039
# Shear Modulus (GPa) = 25.50040 29.77494 27.63767
#
# Velocity S-wave (km/s) = 3.37914 3.65139 3.51790
# Velocity P-wave (km/s) = 6.17825 6.52758 6.35532
#
# Compressibility (1/GPa) = 0.01951449
#
# Stress axis : x y z
#
# Youngs Moduli (GPa) = 63.64485 112.72551 85.29417
#
# Poissons Ratio (x) = 0.31196 0.33535
# Poissons Ratio (y) = 0.17613 0.14478
# Poissons Ratio (z) = 0.25023 0.19134
#
# Static dielectric constant tensor:
#      x y z
#    x 4.224930 0.000000 -0.028680 
#    y 0.000000 3.740860 0.000000 
#    z -0.028680 0.000000 4.012370 
# 
# 
# High freq. dielectric constant tensor:
#      x y z
#    x 1.888630 0.000000 0.007380 
#    y 0.000000 1.854320 0.000000 
#    z 0.007380 0.000000 1.873750 
# 
# From -- ./inp_files/35327.got.cif
#   From: 2010.06.25/outbox.cif.g09.slc.cpg/sg10_18_cif.got.tgz:35327.got - 2010.06.27 22:07:45.
