data_PCOD8057500
_publ_section_title
;
Structure prediction by ZEFSAII (Michael W. Deem and Ramdas Pophale) SiO2 
 PCOD8057500
Probable space group: P 2/M
;
_chemical_formula_sum "Si O2"
_cell_formula_units_Z 32
_cell_length_a 20.365525
_cell_length_b 9.159462
_cell_length_c 28.154111
_cell_angle_alpha 90.000000
_cell_angle_beta 156.891978
_cell_angle_gamma 90.000000
_cell_volume 2061.148674
_symmetry_space_group_name_H-M "P 2/M"
_symmetry_group_IT_number 10
_symmetry_cell_setting 'monoclinic'
loop_
_space_group_symop_operation_xyz
x,y,z
-x,y,-z
-x,-y,-z
x,-y,z
loop_
_atom_site_type_symbol
_atom_site_label
_atom_site_fract_x
_atom_site_fract_y
_atom_site_fract_z
Si Si1 0.304588 0.667129 0.150120
Si Si2 0.029064 0.171370 0.907476
Si Si3 0.823139 0.163237 0.855784
Si Si4 0.677188 0.827606 0.171106
Si Si5 0.524571 0.664677 0.212515
Si Si6 0.701826 0.172813 0.082809
Si Si7 0.185630 0.671127 0.931117
Si Si8 0.821166 0.826586 0.364129
O O1 0.239926 0.500000 0.106255
O O2 0.310402 0.725667 0.208586
O O3 0.481903 0.677574 0.240524
O O4 0.180543 0.772228 0.039975
O O5 0.856670 0.201365 0.822304
O O6 0.053276 0.000000 0.914313
O O7 0.034115 0.257062 0.860761
O O8 0.750219 0.000000 0.811692
O O9 0.000000 0.175208 0.000000
O O10 0.755253 0.781863 0.172130
O O11 0.788968 0.768034 0.289037
O O12 0.666960 0.000000 0.165736
O O13 0.487865 0.770859 0.051116
O O14 0.578328 0.500000 0.235630
O O15 0.362416 0.708355 0.073592
O O16 0.677570 0.771036 0.303727
O O17 0.719545 0.000000 0.086078
O O18 0.819943 0.258661 0.124903
O O19 0.152658 0.500000 0.905856
O O20 0.000000 0.765283 0.500000
O O21 0.817639 0.000000 0.363673
#
# Coordination Sequence:
#
# PCOD8057500 Si02
#       8
#     4   4   4   4   4   4   4   4
#     4   9  16  24  35  51  71  96 129 166 199 229
#     4   9  16  24  34  49  72 102 133 160 191 234
#     4   8  14  23  33  48  69  96 131 162 190 229
#     4   8  15  27  42  61  78  97 130 163 198 244
#     4   9  18  29  38  53  77 103 131 162 199 242
#     4   9  15  26  44  58  75 104 131 160 198 239
#     4  10  18  26  37  57  80 101 131 168 200 231
#     4  10  19  30  45  62  78  99 131 171 206 236
#
# _framework density 15.525325
#
# number of rings (size 3 to 8) (size 9 to 14) (size 15 to 20)
#    0.000    3.000    1.250    3.375    0.000    5.500 
#    0.000    1.875    0.000    0.000    0.000    0.000 
#    0.000    0.000    0.000    1.125    0.000   23.625 
#
# Total GULP energy -396466.111857 kJ/mol
# GULP energy per Si atom -12389.565996 kJ/mol
# Density = 1.548999 g / cm^3
# Si number density = 15.525325 Si / 1000 Ang^3
#
#
#
# Elastic Constant Matrix: (Units=GPa)
#
#
# Indices 1 2 3 4 5 6 
#
# 1 153.3291 56.4958 29.7849 0.0000 5.3300 0.0000
# 2 56.4958 63.9586 14.5492 0.0000 4.0137 0.0000
# 3 29.7849 14.5492 37.4495 0.0000 -5.7247 0.0000
# 4 0.0000 0.0000 0.0000 9.0885 0.0000 5.8579
# 5 5.3300 4.0137 -5.7247 0.0000 11.5604 0.0000
# 6 0.0000 0.0000 0.0000 5.8579 0.0000 21.1382
#
#
#
# Elastic Compliance Matrix: (Units=1/GPa)
#
#
# Indices 1 2 3 4 5 6 
#
# 1 0.010816 -0.007747 -0.006431 0.000000 -0.005481 0.000000
# 2 -0.007747 0.023843 -0.004133 0.000000 -0.006753 0.000000
# 3 -0.006431 -0.004133 0.036888 0.000000 0.022667 0.000000
# 4 0.000000 0.000000 0.000000 0.133956 0.000000 -0.037123
# 5 -0.005481 -0.006753 0.022667 0.000000 0.102598 0.000000
# 6 0.000000 0.000000 0.000000 -0.037123 0.000000 0.057595
#
#
# Mechanical properties :
#
#
# Convention : Reuss Voigt Hill
#
# Bulk Modulus (GPa) = 28.63364 50.71076 39.67220
# Shear Modulus (GPa) = 12.07846 18.61792 15.34819
#
# Velocity S-wave (km/s) = 2.79226 3.46670 3.14760
# Velocity P-wave (km/s) = 5.37391 6.98270 6.23045
#
# Compressibility (1/GPa) = 0.03492396
#
# Stress axis : x y z
#
# Youngs Moduli (GPa) = 92.45361 41.94187 27.10923
#
# Poissons Ratio (x) = 0.32494 0.17433
# Poissons Ratio (y) = 0.71627 0.11205
# Poissons Ratio (z) = 0.59453 0.17336
#
# Static dielectric constant tensor:
#      x y z
#    x 3.641360 0.000000 0.057130 
#    y 0.000000 2.900940 0.000000 
#    z 0.057130 0.000000 2.488010 
# 
# 
# High freq. dielectric constant tensor:
#      x y z
#    x 1.619130 0.000000 0.011590 
#    y 0.000000 1.593130 0.000000 
#    z 0.011590 0.000000 1.506650 
# 
# From -- ./inp_files/83228.got.cif
#   From: 2010.06.25/outbox.cif.g09.slc.cpg/sg10_42_cif.got.tgz:83228.got - 2010.06.27 22:07:45.
