data_PCOD8057519
_publ_section_title
;
Structure prediction by ZEFSAII (Michael W. Deem and Ramdas Pophale) SiO2 
 PCOD8057519
Probable space group: P 2/M
;
_chemical_formula_sum "Si O2"
_cell_formula_units_Z 28
_cell_length_a 17.225644
_cell_length_b 9.169652
_cell_length_c 25.983471
_cell_angle_alpha 90.000000
_cell_angle_beta 150.682900
_cell_angle_gamma 90.000000
_cell_volume 2009.577555
_symmetry_space_group_name_H-M "P 2/M"
_symmetry_group_IT_number 10
_symmetry_cell_setting 'monoclinic'
loop_
_space_group_symop_operation_xyz
x,y,z
-x,y,-z
-x,-y,-z
x,-y,z
loop_
_atom_site_type_symbol
_atom_site_label
_atom_site_fract_x
_atom_site_fract_y
_atom_site_fract_z
Si Si1 0.159888 0.165740 0.567728
Si Si2 0.338704 0.670496 0.470313
Si Si3 0.294957 0.165410 0.542301
Si Si4 0.542949 0.326577 0.279939
Si Si5 0.699989 0.329598 0.667254
Si Si6 0.895144 0.831367 0.863870
Si Si7 0.767674 0.169638 0.900317
O O1 0.147653 0.167528 0.497838
O O2 0.311896 0.264997 0.671693
O O3 0.000000 0.231802 0.500000
O O4 0.186351 0.000000 0.602849
O O5 0.319685 0.500000 0.470451
O O6 0.244306 0.761126 0.459248
O O7 0.266706 0.710613 0.373124
O O8 0.522386 0.718849 0.579192
O O9 0.437525 0.259735 0.650892
O O10 0.353467 0.000000 0.566683
O O11 0.546338 0.500000 0.283023
O O12 0.376307 0.268148 0.161659
O O13 0.717755 0.500000 0.685978
O O14 0.829577 0.252359 0.776906
O O15 0.811771 0.779057 0.868175
O O16 0.860079 0.000000 0.835155
O O17 0.083263 0.802483 0.976246
O O18 0.718782 0.000000 0.872677
#
# Coordination Sequence:
#
# PCOD8057519 Si02
#       7
#     4   4   4   4   4   4   4
#     4   8  16  30  44  60  85 113 136 163 203 247
#     4   9  17  29  41  56  79 109 140 171 208 247
#     4   9  17  27  41  60  80 107 138 167 198 242
#     4  10  18  26  40  62  84 108 136 167 200 245
#     4   9  18  29  40  55  80 109 139 174 211 247
#     4   9  18  29  42  57  77 106 143 182 211 239
#     4   9  17  30  42  56  79 108 141 175 211 247
#
# _framework density 13.933278
#
# number of rings (size 3 to 8) (size 9 to 14) (size 15 to 20)
#    0.857    2.143    0.000    3.857    0.000    4.857 
#    0.000    2.857    0.000    0.000    0.000    0.000 
#    0.000    1.143    0.000   12.857    0.000    6.429 
#
# Total GULP energy -346933.710599 kJ/mol
# GULP energy per Si atom -12390.489664 kJ/mol
# Density = 1.390156 g / cm^3
# Si number density = 13.933278 Si / 1000 Ang^3
#
#
#
# Elastic Constant Matrix: (Units=GPa)
#
#
# Indices 1 2 3 4 5 6 
#
# 1 67.5596 37.1404 39.1873 0.0000 6.9457 0.0000
# 2 37.1404 75.0036 42.8783 0.0000 5.3642 0.0000
# 3 39.1873 42.8783 82.5271 0.0000 0.0041 0.0000
# 4 0.0000 0.0000 0.0000 24.1201 0.0000 -3.4972
# 5 6.9457 5.3642 0.0041 0.0000 21.3608 0.0000
# 6 0.0000 0.0000 0.0000 -3.4972 0.0000 18.1121
#
#
#
# Elastic Compliance Matrix: (Units=1/GPa)
#
#
# Indices 1 2 3 4 5 6 
#
# 1 0.023644 -0.006920 -0.007632 0.000000 -0.005949 0.000000
# 2 -0.006920 0.021488 -0.007879 0.000000 -0.003145 0.000000
# 3 -0.007632 -0.007879 0.019834 0.000000 0.004456 0.000000
# 4 0.000000 0.000000 0.000000 0.042653 0.000000 0.008236
# 5 -0.005949 -0.003145 0.004456 0.000000 0.049538 0.000000
# 6 0.000000 0.000000 0.000000 0.008236 0.000000 0.056802
#
#
# Mechanical properties :
#
#
# Convention : Reuss Voigt Hill
#
# Bulk Modulus (GPa) = 49.73497 51.50027 50.61762
# Shear Modulus (GPa) = 18.83084 19.77755 19.30420
#
# Velocity S-wave (km/s) = 3.68027 3.77164 3.72623
# Velocity P-wave (km/s) = 7.33701 7.48394 7.41084
#
# Compressibility (1/GPa) = 0.02010658
#
# Stress axis : x y z
#
# Youngs Moduli (GPa) = 42.29391 46.53722 50.41771
#
# Poissons Ratio (x) = 0.32203 0.38477
# Poissons Ratio (y) = 0.29266 0.39722
# Poissons Ratio (z) = 0.32277 0.36665
#
# Static dielectric constant tensor:
#      x y z
#    x 2.591870 0.000000 -0.006470 
#    y 0.000000 2.659510 0.000000 
#    z -0.006470 0.000000 2.574800 
# 
# 
# High freq. dielectric constant tensor:
#      x y z
#    x 1.505030 0.000000 0.000510 
#    y 0.000000 1.535820 0.000000 
#    z 0.000510 0.000000 1.505830 
# 
# From -- ./inp_files/89885.got.cif
#   From: 2010.06.25/outbox.cif.g09.slc.cpg/sg10_45_cif.got.tgz:89885.got - 2010.06.27 22:07:45.
