data_PCOD8057780
_publ_section_title
;
Structure prediction by ZEFSAII (Michael W. Deem and Ramdas Pophale) SiO2 
 PCOD8057780
Probable space group: P 2/M
;
_chemical_formula_sum "Si O2"
_cell_formula_units_Z 28
_cell_length_a 12.018964
_cell_length_b 14.628250
_cell_length_c 9.809850
_cell_angle_alpha 90.000000
_cell_angle_beta 53.512757
_cell_angle_gamma 90.000000
_cell_volume 1386.666528
_symmetry_space_group_name_H-M "P 2/M"
_symmetry_group_IT_number 10
_symmetry_cell_setting 'monoclinic'
loop_
_space_group_symop_operation_xyz
x,y,z
-x,y,-z
-x,-y,-z
x,-y,z
loop_
_atom_site_type_symbol
_atom_site_label
_atom_site_fract_x
_atom_site_fract_y
_atom_site_fract_z
Si Si1 0.627868 0.397102 0.706498
Si Si2 0.972268 0.595312 0.861772
Si Si3 0.903771 0.894954 0.698229
Si Si4 0.323237 0.362504 0.890848
Si Si5 0.655716 0.762493 0.896464
Si Si6 0.654062 0.714249 0.411663
Si Si7 0.938521 0.212614 0.196542
O O1 0.693653 0.500000 0.668160
O O2 0.462809 0.412426 0.835448
O O3 0.677520 0.330693 0.792155
O O4 0.664979 0.346579 0.538801
O O5 0.038983 0.500000 0.754949
O O6 0.029694 0.688558 0.753516
O O7 0.808346 0.583055 0.958358
O O8 0.000000 0.604446 0.000000
O O9 0.762882 0.839814 0.773944
O O10 0.000000 0.877431 0.500000
O O11 0.989146 0.866069 0.769745
O O12 0.862123 0.000000 0.745992
O O13 0.312514 0.354459 0.735863
O O14 0.318268 0.261581 0.963816
O O15 0.500000 0.801750 0.000000
O O16 0.500000 0.756824 0.500000
O O17 0.770252 0.795111 0.324533
O O18 0.000000 0.206762 0.000000
#
# Coordination Sequence:
#
# PCOD8057780 Si02
#       7
#     4   4   4   4   4   4   4
#     4  10  22  34  51  81 121 159 195 233 278 326
#     4  10  18  28  50  80 112 148 188 227 264 315
#     4  11  24  42  64  87 112 147 186 234 303 362
#     4  10  18  34  54  79 112 155 193 234 267 322
#     4  10  21  39  61  85 114 149 195 240 284 332
#     4  10  20  34  55  82 114 156 191 229 279 327
#     4  11  20  39  61  85 117 146 192 239 278 337
#
# _framework density 20.192309999999999
#
# number of rings (size 3 to 8) (size 9 to 14) (size 15 to 20)
#    0.000    1.714    4.286    1.286    0.000    7.429 
#    0.000    0.000    0.000    2.143    0.000    0.000 
#    0.000    0.000    0.000    0.000    0.000    0.000 
#
# Total GULP energy -346895.958055 kJ/mol
# GULP energy per Si atom -12389.141359 kJ/mol
# Density = 2.014635 g / cm^3
# Si number density = 20.192310 Si / 1000 Ang^3
#
#
#
# Elastic Constant Matrix: (Units=GPa)
#
#
# Indices 1 2 3 4 5 6 
#
# 1 103.2320 50.2447 45.5809 0.0000 -18.2887 0.0000
# 2 50.2447 105.0546 51.1409 0.0000 -6.3525 0.0000
# 3 45.5809 51.1409 89.1037 0.0000 -5.3672 0.0000
# 4 0.0000 0.0000 0.0000 19.4429 0.0000 -0.2263
# 5 -18.2887 -6.3525 -5.3672 0.0000 34.0755 0.0000
# 6 0.0000 0.0000 0.0000 -0.2263 0.0000 17.3220
#
#
#
# Elastic Compliance Matrix: (Units=1/GPa)
#
#
# Indices 1 2 3 4 5 6 
#
# 1 0.015152 -0.004538 -0.004753 0.000000 0.006538 0.000000
# 2 -0.004538 0.014624 -0.006113 0.000000 -0.000672 0.000000
# 3 -0.004753 -0.006113 0.017102 0.000000 -0.000997 0.000000
# 4 0.000000 0.000000 0.000000 0.051440 0.000000 0.000672
# 5 0.006538 -0.000672 -0.000997 0.000000 0.032573 0.000000
# 6 0.000000 0.000000 0.000000 0.000672 0.000000 0.057739
#
#
# Mechanical properties :
#
#
# Convention : Reuss Voigt Hill
#
# Bulk Modulus (GPa) = 62.21894 65.70259 63.96076
# Shear Modulus (GPa) = 22.24237 24.19633 23.21935
#
# Velocity S-wave (km/s) = 3.32253 3.46539 3.39471
# Velocity P-wave (km/s) = 6.75270 6.97288 6.86367
#
# Compressibility (1/GPa) = 0.01607228
#
# Stress axis : x y z
#
# Youngs Moduli (GPa) = 65.99597 68.37960 58.47100
#
# Poissons Ratio (x) = 0.31030 0.27790
# Poissons Ratio (y) = 0.29949 0.35741
# Poissons Ratio (z) = 0.31367 0.41798
#
# Static dielectric constant tensor:
#      x y z
#    x 3.744850 0.000000 -0.013150 
#    y 0.000000 3.493260 0.000000 
#    z -0.013150 0.000000 3.612590 
# 
# 
# High freq. dielectric constant tensor:
#      x y z
#    x 1.801700 0.000000 -0.006320 
#    y 0.000000 1.747210 0.000000 
#    z -0.006320 0.000000 1.784690 
# 
# From -- ./inp_files/25230.got.cif
#   From: 2010.06.25/outbox.cif.g09.slc.cpg/sg10_13_cif.got.tgz:25230.got - 2010.06.27 22:07:45.
