data_PCOD8057961
_publ_section_title
;
Structure prediction by ZEFSAII (Michael W. Deem and Ramdas Pophale) SiO2 
 PCOD8057961
Probable space group: P 2/M
;
_chemical_formula_sum "Si O2"
_cell_formula_units_Z 32
_cell_length_a 14.552338
_cell_length_b 9.087144
_cell_length_c 25.875015
_cell_angle_alpha 90.000000
_cell_angle_beta 147.349772
_cell_angle_gamma 90.000000
_cell_volume 1846.033488
_symmetry_space_group_name_H-M "P 2/M"
_symmetry_group_IT_number 10
_symmetry_cell_setting 'monoclinic'
loop_
_space_group_symop_operation_xyz
x,y,z
-x,y,-z
-x,-y,-z
x,-y,z
loop_
_atom_site_type_symbol
_atom_site_label
_atom_site_fract_x
_atom_site_fract_y
_atom_site_fract_z
Si Si1 0.786134 0.669926 0.713926
Si Si2 0.880656 0.669580 0.646986
Si Si3 0.753597 0.831418 0.437659
Si Si4 0.735084 0.674201 0.896507
Si Si5 0.932928 0.172616 0.349067
Si Si6 0.615309 0.827293 0.265731
Si Si7 0.563534 0.829924 0.449440
Si Si8 0.068758 0.325888 0.110329
O O1 0.734166 0.500000 0.698214
O O2 0.908416 0.685751 0.721875
O O3 0.618218 0.763048 0.623977
O O4 0.883674 0.734219 0.810343
O O5 0.871484 0.500000 0.626030
O O6 0.703465 0.745834 0.548972
O O7 0.038539 0.745932 0.692082
O O8 0.695742 0.757407 0.356376
O O9 0.601367 0.811337 0.406479
O O10 0.928815 0.764548 0.543947
O O11 0.792680 0.000000 0.443427
O O12 0.710560 0.500000 0.887924
O O13 0.561153 0.750234 0.831235
O O14 0.789380 0.724276 0.864324
O O15 0.881589 0.730590 0.005272
O O16 0.743657 0.205069 0.279372
O O17 0.966608 0.000000 0.356171
O O18 0.582036 0.000000 0.256856
O O19 0.566596 0.000000 0.467349
O O20 0.061446 0.500000 0.106678
#
# Coordination Sequence:
#
# PCOD8057961 Si02
#       8
#     4   4   4   4   4   4   4   4
#     4  10  19  31  48  68  91 121 156 191 227 267
#     4  10  20  32  46  65  91 123 158 195 228 259
#     4   8  15  28  45  66  92 122 153 181 216 268
#     4   9  17  31  51  72  94 120 148 181 226 278
#     4   9  18  32  48  65  90 125 158 189 227 268
#     4  10  18  29  48  71  94 120 151 188 230 273
#     4  10  19  30  46  69  97 126 153 183 223 272
#     4   8  16  32  51  70  94 122 149 181 226 277
#
# _framework density 17.334463
#
# number of rings (size 3 to 8) (size 9 to 14) (size 15 to 20)
#    0.000    2.750    0.000    3.750    0.000    4.500 
#    0.000    4.375    0.000    4.500    0.000    5.250 
#    0.000    0.000    0.000    0.000    0.000    0.000 
#
# Total GULP energy -396691.615739 kJ/mol
# GULP energy per Si atom -12396.612992 kJ/mol
# Density = 1.729501 g / cm^3
# Si number density = 17.334463 Si / 1000 Ang^3
#
#
#
# Elastic Constant Matrix: (Units=GPa)
#
#
# Indices 1 2 3 4 5 6 
#
# 1 117.0267 44.9896 64.0100 0.0000 2.0428 0.0000
# 2 44.9896 57.7951 31.2808 0.0000 3.1494 0.0000
# 3 64.0100 31.2808 80.7791 0.0000 5.6913 0.0000
# 4 0.0000 0.0000 0.0000 20.4470 0.0000 6.8452
# 5 2.0428 3.1494 5.6913 0.0000 30.4000 0.0000
# 6 0.0000 0.0000 0.0000 6.8452 0.0000 25.4692
#
#
#
# Elastic Compliance Matrix: (Units=1/GPa)
#
#
# Indices 1 2 3 4 5 6 
#
# 1 0.017515 -0.007781 -0.010985 0.000000 0.001686 0.000000
# 2 -0.007781 0.025361 -0.003554 0.000000 -0.001439 0.000000
# 3 -0.010985 -0.003554 0.022681 0.000000 -0.003140 0.000000
# 4 0.000000 0.000000 0.000000 0.053743 0.000000 -0.014444
# 5 0.001686 -0.001439 -0.003140 0.000000 0.033518 0.000000
# 6 0.000000 0.000000 0.000000 -0.014444 0.000000 0.043145
#
#
# Mechanical properties :
#
#
# Convention : Reuss Voigt Hill
#
# Bulk Modulus (GPa) = 47.80423 59.57353 53.68888
# Shear Modulus (GPa) = 20.19575 22.95127 21.57351
#
# Velocity S-wave (km/s) = 3.41701 3.64266 3.53164
# Velocity P-wave (km/s) = 6.57308 7.22037 6.90431
#
# Compressibility (1/GPa) = 0.02091865
#
# Stress axis : x y z
#
# Youngs Moduli (GPa) = 57.09259 39.43011 44.08885
#
# Poissons Ratio (x) = 0.30680 0.48432
# Poissons Ratio (y) = 0.44423 0.15668
# Poissons Ratio (z) = 0.62716 0.14013
#
# Static dielectric constant tensor:
#      x y z
#    x 3.355890 0.000000 -0.166490 
#    y 0.000000 3.003830 0.000000 
#    z -0.166490 0.000000 3.243480 
# 
# 
# High freq. dielectric constant tensor:
#      x y z
#    x 1.673170 0.000000 -0.002220 
#    y 0.000000 1.646420 0.000000 
#    z -0.002220 0.000000 1.647470 
# 
# From -- ./inp_files/66474.got.cif
#   From: 2010.06.25/outbox.cif.g09.slc.cpg/sg10_34_cif.got.tgz:66474.got - 2010.06.27 22:07:45.
