data_PCOD8057676
_publ_section_title
;
Structure prediction by ZEFSAII (Michael W. Deem and Ramdas Pophale) SiO2 
 PCOD8057676
Probable space group: P 2/M
;
_chemical_formula_sum "Si O2"
_cell_formula_units_Z 24
_cell_length_a 13.538369
_cell_length_b 20.230697
_cell_length_c 16.044165
_cell_angle_alpha 90.000000
_cell_angle_beta 17.776250
_cell_angle_gamma 90.000000
_cell_volume 1341.596692
_symmetry_space_group_name_H-M "P 2/M"
_symmetry_group_IT_number 10
_symmetry_cell_setting 'monoclinic'
loop_
_space_group_symop_operation_xyz
x,y,z
-x,y,-z
-x,-y,-z
x,-y,z
loop_
_atom_site_type_symbol
_atom_site_label
_atom_site_fract_x
_atom_site_fract_y
_atom_site_fract_z
Si Si1 0.271258 0.645085 0.342880
Si Si2 0.679680 0.423875 0.141349
Si Si3 0.934672 0.868965 0.687648
Si Si4 0.121129 0.721158 0.203585
Si Si5 0.586210 0.923947 0.804572
Si Si6 0.284773 0.347987 0.598669
O O1 0.483810 0.586618 0.212049
O O2 0.000000 0.614412 0.500000
O O3 0.067562 0.679236 0.577915
O O4 0.506457 0.697343 0.106292
O O5 0.670914 0.500000 0.174061
O O6 0.522720 0.381382 0.340905
O O7 0.048943 0.402779 0.828601
O O8 0.886427 0.795389 0.758387
O O9 0.749370 0.884368 0.750133
O O10 0.306829 0.888885 0.368576
O O11 0.797897 0.915747 0.872147
O O12 0.930034 0.710851 0.269554
O O13 0.692678 0.000000 0.718936
O O14 0.500000 0.316919 0.500000
#
# Coordination Sequence:
#
# PCOD8057676 Si02
#       6
#     4   4   4   4   4   4
#     4  10  21  33  49  69 102 133 161 206 241 283
#     4  10  21  36  53  77  98 124 168 203 245 314
#     4  10  18  28  44  64  94 131 162 197 224 283
#     4  10  21  33  48  74  98 127 175 202 239 295
#     4  10  19  29  43  68 100 132 162 196 233 273
#     4  10  21  37  54  74 101 126 154 215 267 292
#
# _framework density 17.889130999999999
#
# number of rings (size 3 to 8) (size 9 to 14) (size 15 to 20)
#    0.000    2.000    0.000    5.000    7.000    2.333 
#    0.000    0.000    0.000    6.000    0.000    0.000 
#    0.000    7.333    0.000    0.000    0.000    0.000 
#
# Total GULP energy -297351.294389 kJ/mol
# GULP energy per Si atom -12389.637266 kJ/mol
# Density = 1.784841 g / cm^3
# Si number density = 17.889131 Si / 1000 Ang^3
#
#
#
# Elastic Constant Matrix: (Units=GPa)
#
#
# Indices 1 2 3 4 5 6 
#
# 1 81.4977 3.3982 15.8034 0.0000 -18.0216 0.0000
# 2 3.3982 82.6725 17.6116 0.0000 13.4100 0.0000
# 3 15.8034 17.6116 124.1375 0.0000 38.2377 0.0000
# 4 0.0000 0.0000 0.0000 26.1652 0.0000 8.7908
# 5 -18.0216 13.4100 38.2377 0.0000 45.0892 0.0000
# 6 0.0000 0.0000 0.0000 8.7908 0.0000 15.9658
#
#
#
# Elastic Compliance Matrix: (Units=1/GPa)
#
#
# Indices 1 2 3 4 5 6 
#
# 1 0.015824 -0.001343 -0.005273 0.000000 0.011196 0.000000
# 2 -0.001343 0.012892 -0.000422 0.000000 -0.004013 0.000000
# 3 -0.005273 -0.000422 0.012720 0.000000 -0.012769 0.000000
# 4 0.000000 0.000000 0.000000 0.046893 0.000000 -0.025820
# 5 0.011196 -0.004013 -0.012769 0.000000 0.038675 0.000000
# 6 0.000000 0.000000 0.000000 -0.025820 0.000000 0.076850
#
#
# Mechanical properties :
#
#
# Convention : Reuss Voigt Hill
#
# Bulk Modulus (GPa) = 36.54825 40.21490 38.38157
# Shear Modulus (GPa) = 22.02149 34.21033 28.11591
#
# Velocity S-wave (km/s) = 3.51237 4.37779 3.96874
# Velocity P-wave (km/s) = 6.07649 6.93414 6.51943
#
# Compressibility (1/GPa) = 0.02736109
#
# Stress axis : x y z
#
# Youngs Moduli (GPa) = 63.19347 77.56755 78.61748
#
# Poissons Ratio (x) = 0.10419 0.41451
# Poissons Ratio (y) = 0.08489 0.03316
# Poissons Ratio (z) = 0.33319 0.03271
#
# Static dielectric constant tensor:
#      x y z
#    x 3.598570 0.000000 0.660360 
#    y 0.000000 3.066530 0.000000 
#    z 0.660360 0.000000 5.037570 
# 
# 
# High freq. dielectric constant tensor:
#      x y z
#    x 1.660930 0.000000 0.032650 
#    y 0.000000 1.668670 0.000000 
#    z 0.032650 0.000000 1.722730 
# 
# From -- ./inp_files/7235.got.cif
#   From: 2010.06.25/outbox.cif.g09.slc.cpg/sg10_4_cif.got.tgz:7235.got - 2010.06.27 22:07:45.
