data_PCOD8057455
_publ_section_title
;
Structure prediction by ZEFSAII (Michael W. Deem and Ramdas Pophale) SiO2 
 PCOD8057455
Probable space group: P 2/M
;
_chemical_formula_sum "Si O2"
_cell_formula_units_Z 32
_cell_length_a 21.968845
_cell_length_b 8.931511
_cell_length_c 28.353159
_cell_angle_alpha 90.000000
_cell_angle_beta 17.875473
_cell_angle_gamma 90.000000
_cell_volume 1707.655139
_symmetry_space_group_name_H-M "P 2/M"
_symmetry_group_IT_number 10
_symmetry_cell_setting 'monoclinic'
loop_
_space_group_symop_operation_xyz
x,y,z
-x,y,-z
-x,-y,-z
x,-y,z
loop_
_atom_site_type_symbol
_atom_site_label
_atom_site_fract_x
_atom_site_fract_y
_atom_site_fract_z
Si Si1 0.310724 0.677680 0.777776
Si Si2 0.035944 0.322492 0.900340
Si Si3 0.923616 0.822846 0.785877
Si Si4 0.492982 0.176733 0.950989
Si Si5 0.099108 0.677019 0.098622
Si Si6 0.705916 0.678068 0.532766
Si Si7 0.542829 0.322943 0.752437
Si Si8 0.225321 0.677466 0.328382
O O1 0.308033 0.500000 0.783264
O O2 0.534890 0.732223 0.622124
O O3 0.234093 0.730366 0.782369
O O4 0.159729 0.741333 0.928861
O O5 0.019983 0.500000 0.913565
O O6 0.042364 0.272597 0.840765
O O7 0.968621 0.761422 0.804710
O O8 0.089093 0.758469 0.629245
O O9 0.936480 0.000000 0.776766
O O10 0.710326 0.767893 0.923876
O O11 0.680744 0.251777 0.787540
O O12 0.514382 0.000000 0.931046
O O13 0.500000 0.229094 0.000000
O O14 0.088679 0.500000 0.116056
O O15 0.317556 0.730782 0.922844
O O16 0.736428 0.500000 0.508478
O O17 0.640317 0.736165 0.632561
O O18 0.552003 0.500000 0.745376
O O19 0.661572 0.258374 0.709386
O O20 0.243372 0.500000 0.310782
O O21 0.000000 0.729857 0.500000
#
# Coordination Sequence:
#
# PCOD8057455 Si02
#       8
#     4   4   4   4   4   4   4   4
#     4   8  13  24  45  79 112 133 163 214 266 310
#     4   8  13  23  47  80 109 133 165 213 266 312
#     4  11  24  39  53  74 106 142 180 220 258 305
#     4  10  23  42  58  74 103 143 182 217 257 309
#     4  10  17  32  57  81 103 137 176 216 264 313
#     4  10  19  33  55  81 108 140 174 215 266 314
#     4   9  17  31  53  81 109 132 168 217 262 308
#     4  10  21  36  56  85 114 136 165 212 265 318
#
# _framework density 18.739146999999999
#
# number of rings (size 3 to 8) (size 9 to 14) (size 15 to 20)
#    0.000    2.500    2.500    1.125    1.750    1.000 
#    0.000    1.875    0.000    4.500    0.000    1.750 
#    0.000    0.000    0.000    0.000    0.000    0.000 
#
# Total GULP energy -396671.402834 kJ/mol
# GULP energy per Si atom -12395.981339 kJ/mol
# Density = 1.869650 g / cm^3
# Si number density = 18.739147 Si / 1000 Ang^3
#
#
#
# Elastic Constant Matrix: (Units=GPa)
#
#
# Indices 1 2 3 4 5 6 
#
# 1 139.1340 21.9533 45.2730 0.0000 5.2888 0.0000
# 2 21.9533 25.8793 24.0366 0.0000 2.3047 0.0000
# 3 45.2730 24.0366 104.2771 0.0000 9.7324 0.0000
# 4 0.0000 0.0000 0.0000 10.6161 0.0000 -5.0364
# 5 5.2888 2.3047 9.7324 0.0000 30.4394 0.0000
# 6 0.0000 0.0000 0.0000 -5.0364 0.0000 8.7347
#
#
#
# Elastic Compliance Matrix: (Units=1/GPa)
#
#
# Indices 1 2 3 4 5 6 
#
# 1 0.008856 -0.005014 -0.002660 0.000000 -0.000308 0.000000
# 2 -0.005014 0.052006 -0.009818 0.000000 0.000073 0.000000
# 3 -0.002660 -0.009818 0.013292 0.000000 -0.003044 0.000000
# 4 0.000000 0.000000 0.000000 0.129666 0.000000 0.074766
# 5 -0.000308 0.000073 -0.003044 0.000000 0.033874 0.000000
# 6 0.000000 0.000000 0.000000 0.074766 0.000000 0.157596
#
#
# Mechanical properties :
#
#
# Convention : Reuss Voigt Hill
#
# Bulk Modulus (GPa) = 25.52964 50.20181 37.86572
# Shear Modulus (GPa) = 11.27825 21.82654 16.55240
#
# Velocity S-wave (km/s) = 2.45593 3.41656 2.97527
# Velocity P-wave (km/s) = 4.65783 6.51243 5.66159
#
# Compressibility (1/GPa) = 0.03917016
#
# Stress axis : x y z
#
# Youngs Moduli (GPa) = 112.92014 19.22839 75.23313
#
# Poissons Ratio (x) = 0.09641 0.20014
# Poissons Ratio (y) = 0.56618 0.73862
# Poissons Ratio (z) = 0.30040 0.18878
#
# Static dielectric constant tensor:
#      x y z
#    x 3.897850 0.000000 -0.156060 
#    y 0.000000 2.920600 0.000000 
#    z -0.156060 0.000000 3.412460 
# 
# 
# High freq. dielectric constant tensor:
#      x y z
#    x 1.746960 0.000000 -0.004730 
#    y 0.000000 1.675060 0.000000 
#    z -0.004730 0.000000 1.720000 
# 
# From -- ./inp_files/93651.got.cif
#   From: 2010.06.25/outbox.cif.g09.slc.cpg/sg10_47_cif.got.tgz:93651.got - 2010.06.27 22:07:45.
