data_PCOD8057861
_publ_section_title
;
Structure prediction by ZEFSAII (Michael W. Deem and Ramdas Pophale) SiO2 
 PCOD8057861
Probable space group: P 2/M
;
_chemical_formula_sum "Si O2"
_cell_formula_units_Z 32
_cell_length_a 14.463460
_cell_length_b 9.138110
_cell_length_c 20.103951
_cell_angle_alpha 90.000000
_cell_angle_beta 44.103754
_cell_angle_gamma 90.000000
_cell_volume 1849.243842
_symmetry_space_group_name_H-M "P 2/M"
_symmetry_group_IT_number 10
_symmetry_cell_setting 'monoclinic'
loop_
_space_group_symop_operation_xyz
x,y,z
-x,y,-z
-x,-y,-z
x,-y,z
loop_
_atom_site_type_symbol
_atom_site_label
_atom_site_fract_x
_atom_site_fract_y
_atom_site_fract_z
Si Si1 0.714121 0.832406 0.305796
Si Si2 0.065191 0.163760 0.657396
Si Si3 0.369313 0.173735 0.372638
Si Si4 0.104253 0.669714 0.504337
Si Si5 0.887545 0.328736 0.008948
Si Si6 0.021822 0.671393 0.804806
Si Si7 0.377619 0.839003 0.512360
Si Si8 0.353806 0.163624 0.810052
O O1 0.595246 0.785841 0.422622
O O2 0.652518 0.820643 0.265617
O O3 0.833336 0.718032 0.244985
O O4 0.761189 0.000000 0.295848
O O5 0.979815 0.242227 0.759859
O O6 0.046312 0.254126 0.599822
O O7 0.216860 0.160158 0.603563
O O8 0.010340 0.000000 0.674453
O O9 0.241179 0.254957 0.409868
O O10 0.403179 0.244369 0.429188
O O11 0.490135 0.199615 0.258124
O O12 0.337750 0.000000 0.397338
O O13 0.130063 0.500000 0.506124
O O14 0.000000 0.693166 0.500000
O O15 0.884018 0.500000 0.022859
O O16 0.741529 0.270376 0.100887
O O17 0.918609 0.288854 0.916720
O O18 0.000000 0.259803 0.000000
O O19 0.023286 0.500000 0.788744
O O20 0.438512 0.000000 0.471284
O O21 0.317560 0.000000 0.851798
#
# Coordination Sequence:
#
# PCOD8057861 Si02
#       8
#     4   4   4   4   4   4   4   4
#     4   9  16  26  41  63  89 124 165 203 245 283
#     4   9  17  30  49  73  99 126 157 195 243 292
#     4   9  18  32  47  68  98 130 162 198 243 291
#     4  10  20  34  54  80 105 128 156 189 230 288
#     4  10  20  33  46  64  92 132 176 214 255 294
#     4  10  18  29  46  66  93 128 168 212 249 286
#     4   7  12  24  41  59  85 119 153 188 226 274
#     4  10  20  30  44  67  94 127 170 214 249 285
#
# _framework density 17.304371
#
# number of rings (size 3 to 8) (size 9 to 14) (size 15 to 20)
#    0.000    2.750    1.250    2.625    0.000    3.250 
#    0.000    2.500    0.000    0.000    0.000    7.000 
#    0.000    7.000    0.000    0.000    0.000    0.000 
#
# Total GULP energy -396465.829713 kJ/mol
# GULP energy per Si atom -12389.557179 kJ/mol
# Density = 1.726499 g / cm^3
# Si number density = 17.304371 Si / 1000 Ang^3
#
#
#
# Elastic Constant Matrix: (Units=GPa)
#
#
# Indices 1 2 3 4 5 6 
#
# 1 51.9607 35.7418 31.7753 0.0000 1.6459 0.0000
# 2 35.7418 73.7250 56.6917 0.0000 6.8192 0.0000
# 3 31.7753 56.6917 131.7404 0.0000 1.6259 0.0000
# 4 0.0000 0.0000 0.0000 26.2109 0.0000 2.6724
# 5 1.6459 6.8192 1.6259 0.0000 15.5129 0.0000
# 6 0.0000 0.0000 0.0000 2.6724 0.0000 19.9791
#
#
#
# Elastic Compliance Matrix: (Units=1/GPa)
#
#
# Indices 1 2 3 4 5 6 
#
# 1 0.029176 -0.013417 -0.001300 0.000000 0.002938 0.000000
# 2 -0.013417 0.027486 -0.008472 0.000000 -0.009771 0.000000
# 3 -0.001300 -0.008472 0.011517 0.000000 0.002655 0.000000
# 4 0.000000 0.000000 0.000000 0.038679 0.000000 -0.005174
# 5 0.002938 -0.009771 0.002655 0.000000 0.068168 0.000000
# 6 0.000000 0.000000 0.000000 -0.005174 0.000000 0.050744
#
#
# Mechanical properties :
#
#
# Convention : Reuss Voigt Hill
#
# Bulk Modulus (GPa) = 45.86484 56.20485 51.03484
# Shear Modulus (GPa) = 17.89455 21.22175 19.55815
#
# Velocity S-wave (km/s) = 3.21924 3.50577 3.36556
# Velocity P-wave (km/s) = 6.35455 6.99556 6.68275
#
# Compressibility (1/GPa) = 0.02180320
#
# Stress axis : x y z
#
# Youngs Moduli (GPa) = 34.27478 36.38166 86.82850
#
# Poissons Ratio (x) = 0.48812 0.11286
# Poissons Ratio (y) = 0.45986 0.73557
# Poissons Ratio (z) = 0.04455 0.30821
#
# Static dielectric constant tensor:
#      x y z
#    x 3.018420 0.000000 0.043360 
#    y 0.000000 3.115660 0.000000 
#    z 0.043360 0.000000 3.423900 
# 
# 
# High freq. dielectric constant tensor:
#      x y z
#    x 1.633920 0.000000 0.008070 
#    y 0.000000 1.651770 0.000000 
#    z 0.008070 0.000000 1.675370 
# 
# From -- ./inp_files/84731.got.cif
#   From: 2010.06.25/outbox.cif.g09.slc.cpg/sg10_43_cif.got.tgz:84731.got - 2010.06.27 22:07:45.
