data_PCOD8057274
_publ_section_title
;
Structure prediction by ZEFSAII (Michael W. Deem and Ramdas Pophale) SiO2 
 PCOD8057274
Probable space group: P 2/M
;
_chemical_formula_sum "Si O2"
_cell_formula_units_Z 28
_cell_length_a 13.577880
_cell_length_b 8.553952
_cell_length_c 14.541039
_cell_angle_alpha 90.000000
_cell_angle_beta 102.609029
_cell_angle_gamma 90.000000
_cell_volume 1648.130848
_symmetry_space_group_name_H-M "P 2/M"
_symmetry_group_IT_number 10
_symmetry_cell_setting 'monoclinic'
loop_
_space_group_symop_operation_xyz
x,y,z
-x,y,-z
-x,-y,-z
x,-y,z
loop_
_atom_site_type_symbol
_atom_site_label
_atom_site_fract_x
_atom_site_fract_y
_atom_site_fract_z
Si Si1 0.715441 0.317749 0.058524
Si Si2 0.412339 0.818433 0.116003
Si Si3 0.245956 0.318701 0.205479
Si Si4 0.362070 0.181478 0.784820
Si Si5 0.114843 0.182642 0.031220
Si Si6 0.368972 0.684966 0.396685
Si Si7 0.590021 0.685041 0.394432
O O1 0.695716 0.500000 0.041871
O O2 0.718216 0.272157 0.167046
O O3 0.622701 0.219536 0.995079
O O4 0.821151 0.274636 0.032024
O O5 0.346872 0.706116 0.167218
O O6 0.527694 0.774619 0.154895
O O7 0.390848 0.000000 0.133815
O O8 0.215619 0.500000 0.198063
O O9 0.154350 0.220547 0.142568
O O10 0.273617 0.260329 0.314870
O O11 0.350860 0.235206 0.677252
O O12 0.338110 0.000000 0.786202
O O13 0.125975 0.000000 0.013962
O O14 0.000000 0.238933 0.000000
O O15 0.379028 0.500000 0.394462
O O16 0.474925 0.749620 0.377105
O O17 0.353646 0.736556 0.499382
O O18 0.593172 0.500000 0.381499
#
# Coordination Sequence:
#
# PCOD8057274 Si02
#       7
#     4   4   4   4   4   4   4
#     4  11  22  33  49  69  90 121 160 198 234 281
#     4  10  19  30  43  63  95 130 160 194 232 274
#     4  10  17  28  49  73  96 124 161 199 235 276
#     4  11  21  31  43  65  97 131 163 196 234 275
#     4  10  21  37  54  72  96 123 150 189 243 293
#     4   8  15  27  45  68  94 127 163 201 236 268
#     4   9  16  29  46  64  93 131 169 199 228 270
#
# _framework density 16.988942000000002
#
# number of rings (size 3 to 8) (size 9 to 14) (size 15 to 20)
#    0.000    2.143    1.429    6.000    0.000    4.571 
#    0.000    2.857    0.000    0.000    0.000    1.000 
#    0.000    8.000    0.000    0.000    0.000    0.000 
#
# Total GULP energy -347092.018082 kJ/mol
# GULP energy per Si atom -12396.143503 kJ/mol
# Density = 1.695027 g / cm^3
# Si number density = 16.988942 Si / 1000 Ang^3
#
#
#
# Elastic Constant Matrix: (Units=GPa)
#
#
# Indices 1 2 3 4 5 6 
#
# 1 63.2436 21.8484 50.0069 0.0000 7.2571 0.0000
# 2 21.8484 51.4412 20.4871 0.0000 0.8163 0.0000
# 3 50.0069 20.4871 133.6503 0.0000 -1.7603 0.0000
# 4 0.0000 0.0000 0.0000 17.7256 0.0000 -0.1174
# 5 7.2571 0.8163 -1.7603 0.0000 18.7494 0.0000
# 6 0.0000 0.0000 0.0000 -0.1174 0.0000 17.3520
#
#
#
# Elastic Compliance Matrix: (Units=1/GPa)
#
#
# Indices 1 2 3 4 5 6 
#
# 1 0.026822 -0.007631 -0.009010 0.000000 -0.010895 0.000000
# 2 -0.007631 0.022902 -0.000630 0.000000 0.001897 0.000000
# 3 -0.009010 -0.000630 0.011010 0.000000 0.004548 0.000000
# 4 0.000000 0.000000 0.000000 0.056418 0.000000 0.000382
# 5 -0.010895 0.001897 0.004548 0.000000 0.057897 0.000000
# 6 0.000000 0.000000 0.000000 0.000382 0.000000 0.057633
#
#
# Mechanical properties :
#
#
# Convention : Reuss Voigt Hill
#
# Bulk Modulus (GPa) = 38.17990 48.11332 43.14661
# Shear Modulus (GPa) = 18.11894 21.16490 19.64192
#
# Velocity S-wave (km/s) = 3.26930 3.53342 3.40392
# Velocity P-wave (km/s) = 6.06409 6.71034 6.39538
#
# Compressibility (1/GPa) = 0.02619179
#
# Stress axis : x y z
#
# Youngs Moduli (GPa) = 37.28230 43.66482 90.82798
#
# Poissons Ratio (x) = 0.33321 0.81833
# Poissons Ratio (y) = 0.28450 0.05725
# Poissons Ratio (z) = 0.33590 0.02752
#
# Static dielectric constant tensor:
#      x y z
#    x 2.845730 0.000000 0.072580 
#    y 0.000000 3.051100 0.000000 
#    z 0.072580 0.000000 3.578270 
# 
# 
# High freq. dielectric constant tensor:
#      x y z
#    x 1.602980 0.000000 -0.003790 
#    y 0.000000 1.653870 0.000000 
#    z -0.003790 0.000000 1.662060 
# 
# From -- ./inp_files/65797.got.cif
#   From: 2010.06.25/outbox.cif.g09.slc.cpg/sg10_33_cif.got.tgz:65797.got - 2010.06.27 22:07:45.
