data_PCOD8057656
_publ_section_title
;
Structure prediction by ZEFSAII (Michael W. Deem and Ramdas Pophale) SiO2 
 PCOD8057656
Probable space group: P 2/M
;
_chemical_formula_sum "Si O2"
_cell_formula_units_Z 32
_cell_length_a 13.921383
_cell_length_b 9.103310
_cell_length_c 15.087504
_cell_angle_alpha 90.000000
_cell_angle_beta 89.053881
_cell_angle_gamma 90.000000
_cell_volume 1911.788738
_symmetry_space_group_name_H-M "P 2/M"
_symmetry_group_IT_number 10
_symmetry_cell_setting 'monoclinic'
loop_
_space_group_symop_operation_xyz
x,y,z
-x,y,-z
-x,-y,-z
x,-y,z
loop_
_atom_site_type_symbol
_atom_site_label
_atom_site_fract_x
_atom_site_fract_y
_atom_site_fract_z
Si Si1 0.376358 0.334036 0.748335
Si Si2 0.300621 0.668418 0.012084
Si Si3 0.817243 0.169979 0.838611
Si Si4 0.525517 0.673356 0.596647
Si Si5 0.448264 0.335785 0.146208
Si Si6 0.336245 0.832152 0.290601
Si Si7 0.774096 0.826890 0.152900
Si Si8 0.019732 0.171454 0.901921
O O1 0.344377 0.500000 0.729692
O O2 0.442132 0.275800 0.666219
O O3 0.436761 0.323405 0.840646
O O4 0.279258 0.239211 0.759669
O O5 0.276925 0.500000 0.985659
O O6 0.230838 0.717810 0.092555
O O7 0.411543 0.681577 0.045366
O O8 0.286020 0.777157 0.931302
O O9 0.774496 0.195013 0.739567
O O10 0.931285 0.203187 0.836941
O O11 0.798779 0.000000 0.868428
O O12 0.500000 0.734915 0.500000
O O13 0.535872 0.500000 0.595408
O O14 0.629202 0.737332 0.625419
O O15 0.417298 0.500000 0.181006
O O16 0.399691 0.209078 0.204641
O O17 0.353902 0.000000 0.315791
O O18 0.882777 0.763519 0.142940
O O19 0.771788 0.000000 0.161975
O O20 0.038238 0.000000 0.915254
O O21 0.000000 0.240668 0.000000
#
# Coordination Sequence:
#
# PCOD8057656 Si02
#       8
#     4   4   4   4   4   4   4   4
#     4   9  18  33  48  64  89 116 146 185 223 265
#     4  10  18  28  43  63  86 117 158 198 231 262
#     4   9  16  29  46  64  89 122 158 194 233 272
#     4   9  18  34  55  74  94 123 150 170 211 283
#     4   8  16  30  45  59  84 124 158 182 219 274
#     4   9  16  25  44  73  98 116 142 188 233 264
#     4  11  21  31  44  62  87 121 159 194 231 271
#     4   9  16  29  47  62  83 122 166 199 228 268
#
# _framework density 16.738250000000001
#
# number of rings (size 3 to 8) (size 9 to 14) (size 15 to 20)
#    0.000    2.750    1.250    1.875    0.000    3.750 
#    0.000    4.375    0.000    0.000    0.000    0.875 
#    0.000    7.000    0.000    0.000    0.000    0.000 
#
# Total GULP energy -396454.665272 kJ/mol
# GULP energy per Si atom -12389.208290 kJ/mol
# Density = 1.670015 g / cm^3
# Si number density = 16.738250 Si / 1000 Ang^3
#
#
#
# Elastic Constant Matrix: (Units=GPa)
#
#
# Indices 1 2 3 4 5 6 
#
# 1 113.3445 32.1359 46.8590 0.0000 7.6223 0.0000
# 2 32.1359 40.2891 20.0949 0.0000 2.1823 0.0000
# 3 46.8590 20.0949 67.5956 0.0000 14.5829 0.0000
# 4 0.0000 0.0000 0.0000 18.8820 0.0000 -0.4166
# 5 7.6223 2.1823 14.5829 0.0000 19.9151 0.0000
# 6 0.0000 0.0000 0.0000 -0.4166 0.0000 18.4241
#
#
#
# Elastic Compliance Matrix: (Units=1/GPa)
#
#
# Indices 1 2 3 4 5 6 
#
# 1 0.014066 -0.007391 -0.007799 0.000000 0.001137 0.000000
# 2 -0.007391 0.033262 -0.005449 0.000000 0.003174 0.000000
# 3 -0.007799 -0.005449 0.024996 0.000000 -0.014722 0.000000
# 4 0.000000 0.000000 0.000000 0.052987 0.000000 0.001198
# 5 0.001137 0.003174 -0.014722 0.000000 0.060210 0.000000
# 6 0.000000 0.000000 0.000000 0.001198 0.000000 0.054304
#
#
# Mechanical properties :
#
#
# Convention : Reuss Voigt Hill
#
# Bulk Modulus (GPa) = 32.21078 46.60096 39.40587
# Shear Modulus (GPa) = 17.15544 19.58686 18.37115
#
# Velocity S-wave (km/s) = 3.20492 3.42451 3.31653
# Velocity P-wave (km/s) = 5.74290 6.59832 6.18541
#
# Compressibility (1/GPa) = 0.03104550
#
# Stress axis : x y z
#
# Youngs Moduli (GPa) = 71.09324 30.06425 40.00596
#
# Poissons Ratio (x) = 0.22221 0.31201
# Poissons Ratio (y) = 0.52547 0.21800
# Poissons Ratio (z) = 0.55445 0.16383
#
# Static dielectric constant tensor:
#      x y z
#    x 3.307170 0.000000 0.254280 
#    y 0.000000 3.070170 0.000000 
#    z 0.254280 0.000000 3.038630 
# 
# 
# High freq. dielectric constant tensor:
#      x y z
#    x 1.635040 0.000000 0.021180 
#    y 0.000000 1.637700 0.000000 
#    z 0.021180 0.000000 1.606300 
# 
# From -- ./inp_files/66167.got.cif
#   From: 2010.06.25/outbox.cif.g09.slc.cpg/sg10_34_cif.got.tgz:66167.got - 2010.06.27 22:07:45.
