data_PCOD8057344
_publ_section_title
;
Structure prediction by ZEFSAII (Michael W. Deem and Ramdas Pophale) SiO2 
 PCOD8057344
Probable space group: P 2/M
;
_chemical_formula_sum "Si O2"
_cell_formula_units_Z 28
_cell_length_a 9.456299
_cell_length_b 17.756369
_cell_length_c 12.076821
_cell_angle_alpha 90.000000
_cell_angle_beta 44.482132
_cell_angle_gamma 90.000000
_cell_volume 1420.862075
_symmetry_space_group_name_H-M "P 2/M"
_symmetry_group_IT_number 10
_symmetry_cell_setting 'monoclinic'
loop_
_space_group_symop_operation_xyz
x,y,z
-x,y,-z
-x,-y,-z
x,-y,z
loop_
_atom_site_type_symbol
_atom_site_label
_atom_site_fract_x
_atom_site_fract_y
_atom_site_fract_z
Si Si1 0.278223 0.791306 0.629290
Si Si2 0.569974 0.147970 0.076758
Si Si3 0.206626 0.807453 0.429699
Si Si4 0.800127 0.651422 0.646632
Si Si5 0.139895 0.713210 0.141076
Si Si6 0.593808 0.583604 0.069089
Si Si7 0.222452 0.084085 0.841833
O O1 0.500000 0.750835 0.500000
O O2 0.241674 0.837025 0.534845
O O3 0.299011 0.854039 0.712910
O O4 0.095952 0.731790 0.753505
O O5 0.377754 0.180137 0.245447
O O6 0.657761 0.085052 0.108985
O O7 0.500000 0.110691 0.000000
O O8 0.728343 0.214409 0.964275
O O9 0.193196 0.717016 0.449613
O O10 0.000000 0.844404 0.500000
O O11 0.820229 0.691346 0.754843
O O12 0.594934 0.604367 0.746127
O O13 0.000000 0.601927 0.500000
O O14 0.220071 0.642295 0.022523
O O15 0.673727 0.500000 0.054221
O O16 0.500000 0.585244 0.000000
O O17 0.240298 0.000000 0.781170
O O18 0.000000 0.106121 0.000000
#
# Coordination Sequence:
#
# PCOD8057344 Si02
#       7
#     4   4   4   4   4   4   4
#     4  12  23  38  61  88 117 157 201 249 303 350
#     4  12  20  37  66  88 116 156 202 252 296 350
#     4  11  20  34  57  92 118 150 199 254 302 343
#     4  10  17  29  53  85 121 150 196 255 299 343
#     4  11  19  33  57  86 117 153 202 252 293 348
#     4   9  18  31  50  82 125 163 195 243 305 357
#     4  11  26  44  62  88 122 157 195 243 303 369
#
# _framework density 19.706347999999998
#
# number of rings (size 3 to 8) (size 9 to 14) (size 15 to 20)
#    0.000    1.143    8.571    0.429    0.000    0.857 
#    0.000    0.000    0.000    1.286    0.000    7.000 
#    0.000    0.000    0.000    0.000    0.000    0.000 
#
# Total GULP energy -346865.549739 kJ/mol
# GULP energy per Si atom -12388.055348 kJ/mol
# Density = 1.966150 g / cm^3
# Si number density = 19.706348 Si / 1000 Ang^3
#
#
#
# Elastic Constant Matrix: (Units=GPa)
#
#
# Indices 1 2 3 4 5 6 
#
# 1 107.7656 22.1069 44.7185 0.0000 -10.6165 0.0000
# 2 22.1069 63.6133 32.8773 0.0000 -8.9274 0.0000
# 3 44.7185 32.8773 125.9165 0.0000 -26.7985 0.0000
# 4 0.0000 0.0000 0.0000 50.8946 0.0000 -12.3980
# 5 -10.6165 -8.9274 -26.7985 0.0000 47.4393 0.0000
# 6 0.0000 0.0000 0.0000 -12.3980 0.0000 20.1426
#
#
#
# Elastic Compliance Matrix: (Units=1/GPa)
#
#
# Indices 1 2 3 4 5 6 
#
# 1 0.011124 -0.002102 -0.003360 0.000000 0.000196 0.000000
# 2 -0.002102 0.018599 -0.003939 0.000000 0.000805 0.000000
# 3 -0.003360 -0.003939 0.011191 0.000000 0.004829 0.000000
# 4 0.000000 0.000000 0.000000 0.023114 0.000000 0.014227
# 5 0.000196 0.000805 0.004829 0.000000 0.024003 0.000000
# 6 0.000000 0.000000 0.000000 0.014227 0.000000 0.058403
#
#
# Mechanical properties :
#
#
# Convention : Reuss Voigt Hill
#
# Bulk Modulus (GPa) = 45.22177 55.18898 50.20538
# Shear Modulus (GPa) = 28.96771 36.86816 32.91794
#
# Velocity S-wave (km/s) = 3.83818 4.33006 4.09151
# Velocity P-wave (km/s) = 6.52991 7.28462 6.91757
#
# Compressibility (1/GPa) = 0.02211324
#
# Stress axis : x y z
#
# Youngs Moduli (GPa) = 89.89399 53.76664 89.35589
#
# Poissons Ratio (x) = 0.11300 0.30026
# Poissons Ratio (y) = 0.18893 0.35193
# Poissons Ratio (z) = 0.30207 0.21176
#
# Static dielectric constant tensor:
#      x y z
#    x 3.385340 0.000000 -0.236540 
#    y 0.000000 3.344930 0.000000 
#    z -0.236540 0.000000 4.062050 
# 
# 
# High freq. dielectric constant tensor:
#      x y z
#    x 1.750490 0.000000 -0.016020 
#    y 0.000000 1.721410 0.000000 
#    z -0.016020 0.000000 1.797230 
# 
# From -- ./inp_files/43504.got.cif
#   From: 2010.06.25/outbox.cif.g09.slc.cpg/sg10_22_cif.got.tgz:43504.got - 2010.06.27 22:07:45.
