data_PCOD8057939
_publ_section_title
;
Structure prediction by ZEFSAII (Michael W. Deem and Ramdas Pophale) SiO2 
 PCOD8057939
Probable space group: P 2/M
;
_chemical_formula_sum "Si O2"
_cell_formula_units_Z 32
_cell_length_a 17.550923
_cell_length_b 9.086162
_cell_length_c 23.923844
_cell_angle_alpha 90.000000
_cell_angle_beta 30.394199
_cell_angle_gamma 90.000000
_cell_volume 1930.260567
_symmetry_space_group_name_H-M "P 2/M"
_symmetry_group_IT_number 10
_symmetry_cell_setting 'monoclinic'
loop_
_space_group_symop_operation_xyz
x,y,z
-x,y,-z
-x,-y,-z
x,-y,z
loop_
_atom_site_type_symbol
_atom_site_label
_atom_site_fract_x
_atom_site_fract_y
_atom_site_fract_z
Si Si1 0.956176 0.173768 0.635335
Si Si2 0.363452 0.337753 0.629445
Si Si3 0.813633 0.169238 0.342830
Si Si4 0.288063 0.827651 0.401519
Si Si5 0.436596 0.674092 0.980257
Si Si6 0.133266 0.169893 0.186332
Si Si7 0.601595 0.674361 0.563643
Si Si8 0.335521 0.828524 0.244391
O O1 0.911257 0.233834 0.724737
O O2 0.830366 0.222658 0.670394
O O3 0.118207 0.236363 0.514188
O O4 0.970463 0.000000 0.628628
O O5 0.500000 0.344538 0.500000
O O6 0.290496 0.500000 0.681579
O O7 0.236973 0.226622 0.686419
O O8 0.437246 0.285730 0.641445
O O9 0.736355 0.257660 0.441896
O O10 0.992951 0.188738 0.233290
O O11 0.765883 0.000000 0.379411
O O12 0.395533 0.741110 0.376218
O O13 0.350574 0.796678 0.300379
O O14 0.292675 0.000000 0.413061
O O15 0.431689 0.500000 0.979715
O O16 0.540119 0.734122 0.865521
O O17 0.500000 0.727916 0.000000
O O18 0.270241 0.736414 0.075462
O O19 0.182980 0.000000 0.159464
O O20 0.625203 0.500000 0.549881
O O21 0.360080 0.000000 0.214814
#
# Coordination Sequence:
#
# PCOD8057939 Si02
#       8
#     4   4   4   4   4   4   4   4
#     4   9  16  30  50  72  98 127 161 202 243 288
#     4   8  16  29  43  64  96 133 165 190 230 294
#     4  10  18  29  47  73  99 124 161 207 245 284
#     4  10  19  32  50  75 100 126 168 208 240 286
#     4  11  23  36  50  70  97 127 166 212 249 287
#     4  10  19  32  52  73  96 129 166 202 245 294
#     4  10  19  30  45  67 100 138 165 190 236 295
#     4  10  20  34  54  72  93 130 169 207 248 290
#
# _framework density 16.578071999999999
#
# number of rings (size 3 to 8) (size 9 to 14) (size 15 to 20)
#    0.000    2.250    2.500    2.250    0.000    6.250 
#    0.000    0.625    0.000    1.500    0.000    0.875 
#    0.000    7.000    0.000    0.000    0.000    0.000 
#
# Total GULP energy -396775.619994 kJ/mol
# GULP energy per Si atom -12399.238125 kJ/mol
# Density = 1.654034 g / cm^3
# Si number density = 16.578072 Si / 1000 Ang^3
#
#
#
# Elastic Constant Matrix: (Units=GPa)
#
#
# Indices 1 2 3 4 5 6 
#
# 1 135.8578 57.5436 45.6924 0.0000 -3.7430 0.0000
# 2 57.5436 73.2443 39.5114 0.0000 -3.0906 0.0000
# 3 45.6924 39.5114 70.9540 0.0000 4.2171 0.0000
# 4 0.0000 0.0000 0.0000 10.5972 0.0000 1.5747
# 5 -3.7430 -3.0906 4.2171 0.0000 16.7280 0.0000
# 6 0.0000 0.0000 0.0000 1.5747 0.0000 24.9993
#
#
#
# Elastic Compliance Matrix: (Units=1/GPa)
#
#
# Indices 1 2 3 4 5 6 
#
# 1 0.011663 -0.007069 -0.003708 0.000000 0.002238 0.000000
# 2 -0.007069 0.024508 -0.009412 0.000000 0.005319 0.000000
# 3 -0.003708 -0.009412 0.022208 0.000000 -0.008167 0.000000
# 4 0.000000 0.000000 0.000000 0.095256 0.000000 -0.006000
# 5 0.002238 0.005319 -0.008167 0.000000 0.063322 0.000000
# 6 0.000000 0.000000 0.000000 -0.006000 0.000000 0.040379
#
#
# Mechanical properties :
#
#
# Convention : Reuss Voigt Hill
#
# Bulk Modulus (GPa) = 55.54618 62.83898 59.19258
# Shear Modulus (GPa) = 16.46295 19.61883 18.04089
#
# Velocity S-wave (km/s) = 3.15470 3.44382 3.30242
# Velocity P-wave (km/s) = 6.84456 7.33487 7.09396
#
# Compressibility (1/GPa) = 0.01800304
#
# Stress axis : x y z
#
# Youngs Moduli (GPa) = 85.73964 40.80340 45.02974
#
# Poissons Ratio (x) = 0.28842 0.16695
# Poissons Ratio (y) = 0.60606 0.42380
# Poissons Ratio (z) = 0.31789 0.38402
#
# Static dielectric constant tensor:
#      x y z
#    x 3.409350 0.000000 -0.107980 
#    y 0.000000 3.034630 0.000000 
#    z -0.107980 0.000000 2.828410 
# 
# 
# High freq. dielectric constant tensor:
#      x y z
#    x 1.644990 0.000000 -0.009590 
#    y 0.000000 1.630290 0.000000 
#    z -0.009590 0.000000 1.601100 
# 
# From -- ./inp_files/56478.got.cif
#   From: 2010.06.25/outbox.cif.g09.slc.cpg/sg10_29_cif.got.tgz:56478.got - 2010.06.27 22:07:45.
