data_PCOD8057297
_publ_section_title
;
Structure prediction by ZEFSAII (Michael W. Deem and Ramdas Pophale) SiO2 
 PCOD8057297
Probable space group: P 2/M
;
_chemical_formula_sum "Si O2"
_cell_formula_units_Z 32
_cell_length_a 25.840261
_cell_length_b 8.926102
_cell_length_c 16.971799
_cell_angle_alpha 90.000000
_cell_angle_beta 155.392805
_cell_angle_gamma 90.000000
_cell_volume 1630.016847
_symmetry_space_group_name_H-M "P 2/M"
_symmetry_group_IT_number 10
_symmetry_cell_setting 'monoclinic'
loop_
_space_group_symop_operation_xyz
x,y,z
-x,y,-z
-x,-y,-z
x,-y,z
loop_
_atom_site_type_symbol
_atom_site_label
_atom_site_fract_x
_atom_site_fract_y
_atom_site_fract_z
Si Si1 0.698386 0.168273 0.346368
Si Si2 0.907969 0.832507 0.764807
Si Si3 0.765734 0.822100 0.155559
Si Si4 0.485682 0.178358 0.777007
Si Si5 0.283483 0.822673 0.379521
Si Si6 0.120637 0.673687 0.839362
Si Si7 0.164024 0.822544 0.058156
Si Si8 0.158880 0.672815 0.585044
O O1 0.819611 0.167661 0.567492
O O2 0.581952 0.232198 0.235808
O O3 0.726383 0.271752 0.309924
O O4 0.669876 0.000000 0.276360
O O5 0.836686 0.754960 0.739936
O O6 0.037442 0.754220 0.920750
O O7 0.944893 0.000000 0.840754
O O8 0.826865 0.762933 0.161396
O O9 0.844394 0.763377 0.338123
O O10 0.768554 0.000000 0.158837
O O11 0.624895 0.758953 0.966609
O O12 0.410295 0.238756 0.595286
O O13 0.484637 0.000000 0.775007
O O14 0.279434 0.000000 0.388093
O O15 0.274323 0.785241 0.273723
O O16 0.153442 0.500000 0.875203
O O17 0.189460 0.737220 0.012081
O O18 0.972512 0.699935 0.640289
O O19 0.155374 0.000000 0.028843
O O20 0.179742 0.500000 0.633818
#
# Coordination Sequence:
#
# PCOD8057297 Si02
#       8
#     4   4   4   4   4   4   4   4
#     4   9  16  31  56  83 113 143 172 213 263 318
#     4   8  13  23  45  80 114 138 167 210 257 307
#     4  11  23  39  60  80 101 137 186 230 267 316
#     4   8  17  34  55  83 114 141 174 221 270 309
#     4   8  14  26  49  82 115 140 168 215 267 311
#     4  11  24  40  55  75 110 145 176 222 276 321
#     4  10  17  28  53  85 109 137 180 219 258 314
#     4  11  23  38  56  80 110 140 174 219 276 328
#
# _framework density 19.631699999999999
#
# number of rings (size 3 to 8) (size 9 to 14) (size 15 to 20)
#    0.000    2.500    1.250    3.375    0.000    5.000 
#    0.000    4.375    0.000    9.750    0.000    0.000 
#    0.000    0.000    0.000    0.000    0.000    0.000 
#
# Total GULP energy -396614.820150 kJ/mol
# GULP energy per Si atom -12394.213130 kJ/mol
# Density = 1.958702 g / cm^3
# Si number density = 19.631700 Si / 1000 Ang^3
#
#
#
# Elastic Constant Matrix: (Units=GPa)
#
#
# Indices 1 2 3 4 5 6 
#
# 1 93.0617 40.6709 41.0439 0.0000 -21.3286 0.0000
# 2 40.6709 63.3669 26.3714 0.0000 -5.1738 0.0000
# 3 41.0439 26.3714 45.0395 0.0000 -6.3201 0.0000
# 4 0.0000 0.0000 0.0000 13.1806 0.0000 5.0944
# 5 -21.3286 -5.1738 -6.3201 0.0000 32.4661 0.0000
# 6 0.0000 0.0000 0.0000 5.0944 0.0000 -5.0641
#
#
#
# Elastic Compliance Matrix: (Units=1/GPa)
#
#
# Indices 1 2 3 4 5 6 
#
# 1 0.023424 -0.007788 -0.015216 0.000000 0.011185 0.000000
# 2 -0.007788 0.023485 -0.007039 0.000000 -0.002744 0.000000
# 3 -0.015216 -0.007039 0.039715 0.000000 -0.003387 0.000000
# 4 0.000000 0.000000 0.000000 0.054628 0.000000 0.054955
# 5 0.011185 -0.002744 -0.003387 0.000000 0.037053 0.000000
# 6 0.000000 0.000000 0.000000 0.054955 0.000000 -0.142183
#
#
# Mechanical properties :
#
#
# Convention : Reuss Voigt Hill
#
# Bulk Modulus (GPa) = 37.68205 46.40450 42.04327
# Shear Modulus (GPa) = 47.59524 14.34197 30.96861
#
# Velocity S-wave (km/s) = 4.92917 2.70580 3.97606
# Velocity P-wave (km/s) = 7.18553 5.78366 6.52236
#
# Compressibility (1/GPa) = 0.02653783
#
# Stress axis : x y z
#
# Youngs Moduli (GPa) = 42.69199 42.58016 25.17963
#
# Poissons Ratio (x) = 0.33163 0.38313
# Poissons Ratio (y) = 0.33250 0.17723
# Poissons Ratio (z) = 0.64959 0.29970
#
# Static dielectric constant tensor:
#      x y z
#    x 3.605270 0.000000 -0.005690 
#    y 0.000000 3.139030 0.000000 
#    z -0.005690 0.000000 3.734960 
# 
# 
# High freq. dielectric constant tensor:
#      x y z
#    x 1.764510 0.000000 -0.011370 
#    y 0.000000 1.714550 0.000000 
#    z -0.011370 0.000000 1.763910 
# 
# From -- ./inp_files/71597.got.cif
#   From: 2010.06.25/outbox.cif.g09.slc.cpg/sg10_36_cif.got.tgz:71597.got - 2010.06.27 22:07:45.
