data_PCOD8057524
_publ_section_title
;
Structure prediction by ZEFSAII (Michael W. Deem and Ramdas Pophale) SiO2 
 PCOD8057524
Probable space group: P 2/M
;
_chemical_formula_sum "Si O2"
_cell_formula_units_Z 20
_cell_length_a 11.597734
_cell_length_b 14.533160
_cell_length_c 13.761621
_cell_angle_alpha 90.000000
_cell_angle_beta 147.432644
_cell_angle_gamma 90.000000
_cell_volume 1248.589504
_symmetry_space_group_name_H-M "P 2/M"
_symmetry_group_IT_number 10
_symmetry_cell_setting 'monoclinic'
loop_
_space_group_symop_operation_xyz
x,y,z
-x,y,-z
-x,-y,-z
x,-y,z
loop_
_atom_site_type_symbol
_atom_site_label
_atom_site_fract_x
_atom_site_fract_y
_atom_site_fract_z
Si Si1 0.063766 0.398516 0.200725
Si Si2 0.296050 0.108594 0.796051
Si Si3 0.181756 0.108454 0.500000
Si Si4 0.363096 0.740338 0.500000
Si Si5 0.662317 0.601483 0.799275
O O1 0.081993 0.500000 0.262884
O O2 0.147203 0.317958 0.329106
O O3 0.205500 0.399522 0.205500
O O4 0.817569 0.377131 1.000000
O O5 0.293086 0.138065 0.680747
O O6 0.068406 0.138071 0.680741
O O7 0.313426 0.000000 0.813433
O O8 0.500000 0.151838 0.000000
O O9 0.303533 0.160490 0.500000
O O10 0.207096 0.000000 0.499994
O O11 0.500000 0.756407 0.500000
O O12 0.488990 0.682042 0.670894
O O13 0.556226 0.500000 0.737117
#
# Coordination Sequence:
#
# PCOD8057524 Si02
#       5
#     4   4   4   4   4
#     4   8  14  25  40  58  82 113 149 184 211 239
#     4   8  15  31  52  65  75 100 144 198 236 244
#     4   9  18  30  44  66  90 112 145 180 210 253
#     4  10  18  26  40  64  95 125 143 162 205 264
#     4   8  14  25  40  58  82 113 149 184 211 239
#
# _framework density 16.018075
#
# number of rings (size 3 to 8) (size 9 to 14) (size 15 to 20)
#    0.000    3.400    0.000    3.000    0.000    4.400 
#    0.000    0.000    0.000    0.000    0.000   22.400 
#    0.000   19.200    0.000    0.000    0.000    0.000 
#
# Total GULP energy -247780.490220 kJ/mol
# GULP energy per Si atom -12389.024511 kJ/mol
# Density = 1.598162 g / cm^3
# Si number density = 16.018075 Si / 1000 Ang^3
#
#
#
# Elastic Constant Matrix: (Units=GPa)
#
#
# Indices 1 2 3 4 5 6 
#
# 1 51.4436 43.0270 35.8504 0.0000 -0.3359 0.0000
# 2 43.0270 86.5491 48.1439 0.0000 -0.3361 0.0000
# 3 35.8504 48.1439 123.7361 0.0000 -4.4069 0.0000
# 4 0.0000 0.0000 0.0000 -2.5623 0.0000 0.6251
# 5 -0.3359 -0.3361 -4.4069 0.0000 10.6205 0.0000
# 6 0.0000 0.0000 0.0000 0.6251 0.0000 6.9706
#
#
#
# Elastic Compliance Matrix: (Units=1/GPa)
#
#
# Indices 1 2 3 4 5 6 
#
# 1 0.034993 -0.014980 -0.004352 0.000000 -0.001173 0.000000
# 2 -0.014980 0.021198 -0.003959 0.000000 -0.001446 0.000000
# 3 -0.004352 -0.003959 0.011037 0.000000 0.004317 0.000000
# 4 0.000000 0.000000 0.000000 -0.381921 0.000000 0.034247
# 5 -0.001173 -0.001446 0.004317 0.000000 0.095866 0.000000
# 6 0.000000 0.000000 0.000000 0.034247 0.000000 0.140388
#
#
# Mechanical properties :
#
#
# Convention : Reuss Voigt Hill
#
# Bulk Modulus (GPa) = 48.43640 57.30793 52.87217
# Shear Modulus (GPa) = -200.21079 11.98626 -94.11226
#
# Velocity S-wave (km/s) = -11.19205 2.73847 -7.67342
# Velocity P-wave (km/s) = 11.69237 6.77153 6.74010
#
# Compressibility (1/GPa) = 0.02064563
#
# Stress axis : x y z
#
# Youngs Moduli (GPa) = 28.57690 47.17396 90.60647
#
# Poissons Ratio (x) = 0.70668 0.39430
# Poissons Ratio (y) = 0.42809 0.35872
# Poissons Ratio (z) = 0.12436 0.18677
#
# Static dielectric constant tensor:
#      x y z
#    x 2.532230 0.000000 -0.073560 
#    y 0.000000 2.891970 0.000000 
#    z -0.073560 0.000000 3.653970 
# 
# 
# High freq. dielectric constant tensor:
#      x y z
#    x 1.560100 0.000000 -0.004750 
#    y 0.000000 1.599100 0.000000 
#    z -0.004750 0.000000 1.632550 
# 
# From -- ./inp_files/25767.got.cif
#   From: 2010.06.25/outbox.cif.g09.slc.cpg/sg10_13_cif.got.tgz:25767.got - 2010.06.27 22:07:45.
