data_PCOD8057484
_publ_section_title
;
Structure prediction by ZEFSAII (Michael W. Deem and Ramdas Pophale) SiO2 
 PCOD8057484
Probable space group: P 2/M
;
_chemical_formula_sum "Si O2"
_cell_formula_units_Z 20
_cell_length_a 14.149774
_cell_length_b 11.974406
_cell_length_c 9.131414
_cell_angle_alpha 90.000000
_cell_angle_beta 133.237264
_cell_angle_gamma 90.000000
_cell_volume 1127.158361
_symmetry_space_group_name_H-M "P 2/M"
_symmetry_group_IT_number 10
_symmetry_cell_setting 'monoclinic'
loop_
_space_group_symop_operation_xyz
x,y,z
-x,y,-z
-x,-y,-z
x,-y,z
loop_
_atom_site_type_symbol
_atom_site_label
_atom_site_fract_x
_atom_site_fract_y
_atom_site_fract_z
Si Si1 0.977977 0.869046 0.641097
Si Si2 0.140371 0.123705 0.074026
Si Si3 0.227701 0.729115 0.409208
Si Si4 0.145735 0.500000 0.206921
Si Si5 0.464899 0.624648 0.801124
Si Si6 0.388554 0.500000 0.258154
O O1 0.853773 0.802927 0.565780
O O2 0.000000 0.829730 0.500000
O O3 0.945280 0.000000 0.618800
O O4 0.109729 0.841707 0.873190
O O5 0.234734 0.210711 0.256774
O O6 0.202765 0.000000 0.149085
O O7 0.000000 0.124720 0.000000
O O8 0.163343 0.608394 0.324827
O O9 0.370629 0.714819 0.626833
O O10 0.246500 0.500000 0.177415
O O11 0.000000 0.500000 0.000000
O O12 0.399481 0.500000 0.745649
O O13 0.589476 0.609360 0.823949
O O14 0.500000 0.669509 0.000000
O O15 0.500000 0.500000 0.500000
#
# Coordination Sequence:
#
# PCOD8057484 Si02
#       6
#     4   4   4   2   4   2
#     4   9  18  34  53  77 112 152 187 220 282 354
#     4   8  15  29  50  74 103 143 181 220 278 337
#     4  11  18  33  52  79 115 138 186 237 275 324
#     4  12  22  32  53  89 118 136 181 241 278 320
#     4   9  19  37  55  73 104 152 202 222 262 345
#     4  10  17  38  57  69 103 163 191 212 260 349
#
# _framework density 17.743735999999998
#
# number of rings (size 3 to 8) (size 9 to 14) (size 15 to 20)
#    0.600    1.800    3.000    3.600    0.000    0.000 
#    7.200    0.500    0.000    2.400    0.000   11.200 
#    0.000    0.000    0.000    0.000    0.000    0.000 
#
# Total GULP energy -247774.460883 kJ/mol
# GULP energy per Si atom -12388.723044 kJ/mol
# Density = 1.770335 g / cm^3
# Si number density = 17.743736 Si / 1000 Ang^3
#
#
#
# Elastic Constant Matrix: (Units=GPa)
#
#
# Indices 1 2 3 4 5 6 
#
# 1 95.1760 23.5756 49.0181 0.0000 -8.9249 0.0000
# 2 23.5756 72.3656 43.2380 0.0000 -1.9657 0.0000
# 3 49.0181 43.2380 135.1111 0.0000 -14.8807 0.0000
# 4 0.0000 0.0000 0.0000 28.9006 0.0000 -4.1118
# 5 -8.9249 -1.9657 -14.8807 0.0000 32.6363 0.0000
# 6 0.0000 0.0000 0.0000 -4.1118 0.0000 15.3597
#
#
#
# Elastic Compliance Matrix: (Units=1/GPa)
#
#
# Indices 1 2 3 4 5 6 
#
# 1 0.013186 -0.001857 -0.004006 0.000000 0.001668 0.000000
# 2 -0.001857 0.017421 -0.005098 0.000000 -0.001783 0.000000
# 3 -0.004006 -0.005098 0.010878 0.000000 0.003557 0.000000
# 4 0.000000 0.000000 0.000000 0.035971 0.000000 0.009629
# 5 0.001668 -0.001783 0.003557 0.000000 0.032611 0.000000
# 6 0.000000 0.000000 0.000000 0.009629 0.000000 0.067683
#
#
# Mechanical properties :
#
#
# Convention : Reuss Voigt Hill
#
# Bulk Modulus (GPa) = 51.11481 59.36845 55.24163
# Shear Modulus (GPa) = 24.24894 27.83403 26.04149
#
# Velocity S-wave (km/s) = 3.70079 3.96494 3.83514
# Velocity P-wave (km/s) = 6.86520 7.38190 7.12823
#
# Compressibility (1/GPa) = 0.01956380
#
# Stress axis : x y z
#
# Youngs Moduli (GPa) = 75.83536 57.40149 91.92981
#
# Poissons Ratio (x) = 0.10660 0.36828
# Poissons Ratio (y) = 0.14083 0.46863
# Poissons Ratio (z) = 0.30380 0.29262
#
# Static dielectric constant tensor:
#      x y z
#    x 3.137320 0.000000 -0.468040 
#    y 0.000000 3.287650 0.000000 
#    z -0.468040 0.000000 3.723170 
# 
# 
# High freq. dielectric constant tensor:
#      x y z
#    x 1.648890 0.000000 -0.026270 
#    y 0.000000 1.676350 0.000000 
#    z -0.026270 0.000000 1.692170 
# 
# From -- ./inp_files/28072.got.cif
#   From: 2010.06.25/outbox.cif.g09.slc.cpg/sg10_15_cif.got.tgz:28072.got - 2010.06.27 22:07:45.
