data_PCOD8057496
_publ_section_title
;
Structure prediction by ZEFSAII (Michael W. Deem and Ramdas Pophale) SiO2 
 PCOD8057496
Probable space group: P 2/M
;
_chemical_formula_sum "Si O2"
_cell_formula_units_Z 24
_cell_length_a 11.531576
_cell_length_b 12.165038
_cell_length_c 14.742158
_cell_angle_alpha 90.000000
_cell_angle_beta 38.952911
_cell_angle_gamma 90.000000
_cell_volume 1300.151197
_symmetry_space_group_name_H-M "P 2/M"
_symmetry_group_IT_number 10
_symmetry_cell_setting 'monoclinic'
loop_
_space_group_symop_operation_xyz
x,y,z
-x,y,-z
-x,-y,-z
x,-y,z
loop_
_atom_site_type_symbol
_atom_site_label
_atom_site_fract_x
_atom_site_fract_y
_atom_site_fract_z
Si Si1 0.907082 0.269982 0.280371
Si Si2 0.844706 0.739760 0.026747
Si Si3 0.852608 0.264835 0.512696
Si Si4 0.689062 0.500000 0.576798
Si Si5 0.278988 0.500000 0.846022
Si Si6 0.808882 0.500000 0.309814
Si Si7 0.500000 0.813052 0.500000
Si Si8 0.496050 0.124115 0.299951
O O1 0.940783 0.231318 0.362265
O O2 0.943915 0.398184 0.243087
O O3 0.691373 0.255754 0.380274
O O4 0.070292 0.217868 0.120873
O O5 0.816427 0.608092 0.054141
O O6 0.662455 0.806399 0.158618
O O7 0.000000 0.779839 0.000000
O O8 0.796228 0.392378 0.545830
O O9 0.681309 0.184598 0.633035
O O10 0.000000 0.241148 0.500000
O O11 0.491870 0.500000 0.745249
O O12 0.661330 0.500000 0.483880
O O13 0.277275 0.500000 0.737776
O O14 0.504250 0.882834 0.589995
O O15 0.503213 0.000000 0.258672
#
# Coordination Sequence:
#
# PCOD8057496 Si02
#       8
#     4   4   4   2   2   2   2   4
#     4  10  21  33  55  86 115 152 186 230 285 338
#     4  12  21  35  54  88 126 152 181 220 290 354
#     4  10  22  42  63  82 110 149 199 245 279 327
#     4  10  20  33  59  86 112 148 189 236 288 328
#     4  12  19  31  55  86 125 155 175 224 281 355
#     4  10  18  25  49  86 119 146 182 221 272 350
#     4  10  19  37  54  82 118 147 190 234 281 340
#     4  11  23  38  59  85 116 152 193 236 283 337
#
# _framework density 18.459392000000001
#
# number of rings (size 3 to 8) (size 9 to 14) (size 15 to 20)
#    0.000    1.333    5.000    1.500    4.667    0.667 
#    0.000    1.667    0.000    2.000    0.000    0.000 
#    0.000    0.000    0.000    0.000    0.000    0.000 
#
# Total GULP energy -297355.502162 kJ/mol
# GULP energy per Si atom -12389.812590 kJ/mol
# Density = 1.841738 g / cm^3
# Si number density = 18.459392 Si / 1000 Ang^3
#
#
#
# Elastic Constant Matrix: (Units=GPa)
#
#
# Indices 1 2 3 4 5 6 
#
# 1 120.1540 34.9039 68.4081 0.0000 -11.9922 0.0000
# 2 34.9039 107.9913 43.2471 0.0000 -5.2241 0.0000
# 3 68.4081 43.2471 146.8841 0.0000 2.8400 0.0000
# 4 0.0000 0.0000 0.0000 -47.9430 0.0000 11.9930
# 5 -11.9922 -5.2241 2.8400 0.0000 19.7584 0.0000
# 6 0.0000 0.0000 0.0000 11.9930 0.0000 8.7052
#
#
#
# Elastic Compliance Matrix: (Units=1/GPa)
#
#
# Indices 1 2 3 4 5 6 
#
# 1 0.012808 -0.001463 -0.005693 0.000000 0.008205 0.000000
# 2 -0.001463 0.010874 -0.002566 0.000000 0.002356 0.000000
# 3 -0.005693 -0.002566 0.010324 0.000000 -0.005618 0.000000
# 4 0.000000 0.000000 0.000000 -0.015512 0.000000 0.021371
# 5 0.008205 0.002356 -0.005618 0.000000 0.057022 0.000000
# 6 0.000000 0.000000 0.000000 0.021371 0.000000 0.085432
#
#
# Mechanical properties :
#
#
# Convention : Reuss Voigt Hill
#
# Bulk Modulus (GPa) = 68.67098 74.23862 71.45480
# Shear Modulus (GPa) = 26.99140 11.33547 19.16343
#
# Velocity S-wave (km/s) = 3.82803 2.48074 3.22551
# Velocity P-wave (km/s) = 7.53792 6.96491 7.25708
#
# Compressibility (1/GPa) = 0.01456219
#
# Stress axis : x y z
#
# Youngs Moduli (GPa) = 78.07834 91.95911 96.86614
#
# Poissons Ratio (x) = 0.13452 0.55144
# Poissons Ratio (y) = 0.11422 0.24856
# Poissons Ratio (z) = 0.44449 0.23597
#
# Static dielectric constant tensor:
#      x y z
#    x 3.119530 0.000000 0.305930 
#    y 0.000000 3.269160 0.000000 
#    z 0.305930 0.000000 2.509870 
# 
# 
# High freq. dielectric constant tensor:
#      x y z
#    x 1.681480 0.000000 0.009610 
#    y 0.000000 1.704580 0.000000 
#    z 0.009610 0.000000 1.729410 
# 
# From -- ./inp_files/76646.got.cif
#   From: 2010.06.25/outbox.cif.g09.slc.cpg/sg10_39_cif.got.tgz:76646.got - 2010.06.27 22:07:45.
