data_PCOD8057240
_publ_section_title
;
Structure prediction by ZEFSAII (Michael W. Deem and Ramdas Pophale) SiO2 
 PCOD8057240
Probable space group: P 2/M
;
_chemical_formula_sum "Si O2"
_cell_formula_units_Z 24
_cell_length_a 19.082316
_cell_length_b 10.380585
_cell_length_c 27.344973
_cell_angle_alpha 90.000000
_cell_angle_beta 15.045248
_cell_angle_gamma 90.000000
_cell_volume 1406.062482
_symmetry_space_group_name_H-M "P 2/M"
_symmetry_group_IT_number 10
_symmetry_cell_setting 'monoclinic'
loop_
_space_group_symop_operation_xyz
x,y,z
-x,y,-z
-x,-y,-z
x,-y,z
loop_
_atom_site_type_symbol
_atom_site_label
_atom_site_fract_x
_atom_site_fract_y
_atom_site_fract_z
Si Si1 0.191189 0.251737 0.551619
Si Si2 0.434833 0.000000 0.964211
Si Si3 0.748721 0.351794 0.203522
Si Si4 0.559040 0.500000 0.039063
Si Si5 0.179924 0.747652 0.103286
Si Si6 0.068043 0.500000 0.306994
Si Si7 0.934226 0.000000 0.691884
Si Si8 0.797992 0.649289 0.282634
O O1 0.507430 0.257055 0.350920
O O2 0.116503 0.373510 0.568465
O O3 0.125612 0.124946 0.564283
O O4 0.028073 0.253741 0.711869
O O5 0.363387 0.124704 0.979990
O O6 0.751239 0.000000 0.766061
O O7 0.260913 0.000000 0.130358
O O8 0.651361 0.500000 0.264151
O O9 0.838283 0.324131 0.198421
O O10 0.000000 0.320658 0.000000
O O11 0.618830 0.626824 0.030147
O O12 0.244237 0.500000 0.237454
O O13 0.738926 0.500000 0.869597
O O14 0.011220 0.739402 0.166956
O O15 0.500000 0.690226 0.500000
O O16 0.849548 0.500000 0.261928
#
# Coordination Sequence:
#
# PCOD8057240 Si02
#       8
#     4   2   4   2   4   2   2   4
#     4  10  17  29  47  70  98 133 168 198 248 293
#     4   9  18  30  44  70 110 134 159 199 254 302
#     4  10  20  33  50  75 103 132 167 206 246 294
#     4   9  16  24  40  70  96 120 165 207 244 284
#     4  10  17  28  46  72 100 133 162 200 247 296
#     4   9  16  24  42  67  96 123 161 211 242 289
#     4   9  18  30  46  69 104 141 159 197 256 301
#     4  10  18  29  50  74 100 132 165 201 252 293
#
# _framework density 17.068943000000001
#
# number of rings (size 3 to 8) (size 9 to 14) (size 15 to 20)
#    0.000    2.333    3.333    1.000    0.000    4.000 
#    0.000    1.667    0.000    0.000    0.000    7.000 
#    0.000    0.000    0.000    0.000    0.000    0.000 
#
# Total GULP energy -297609.819043 kJ/mol
# GULP energy per Si atom -12400.409127 kJ/mol
# Density = 1.703009 g / cm^3
# Si number density = 17.068943 Si / 1000 Ang^3
#
#
#
# Elastic Constant Matrix: (Units=GPa)
#
#
# Indices 1 2 3 4 5 6 
#
# 1 103.3664 56.6423 53.6625 0.0000 -30.1294 0.0000
# 2 56.6423 138.1745 45.5706 0.0000 -30.2221 0.0000
# 3 53.6625 45.5706 57.6174 0.0000 -21.5561 0.0000
# 4 0.0000 0.0000 0.0000 21.6982 0.0000 -13.8275
# 5 -30.1294 -30.2221 -21.5561 0.0000 37.0027 0.0000
# 6 0.0000 0.0000 0.0000 -13.8275 0.0000 23.8279
#
#
#
# Elastic Compliance Matrix: (Units=1/GPa)
#
#
# Indices 1 2 3 4 5 6 
#
# 1 0.020437 -0.002046 -0.015108 0.000000 0.006168 0.000000
# 2 -0.002046 0.010607 -0.004943 0.000000 0.004118 0.000000
# 3 -0.015108 -0.004943 0.037368 0.000000 0.005430 0.000000
# 4 0.000000 0.000000 0.000000 0.073131 0.000000 0.042439
# 5 0.006168 0.004118 0.005430 0.000000 0.038574 0.000000
# 6 0.000000 0.000000 0.000000 0.042439 0.000000 0.066595
#
#
# Mechanical properties :
#
#
# Convention : Reuss Voigt Hill
#
# Bulk Modulus (GPa) = 41.29284 67.87880 54.58582
# Shear Modulus (GPa) = 16.72360 26.05796 21.39078
#
# Velocity S-wave (km/s) = 3.13352 3.91145 3.54390
# Velocity P-wave (km/s) = 6.11034 7.76228 6.98532
#
# Compressibility (1/GPa) = 0.02421728
#
# Stress axis : x y z
#
# Youngs Moduli (GPa) = 48.93167 94.27935 26.76085
#
# Poissons Ratio (x) = 0.19287 0.40431
# Poissons Ratio (y) = 0.10010 0.13228
# Poissons Ratio (z) = 0.73927 0.46604
#
# Static dielectric constant tensor:
#      x y z
#    x 3.059410 0.000000 -0.344050 
#    y 0.000000 3.217600 0.000000 
#    z -0.344050 0.000000 2.906820 
# 
# 
# High freq. dielectric constant tensor:
#      x y z
#    x 1.643410 0.000000 -0.040660 
#    y 0.000000 1.651160 0.000000 
#    z -0.040660 0.000000 1.628720 
# 
# From -- ./inp_files/46249.got.cif
#   From: 2010.06.25/outbox.cif.g09.slc.cpg/sg10_24_cif.got.tgz:46249.got - 2010.06.27 22:07:45.
