data_PCOD8057663
_publ_section_title
;
Structure prediction by ZEFSAII (Michael W. Deem and Ramdas Pophale) SiO2 
 PCOD8057663
Probable space group: P 2/M
;
_chemical_formula_sum "Si O2"
_cell_formula_units_Z 32
_cell_length_a 21.191828
_cell_length_b 9.085418
_cell_length_c 12.715300
_cell_angle_alpha 90.000000
_cell_angle_beta 125.555758
_cell_angle_gamma 90.000000
_cell_volume 1991.701280
_symmetry_space_group_name_H-M "P 2/M"
_symmetry_group_IT_number 10
_symmetry_cell_setting 'monoclinic'
loop_
_space_group_symop_operation_xyz
x,y,z
-x,y,-z
-x,-y,-z
x,-y,z
loop_
_atom_site_type_symbol
_atom_site_label
_atom_site_fract_x
_atom_site_fract_y
_atom_site_fract_z
Si Si1 0.677350 0.324898 0.351218
Si Si2 0.410642 0.828722 0.920719
Si Si3 0.423138 0.325781 0.552601
Si Si4 0.002525 0.825521 0.385494
Si Si5 0.170358 0.173280 0.547346
Si Si6 0.403470 0.325954 0.300128
Si Si7 0.163245 0.826088 0.784210
Si Si8 0.682646 0.827669 0.963354
O O1 0.678634 0.500000 0.349172
O O2 0.639522 0.265650 0.208313
O O3 0.628929 0.262863 0.403539
O O4 0.764349 0.264592 0.450195
O O5 0.399101 0.000000 0.881619
O O6 0.500000 0.780771 0.000000
O O7 0.380997 0.793422 0.008937
O O8 0.425396 0.500000 0.558764
O O9 0.388117 0.277221 0.405971
O O10 0.511188 0.268462 0.650921
O O11 0.085689 0.780976 0.415103
O O12 0.000000 0.759451 0.500000
O O13 0.921526 0.772648 0.251850
O O14 0.000469 0.000000 0.391323
O O15 0.172434 0.219801 0.671619
O O16 0.186228 0.000000 0.549073
O O17 0.396959 0.500000 0.280569
O O18 0.339367 0.250842 0.165797
O O19 0.169704 0.000000 0.797007
O O20 0.233962 0.760151 0.920528
O O21 0.688007 0.000000 0.946483
#
# Coordination Sequence:
#
# PCOD8057663 Si02
#       8
#     4   4   4   4   4   4   4   4
#     4  11  20  29  44  66  91 116 146 180 219 262
#     4  10  20  32  44  61  90 124 149 172 212 263
#     4   8  17  33  49  63  81 111 149 190 225 254
#     4   7  11  20  40  63  80 110 152 179 200 248
#     4   9  15  27  44  63  88 117 148 177 211 257
#     4   9  17  33  52  63  78 110 153 190 221 256
#     4   8  13  24  41  62  89 117 144 176 212 254
#     4  10  18  28  43  66  94 116 138 176 222 260
#
# _framework density 16.066666999999999
#
# number of rings (size 3 to 8) (size 9 to 14) (size 15 to 20)
#    0.000    3.000    1.250    3.375    0.000    0.750 
#    0.000    3.125    0.000    4.125    0.000    0.875 
#    0.000    7.000    0.000    0.000    0.000    0.000 
#
# Total GULP energy -396455.837155 kJ/mol
# GULP energy per Si atom -12389.244911 kJ/mol
# Density = 1.603010 g / cm^3
# Si number density = 16.066667 Si / 1000 Ang^3
#
#
#
# Elastic Constant Matrix: (Units=GPa)
#
#
# Indices 1 2 3 4 5 6 
#
# 1 72.7725 19.2039 37.7123 0.0000 20.8712 0.0000
# 2 19.2039 28.1568 18.5591 0.0000 2.2990 0.0000
# 3 37.7123 18.5591 87.3984 0.0000 15.8177 0.0000
# 4 0.0000 0.0000 0.0000 20.5018 0.0000 -0.5131
# 5 20.8712 2.2990 15.8177 0.0000 29.5535 0.0000
# 6 0.0000 0.0000 0.0000 -0.5131 0.0000 11.9732
#
#
#
# Elastic Compliance Matrix: (Units=1/GPa)
#
#
# Indices 1 2 3 4 5 6 
#
# 1 0.023045 -0.011205 -0.005289 0.000000 -0.012572 0.000000
# 2 -0.011205 0.046815 -0.006510 0.000000 0.007755 0.000000
# 3 -0.005289 -0.006510 0.015877 0.000000 -0.004256 0.000000
# 4 0.000000 0.000000 0.000000 0.048829 0.000000 0.002093
# 5 -0.012572 0.007755 -0.004256 0.000000 0.044390 0.000000
# 6 0.000000 0.000000 0.000000 0.002093 0.000000 0.083610
#
#
# Mechanical properties :
#
#
# Convention : Reuss Voigt Hill
#
# Bulk Modulus (GPa) = 25.17044 37.69758 31.43401
# Shear Modulus (GPa) = 15.53683 19.92918 17.73300
#
# Velocity S-wave (km/s) = 3.11307 3.52576 3.32582
# Velocity P-wave (km/s) = 5.34994 6.33157 5.86134
#
# Compressibility (1/GPa) = 0.03972915
#
# Stress axis : x y z
#
# Youngs Moduli (GPa) = 43.39357 21.36064 62.98508
#
# Poissons Ratio (x) = 0.23934 0.33314
# Poissons Ratio (y) = 0.48621 0.41004
# Poissons Ratio (z) = 0.22952 0.13906
#
# Static dielectric constant tensor:
#      x y z
#    x 3.437940 0.000000 0.326540 
#    y 0.000000 2.669140 0.000000 
#    z 0.326540 0.000000 3.085730 
# 
# 
# High freq. dielectric constant tensor:
#      x y z
#    x 1.616170 0.000000 0.025360 
#    y 0.000000 1.582410 0.000000 
#    z 0.025360 0.000000 1.598990 
# 
# From -- ./inp_files/54891.got.cif
#   From: 2010.06.25/outbox.cif.g09.slc.cpg/sg10_28_cif.got.tgz:54891.got - 2010.06.27 22:07:45.
