data_PCOD8057604
_publ_section_title
;
Structure prediction by ZEFSAII (Michael W. Deem and Ramdas Pophale) SiO2 
 PCOD8057604
Probable space group: P 2/M
;
_chemical_formula_sum "Si O2"
_cell_formula_units_Z 32
_cell_length_a 12.839169
_cell_length_b 16.397925
_cell_length_c 18.567277
_cell_angle_alpha 90.000000
_cell_angle_beta 27.357908
_cell_angle_gamma 90.000000
_cell_volume 1796.405482
_symmetry_space_group_name_H-M "P 2/M"
_symmetry_group_IT_number 10
_symmetry_cell_setting 'monoclinic'
loop_
_space_group_symop_operation_xyz
x,y,z
-x,y,-z
-x,-y,-z
x,-y,z
loop_
_atom_site_type_symbol
_atom_site_label
_atom_site_fract_x
_atom_site_fract_y
_atom_site_fract_z
Si Si1 0.068507 0.323474 0.036227
Si Si2 0.224829 0.252152 0.407835
Si Si3 0.572288 0.651079 0.381153
Si Si4 0.500434 0.590713 0.269854
Si Si5 0.330271 0.170681 0.899060
Si Si6 0.688396 0.093330 0.239595
Si Si7 0.013637 0.093699 0.804784
Si Si8 0.280897 0.808301 0.527411
O O1 0.844934 0.344885 0.218231
O O2 0.243653 0.398772 0.917742
O O3 0.201980 0.254090 0.997117
O O4 0.000000 0.290242 0.000000
O O5 0.331976 0.342607 0.339447
O O6 0.399945 0.186336 0.266110
O O7 0.164898 0.226203 0.526190
O O8 0.000000 0.251181 0.500000
O O9 0.500000 0.607059 0.500000
O O10 0.498994 0.598854 0.357337
O O11 0.450075 0.739643 0.455092
O O12 0.415909 0.500000 0.301465
O O13 0.247404 0.143999 0.870567
O O14 0.251328 0.107134 0.009826
O O15 0.848362 0.115970 0.207927
O O16 0.431019 0.111879 0.420051
O O17 0.711921 0.000000 0.203462
O O18 0.085012 0.159519 0.700759
O O19 0.051076 0.000000 0.756857
#
# Coordination Sequence:
#
# PCOD8057604 Si02
#       8
#     4   4   4   4   4   4   4   4
#     4   9  16  27  45  67  97 135 163 187 223 274
#     4   9  20  38  57  71  85 120 167 210 256 294
#     4  10  18  28  46  71 103 140 164 180 218 282
#     4   9  19  33  50  76 101 121 153 197 243 290
#     4  10  18  30  48  70  98 129 168 205 233 284
#     4  10  18  27  43  70 104 136 160 188 233 287
#     4  11  20  29  47  76 107 135 160 195 243 286
#     4  10  19  31  48  69  99 130 168 207 235 282
#
# _framework density 17.813351000000001
#
# number of rings (size 3 to 8) (size 9 to 14) (size 15 to 20)
#    0.000    2.250    0.000    6.750    0.000    4.750 
#    0.000    0.625    0.000   14.250    0.000    0.000 
#    0.000    8.000    0.000    0.000    0.000    0.000 
#
# Total GULP energy -396570.542121 kJ/mol
# GULP energy per Si atom -12392.829441 kJ/mol
# Density = 1.777281 g / cm^3
# Si number density = 17.813351 Si / 1000 Ang^3
#
#
#
# Elastic Constant Matrix: (Units=GPa)
#
#
# Indices 1 2 3 4 5 6 
#
# 1 73.4304 31.9630 54.1034 0.0000 -10.0643 0.0000
# 2 31.9630 85.7676 41.1338 0.0000 -1.0469 0.0000
# 3 54.1034 41.1338 121.1571 0.0000 11.1054 0.0000
# 4 0.0000 0.0000 0.0000 16.5226 0.0000 0.2754
# 5 -10.0643 -1.0469 11.1054 0.0000 24.8514 0.0000
# 6 0.0000 0.0000 0.0000 0.2754 0.0000 11.9066
#
#
#
# Elastic Compliance Matrix: (Units=1/GPa)
#
#
# Indices 1 2 3 4 5 6 
#
# 1 0.026160 -0.003899 -0.011797 0.000000 0.015702 0.000000
# 2 -0.003899 0.014700 -0.003296 0.000000 0.000513 0.000000
# 3 -0.011797 -0.003296 0.015736 0.000000 -0.011949 0.000000
# 4 0.000000 0.000000 0.000000 0.060547 0.000000 -0.001401
# 5 0.015702 0.000513 -0.011949 0.000000 0.051959 0.000000
# 6 0.000000 0.000000 0.000000 -0.001401 0.000000 0.084020
#
#
# Mechanical properties :
#
#
# Convention : Reuss Voigt Hill
#
# Bulk Modulus (GPa) = 53.73504 59.41727 56.57616
# Shear Modulus (GPa) = 16.81742 20.86645 18.84193
#
# Velocity S-wave (km/s) = 3.07594 3.42628 3.25582
# Velocity P-wave (km/s) = 6.54571 7.00574 6.77963
#
# Compressibility (1/GPa) = 0.01860983
#
# Stress axis : x y z
#
# Youngs Moduli (GPa) = 38.22639 68.02800 63.54755
#
# Poissons Ratio (x) = 0.26527 0.74968
# Poissons Ratio (y) = 0.14906 0.20948
# Poissons Ratio (z) = 0.45097 0.22425
#
# Static dielectric constant tensor:
#      x y z
#    x 2.867200 0.000000 0.180900 
#    y 0.000000 3.181140 0.000000 
#    z 0.180900 0.000000 3.459270 
# 
# 
# High freq. dielectric constant tensor:
#      x y z
#    x 1.637420 0.000000 0.017970 
#    y 0.000000 1.683370 0.000000 
#    z 0.017970 0.000000 1.696530 
# 
# From -- ./inp_files/70836.got.cif
#   From: 2010.06.25/outbox.cif.g09.slc.cpg/sg10_36_cif.got.tgz:70836.got - 2010.06.27 22:07:45.
