data_PCOD8057672
_publ_section_title
;
Structure prediction by ZEFSAII (Michael W. Deem and Ramdas Pophale) SiO2 
 PCOD8057672
Probable space group: P 2/M
;
_chemical_formula_sum "Si O2"
_cell_formula_units_Z 28
_cell_length_a 11.977619
_cell_length_b 9.351761
_cell_length_c 21.555686
_cell_angle_alpha 90.000000
_cell_angle_beta 134.194238
_cell_angle_gamma 90.000000
_cell_volume 1731.144087
_symmetry_space_group_name_H-M "P 2/M"
_symmetry_group_IT_number 10
_symmetry_cell_setting 'monoclinic'
loop_
_space_group_symop_operation_xyz
x,y,z
-x,y,-z
-x,-y,-z
x,-y,z
loop_
_atom_site_type_symbol
_atom_site_label
_atom_site_fract_x
_atom_site_fract_y
_atom_site_fract_z
Si Si1 0.938830 0.164882 0.045399
Si Si2 0.420546 0.161561 0.373569
Si Si3 0.732163 0.159787 0.551210
Si Si4 0.315744 0.668511 0.866237
Si Si5 0.843855 0.663491 0.777617
Si Si6 0.992960 0.661721 0.700143
Si Si7 0.659202 0.669100 0.983532
O O1 0.055675 0.247293 0.135400
O O2 0.925457 0.000000 0.061327
O O3 0.769942 0.240379 0.981502
O O4 0.000000 0.177253 0.000000
O O5 0.599748 0.214390 0.451551
O O6 0.338294 0.163031 0.407870
O O7 0.329390 0.268069 0.292306
O O8 0.416568 0.000000 0.345177
O O9 0.887699 0.255026 0.609343
O O10 0.781478 0.000000 0.552135
O O11 0.296396 0.500000 0.864175
O O12 0.479408 0.705963 0.896540
O O13 0.168244 0.728719 0.770124
O O14 0.310872 0.724488 0.934931
O O15 0.829432 0.500000 0.794725
O O16 0.924875 0.671820 0.742606
O O17 0.996338 0.500000 0.677670
O O18 0.692815 0.500000 0.989214
#
# Coordination Sequence:
#
# PCOD8057672 Si02
#       7
#     4   4   4   4   4   4   4
#     4  11  23  35  45  60  86 116 146 184 225 258
#     4   8  14  25  38  53  80 113 142 173 209 249
#     4   8  14  23  35  54  81 115 145 168 202 247
#     4   8  14  26  45  66  88 112 139 176 220 258
#     4  10  18  28  44  62  80 108 147 182 214 256
#     4   9  15  24  39  61  87 112 140 173 210 251
#     4   9  16  30  49  64  82 111 146 180 215 259
#
# _framework density 16.174274
#
# number of rings (size 3 to 8) (size 9 to 14) (size 15 to 20)
#    0.000    3.000    1.429    2.571    0.000    2.286 
#    0.000    5.000    0.000    0.000    0.000    0.000 
#    0.000    1.143    0.000   12.857    0.000    6.286 
#
# Total GULP energy -346965.426356 kJ/mol
# GULP energy per Si atom -12391.622370 kJ/mol
# Density = 1.613746 g / cm^3
# Si number density = 16.174274 Si / 1000 Ang^3
#
#
#
# Elastic Constant Matrix: (Units=GPa)
#
#
# Indices 1 2 3 4 5 6 
#
# 1 59.7868 39.8183 42.3985 0.0000 25.5190 0.0000
# 2 39.8183 91.3952 51.6937 0.0000 22.4527 0.0000
# 3 42.3985 51.6937 88.2292 0.0000 46.8116 0.0000
# 4 0.0000 0.0000 0.0000 27.0408 0.0000 4.1987
# 5 25.5190 22.4527 46.8116 0.0000 32.9622 0.0000
# 6 0.0000 0.0000 0.0000 4.1987 0.0000 9.7957
#
#
#
# Elastic Compliance Matrix: (Units=1/GPa)
#
#
# Indices 1 2 3 4 5 6 
#
# 1 0.029931 -0.008675 -0.000574 0.000000 -0.016449 0.000000
# 2 -0.008675 0.019737 -0.015519 0.000000 0.015311 0.000000
# 3 -0.000574 -0.015519 0.060274 0.000000 -0.074584 0.000000
# 4 0.000000 0.000000 0.000000 0.039618 0.000000 -0.016981
# 5 -0.016449 0.015311 -0.074584 0.000000 0.138564 0.000000
# 6 0.000000 0.000000 0.000000 -0.016981 0.000000 0.109365
#
#
# Mechanical properties :
#
#
# Convention : Reuss Voigt Hill
#
# Bulk Modulus (GPa) = 16.55411 56.35914 36.45663
# Shear Modulus (GPa) = 10.70300 20.99312 15.84806
#
# Velocity S-wave (km/s) = 2.57520 3.60659 3.13362
# Velocity P-wave (km/s) = 4.37027 7.22938 5.97341
#
# Compressibility (1/GPa) = 0.06040794
#
# Stress axis : x y z
#
# Youngs Moduli (GPa) = 33.40981 50.66627 16.59093
#
# Poissons Ratio (x) = 0.43952 0.00952
# Poissons Ratio (y) = 0.28983 0.25747
# Poissons Ratio (z) = 0.01916 0.78627
#
# Static dielectric constant tensor:
#      x y z
#    x 2.809240 0.000000 0.513600 
#    y 0.000000 3.114960 0.000000 
#    z 0.513600 0.000000 3.378390 
# 
# 
# High freq. dielectric constant tensor:
#      x y z
#    x 1.572140 0.000000 0.043300 
#    y 0.000000 1.613110 0.000000 
#    z 0.043300 0.000000 1.617660 
# 
# From -- ./inp_files/54957.got.cif
#   From: 2010.06.25/outbox.cif.g09.slc.cpg/sg10_28_cif.got.tgz:54957.got - 2010.06.27 22:07:45.
