data_PCOD8057991
_publ_section_title
;
Structure prediction by ZEFSAII (Michael W. Deem and Ramdas Pophale) SiO2 
 PCOD8057991
Probable space group: P 2/M
;
_chemical_formula_sum "Si O2"
_cell_formula_units_Z 32
_cell_length_a 31.142400
_cell_length_b 8.828489
_cell_length_c 21.502243
_cell_angle_alpha 90.000000
_cell_angle_beta 160.777719
_cell_angle_gamma 90.000000
_cell_volume 1946.375945
_symmetry_space_group_name_H-M "P 2/M"
_symmetry_group_IT_number 10
_symmetry_cell_setting 'monoclinic'
loop_
_space_group_symop_operation_xyz
x,y,z
-x,y,-z
-x,-y,-z
x,-y,z
loop_
_atom_site_type_symbol
_atom_site_label
_atom_site_fract_x
_atom_site_fract_y
_atom_site_fract_z
Si Si1 0.594560 0.177240 0.185837
Si Si2 0.130417 0.676920 0.454931
Si Si3 0.497700 0.679779 0.180076
Si Si4 0.869444 0.332410 0.861686
Si Si5 0.206169 0.680089 0.791332
Si Si6 0.943287 0.676245 0.781902
Si Si7 0.279153 0.822920 0.442967
Si Si8 0.984442 0.320613 0.574885
O O1 0.738988 0.226087 0.364494
O O2 0.550889 0.267207 0.186692
O O3 0.591557 0.000000 0.196826
O O4 0.500000 0.220267 0.000000
O O5 0.167220 0.500000 0.511692
O O6 0.048562 0.707658 0.280275
O O7 0.039011 0.733471 0.386592
O O8 0.501729 0.500000 0.186904
O O9 0.585058 0.742208 0.355788
O O10 0.352344 0.745573 0.992280
O O11 0.806921 0.500000 0.778687
O O12 0.764583 0.220760 0.687073
O O13 0.000000 0.334073 0.000000
O O14 0.916815 0.279419 0.995475
O O15 0.212968 0.500000 0.799745
O O16 0.132948 0.740014 0.629292
O O17 0.124184 0.737490 0.739674
O O18 0.912250 0.500000 0.754021
O O19 0.827022 0.774619 0.651282
O O20 0.299956 0.000000 0.475153
O O21 0.984539 0.500000 0.571272
#
# Coordination Sequence:
#
# PCOD8057991 Si02
#       8
#     4   4   4   4   4   4   4   4
#     4  11  23  34  43  62  95 128 155 188 229 271
#     4  10  18  29  49  71  92 121 155 187 226 281
#     4  11  20  31  48  68  91 123 159 190 229 277
#     4   8  15  28  44  61  88 121 152 185 225 271
#     4   8  15  27  45  68  93 117 149 197 238 267
#     4   9  17  29  44  66  93 122 152 187 226 273
#     4  11  20  29  43  65  93 123 153 189 229 270
#     4   8  14  27  46  70  93 114 149 196 237 269
#
# _framework density 16.440812999999999
#
# number of rings (size 3 to 8) (size 9 to 14) (size 15 to 20)
#    0.000    2.500    1.250    4.125    0.000    4.250 
#    0.000    0.000    0.000    1.500    0.000    7.000 
#    0.000    7.000    0.000    0.000    0.000    0.000 
#
# Total GULP energy -396642.928455 kJ/mol
# GULP energy per Si atom -12395.091514 kJ/mol
# Density = 1.640339 g / cm^3
# Si number density = 16.440813 Si / 1000 Ang^3
#
#
#
# Elastic Constant Matrix: (Units=GPa)
#
#
# Indices 1 2 3 4 5 6 
#
# 1 102.9879 19.8945 59.5147 0.0000 -10.7727 0.0000
# 2 19.8945 50.7785 26.6152 0.0000 -6.1320 0.0000
# 3 59.5147 26.6152 94.0996 0.0000 -15.2441 0.0000
# 4 0.0000 0.0000 0.0000 13.5567 0.0000 -6.8906
# 5 -10.7727 -6.1320 -15.2441 0.0000 27.8014 0.0000
# 6 0.0000 0.0000 0.0000 -6.8906 0.0000 6.1184
#
#
#
# Elastic Compliance Matrix: (Units=1/GPa)
#
#
# Indices 1 2 3 4 5 6 
#
# 1 0.015363 -0.001062 -0.009318 0.000000 0.000610 0.000000
# 2 -0.001062 0.023265 -0.005646 0.000000 0.001624 0.000000
# 3 -0.009318 -0.005646 0.019020 0.000000 0.005573 0.000000
# 4 0.000000 0.000000 0.000000 0.172519 0.000000 0.194292
# 5 0.000610 0.001624 0.005573 0.000000 0.039620 0.000000
# 6 0.000000 0.000000 0.000000 0.194292 0.000000 0.382255
#
#
# Mechanical properties :
#
#
# Convention : Reuss Voigt Hill
#
# Bulk Modulus (GPa) = 39.06584 51.10166 45.08375
# Shear Modulus (GPa) = 7.21893 18.95141 13.08517
#
# Velocity S-wave (km/s) = 2.09771 3.39883 2.82422
# Velocity P-wave (km/s) = 5.44796 6.82293 6.17384
#
# Compressibility (1/GPa) = 0.02559781
#
# Stress axis : x y z
#
# Youngs Moduli (GPa) = 65.09047 42.98378 52.57697
#
# Poissons Ratio (x) = 0.04564 0.48989
# Poissons Ratio (y) = 0.06911 0.29682
# Poissons Ratio (z) = 0.60649 0.24267
#
# Static dielectric constant tensor:
#      x y z
#    x 3.249790 0.000000 -0.225790 
#    y 0.000000 2.876450 0.000000 
#    z -0.225790 0.000000 3.378300 
# 
# 
# High freq. dielectric constant tensor:
#      x y z
#    x 1.613880 0.000000 -0.022560 
#    y 0.000000 1.612300 0.000000 
#    z -0.022560 0.000000 1.627380 
# 
# From -- ./inp_files/56407.got.cif
#   From: 2010.06.25/outbox.cif.g09.slc.cpg/sg10_29_cif.got.tgz:56407.got - 2010.06.27 22:07:45.
