data_PCOD8057010
_publ_section_title
;
Structure prediction by ZEFSAII (Michael W. Deem and Ramdas Pophale) SiO2 
 PCOD8057010
Probable space group: P 2/M
;
_chemical_formula_sum "Si O2"
_cell_formula_units_Z 32
_cell_length_a 13.554899
_cell_length_b 8.565190
_cell_length_c 26.809620
_cell_angle_alpha 90.000000
_cell_angle_beta 139.510588
_cell_angle_gamma 90.000000
_cell_volume 2021.037523
_symmetry_space_group_name_H-M "P 2/M"
_symmetry_group_IT_number 10
_symmetry_cell_setting 'monoclinic'
loop_
_space_group_symop_operation_xyz
x,y,z
-x,y,-z
-x,-y,-z
x,-y,z
loop_
_atom_site_type_symbol
_atom_site_label
_atom_site_fract_x
_atom_site_fract_y
_atom_site_fract_z
Si Si1 0.214086 0.183751 0.612229
Si Si2 0.776361 0.817379 0.919313
Si Si3 0.528376 0.314329 0.763394
Si Si4 0.296047 0.816616 0.466020
Si Si5 0.366578 0.182282 0.382450
Si Si6 0.249122 0.316535 0.237426
Si Si7 0.993735 0.318579 0.070371
Si Si8 0.088737 0.682241 0.466408
O O1 0.359622 0.247607 0.696925
O O2 0.203188 0.267289 0.554376
O O3 0.067508 0.222543 0.589298
O O4 0.226058 0.000000 0.608242
O O5 0.605070 0.758648 0.843009
O O6 0.882208 0.713713 0.924533
O O7 0.793101 0.000000 0.914718
O O8 0.838090 0.778619 0.999281
O O9 0.524780 0.500000 0.765979
O O10 0.621311 0.252109 0.750546
O O11 0.459388 0.759142 0.549335
O O12 0.284259 0.777666 0.402854
O O13 0.164686 0.720373 0.442749
O O14 0.274886 0.000000 0.467644
O O15 0.273380 0.261529 0.302724
O O16 0.366487 0.000000 0.372867
O O17 0.261677 0.500000 0.240139
O O18 0.078709 0.265618 0.154289
O O19 0.951692 0.500000 0.055569
O O20 0.052833 0.500000 0.456867
#
# Coordination Sequence:
#
# PCOD8057010 Si02
#       8
#     4   4   4   4   4   4   4   4
#     4  11  21  33  48  66  87 114 146 183 218 256
#     4  10  17  25  39  60  82 110 147 182 213 256
#     4  10  19  31  44  62  89 119 147 180 218 260
#     4   9  18  33  47  63  86 115 147 181 220 261
#     4   9  18  30  46  64  86 114 146 182 220 258
#     4   9  18  28  41  61  87 116 147 180 217 257
#     4   9  16  27  39  54  81 117 147 178 218 258
#     4  11  21  33  48  66  87 115 146 180 220 262
#
# _framework density 15.833451999999999
#
# number of rings (size 3 to 8) (size 9 to 14) (size 15 to 20)
#    0.000    2.250    0.000    7.875    0.000    6.000 
#    0.000    1.250    0.000    0.000    0.000    0.000 
#    0.000    1.000    0.000   10.500    0.000    6.000 
#
# Total GULP energy -396655.914126 kJ/mol
# GULP energy per Si atom -12395.497316 kJ/mol
# Density = 1.579741 g / cm^3
# Si number density = 15.833452 Si / 1000 Ang^3
#
#
#
# Elastic Constant Matrix: (Units=GPa)
#
#
# Indices 1 2 3 4 5 6 
#
# 1 52.2938 8.7168 28.7120 0.0000 0.6465 0.0000
# 2 8.7168 47.1256 23.9584 0.0000 2.1173 0.0000
# 3 28.7120 23.9584 135.7357 0.0000 7.2996 0.0000
# 4 0.0000 0.0000 0.0000 28.3663 0.0000 0.3345
# 5 0.6465 2.1173 7.2996 0.0000 17.8328 0.0000
# 6 0.0000 0.0000 0.0000 0.3345 0.0000 19.3067
#
#
#
# Elastic Compliance Matrix: (Units=1/GPa)
#
#
# Indices 1 2 3 4 5 6 
#
# 1 0.021807 -0.001878 -0.004346 0.000000 0.001212 0.000000
# 2 -0.001878 0.023495 -0.003684 0.000000 -0.001213 0.000000
# 3 -0.004346 -0.003684 0.009105 0.000000 -0.003132 0.000000
# 4 0.000000 0.000000 0.000000 0.035260 0.000000 -0.000611
# 5 0.001212 -0.001213 -0.003132 0.000000 0.057459 0.000000
# 6 0.000000 0.000000 0.000000 -0.000611 0.000000 0.051806
#
#
# Mechanical properties :
#
#
# Convention : Reuss Voigt Hill
#
# Bulk Modulus (GPa) = 28.91086 39.76994 34.34040
# Shear Modulus (GPa) = 21.71259 24.68569 23.19914
#
# Velocity S-wave (km/s) = 3.70714 3.95281 3.83194
# Velocity P-wave (km/s) = 6.05168 6.78271 6.42760
#
# Compressibility (1/GPa) = 0.03458908
#
# Stress axis : x y z
#
# Youngs Moduli (GPa) = 45.85619 42.56226 109.82439
#
# Poissons Ratio (x) = 0.07995 0.47735
# Poissons Ratio (y) = 0.08614 0.40464
# Poissons Ratio (z) = 0.19931 0.15682
#
# Static dielectric constant tensor:
#      x y z
#    x 2.508910 0.000000 0.474250 
#    y 0.000000 2.983480 0.000000 
#    z 0.474250 0.000000 2.471900 
# 
# 
# High freq. dielectric constant tensor:
#      x y z
#    x 1.553820 0.000000 0.006450 
#    y 0.000000 1.617810 0.000000 
#    z 0.006450 0.000000 1.617280 
# 
# From -- ./inp_files/88562.got.cif
#   From: 2010.06.25/outbox.cif.g09.slc.cpg/sg10_45_cif.got.tgz:88562.got - 2010.06.27 22:07:45.
