data_PCOD8057320
_publ_section_title
;
Structure prediction by ZEFSAII (Michael W. Deem and Ramdas Pophale) SiO2 
 PCOD8057320
Probable space group: P 2/M
;
_chemical_formula_sum "Si O2"
_cell_formula_units_Z 32
_cell_length_a 24.311374
_cell_length_b 9.150255
_cell_length_c 17.712941
_cell_angle_alpha 90.000000
_cell_angle_beta 30.235606
_cell_angle_gamma 90.000000
_cell_volume 1984.184116
_symmetry_space_group_name_H-M "P 2/M"
_symmetry_group_IT_number 10
_symmetry_cell_setting 'monoclinic'
loop_
_space_group_symop_operation_xyz
x,y,z
-x,y,-z
-x,-y,-z
x,-y,z
loop_
_atom_site_type_symbol
_atom_site_label
_atom_site_fract_x
_atom_site_fract_y
_atom_site_fract_z
Si Si1 0.987737 0.672238 0.426564
Si Si2 0.597165 0.672735 0.721489
Si Si3 0.642610 0.672962 0.952313
Si Si4 0.194791 0.168859 0.128078
Si Si5 0.371317 0.661994 0.638357
Si Si6 0.748378 0.672844 0.671687
Si Si7 0.343410 0.832488 0.813755
Si Si8 0.439030 0.672477 0.401246
O O1 0.002058 0.500000 0.396310
O O2 0.870893 0.732850 0.536557
O O3 0.000000 0.710571 0.500000
O O4 0.076740 0.756861 0.271763
O O5 0.596780 0.500000 0.731549
O O6 0.692427 0.738401 0.662062
O O7 0.618860 0.717927 0.608694
O O8 0.479209 0.731166 0.887738
O O9 0.654152 0.500000 0.951882
O O10 0.724276 0.751459 0.911489
O O11 0.673025 0.718195 0.831355
O O12 0.186223 0.000000 0.161567
O O13 0.237763 0.186012 0.991617
O O14 0.500000 0.659505 0.500000
O O15 0.321460 0.500000 0.707978
O O16 0.313040 0.768847 0.766942
O O17 0.358338 0.715887 0.566482
O O18 0.755857 0.500000 0.658199
O O19 0.444292 0.749932 0.732348
O O20 0.377453 0.000000 0.763364
O O21 0.463792 0.500000 0.374592
#
# Coordination Sequence:
#
# PCOD8057320 Si02
#       8
#     4   4   4   4   4   4   4   4
#     4  10  19  33  51  69  89 117 156 199 234 269
#     4   9  16  26  46  72  96 122 150 186 228 271
#     4  10  17  29  49  69  92 122 156 188 224 270
#     4  11  22  32  45  67  94 123 156 192 232 272
#     4   8  15  26  41  63  91 119 147 180 220 272
#     4   9  17  29  46  71  94 115 155 198 227 265
#     4  10  19  29  42  63  91 121 153 187 223 267
#     4   9  16  27  44  67  93 121 149 178 222 275
#
# _framework density 16.127535999999999
#
# number of rings (size 3 to 8) (size 9 to 14) (size 15 to 20)
#    0.000    2.500    2.500    1.875    0.000    5.500 
#    0.000    0.000    0.000    3.750    0.000    0.875 
#    0.000    7.000    0.000    0.000    0.000    0.000 
#
# Total GULP energy -396658.636951 kJ/mol
# GULP energy per Si atom -12395.582405 kJ/mol
# Density = 1.609083 g / cm^3
# Si number density = 16.127536 Si / 1000 Ang^3
#
#
#
# Elastic Constant Matrix: (Units=GPa)
#
#
# Indices 1 2 3 4 5 6 
#
# 1 134.9033 31.6435 71.8462 0.0000 10.1559 0.0000
# 2 31.6435 48.4361 34.7300 0.0000 8.9969 0.0000
# 3 71.8462 34.7300 78.6912 0.0000 8.0284 0.0000
# 4 0.0000 0.0000 0.0000 17.9484 0.0000 6.4887
# 5 10.1559 8.9969 8.0284 0.0000 28.2349 0.0000
# 6 0.0000 0.0000 0.0000 6.4887 0.0000 6.2507
#
#
#
# Elastic Compliance Matrix: (Units=1/GPa)
#
#
# Indices 1 2 3 4 5 6 
#
# 1 0.014492 0.000284 -0.013199 0.000000 -0.001550 0.000000
# 2 0.000284 0.031233 -0.013407 0.000000 -0.006242 0.000000
# 3 -0.013199 -0.013407 0.030644 0.000000 0.000306 0.000000
# 4 0.000000 0.000000 0.000000 0.089185 0.000000 -0.092582
# 5 -0.001550 -0.006242 0.000306 0.000000 0.037877 0.000000
# 6 0.000000 0.000000 0.000000 -0.092582 0.000000 0.256091
#
#
# Mechanical properties :
#
#
# Convention : Reuss Voigt Hill
#
# Bulk Modulus (GPa) = 42.14767 59.83000 50.98884
# Shear Modulus (GPa) = 9.61401 18.74085 14.17743
#
# Velocity S-wave (km/s) = 2.44421 3.41257 2.96815
# Velocity P-wave (km/s) = 5.84434 7.25990 6.59023
#
# Compressibility (1/GPa) = 0.02372610
#
# Stress axis : x y z
#
# Youngs Moduli (GPa) = 69.00316 32.01758 32.63244
#
# Poissons Ratio (x) = -0.00909 0.43070
# Poissons Ratio (y) = -0.01960 0.43750
# Poissons Ratio (z) = 0.91075 0.42926
#
# Static dielectric constant tensor:
#      x y z
#    x 3.387150 0.000000 0.261430 
#    y 0.000000 2.872250 0.000000 
#    z 0.261430 0.000000 3.170250 
# 
# 
# High freq. dielectric constant tensor:
#      x y z
#    x 1.611630 0.000000 0.023040 
#    y 0.000000 1.596470 0.000000 
#    z 0.023040 0.000000 1.604230 
# 
# From -- ./inp_files/56474.got.cif
#   From: 2010.06.25/outbox.cif.g09.slc.cpg/sg10_29_cif.got.tgz:56474.got - 2010.06.27 22:07:45.
