data_PCOD8057361
_publ_section_title
;
Structure prediction by ZEFSAII (Michael W. Deem and Ramdas Pophale) SiO2 
 PCOD8057361
Probable space group: P 2/M
;
_chemical_formula_sum "Si O2"
_cell_formula_units_Z 26
_cell_length_a 8.811854
_cell_length_b 14.167403
_cell_length_c 13.132096
_cell_angle_alpha 90.000000
_cell_angle_beta 58.018690
_cell_angle_gamma 90.000000
_cell_volume 1390.594684
_symmetry_space_group_name_H-M "P 2/M"
_symmetry_group_IT_number 10
_symmetry_cell_setting 'monoclinic'
loop_
_space_group_symop_operation_xyz
x,y,z
-x,y,-z
-x,-y,-z
x,-y,z
loop_
_atom_site_type_symbol
_atom_site_label
_atom_site_fract_x
_atom_site_fract_y
_atom_site_fract_z
Si Si1 0.525538 0.761473 0.104360
Si Si2 0.860438 0.111267 0.962208
Si Si3 0.367496 0.606684 0.776304
Si Si4 0.069518 0.605881 0.730572
Si Si5 0.000000 0.753047 0.500000
Si Si6 0.872990 0.211521 0.750771
Si Si7 0.273230 0.604967 0.454752
O O1 0.667041 0.846555 0.057875
O O2 0.599702 0.675295 0.142190
O O3 0.333624 0.801233 0.208811
O O4 0.500000 0.722233 0.000000
O O5 0.839262 0.000000 0.966023
O O6 0.927016 0.145546 0.826750
O O7 0.000000 0.142327 0.000000
O O8 0.374569 0.500000 0.815593
O O9 0.172268 0.627945 0.799167
O O10 0.516041 0.621666 0.635456
O O11 0.987878 0.500000 0.760331
O O12 0.221939 0.615847 0.590528
O O13 0.909929 0.679854 0.770784
O O14 0.006529 0.814622 0.392933
O O15 0.170770 0.684369 0.426345
O O16 0.219452 0.500000 0.434037
#
# Coordination Sequence:
#
# PCOD8057361 Si02
#       7
#     4   4   4   4   2   4   4
#     4  10  21  35  54  79 107 137 179 223 264 316
#     4  10  22  42  66  83  98 129 176 226 271 322
#     4  10  18  30  47  72 109 149 187 224 260 301
#     4   9  18  30  48  75 109 149 186 219 255 303
#     4  10  17  30  49  80 118 144 174 214 268 320
#     4  10  20  34  55  84 112 143 177 218 267 318
#     4   9  16  26  45  71 105 148 191 222 250 297
#
# _framework density 18.697037999999999
#
# number of rings (size 3 to 8) (size 9 to 14) (size 15 to 20)
#    0.000    2.308    1.538    1.615    0.000    6.154 
#    0.000    2.692    0.000    8.308    0.000    2.154 
#    0.000    0.000    0.000    0.000    0.000    0.000 
#
# Total GULP energy -322251.210327 kJ/mol
# GULP energy per Si atom -12394.277320 kJ/mol
# Density = 1.865448 g / cm^3
# Si number density = 18.697038 Si / 1000 Ang^3
#
#
#
# Elastic Constant Matrix: (Units=GPa)
#
#
# Indices 1 2 3 4 5 6 
#
# 1 99.5559 46.6920 43.9040 0.0000 9.5396 0.0000
# 2 46.6920 77.2729 45.0240 0.0000 8.0507 0.0000
# 3 43.9040 45.0240 92.2432 0.0000 10.1411 0.0000
# 4 0.0000 0.0000 0.0000 21.5149 0.0000 0.1314
# 5 9.5396 8.0507 10.1411 0.0000 29.1380 0.0000
# 6 0.0000 0.0000 0.0000 0.1314 0.0000 23.1416
#
#
#
# Elastic Compliance Matrix: (Units=1/GPa)
#
#
# Indices 1 2 3 4 5 6 
#
# 1 0.014986 -0.006747 -0.003645 0.000000 -0.001774 0.000000
# 2 -0.006747 0.021235 -0.007020 0.000000 -0.001215 0.000000
# 3 -0.003645 -0.007020 0.016281 0.000000 -0.002533 0.000000
# 4 0.000000 0.000000 0.000000 0.046481 0.000000 -0.000264
# 5 -0.001774 -0.001215 -0.002533 0.000000 0.036118 0.000000
# 6 0.000000 0.000000 0.000000 -0.000264 0.000000 0.043214
#
#
# Mechanical properties :
#
#
# Convention : Reuss Voigt Hill
#
# Bulk Modulus (GPa) = 56.56559 60.03467 58.30013
# Shear Modulus (GPa) = 22.82797 23.65571 23.24184
#
# Velocity S-wave (km/s) = 3.49799 3.56084 3.52955
# Velocity P-wave (km/s) = 6.82891 7.00607 6.91806
#
# Compressibility (1/GPa) = 0.01767859
#
# Stress axis : x y z
#
# Youngs Moduli (GPa) = 66.72800 47.09252 61.42317
#
# Poissons Ratio (x) = 0.31773 0.22386
# Poissons Ratio (y) = 0.45022 0.43118
# Poissons Ratio (z) = 0.24320 0.33058
#
# Static dielectric constant tensor:
#      x y z
#    x 3.588080 0.000000 0.068820 
#    y 0.000000 3.192980 0.000000 
#    z 0.068820 0.000000 3.494920 
# 
# 
# High freq. dielectric constant tensor:
#      x y z
#    x 1.731510 0.000000 0.007670 
#    y 0.000000 1.693210 0.000000 
#    z 0.007670 0.000000 1.723760 
# 
# From -- ./inp_files/28416.got.cif
#   From: 2010.06.25/outbox.cif.g09.slc.cpg/sg10_15_cif.got.tgz:28416.got - 2010.06.27 22:07:45.
