data_PCOD8057606
_publ_section_title
;
Structure prediction by ZEFSAII (Michael W. Deem and Ramdas Pophale) SiO2 
 PCOD8057606
Probable space group: P 2/M
;
_chemical_formula_sum "Si O2"
_cell_formula_units_Z 24
_cell_length_a 16.797396
_cell_length_b 7.748297
_cell_length_c 12.344659
_cell_angle_alpha 90.000000
_cell_angle_beta 117.772383
_cell_angle_gamma 90.000000
_cell_volume 1421.592806
_symmetry_space_group_name_H-M "P 2/M"
_symmetry_group_IT_number 10
_symmetry_cell_setting 'monoclinic'
loop_
_space_group_symop_operation_xyz
x,y,z
-x,y,-z
-x,-y,-z
x,-y,z
loop_
_atom_site_type_symbol
_atom_site_label
_atom_site_fract_x
_atom_site_fract_y
_atom_site_fract_z
Si Si1 0.626306 0.500000 0.669356
Si Si2 0.686872 0.806894 0.422345
Si Si3 0.008835 0.295978 0.672271
Si Si4 0.253968 0.193669 0.300327
Si Si5 0.855980 0.295612 0.415115
Si Si6 0.945694 0.704610 0.860837
Si Si7 0.566061 0.500000 0.384410
O O1 0.685438 0.328665 0.728631
O O2 0.589916 0.500000 0.525124
O O3 0.541933 0.500000 0.698347
O O4 0.738296 0.764091 0.567138
O O5 0.759115 0.791499 0.371207
O O6 0.605998 0.671685 0.353200
O O7 0.646075 0.000000 0.396939
O O8 0.004064 0.500000 0.663926
O O9 0.103036 0.238454 0.675879
O O10 0.924224 0.225432 0.550308
O O11 0.001911 0.230716 0.791421
O O12 0.151239 0.207925 0.198713
O O13 0.288554 0.000000 0.297377
O O14 0.843519 0.500000 0.415567
O O15 0.932356 0.500000 0.850635
O O16 0.000000 0.767420 0.000000
#
# Coordination Sequence:
#
# PCOD8057606 Si02
#       7
#     2   4   4   4   4   4   2
#     4   9  18  32  47  63  87 120 154 186 226 278
#     4  10  18  27  44  68  92 119 152 184 223 277
#     4   8  15  24  41  64  86 120 160 187 220 260
#     4  10  19  30  46  65  89 121 155 190 224 267
#     4   9  14  25  43  61  87 122 153 186 220 264
#     4  10  18  29  46  66  92 125 160 194 223 259
#     4   9  18  30  46  64  90 121 145 187 234 268
#
# _framework density 16.882470999999999
#
# number of rings (size 3 to 8) (size 9 to 14) (size 15 to 20)
#    0.000    2.667    3.333    1.000    0.000    1.000 
#    0.000    5.833    0.000    0.000    0.000    0.000 
#    0.000    2.667    0.000    3.000    0.000    0.333 
#
# Total GULP energy -297482.493555 kJ/mol
# GULP energy per Si atom -12395.103898 kJ/mol
# Density = 1.684405 g / cm^3
# Si number density = 16.882471 Si / 1000 Ang^3
#
#
#
# Elastic Constant Matrix: (Units=GPa)
#
#
# Indices 1 2 3 4 5 6 
#
# 1 148.7756 55.6643 36.0901 0.0000 -3.9298 0.0000
# 2 55.6643 91.2463 18.0365 0.0000 2.7887 0.0000
# 3 36.0901 18.0365 56.0647 0.0000 -10.1204 0.0000
# 4 0.0000 0.0000 0.0000 7.9495 0.0000 0.8338
# 5 -3.9298 2.7887 -10.1204 0.0000 16.0554 0.0000
# 6 0.0000 0.0000 0.0000 0.8338 0.0000 6.0221
#
#
#
# Elastic Compliance Matrix: (Units=1/GPa)
#
#
# Indices 1 2 3 4 5 6 
#
# 1 0.009727 -0.005041 -0.004572 0.000000 0.000375 0.000000
# 2 -0.005041 0.014679 -0.002437 0.000000 -0.005320 0.000000
# 3 -0.004572 -0.002437 0.024191 0.000000 0.014553 0.000000
# 4 0.000000 0.000000 0.000000 0.127648 0.000000 -0.017674
# 5 0.000375 -0.005320 0.014553 0.000000 0.072473 0.000000
# 6 0.000000 0.000000 0.000000 -0.017674 0.000000 0.168502
#
#
# Mechanical properties :
#
#
# Convention : Reuss Voigt Hill
#
# Bulk Modulus (GPa) = 40.82452 57.29650 49.06051
# Shear Modulus (GPa) = 11.12382 18.42512 14.77447
#
# Velocity S-wave (km/s) = 2.56969 3.30718 2.96148
# Velocity P-wave (km/s) = 5.74791 6.97104 6.38881
#
# Compressibility (1/GPa) = 0.02449508
#
# Stress axis : x y z
#
# Youngs Moduli (GPa) = 102.80949 68.12323 41.33845
#
# Poissons Ratio (x) = 0.34344 0.18899
# Poissons Ratio (y) = 0.51831 0.10076
# Poissons Ratio (z) = 0.47002 0.16605
#
# Static dielectric constant tensor:
#      x y z
#    x 3.341490 0.000000 -0.196530 
#    y 0.000000 3.098260 0.000000 
#    z -0.196530 0.000000 2.819450 
# 
# 
# High freq. dielectric constant tensor:
#      x y z
#    x 1.649940 0.000000 -0.009860 
#    y 0.000000 1.652100 0.000000 
#    z -0.009860 0.000000 1.580920 
# 
# From -- ./inp_files/48918.got.cif
#   From: 2010.06.25/outbox.cif.g09.slc.cpg/sg10_25_cif.got.tgz:48918.got - 2010.06.27 22:07:45.
