data_PCOD8057737
_publ_section_title
;
Structure prediction by ZEFSAII (Michael W. Deem and Ramdas Pophale) SiO2 
 PCOD8057737
Probable space group: P 2/M
;
_chemical_formula_sum "Si O2"
_cell_formula_units_Z 32
_cell_length_a 17.498105
_cell_length_b 18.733910
_cell_length_c 11.858239
_cell_angle_alpha 90.000000
_cell_angle_beta 29.850863
_cell_angle_gamma 90.000000
_cell_volume 1934.843180
_symmetry_space_group_name_H-M "P 2/M"
_symmetry_group_IT_number 10
_symmetry_cell_setting 'monoclinic'
loop_
_space_group_symop_operation_xyz
x,y,z
-x,y,-z
-x,-y,-z
x,-y,z
loop_
_atom_site_type_symbol
_atom_site_label
_atom_site_fract_x
_atom_site_fract_y
_atom_site_fract_z
Si Si1 0.859097 0.918393 0.099646
Si Si2 0.640647 0.919690 0.573553
Si Si3 0.962322 0.421691 0.416097
Si Si4 0.141635 0.701473 0.231663
Si Si5 0.674300 0.670800 0.797989
Si Si6 0.747105 0.172642 0.640048
Si Si7 0.313935 0.080029 0.075918
Si Si8 0.102036 0.154135 0.184049
O O1 0.701513 0.904798 0.369569
O O2 0.872598 0.000000 0.040489
O O3 0.861210 0.867096 0.990149
O O4 0.000000 0.898513 0.000000
O O5 0.712592 0.862202 0.564850
O O6 0.692142 0.000000 0.544551
O O7 0.457580 0.912919 0.807284
O O8 0.979133 0.500000 0.336978
O O9 0.791562 0.391501 0.607713
O O10 0.000000 0.429236 0.500000
O O11 0.090555 0.363526 0.212421
O O12 0.294066 0.683910 0.109253
O O13 0.182063 0.769557 0.104247
O O14 0.000000 0.717097 0.500000
O O15 0.702202 0.744155 0.693508
O O16 0.500000 0.644697 0.000000
O O17 0.656879 0.133023 0.856562
O O18 0.924553 0.162075 0.438238
O O19 0.164990 0.096886 0.192468
O O20 0.299116 0.000000 0.143645
#
# Coordination Sequence:
#
# PCOD8057737 Si02
#       8
#     4   4   4   4   4   4   4   4
#     4  10  21  36  52  67  88 127 170 211 252 292
#     4  10  22  38  50  66  96 129 167 209 254 299
#     4   8  15  28  46  67  97 137 166 188 228 289
#     4   9  16  31  45  69 100 128 158 194 245 288
#     4  10  18  28  46  71 101 132 160 195 244 290
#     4  12  20  32  51  71  99 129 163 200 252 300
#     4  11  23  33  48  73  95 124 161 209 257 296
#     4  12  20  33  51  70  95 125 167 206 243 296
#
# _framework density 16.538809000000001
#
# number of rings (size 3 to 8) (size 9 to 14) (size 15 to 20)
#    0.000    2.000    5.000    2.250    0.000    3.750 
#    0.000    1.875    0.000    0.000    0.000    0.000 
#    0.000    4.500    0.000    1.625    0.000    0.250 
#
# Total GULP energy -396613.331006 kJ/mol
# GULP energy per Si atom -12394.166594 kJ/mol
# Density = 1.650117 g / cm^3
# Si number density = 16.538809 Si / 1000 Ang^3
#
#
#
# Elastic Constant Matrix: (Units=GPa)
#
#
# Indices 1 2 3 4 5 6 
#
# 1 63.2701 31.8647 17.0881 0.0000 -9.3548 0.0000
# 2 31.8647 106.7599 19.8096 0.0000 3.3325 0.0000
# 3 17.0881 19.8096 53.7061 0.0000 -3.6081 0.0000
# 4 0.0000 0.0000 0.0000 11.5141 0.0000 -3.7947
# 5 -9.3548 3.3325 -3.6081 0.0000 31.1211 0.0000
# 6 0.0000 0.0000 0.0000 -3.7947 0.0000 12.9481
#
#
#
# Elastic Compliance Matrix: (Units=1/GPa)
#
#
# Indices 1 2 3 4 5 6 
#
# 1 0.020671 -0.005610 -0.004082 0.000000 0.006341 0.000000
# 2 -0.005610 0.011649 -0.002730 0.000000 -0.003250 0.000000
# 3 -0.004082 -0.002730 0.021027 0.000000 0.001503 0.000000
# 4 0.000000 0.000000 0.000000 0.096136 0.000000 0.028174
# 5 0.006341 -0.003250 0.001503 0.000000 0.034561 0.000000
# 6 0.000000 0.000000 0.000000 0.028174 0.000000 0.085488
#
#
# Mechanical properties :
#
#
# Convention : Reuss Voigt Hill
#
# Bulk Modulus (GPa) = 35.08456 40.14010 37.61233
# Shear Modulus (GPa) = 16.45409 21.44824 18.95116
#
# Velocity S-wave (km/s) = 3.15759 3.60508 3.38873
# Velocity P-wave (km/s) = 5.87821 6.45381 6.17273
#
# Compressibility (1/GPa) = 0.02850256
#
# Stress axis : x y z
#
# Youngs Moduli (GPa) = 48.37783 85.84177 47.55891
#
# Poissons Ratio (x) = 0.48159 0.19412
# Poissons Ratio (y) = 0.27141 0.12985
# Poissons Ratio (z) = 0.19746 0.23437
#
# Static dielectric constant tensor:
#      x y z
#    x 3.017180 0.000000 -0.220460 
#    y 0.000000 3.556110 0.000000 
#    z -0.220460 0.000000 2.997320 
# 
# 
# High freq. dielectric constant tensor:
#      x y z
#    x 1.624130 0.000000 -0.028650 
#    y 0.000000 1.631910 0.000000 
#    z -0.028650 0.000000 1.609220 
# 
# From -- ./inp_files/54229.got.cif
#   From: 2010.06.25/outbox.cif.g09.slc.cpg/sg10_28_cif.got.tgz:54229.got - 2010.06.27 22:07:45.
