data_PCOD8057025
_publ_section_title
;
Structure prediction by ZEFSAII (Michael W. Deem and Ramdas Pophale) SiO2 
 PCOD8057025
Probable space group: P 2/M
;
_chemical_formula_sum "Si O2"
_cell_formula_units_Z 28
_cell_length_a 11.411947
_cell_length_b 8.967617
_cell_length_c 21.612283
_cell_angle_alpha 90.000000
_cell_angle_beta 48.984748
_cell_angle_gamma 90.000000
_cell_volume 1668.848000
_symmetry_space_group_name_H-M "P 2/M"
_symmetry_group_IT_number 10
_symmetry_cell_setting 'monoclinic'
loop_
_space_group_symop_operation_xyz
x,y,z
-x,y,-z
-x,-y,-z
x,-y,z
loop_
_atom_site_type_symbol
_atom_site_label
_atom_site_fract_x
_atom_site_fract_y
_atom_site_fract_z
Si Si1 0.482877 0.328949 0.261877
Si Si2 0.787115 0.325640 0.560589
Si Si3 0.671067 0.675674 0.925288
Si Si4 0.788310 0.824498 0.122404
Si Si5 0.237906 0.324451 0.244032
Si Si6 0.873801 0.176110 0.957958
Si Si7 0.993323 0.177629 0.595036
O O1 0.525311 0.500000 0.236364
O O2 0.394040 0.305435 0.358460
O O3 0.642469 0.240001 0.209606
O O4 0.375754 0.273152 0.242169
O O5 0.830972 0.500000 0.544027
O O6 0.883000 0.242293 0.580338
O O7 0.834004 0.246792 0.478981
O O8 0.675542 0.500000 0.932792
O O9 0.713225 0.722969 0.841325
O O10 0.797045 0.745292 0.926628
O O11 0.500000 0.738344 0.000000
O O12 0.946062 0.774066 0.101902
O O13 0.776464 0.000000 0.127834
O O14 0.790077 0.770657 0.050321
O O15 0.206351 0.500000 0.261838
O O16 0.077908 0.236763 0.315620
O O17 0.858974 0.000000 0.955295
O O18 0.000821 0.000000 0.591771
#
# Coordination Sequence:
#
# PCOD8057025 Si02
#       7
#     4   4   4   4   4   4   4
#     4   9  17  28  45  68  91 118 152 186 221 267
#     4   9  16  27  41  59  89 123 148 179 228 273
#     4  10  20  33  49  69  92 119 153 190 224 262
#     4   9  18  32  48  65  90 121 150 186 228 268
#     4   9  18  31  44  62  93 126 150 180 228 274
#     4   9  19  34  48  65  90 121 154 185 225 270
#     4  10  17  25  40  63  88 116 154 189 216 261
#
# _framework density 16.778040000000001
#
# number of rings (size 3 to 8) (size 9 to 14) (size 15 to 20)
#    0.000    2.714    0.000    5.143    0.000    6.000 
#    0.000    1.429    0.000    0.000    0.000    1.000 
#    0.000    8.000    0.000    0.000    0.000    0.000 
#
# Total GULP energy -347025.372165 kJ/mol
# GULP energy per Si atom -12393.763292 kJ/mol
# Density = 1.673985 g / cm^3
# Si number density = 16.778040 Si / 1000 Ang^3
#
#
#
# Elastic Constant Matrix: (Units=GPa)
#
#
# Indices 1 2 3 4 5 6 
#
# 1 70.2475 28.3254 55.2654 0.0000 -7.3596 0.0000
# 2 28.3254 61.6640 57.4919 0.0000 -6.2094 0.0000
# 3 55.2654 57.4919 156.5531 0.0000 -17.6847 0.0000
# 4 0.0000 0.0000 0.0000 41.8425 0.0000 -4.1602
# 5 -7.3596 -6.2094 -17.6847 0.0000 21.7890 0.0000
# 6 0.0000 0.0000 0.0000 -4.1602 0.0000 23.8390
#
#
#
# Elastic Compliance Matrix: (Units=1/GPa)
#
#
# Indices 1 2 3 4 5 6 
#
# 1 0.020376 -0.004043 -0.005572 0.000000 0.001208 0.000000
# 2 -0.004043 0.025465 -0.007992 0.000000 -0.000595 0.000000
# 3 -0.005572 -0.007992 0.011911 0.000000 0.005508 0.000000
# 4 0.000000 0.000000 0.000000 0.024321 0.000000 0.004244
# 5 0.001208 -0.000595 0.005508 0.000000 0.050604 0.000000
# 6 0.000000 0.000000 0.000000 0.004244 0.000000 0.042689
#
#
# Mechanical properties :
#
#
# Convention : Reuss Voigt Hill
#
# Bulk Modulus (GPa) = 44.36689 63.40333 53.88511
# Shear Modulus (GPa) = 22.92608 27.31955 25.12282
#
# Velocity S-wave (km/s) = 3.70054 4.03959 3.87378
# Velocity P-wave (km/s) = 6.69025 7.72199 7.22457
#
# Compressibility (1/GPa) = 0.02253933
#
# Stress axis : x y z
#
# Youngs Moduli (GPa) = 49.07844 39.26926 83.95256
#
# Poissons Ratio (x) = 0.15878 0.46775
# Poissons Ratio (y) = 0.19844 0.67091
# Poissons Ratio (z) = 0.27344 0.31382
#
# Static dielectric constant tensor:
#      x y z
#    x 2.809670 0.000000 -0.239020 
#    y 0.000000 3.039640 0.000000 
#    z -0.239020 0.000000 3.913090 
# 
# 
# High freq. dielectric constant tensor:
#      x y z
#    x 1.595030 0.000000 -0.017390 
#    y 0.000000 1.645240 0.000000 
#    z -0.017390 0.000000 1.664430 
# 
# From -- ./inp_files/83319.got.cif
#   From: 2010.06.25/outbox.cif.g09.slc.cpg/sg10_42_cif.got.tgz:83319.got - 2010.06.27 22:07:45.
