data_PCOD8057056
_publ_section_title
;
Structure prediction by ZEFSAII (Michael W. Deem and Ramdas Pophale) SiO2 
 PCOD8057056
Probable space group: P 2/M
;
_chemical_formula_sum "Si O2"
_cell_formula_units_Z 24
_cell_length_a 21.031037
_cell_length_b 8.738214
_cell_length_c 9.101467
_cell_angle_alpha 90.000000
_cell_angle_beta 48.176117
_cell_angle_gamma 90.000000
_cell_volume 1246.426005
_symmetry_space_group_name_H-M "P 2/M"
_symmetry_group_IT_number 10
_symmetry_cell_setting 'monoclinic'
loop_
_space_group_symop_operation_xyz
x,y,z
-x,y,-z
-x,-y,-z
x,-y,z
loop_
_atom_site_type_symbol
_atom_site_label
_atom_site_fract_x
_atom_site_fract_y
_atom_site_fract_z
Si Si1 0.918966 0.679103 0.951509
Si Si2 0.728325 0.825251 0.572877
Si Si3 0.916075 0.177028 0.272683
Si Si4 0.419855 0.677766 0.026177
Si Si5 0.581369 0.818938 0.288165
Si Si6 0.253987 0.820493 0.795573
O O1 0.927247 0.500000 0.913129
O O2 0.004215 0.761515 0.751952
O O3 0.914565 0.720916 0.129200
O O4 0.831747 0.739205 0.011740
O O5 0.823987 0.803621 0.492559
O O6 0.666626 0.711727 0.753244
O O7 0.727582 0.781320 0.402511
O O8 0.697388 0.000000 0.642296
O O9 0.929607 0.000000 0.208564
O O10 0.423975 0.500000 0.980724
O O11 0.500000 0.729652 0.000000
O O12 0.422895 0.773443 0.873600
O O13 0.500000 0.750144 0.500000
O O14 0.667587 0.755247 0.229897
O O15 0.580855 0.000000 0.301871
O O16 0.240620 0.000000 0.837222
#
# Coordination Sequence:
#
# PCOD8057056 Si02
#       6
#     4   4   4   4   4   4
#     4  10  17  25  43  73 106 139 173 209 255 309
#     4   9  18  33  55  79 103 136 177 218 258 303
#     4   9  16  28  46  70 102 137 175 219 260 296
#     4  11  24  38  53  77 109 141 170 207 260 316
#     4  10  21  38  60  81 101 132 176 220 259 305
#     4   9  18  33  53  78 106 136 173 218 264 305
#
# _framework density 19.255054999999999
#
# number of rings (size 3 to 8) (size 9 to 14) (size 15 to 20)
#    0.000    2.333    0.000    5.500    0.000    7.000 
#    0.000    0.000    0.000    1.000    0.000    7.000 
#    0.000    0.000    0.000    0.000    0.000    0.000 
#
# Total GULP energy -297509.950547 kJ/mol
# GULP energy per Si atom -12396.247939 kJ/mol
# Density = 1.921123 g / cm^3
# Si number density = 19.255055 Si / 1000 Ang^3
#
#
#
# Elastic Constant Matrix: (Units=GPa)
#
#
# Indices 1 2 3 4 5 6 
#
# 1 144.1547 30.5789 57.9830 0.0000 -36.1271 0.0000
# 2 30.5789 44.1544 18.3553 0.0000 -15.3622 0.0000
# 3 57.9830 18.3553 77.4422 0.0000 -26.4312 0.0000
# 4 0.0000 0.0000 0.0000 12.1000 0.0000 -6.5897
# 5 -36.1271 -15.3622 -26.4312 0.0000 34.9075 0.0000
# 6 0.0000 0.0000 0.0000 -6.5897 0.0000 25.6818
#
#
#
# Elastic Compliance Matrix: (Units=1/GPa)
#
#
# Indices 1 2 3 4 5 6 
#
# 1 0.011485 -0.003481 -0.005718 0.000000 0.006025 0.000000
# 2 -0.003481 0.028372 -0.001465 0.000000 0.007774 0.000000
# 3 -0.005718 -0.001465 0.020634 0.000000 0.009061 0.000000
# 4 0.000000 0.000000 0.000000 0.096069 0.000000 0.024650
# 5 0.006025 0.007774 0.009061 0.000000 0.045165 0.000000
# 6 0.000000 0.000000 0.000000 0.024650 0.000000 0.045263
#
#
# Mechanical properties :
#
#
# Convention : Reuss Voigt Hill
#
# Bulk Modulus (GPa) = 25.53387 53.28729 39.41058
# Shear Modulus (GPa) = 17.77012 25.12682 21.44847
#
# Velocity S-wave (km/s) = 3.04119 3.61632 3.34116
# Velocity P-wave (km/s) = 5.06176 6.72098 5.94950
#
# Compressibility (1/GPa) = 0.03916366
#
# Stress axis : x y z
#
# Youngs Moduli (GPa) = 87.06829 35.24554 48.46414
#
# Poissons Ratio (x) = 0.12268 0.27711
# Poissons Ratio (y) = 0.30307 0.07101
# Poissons Ratio (z) = 0.49784 0.05164
#
# Static dielectric constant tensor:
#      x y z
#    x 3.948900 0.000000 -0.621960 
#    y 0.000000 3.338520 0.000000 
#    z -0.621960 0.000000 3.459680 
# 
# 
# High freq. dielectric constant tensor:
#      x y z
#    x 1.750260 0.000000 -0.041830 
#    y 0.000000 1.741990 0.000000 
#    z -0.041830 0.000000 1.725450 
# 
# From -- ./inp_files/33724.got.cif
#   From: 2010.06.25/outbox.cif.g09.slc.cpg/sg10_17_cif.got.tgz:33724.got - 2010.06.27 22:07:45.
