data_PCOD8057295
_publ_section_title
;
Structure prediction by ZEFSAII (Michael W. Deem and Ramdas Pophale) SiO2 
 PCOD8057295
Probable space group: P 2/M
;
_chemical_formula_sum "Si O2"
_cell_formula_units_Z 32
_cell_length_a 21.369893
_cell_length_b 13.226813
_cell_length_c 14.429198
_cell_angle_alpha 90.000000
_cell_angle_beta 23.670728
_cell_angle_gamma 90.000000
_cell_volume 1637.433162
_symmetry_space_group_name_H-M "P 2/M"
_symmetry_group_IT_number 10
_symmetry_cell_setting 'monoclinic'
loop_
_space_group_symop_operation_xyz
x,y,z
-x,y,-z
-x,-y,-z
x,-y,z
loop_
_atom_site_type_symbol
_atom_site_label
_atom_site_fract_x
_atom_site_fract_y
_atom_site_fract_z
Si Si1 0.113002 0.881625 0.761707
Si Si2 0.652858 0.387084 0.343692
Si Si3 0.399859 0.749724 0.422306
Si Si4 0.357325 0.617245 0.991247
Si Si5 0.003191 0.183547 0.278717
Si Si6 0.312952 0.115137 0.951507
Si Si7 0.835099 0.786191 0.678126
Si Si8 0.861848 0.610399 0.886471
O O1 0.274035 0.820637 0.543790
O O2 0.030283 0.853401 0.778197
O O3 0.152120 0.000000 0.711491
O O4 0.000000 0.851813 0.000000
O O5 0.500000 0.347110 0.500000
O O6 0.622900 0.500000 0.424672
O O7 0.691289 0.310509 0.374058
O O8 0.793913 0.387861 0.081516
O O9 0.471775 0.667656 0.252510
O O10 0.537836 0.818089 0.278052
O O11 0.370629 0.500000 0.002566
O O12 0.261043 0.680261 0.199364
O O13 0.271818 0.632736 0.008020
O O14 0.005736 0.304898 0.291615
O O15 0.865739 0.155412 0.538610
O O16 0.171197 0.137108 0.074117
O O17 0.363913 0.000000 0.872832
O O18 0.261322 0.136750 0.127119
O O19 0.000000 0.757799 0.500000
O O20 0.936047 0.500000 0.765228
#
# Coordination Sequence:
#
# PCOD8057295 Si02
#       8
#     4   4   4   4   4   4   4   4
#     4  11  26  44  61  81 112 155 198 242 295 351
#     4  10  17  28  52  85 113 144 186 228 280 340
#     4  11  20  37  57  83 116 152 193 242 288 339
#     4  10  18  32  56  89 123 152 183 227 287 344
#     4  11  20  39  59  83 117 153 194 235 293 343
#     4  10  20  35  58  86 113 142 191 251 298 343
#     4   9  18  32  54  90 117 148 188 236 291 347
#     4  10  18  30  53  86 119 147 183 228 278 341
#
# _framework density 19.542784000000001
#
# number of rings (size 3 to 8) (size 9 to 14) (size 15 to 20)
#    0.000    1.750    5.000    1.875    0.000    3.500 
#    0.000    3.750    0.000   11.625    0.000    0.000 
#    0.000    0.000    0.000    0.000    0.000    0.000 
#
# Total GULP energy -396667.168747 kJ/mol
# GULP energy per Si atom -12395.849023 kJ/mol
# Density = 1.949830 g / cm^3
# Si number density = 19.542784 Si / 1000 Ang^3
#
#
#
# Elastic Constant Matrix: (Units=GPa)
#
#
# Indices 1 2 3 4 5 6 
#
# 1 87.6072 22.1756 31.6555 0.0000 9.8248 0.0000
# 2 22.1756 93.7138 18.8545 0.0000 -6.1043 0.0000
# 3 31.6555 18.8545 62.0451 0.0000 3.0368 0.0000
# 4 0.0000 0.0000 0.0000 24.9264 0.0000 -1.8889
# 5 9.8248 -6.1043 3.0368 0.0000 22.4210 0.0000
# 6 0.0000 0.0000 0.0000 -1.8889 0.0000 20.7497
#
#
#
# Elastic Compliance Matrix: (Units=1/GPa)
#
#
# Indices 1 2 3 4 5 6 
#
# 1 0.015221 -0.002692 -0.006629 0.000000 -0.006505 0.000000
# 2 -0.002692 0.012135 -0.002551 0.000000 0.004829 0.000000
# 3 -0.006629 -0.002551 0.020301 0.000000 -0.000539 0.000000
# 4 0.000000 0.000000 0.000000 0.040397 0.000000 0.003677
# 5 -0.006505 0.004829 -0.000539 0.000000 0.048839 0.000000
# 6 0.000000 0.000000 0.000000 0.003677 0.000000 0.048528
#
#
# Mechanical properties :
#
#
# Convention : Reuss Voigt Hill
#
# Bulk Modulus (GPa) = 41.81696 43.19304 42.50500
# Shear Modulus (GPa) = 23.02698 24.99810 24.01254
#
# Velocity S-wave (km/s) = 3.43634 3.58040 3.50911
# Velocity P-wave (km/s) = 6.09825 6.26435 6.18186
#
# Compressibility (1/GPa) = 0.02391374
#
# Stress axis : x y z
#
# Youngs Moduli (GPa) = 65.69971 82.40301 49.25830
#
# Poissons Ratio (x) = 0.22180 0.32655
# Poissons Ratio (y) = 0.17684 0.12565
# Poissons Ratio (z) = 0.43554 0.21020
#
# Static dielectric constant tensor:
#      x y z
#    x 3.298100 0.000000 0.312320 
#    y 0.000000 3.803180 0.000000 
#    z 0.312320 0.000000 3.594160 
# 
# 
# High freq. dielectric constant tensor:
#      x y z
#    x 1.721080 0.000000 0.024070 
#    y 0.000000 1.774270 0.000000 
#    z 0.024070 0.000000 1.753310 
# 
# From -- ./inp_files/70758.got.cif
#   From: 2010.06.25/outbox.cif.g09.slc.cpg/sg10_36_cif.got.tgz:70758.got - 2010.06.27 22:07:45.
