data_PCOD8057319
_publ_section_title
;
Structure prediction by ZEFSAII (Michael W. Deem and Ramdas Pophale) SiO2 
 PCOD8057319
Probable space group: P 2/M
;
_chemical_formula_sum "Si O2"
_cell_formula_units_Z 30
_cell_length_a 21.666189
_cell_length_b 13.785428
_cell_length_c 6.651712
_cell_angle_alpha 90.000000
_cell_angle_beta 64.130885
_cell_angle_gamma 90.000000
_cell_volume 1787.635124
_symmetry_space_group_name_H-M "P 2/M"
_symmetry_group_IT_number 10
_symmetry_cell_setting 'monoclinic'
loop_
_space_group_symop_operation_xyz
x,y,z
-x,y,-z
-x,-y,-z
x,-y,z
loop_
_atom_site_type_symbol
_atom_site_label
_atom_site_fract_x
_atom_site_fract_y
_atom_site_fract_z
Si Si1 0.717075 0.886992 0.702319
Si Si2 0.172075 0.607178 0.882724
Si Si3 0.500000 0.829668 0.000000
Si Si4 0.393901 0.892638 0.463993
Si Si5 0.808719 0.287446 0.539832
Si Si6 0.078839 0.388651 0.369817
Si Si7 0.614510 0.220740 0.125792
Si Si8 0.710180 0.390878 0.958391
O O1 0.676549 0.867006 0.551921
O O2 0.787993 0.825647 0.595695
O O3 0.735374 0.000000 0.703361
O O4 0.670933 0.853319 0.956484
O O5 0.172470 0.500000 0.781510
O O6 0.177855 0.691115 0.711860
O O7 0.101349 0.621373 0.105813
O O8 0.234780 0.617370 0.944780
O O9 0.544403 0.894728 0.785084
O O10 0.449678 0.765358 0.933135
O O11 0.408278 0.817729 0.623140
O O12 0.389520 0.000000 0.563900
O O13 0.878087 0.312872 0.559189
O O14 0.744563 0.352406 0.704335
O O15 0.091695 0.500000 0.425266
O O16 0.000000 0.359201 0.500000
O O17 0.644571 0.327851 0.111466
O O18 0.684819 0.500000 0.959989
#
# Coordination Sequence:
#
# PCOD8057319 Si02
#       8
#     4   4   2   4   4   4   4   4
#     4   9  19  32  47  71  94 114 149 191 227 269
#     4   9  16  27  46  70  92 117 150 185 225 270
#     4  10  21  32  45  68  94 118 151 188 223 274
#     4  10  19  32  50  69  91 117 146 186 236 279
#     4  10  17  29  49  68  93 124 150 183 228 270
#     4   9  18  30  44  69 101 125 151 187 222 264
#     4  10  19  32  49  67  92 122 149 183 229 275
#     4   9  18  31  47  69  93 117 151 191 225 265
#
# _framework density 16.781946999999999
#
# number of rings (size 3 to 8) (size 9 to 14) (size 15 to 20)
#    0.000    2.533    0.000    3.800    0.000    2.667 
#    0.000    2.333    0.000    2.000    0.000    0.933 
#    0.000    0.000    0.000    0.000    0.000    0.000 
#
# Total GULP energy -371938.030513 kJ/mol
# GULP energy per Si atom -12397.934350 kJ/mol
# Density = 1.674375 g / cm^3
# Si number density = 16.781947 Si / 1000 Ang^3
#
#
#
# Elastic Constant Matrix: (Units=GPa)
#
#
# Indices 1 2 3 4 5 6 
#
# 1 77.1315 50.2316 38.2336 0.0000 -13.5158 0.0000
# 2 50.2316 114.1436 45.5009 0.0000 -7.0147 0.0000
# 3 38.2336 45.5009 88.5811 0.0000 1.8576 0.0000
# 4 0.0000 0.0000 0.0000 20.9251 0.0000 0.3884
# 5 -13.5158 -7.0147 1.8576 0.0000 20.0998 0.0000
# 6 0.0000 0.0000 0.0000 0.3884 0.0000 17.4114
#
#
#
# Elastic Compliance Matrix: (Units=1/GPa)
#
#
# Indices 1 2 3 4 5 6 
#
# 1 0.023078 -0.006561 -0.006882 0.000000 0.013865 0.000000
# 2 -0.006561 0.013280 -0.004002 0.000000 0.000593 0.000000
# 3 -0.006882 -0.004002 0.016473 0.000000 -0.007547 0.000000
# 4 0.000000 0.000000 0.000000 0.047809 0.000000 -0.001067
# 5 0.013865 0.000593 -0.007547 0.000000 0.059979 0.000000
# 6 0.000000 0.000000 0.000000 -0.001067 0.000000 0.057457
#
#
# Mechanical properties :
#
#
# Convention : Reuss Voigt Hill
#
# Bulk Modulus (GPa) = 55.73423 60.86538 58.29981
# Shear Modulus (GPa) = 19.30889 21.41328 20.36109
#
# Velocity S-wave (km/s) = 3.39569 3.57595 3.48699
# Velocity P-wave (km/s) = 6.97547 7.30732 7.14333
#
# Compressibility (1/GPa) = 0.01794229
#
# Stress axis : x y z
#
# Youngs Moduli (GPa) = 43.33039 75.30174 60.70379
#
# Poissons Ratio (x) = 0.49404 0.41776
# Poissons Ratio (y) = 0.28428 0.24294
# Poissons Ratio (z) = 0.29819 0.30136
#
# Static dielectric constant tensor:
#      x y z
#    x 3.040290 0.000000 -0.010000 
#    y 0.000000 3.015970 0.000000 
#    z -0.010000 0.000000 3.170830 
# 
# 
# High freq. dielectric constant tensor:
#      x y z
#    x 1.631860 0.000000 0.006480 
#    y 0.000000 1.625910 0.000000 
#    z 0.006480 0.000000 1.650780 
# 
# From -- ./inp_files/12601.got.cif
#   From: 2010.06.25/outbox.cif.g09.slc.cpg/sg10_7_cif.got.tgz:12601.got - 2010.06.27 22:07:45.
