data_PCOD8057315
_publ_section_title
;
Structure prediction by ZEFSAII (Michael W. Deem and Ramdas Pophale) SiO2 
 PCOD8057315
Probable space group: P 2/M
;
_chemical_formula_sum "Si O2"
_cell_formula_units_Z 32
_cell_length_a 20.258646
_cell_length_b 8.896165
_cell_length_c 25.318666
_cell_angle_alpha 90.000000
_cell_angle_beta 23.012932
_cell_angle_gamma 90.000000
_cell_volume 1783.868888
_symmetry_space_group_name_H-M "P 2/M"
_symmetry_group_IT_number 10
_symmetry_cell_setting 'monoclinic'
loop_
_space_group_symop_operation_xyz
x,y,z
-x,y,-z
-x,-y,-z
x,-y,z
loop_
_atom_site_type_symbol
_atom_site_label
_atom_site_fract_x
_atom_site_fract_y
_atom_site_fract_z
Si Si1 0.336365 0.830478 0.156808
Si Si2 0.846120 0.820688 0.148888
Si Si3 0.142534 0.676997 0.212000
Si Si4 0.461577 0.323114 0.906365
Si Si5 0.642476 0.178417 0.121631
Si Si6 0.159216 0.178962 0.624938
Si Si7 0.973770 0.178399 0.165431
Si Si8 0.473379 0.178384 0.678495
O O1 0.187532 0.742299 0.236465
O O2 0.379704 0.747618 0.179592
O O3 0.276931 0.000000 0.212496
O O4 0.500000 0.828495 0.000000
O O5 0.870295 0.760978 0.190914
O O6 0.670578 0.757239 0.254748
O O7 0.845987 0.000000 0.147806
O O8 0.000000 0.760065 0.000000
O O9 0.122246 0.500000 0.231845
O O10 0.967462 0.749975 0.323708
O O11 0.285900 0.721537 0.063984
O O12 0.487068 0.500000 0.885933
O O13 0.463993 0.256278 0.846025
O O14 0.561781 0.232329 0.236088
O O15 0.633441 0.000000 0.121033
O O16 0.834676 0.237437 0.977993
O O17 0.115687 0.237813 0.715727
O O18 0.345766 0.238375 0.473812
O O19 0.144952 0.000000 0.631678
O O20 0.975602 0.000000 0.162999
O O21 0.468414 0.000000 0.680086
#
# Coordination Sequence:
#
# PCOD8057315 Si02
#       8
#     4   4   4   4   4   4   4   4
#     4   9  17  29  48  75 104 133 163 201 248 295
#     4   9  14  24  42  68 100 130 161 205 259 303
#     4  10  19  31  48  71 101 136 168 202 246 295
#     4  10  19  30  47  74 103 130 165 209 247 289
#     4  10  17  29  48  71  97 130 168 205 249 299
#     4  10  19  31  46  71 102 131 167 210 251 295
#     4   9  16  25  44  69  96 129 164 204 251 300
#     4   9  18  29  45  70 101 132 165 208 256 302
#
# _framework density 17.938538999999999
#
# number of rings (size 3 to 8) (size 9 to 14) (size 15 to 20)
#    0.000    2.500    2.500    1.125    0.000    3.000 
#    0.000    3.125    0.000    0.750    0.000   10.500 
#    0.000    0.000    0.000    0.000    0.000    0.000 
#
# Total GULP energy -396784.148559 kJ/mol
# GULP energy per Si atom -12399.504642 kJ/mol
# Density = 1.789771 g / cm^3
# Si number density = 17.938539 Si / 1000 Ang^3
#
#
#
# Elastic Constant Matrix: (Units=GPa)
#
#
# Indices 1 2 3 4 5 6 
#
# 1 186.4221 35.8555 78.4987 0.0000 -14.7204 0.0000
# 2 35.8555 41.3088 23.9262 0.0000 -4.6278 0.0000
# 3 78.4987 23.9262 120.8550 0.0000 -3.8947 0.0000
# 4 0.0000 0.0000 0.0000 9.1296 0.0000 2.0047
# 5 -14.7204 -4.6278 -3.8947 0.0000 28.1712 0.0000
# 6 0.0000 0.0000 0.0000 2.0047 0.0000 1.8563
#
#
#
# Elastic Compliance Matrix: (Units=1/GPa)
#
#
# Indices 1 2 3 4 5 6 
#
# 1 0.008299 -0.004292 -0.004444 0.000000 0.003017 0.000000
# 2 -0.004292 0.029965 -0.003072 0.000000 0.002255 0.000000
# 3 -0.004444 -0.003072 0.011730 0.000000 -0.001205 0.000000
# 4 0.000000 0.000000 0.000000 0.143582 0.000000 -0.155063
# 5 0.003017 0.002255 -0.001205 0.000000 0.037278 0.000000
# 6 0.000000 0.000000 0.000000 -0.155063 0.000000 0.706176
#
#
# Mechanical properties :
#
#
# Convention : Reuss Voigt Hill
#
# Bulk Modulus (GPa) = 37.90842 69.46075 53.68458
# Shear Modulus (GPa) = 5.15763 21.85180 13.50471
#
# Velocity S-wave (km/s) = 1.69747 3.49398 2.74676
# Velocity P-wave (km/s) = 5.00201 7.42178 6.32862
#
# Compressibility (1/GPa) = 0.02637937
#
# Stress axis : x y z
#
# Youngs Moduli (GPa) = 120.49754 33.37227 85.25199
#
# Poissons Ratio (x) = 0.14322 0.37882
# Poissons Ratio (y) = 0.51713 0.26190
# Poissons Ratio (z) = 0.53543 0.10252
#
# Static dielectric constant tensor:
#      x y z
#    x 3.568640 0.000000 -0.071490 
#    y 0.000000 2.907550 0.000000 
#    z -0.071490 0.000000 3.214280 
# 
# 
# High freq. dielectric constant tensor:
#      x y z
#    x 1.712620 0.000000 -0.010590 
#    y 0.000000 1.655400 0.000000 
#    z -0.010590 0.000000 1.665480 
# 
# From -- ./inp_files/79945.got.cif
#   From: 2010.06.25/outbox.cif.g09.slc.cpg/sg10_40_cif.got.tgz:79945.got - 2010.06.27 22:07:45.
