data_PCOD8057522
_publ_section_title
;
Structure prediction by ZEFSAII (Michael W. Deem and Ramdas Pophale) SiO2 
 PCOD8057522
Probable space group: P 2/M
;
_chemical_formula_sum "Si O2"
_cell_formula_units_Z 28
_cell_length_a 14.209017
_cell_length_b 9.044455
_cell_length_c 28.533244
_cell_angle_alpha 90.000000
_cell_angle_beta 28.894258
_cell_angle_gamma 90.000000
_cell_volume 1771.820404
_symmetry_space_group_name_H-M "P 2/M"
_symmetry_group_IT_number 10
_symmetry_cell_setting 'monoclinic'
loop_
_space_group_symop_operation_xyz
x,y,z
-x,y,-z
-x,-y,-z
x,-y,z
loop_
_atom_site_type_symbol
_atom_site_label
_atom_site_fract_x
_atom_site_fract_y
_atom_site_fract_z
Si Si1 0.288752 0.329582 0.070416
Si Si2 0.602768 0.331663 0.355910
Si Si3 0.932984 0.824797 0.269416
Si Si4 0.332473 0.836374 0.534307
Si Si5 0.232135 0.836374 0.901086
Si Si6 0.174217 0.824797 0.028184
Si Si7 0.226734 0.331663 0.814588
O O1 0.227679 0.500000 0.090774
O O2 0.291975 0.251306 0.018574
O O3 0.139671 0.251304 0.170878
O O4 0.500000 0.312590 0.000000
O O5 0.630330 0.500000 0.360663
O O6 0.778762 0.234995 0.299158
O O7 0.393054 0.273613 0.465930
O O8 0.606350 0.320103 0.297883
O O9 0.864400 0.786954 0.352656
O O10 0.949857 0.000000 0.254731
O O11 0.500000 0.837538 0.500000
O O12 0.306670 0.000000 0.524047
O O13 0.316101 0.726386 0.824914
O O14 0.314517 0.000000 0.854765
O O15 0.286768 0.786955 0.930288
O O16 0.000000 0.837538 0.000000
O O17 0.954999 0.765006 0.122921
O O18 0.163913 0.000000 0.040679
O O19 0.157351 0.500000 0.851655
#
# Coordination Sequence:
#
# PCOD8057522 Si02
#       7
#     4   4   4   4   4   4   4
#     4  11  23  35  47  65  87 113 149 189 226 265
#     4  10  18  26  40  64  91 118 147 177 213 258
#     4  10  19  31  46  61  82 114 149 184 221 259
#     4   8  16  28  41  60  83 111 147 179 212 258
#     4   8  16  28  41  60  83 111 147 179 212 258
#     4  10  19  31  46  61  82 114 149 184 221 259
#     4  10  18  26  40  64  91 118 147 177 213 258
#
# _framework density 15.802956
#
# number of rings (size 3 to 8) (size 9 to 14) (size 15 to 20)
#    0.000    2.429    1.429    3.857    0.000    9.143 
#    0.000    0.000    0.000    0.000    0.000    0.000 
#    0.000    1.143    0.000   12.571    0.000    9.143 
#
# Total GULP energy -347043.529880 kJ/mol
# GULP energy per Si atom -12394.411781 kJ/mol
# Density = 1.576699 g / cm^3
# Si number density = 15.802956 Si / 1000 Ang^3
#
#
#
# Elastic Constant Matrix: (Units=GPa)
#
#
# Indices 1 2 3 4 5 6 
#
# 1 65.9315 48.2992 43.2476 0.0000 21.1857 0.0000
# 2 48.2992 117.8204 59.4937 0.0000 20.1631 0.0000
# 3 43.2476 59.4937 91.2942 0.0000 24.4994 0.0000
# 4 0.0000 0.0000 0.0000 23.1937 0.0000 6.9441
# 5 21.1857 20.1631 24.4994 0.0000 23.1915 0.0000
# 6 0.0000 0.0000 0.0000 6.9441 0.0000 19.3391
#
#
#
# Elastic Compliance Matrix: (Units=1/GPa)
#
#
# Indices 1 2 3 4 5 6 
#
# 1 0.027850 -0.006319 -0.005195 0.000000 -0.014460 0.000000
# 2 -0.006319 0.014256 -0.006308 0.000000 0.000042 0.000000
# 3 -0.005195 -0.006308 0.020628 0.000000 -0.011561 0.000000
# 4 0.000000 0.000000 0.000000 0.048308 0.000000 -0.017346
# 5 -0.014460 0.000042 -0.011561 0.000000 0.068505 0.000000
# 6 0.000000 0.000000 0.000000 -0.017346 0.000000 0.057937
#
#
# Mechanical properties :
#
#
# Convention : Reuss Voigt Hill
#
# Bulk Modulus (GPa) = 36.91371 64.12522 50.51947
# Shear Modulus (GPa) = 17.72051 21.41192 19.56621
#
# Velocity S-wave (km/s) = 3.35228 3.68493 3.52253
# Velocity P-wave (km/s) = 6.19622 7.66623 6.97009
#
# Compressibility (1/GPa) = 0.02709021
#
# Stress axis : x y z
#
# Youngs Moduli (GPa) = 35.90616 70.14565 48.47857
#
# Poissons Ratio (x) = 0.44327 0.25183
# Poissons Ratio (y) = 0.22690 0.30580
# Poissons Ratio (z) = 0.18652 0.44247
#
# Static dielectric constant tensor:
#      x y z
#    x 2.897500 0.000000 0.539350 
#    y 0.000000 3.207320 0.000000 
#    z 0.539350 0.000000 3.196920 
# 
# 
# High freq. dielectric constant tensor:
#      x y z
#    x 1.562830 0.000000 0.045320 
#    y 0.000000 1.624570 0.000000 
#    z 0.045320 0.000000 1.587990 
# 
# From -- ./inp_files/95181.got.cif
#   From: 2010.06.25/outbox.cif.g09.slc.cpg/sg10_48_cif.got.tgz:95181.got - 2010.06.27 22:07:45.
