data_PCOD8057518
_publ_section_title
;
Structure prediction by ZEFSAII (Michael W. Deem and Ramdas Pophale) SiO2 
 PCOD8057518
Probable space group: P 2/M
;
_chemical_formula_sum "Si O2"
_cell_formula_units_Z 32
_cell_length_a 30.792540
_cell_length_b 9.172521
_cell_length_c 13.714922
_cell_angle_alpha 90.000000
_cell_angle_beta 32.369862
_cell_angle_gamma 90.000000
_cell_volume 2073.919151
_symmetry_space_group_name_H-M "P 2/M"
_symmetry_group_IT_number 10
_symmetry_cell_setting 'monoclinic'
loop_
_space_group_symop_operation_xyz
x,y,z
-x,y,-z
-x,-y,-z
x,-y,z
loop_
_atom_site_type_symbol
_atom_site_label
_atom_site_fract_x
_atom_site_fract_y
_atom_site_fract_z
Si Si1 0.518614 0.671739 0.748276
Si Si2 0.355907 0.827230 0.118526
Si Si3 0.106801 0.163133 0.206647
Si Si4 0.412802 0.839981 0.214178
Si Si5 0.429368 0.672318 0.565764
Si Si6 0.258193 0.330142 0.962347
Si Si7 0.932860 0.164586 0.491518
Si Si8 0.220298 0.329505 0.257251
O O1 0.503811 0.500000 0.786863
O O2 0.584947 0.723198 0.702617
O O3 0.554593 0.715282 0.575829
O O4 0.433416 0.752701 0.921588
O O5 0.352153 0.793061 0.241985
O O6 0.275049 0.760069 0.227740
O O7 0.360661 0.000000 0.090241
O O8 0.087023 0.166702 0.357479
O O9 0.026521 0.216957 0.299815
O O10 0.128356 0.000000 0.132427
O O11 0.184863 0.262648 0.037986
O O12 0.389106 0.000000 0.300692
O O13 0.500000 0.850178 0.000000
O O14 0.500000 0.739377 0.500000
O O15 0.427537 0.500000 0.583706
O O16 0.342895 0.737157 0.763741
O O17 0.253822 0.500000 0.950549
O O18 0.250962 0.294543 0.090345
O O19 0.872111 0.274679 0.551882
O O20 0.921698 0.000000 0.472243
O O21 0.225045 0.500000 0.272101
#
# Coordination Sequence:
#
# PCOD8057518 Si02
#       8
#     4   4   4   4   4   4   4   4
#     4  10  18  28  45  63  78 103 140 177 205 233
#     4  10  19  30  43  58  81 111 135 161 206 255
#     4   8  14  25  40  56  76 105 139 170 199 236
#     4   8  16  30  44  58  78 104 131 162 206 253
#     4   9  17  29  42  57  82 113 141 169 204 240
#     4   9  17  28  41  57  80 111 142 172 205 237
#     4   8  14  25  39  55  79 109 134 161 203 246
#     4  10  18  26  40  62  84 107 138 172 200 233
#
# _framework density 15.429724
#
# number of rings (size 3 to 8) (size 9 to 14) (size 15 to 20)
#    0.000    3.000    0.000    3.375    0.000    5.750 
#    0.000    3.750    0.000    2.625    0.000    0.000 
#    0.000    1.000    0.000   11.250    0.000    5.500 
#
# Total GULP energy -396589.619465 kJ/mol
# GULP energy per Si atom -12393.425608 kJ/mol
# Density = 1.539460 g / cm^3
# Si number density = 15.429724 Si / 1000 Ang^3
#
#
#
# Elastic Constant Matrix: (Units=GPa)
#
#
# Indices 1 2 3 4 5 6 
#
# 1 103.1968 55.3917 56.7084 0.0000 -19.3520 0.0000
# 2 55.3917 68.8122 36.3078 0.0000 -11.6119 0.0000
# 3 56.7084 36.3078 84.7787 0.0000 -23.9679 0.0000
# 4 0.0000 0.0000 0.0000 16.8565 0.0000 -9.0412
# 5 -19.3520 -11.6119 -23.9679 0.0000 24.0955 0.0000
# 6 0.0000 0.0000 0.0000 -9.0412 0.0000 23.9417
#
#
#
# Elastic Compliance Matrix: (Units=1/GPa)
#
#
# Indices 1 2 3 4 5 6 
#
# 1 0.021401 -0.012419 -0.008110 0.000000 0.003136 0.000000
# 2 -0.012419 0.026018 -0.002937 0.000000 -0.000357 0.000000
# 3 -0.008110 -0.002937 0.022588 0.000000 0.014540 0.000000
# 4 0.000000 0.000000 0.000000 0.074393 0.000000 0.028093
# 5 0.003136 -0.000357 0.014540 0.000000 0.058312 0.000000
# 6 0.000000 0.000000 0.000000 0.028093 0.000000 0.052377
#
#
# Mechanical properties :
#
#
# Convention : Reuss Voigt Hill
#
# Bulk Modulus (GPa) = 43.33298 61.51148 52.42223
# Shear Modulus (GPa) = 16.14406 20.20405 18.17405
#
# Velocity S-wave (km/s) = 3.23816 3.62252 3.43572
# Velocity P-wave (km/s) = 6.49045 7.57951 7.05602
#
# Compressibility (1/GPa) = 0.02307711
#
# Stress axis : x y z
#
# Youngs Moduli (GPa) = 46.72783 38.43458 44.27048
#
# Poissons Ratio (x) = 0.47730 0.35902
# Poissons Ratio (y) = 0.58029 0.13001
# Poissons Ratio (z) = 0.37895 0.11287
#
# Static dielectric constant tensor:
#      x y z
#    x 3.125850 0.000000 -0.306680 
#    y 0.000000 2.954400 0.000000 
#    z -0.306680 0.000000 2.931630 
# 
# 
# High freq. dielectric constant tensor:
#      x y z
#    x 1.578080 0.000000 -0.027840 
#    y 0.000000 1.588810 0.000000 
#    z -0.027840 0.000000 1.559860 
# 
# From -- ./inp_files/66209.got.cif
#   From: 2010.06.25/outbox.cif.g09.slc.cpg/sg10_34_cif.got.tgz:66209.got - 2010.06.27 22:07:45.
