data_PCOD8057607
_publ_section_title
;
Structure prediction by ZEFSAII (Michael W. Deem and Ramdas Pophale) SiO2 
 PCOD8057607
Probable space group: P 2/M
;
_chemical_formula_sum "Si O2"
_cell_formula_units_Z 28
_cell_length_a 13.646446
_cell_length_b 9.007378
_cell_length_c 14.610627
_cell_angle_alpha 90.000000
_cell_angle_beta 104.551709
_cell_angle_gamma 90.000000
_cell_volume 1738.308450
_symmetry_space_group_name_H-M "P 2/M"
_symmetry_group_IT_number 10
_symmetry_cell_setting 'monoclinic'
loop_
_space_group_symop_operation_xyz
x,y,z
-x,y,-z
-x,-y,-z
x,-y,z
loop_
_atom_site_type_symbol
_atom_site_label
_atom_site_fract_x
_atom_site_fract_y
_atom_site_fract_z
Si Si1 0.859158 0.674799 0.893716
Si Si2 0.088940 0.329843 0.394131
Si Si3 0.388232 0.175118 0.470494
Si Si4 0.860899 0.669206 0.285812
Si Si5 0.780842 0.824215 0.430938
Si Si6 0.082187 0.325035 0.896534
Si Si7 0.228283 0.175504 0.286985
O O1 0.847008 0.500000 0.874018
O O2 0.772083 0.762253 0.817033
O O3 0.968630 0.734854 0.885844
O O4 0.847862 0.712915 0.999134
O O5 0.125906 0.500000 0.406606
O O6 0.124252 0.245643 0.493404
O O7 0.134078 0.251632 0.315285
O O8 0.968780 0.320993 0.360385
O O9 0.500000 0.249166 0.500000
O O10 0.322419 0.227547 0.542587
O O11 0.332163 0.221156 0.362965
O O12 0.399151 0.000000 0.477113
O O13 0.822097 0.500000 0.273315
O O14 0.781187 0.764627 0.326791
O O15 0.867688 0.738754 0.184712
O O16 0.792303 0.000000 0.434755
O O17 0.070808 0.500000 0.881596
O O18 0.213260 0.000000 0.284669
#
# Coordination Sequence:
#
# PCOD8057607 Si02
#       7
#     4   4   4   4   4   4   4
#     4   9  15  28  46  62  85 119 156 184 207 249
#     4  10  18  29  44  60  84 122 156 176 201 252
#     4   8  16  32  49  63  83 113 145 176 218 273
#     4  10  18  29  43  61  86 121 155 175 202 251
#     4  10  20  30  43  65  88 110 141 184 226 260
#     4   8  15  27  44  62  83 120 162 183 196 242
#     4  10  18  27  44  69  92 112 142 186 229 260
#
# _framework density 16.107614000000002
#
# number of rings (size 3 to 8) (size 9 to 14) (size 15 to 20)
#    0.000    2.714    1.429    3.429    0.000    2.857 
#    0.000    2.143    0.000   15.429    0.000    1.000 
#    0.000    8.000    0.000    0.000    0.000    0.000 
#
# Total GULP energy -347020.149131 kJ/mol
# GULP energy per Si atom -12393.576755 kJ/mol
# Density = 1.607095 g / cm^3
# Si number density = 16.107614 Si / 1000 Ang^3
#
#
#
# Elastic Constant Matrix: (Units=GPa)
#
#
# Indices 1 2 3 4 5 6 
#
# 1 68.0455 25.6147 54.7069 0.0000 -2.0303 0.0000
# 2 25.6147 60.4482 37.9521 0.0000 -3.0249 0.0000
# 3 54.7069 37.9521 136.4670 0.0000 -16.1369 0.0000
# 4 0.0000 0.0000 0.0000 23.5539 0.0000 -1.2495
# 5 -2.0303 -3.0249 -16.1369 0.0000 17.2751 0.0000
# 6 0.0000 0.0000 0.0000 -1.2495 0.0000 5.4531
#
#
#
# Elastic Compliance Matrix: (Units=1/GPa)
#
#
# Indices 1 2 3 4 5 6 
#
# 1 0.023347 -0.004682 -0.008802 0.000000 -0.006298 0.000000
# 2 -0.004682 0.021038 -0.004051 0.000000 -0.000650 0.000000
# 3 -0.008802 -0.004051 0.013239 0.000000 0.010623 0.000000
# 4 0.000000 0.000000 0.000000 0.042978 0.000000 0.009848
# 5 -0.006298 -0.000650 0.010623 0.000000 0.066956 0.000000
# 6 0.000000 0.000000 0.000000 0.009848 0.000000 0.185638
#
#
# Mechanical properties :
#
#
# Convention : Reuss Voigt Hill
#
# Bulk Modulus (GPa) = 44.33729 55.72311 50.03020
# Shear Modulus (GPa) = 12.63316 19.03555 15.83435
#
# Velocity S-wave (km/s) = 2.80357 3.44142 3.13874
# Velocity P-wave (km/s) = 6.16972 7.10356 6.65304
#
# Compressibility (1/GPa) = 0.02255438
#
# Stress axis : x y z
#
# Youngs Moduli (GPa) = 42.83145 47.53364 75.53440
#
# Poissons Ratio (x) = 0.22256 0.66486
# Poissons Ratio (y) = 0.20054 0.30596
# Poissons Ratio (z) = 0.37701 0.19254
#
# Static dielectric constant tensor:
#      x y z
#    x 2.905490 0.000000 -0.097020 
#    y 0.000000 2.876120 0.000000 
#    z -0.097020 0.000000 3.363300 
# 
# 
# High freq. dielectric constant tensor:
#      x y z
#    x 1.570300 0.000000 -0.009940 
#    y 0.000000 1.602190 0.000000 
#    z -0.009940 0.000000 1.627840 
# 
# From -- ./inp_files/65773.got.cif
#   From: 2010.06.25/outbox.cif.g09.slc.cpg/sg10_33_cif.got.tgz:65773.got - 2010.06.27 22:07:45.
