data_PCOD8057657
_publ_section_title
;
Structure prediction by ZEFSAII (Michael W. Deem and Ramdas Pophale) SiO2 
 PCOD8057657
Probable space group: P 2/M
;
_chemical_formula_sum "Si O2"
_cell_formula_units_Z 28
_cell_length_a 21.563341
_cell_length_b 8.905513
_cell_length_c 33.106785
_cell_angle_alpha 90.000000
_cell_angle_beta 163.112800
_cell_angle_gamma 90.000000
_cell_volume 1846.804159
_symmetry_space_group_name_H-M "P 2/M"
_symmetry_group_IT_number 10
_symmetry_cell_setting 'monoclinic'
loop_
_space_group_symop_operation_xyz
x,y,z
-x,y,-z
-x,-y,-z
x,-y,z
loop_
_atom_site_type_symbol
_atom_site_label
_atom_site_fract_x
_atom_site_fract_y
_atom_site_fract_z
Si Si1 0.663598 0.329906 0.918741
Si Si2 0.330809 0.172426 0.305831
Si Si3 0.339923 0.330492 0.437553
Si Si4 0.785965 0.670502 0.386030
Si Si5 0.012838 0.171952 0.182098
Si Si6 0.467831 0.822437 0.238969
Si Si7 0.229452 0.323379 0.160087
O O1 0.749919 0.500000 0.968503
O O2 0.407318 0.327621 0.767561
O O3 0.701596 0.245046 0.899401
O O4 0.784433 0.246823 0.030341
O O5 0.558916 0.236279 0.462686
O O6 0.159253 0.189925 0.234188
O O7 0.245849 0.270240 0.216089
O O8 0.360739 0.000000 0.311573
O O9 0.500000 0.328321 0.500000
O O10 0.295345 0.500000 0.424274
O O11 0.117723 0.254504 0.285793
O O12 0.831337 0.500000 0.428744
O O13 0.708038 0.768347 0.376170
O O14 0.000000 0.741056 0.500000
O O15 0.977513 0.000000 0.171954
O O16 0.412669 0.759108 0.248534
O O17 0.452963 0.000000 0.229549
O O18 0.267018 0.500000 0.180759
O O19 0.000000 0.275639 0.000000
#
# Coordination Sequence:
#
# PCOD8057657 Si02
#       7
#     4   4   4   4   4   4   4
#     4   9  17  28  43  63  87 115 146 177 217 265
#     4  10  20  31  43  60  84 114 150 189 227 263
#     4   9  17  29  44  60  80 110 147 185 223 265
#     4   8  16  31  48  65  89 119 148 181 223 270
#     4  10  18  28  43  63  87 114 145 185 229 266
#     4  10  19  30  44  64  89 116 148 185 224 263
#     4  11  22  33  45  61  85 120 159 191 220 261
#
# _framework density 15.161326000000001
#
# number of rings (size 3 to 8) (size 9 to 14) (size 15 to 20)
#    0.857    1.571    0.000    3.857    0.000    7.143 
#    0.000    0.000    0.000    0.000    0.000    0.000 
#    0.000    1.143    0.000   12.286    0.000    5.429 
#
# Total GULP energy -347055.620075 kJ/mol
# GULP energy per Si atom -12394.843574 kJ/mol
# Density = 1.512682 g / cm^3
# Si number density = 15.161326 Si / 1000 Ang^3
#
#
#
# Elastic Constant Matrix: (Units=GPa)
#
#
# Indices 1 2 3 4 5 6 
#
# 1 40.7127 26.6348 22.9629 0.0000 3.7129 0.0000
# 2 26.6348 102.4055 34.4984 0.0000 3.4664 0.0000
# 3 22.9629 34.4984 75.8738 0.0000 -6.9283 0.0000
# 4 0.0000 0.0000 0.0000 26.0185 0.0000 -6.1509
# 5 3.7129 3.4664 -6.9283 0.0000 20.1309 0.0000
# 6 0.0000 0.0000 0.0000 -6.1509 0.0000 18.5910
#
#
#
# Elastic Compliance Matrix: (Units=1/GPa)
#
#
# Indices 1 2 3 4 5 6 
#
# 1 0.033741 -0.005681 -0.008371 0.000000 -0.008126 0.000000
# 2 -0.005681 0.012794 -0.004340 0.000000 -0.002649 0.000000
# 3 -0.008371 -0.004340 0.018476 0.000000 0.008650 0.000000
# 4 0.000000 0.000000 0.000000 0.041695 0.000000 0.013795
# 5 -0.008126 -0.002649 0.008650 0.000000 0.054607 0.000000
# 6 0.000000 0.000000 0.000000 0.013795 0.000000 0.058353
#
#
# Mechanical properties :
#
#
# Convention : Reuss Voigt Hill
#
# Bulk Modulus (GPa) = 35.42470 43.02047 39.22259
# Shear Modulus (GPa) = 18.80690 21.94114 20.37402
#
# Velocity S-wave (km/s) = 3.52583 3.80831 3.66979
# Velocity P-wave (km/s) = 6.32386 6.91190 6.62441
#
# Compressibility (1/GPa) = 0.02822889
#
# Stress axis : x y z
#
# Youngs Moduli (GPa) = 29.63744 78.15946 54.12339
#
# Poissons Ratio (x) = 0.44401 0.45305
# Poissons Ratio (y) = 0.16836 0.23489
# Poissons Ratio (z) = 0.24808 0.33921
#
# Static dielectric constant tensor:
#      x y z
#    x 2.536850 0.000000 -0.054430 
#    y 0.000000 3.014200 0.000000 
#    z -0.054430 0.000000 2.917050 
# 
# 
# High freq. dielectric constant tensor:
#      x y z
#    x 1.527200 0.000000 -0.008860 
#    y 0.000000 1.599660 0.000000 
#    z -0.008860 0.000000 1.571490 
# 
# From -- ./inp_files/95617.got.cif
#   From: 2010.06.25/outbox.cif.g09.slc.cpg/sg10_48_cif.got.tgz:95617.got - 2010.06.27 22:07:45.
