data_PCOD8057353
_publ_section_title
;
Structure prediction by ZEFSAII (Michael W. Deem and Ramdas Pophale) SiO2 
 PCOD8057353
Probable space group: P 2/M
;
_chemical_formula_sum "Si O2"
_cell_formula_units_Z 28
_cell_length_a 29.073522
_cell_length_b 8.663391
_cell_length_c 9.783948
_cell_angle_alpha 90.000000
_cell_angle_beta 141.165503
_cell_angle_gamma 90.000000
_cell_volume 1545.317590
_symmetry_space_group_name_H-M "P 2/M"
_symmetry_group_IT_number 10
_symmetry_cell_setting 'monoclinic'
loop_
_space_group_symop_operation_xyz
x,y,z
-x,y,-z
-x,-y,-z
x,-y,z
loop_
_atom_site_type_symbol
_atom_site_label
_atom_site_fract_x
_atom_site_fract_y
_atom_site_fract_z
Si Si1 0.948807 0.317369 0.695942
Si Si2 0.699768 0.317583 0.761310
Si Si3 0.263508 0.315634 0.449463
Si Si4 0.193672 0.317209 0.764460
Si Si5 0.309869 0.817759 0.833692
Si Si6 0.417077 0.316889 0.292485
Si Si7 0.101568 0.316743 0.126768
O O1 0.951913 0.500000 0.712438
O O2 0.892427 0.267183 0.444507
O O3 0.915127 0.255008 0.759936
O O4 0.033093 0.258809 0.871606
O O5 0.700628 0.500000 0.754500
O O6 0.701533 0.252357 0.611579
O O7 0.627708 0.261394 0.676485
O O8 0.772441 0.262155 0.012864
O O9 0.266317 0.500000 0.466485
O O10 0.310867 0.244570 0.681323
O O11 0.179668 0.251945 0.257613
O O12 0.202868 0.500000 0.767573
O O13 0.237119 0.242134 0.739664
O O14 0.310643 0.000000 0.834529
O O15 0.382827 0.757353 0.077720
O O16 0.500000 0.258141 0.500000
O O17 0.412726 0.500000 0.266173
O O18 0.105997 0.500000 0.134574
#
# Coordination Sequence:
#
# PCOD8057353 Si02
#       7
#     4   4   4   4   4   4   4
#     4   8  12  20  38  65  91 118 160 203 239 277
#     4   8  16  28  48  75  96 118 156 197 235 282
#     4  10  17  30  48  68  97 130 160 195 237 281
#     4   9  15  29  49  68  92 126 165 205 240 279
#     4  11  21  31  48  74  99 125 160 196 230 278
#     4   9  18  36  59  78  96 121 153 189 231 281
#     4   8  13  20  37  65  92 122 157 197 241 278
#
# _framework density 18.119251999999999
#
# number of rings (size 3 to 8) (size 9 to 14) (size 15 to 20)
#    0.000    3.000    1.429    3.000    0.000    0.286 
#    0.000    4.286    0.000   10.286    0.000    0.000 
#    0.000    5.714    0.000    0.000    0.000    0.000 
#
# Total GULP energy -346892.700320 kJ/mol
# GULP energy per Si atom -12389.025011 kJ/mol
# Density = 1.807801 g / cm^3
# Si number density = 18.119252 Si / 1000 Ang^3
#
#
#
# Elastic Constant Matrix: (Units=GPa)
#
#
# Indices 1 2 3 4 5 6 
#
# 1 95.7025 17.7836 77.7199 0.0000 -5.5683 0.0000
# 2 17.7836 32.6360 29.5256 0.0000 -0.3572 0.0000
# 3 77.7199 29.5256 157.2233 0.0000 3.5382 0.0000
# 4 0.0000 0.0000 0.0000 4.8928 0.0000 0.5441
# 5 -5.5683 -0.3572 3.5382 0.0000 34.6143 0.0000
# 6 0.0000 0.0000 0.0000 0.5441 0.0000 3.6466
#
#
#
# Elastic Compliance Matrix: (Units=1/GPa)
#
#
# Indices 1 2 3 4 5 6 
#
# 1 0.018048 -0.001982 -0.008634 0.000000 0.003766 0.000000
# 2 -0.001982 0.037171 -0.006016 0.000000 0.000680 0.000000
# 3 -0.008634 -0.006016 0.011818 0.000000 -0.002659 0.000000
# 4 0.000000 0.000000 0.000000 0.207829 0.000000 -0.031010
# 5 0.003766 0.000680 -0.002659 0.000000 0.029774 0.000000
# 6 0.000000 0.000000 0.000000 -0.031010 0.000000 0.278857
#
#
# Mechanical properties :
#
#
# Convention : Reuss Voigt Hill
#
# Bulk Modulus (GPa) = 29.60958 59.51334 44.56146
# Shear Modulus (GPa) = 7.96152 19.33291 13.64722
#
# Velocity S-wave (km/s) = 2.09845 3.27001 2.74741
# Velocity P-wave (km/s) = 4.71681 6.86833 5.89162
#
# Compressibility (1/GPa) = 0.03377286
#
# Stress axis : x y z
#
# Youngs Moduli (GPa) = 55.40651 26.90259 84.61524
#
# Poissons Ratio (x) = 0.05332 0.73060
# Poissons Ratio (y) = 0.10982 0.50905
# Poissons Ratio (z) = 0.47840 0.16185
#
# Static dielectric constant tensor:
#      x y z
#    x 3.404410 0.000000 0.103650 
#    y 0.000000 2.806180 0.000000 
#    z 0.103650 0.000000 3.723980 
# 
# 
# High freq. dielectric constant tensor:
#      x y z
#    x 1.675250 0.000000 0.006970 
#    y 0.000000 1.647790 0.000000 
#    z 0.006970 0.000000 1.714720 
# 
# From -- ./inp_files/38026.got.cif
#   From: 2010.06.25/outbox.cif.g09.slc.cpg/sg10_20_cif.got.tgz:38026.got - 2010.06.27 22:07:45.
