data_PCOD8057732
_publ_section_title
;
Structure prediction by ZEFSAII (Michael W. Deem and Ramdas Pophale) SiO2 
 PCOD8057732
Probable space group: P 2/M
;
_chemical_formula_sum "Si O2"
_cell_formula_units_Z 24
_cell_length_a 20.777773
_cell_length_b 8.882151
_cell_length_c 11.851780
_cell_angle_alpha 90.000000
_cell_angle_beta 140.612472
_cell_angle_gamma 90.000000
_cell_volume 1387.953740
_symmetry_space_group_name_H-M "P 2/M"
_symmetry_group_IT_number 10
_symmetry_cell_setting 'monoclinic'
loop_
_space_group_symop_operation_xyz
x,y,z
-x,y,-z
-x,-y,-z
x,-y,z
loop_
_atom_site_type_symbol
_atom_site_label
_atom_site_fract_x
_atom_site_fract_y
_atom_site_fract_z
Si Si1 0.243462 0.676000 0.339975
Si Si2 0.859715 0.824368 0.605507
Si Si3 0.615095 0.820553 0.640959
Si Si4 0.226335 0.169302 0.968802
Si Si5 0.107902 0.819501 0.602547
Si Si6 0.083338 0.168468 0.976127
O O1 0.262573 0.500000 0.370153
O O2 0.229149 0.738266 0.447745
O O3 0.341440 0.753752 0.416339
O O4 0.142286 0.712034 0.131969
O O5 0.866850 0.759200 0.488231
O O6 0.964711 0.793708 0.814121
O O7 0.833908 0.000000 0.566997
O O8 0.500000 0.767499 0.500000
O O9 0.625872 0.000000 0.648780
O O10 0.680864 0.754064 0.835957
O O11 0.196434 0.242517 0.807576
O O12 0.123409 0.173937 0.902575
O O13 0.261648 0.000000 0.993252
O O14 0.000000 0.756516 0.500000
O O15 0.105046 0.000000 0.600629
O O16 0.102247 0.000000 0.051320
#
# Coordination Sequence:
#
# PCOD8057732 Si02
#       6
#     4   4   4   4   4   4
#     4  11  22  32  44  66  97 128 159 194 235 284
#     4  10  18  28  46  69  96 130 163 194 230 275
#     4   9  18  34  56  76  92 114 150 200 249 286
#     4   8  13  24  44  72  99 118 147 192 238 279
#     4   9  14  23  43  72  99 124 156 192 230 272
#     4   9  16  28  46  67  94 127 161 196 232 273
#
# _framework density 17.291643000000001
#
# number of rings (size 3 to 8) (size 9 to 14) (size 15 to 20)
#    0.000    2.667    1.667    3.000    0.000    3.000 
#    0.000    0.000    0.000    5.500    0.000    7.000 
#    0.000    0.000    0.000    0.000    0.000    0.000 
#
# Total GULP energy -297429.289516 kJ/mol
# GULP energy per Si atom -12392.887063 kJ/mol
# Density = 1.725229 g / cm^3
# Si number density = 17.291643 Si / 1000 Ang^3
#
#
#
# Elastic Constant Matrix: (Units=GPa)
#
#
# Indices 1 2 3 4 5 6 
#
# 1 139.3440 34.6449 64.2941 0.0000 -4.0357 0.0000
# 2 34.6449 40.1314 19.5556 0.0000 -0.1439 0.0000
# 3 64.2941 19.5556 73.3076 0.0000 1.9550 0.0000
# 4 0.0000 0.0000 0.0000 3.8334 0.0000 3.9234
# 5 -4.0357 -0.1439 1.9550 0.0000 27.8960 0.0000
# 6 0.0000 0.0000 0.0000 3.9234 0.0000 8.2695
#
#
#
# Elastic Compliance Matrix: (Units=1/GPa)
#
#
# Indices 1 2 3 4 5 6 
#
# 1 0.013673 -0.006800 -0.010249 0.000000 0.002661 0.000000
# 2 -0.006800 0.032036 -0.002565 0.000000 -0.000639 0.000000
# 3 -0.010249 -0.002565 0.023398 0.000000 -0.003136 0.000000
# 4 0.000000 0.000000 0.000000 0.507089 0.000000 -0.240581
# 5 0.002661 -0.000639 -0.003136 0.000000 0.036449 0.000000
# 6 0.000000 0.000000 0.000000 -0.240581 0.000000 0.235066
#
#
# Mechanical properties :
#
#
# Convention : Reuss Voigt Hill
#
# Bulk Modulus (GPa) = 33.46822 54.41915 43.94368
# Shear Modulus (GPa) = 5.57477 16.95236 11.26356
#
# Velocity S-wave (km/s) = 1.79749 3.13450 2.55500
# Velocity P-wave (km/s) = 4.86879 6.68130 5.84572
#
# Compressibility (1/GPa) = 0.02987909
#
# Stress axis : x y z
#
# Youngs Moduli (GPa) = 73.13578 31.21467 42.73906
#
# Poissons Ratio (x) = 0.21226 0.43803
# Poissons Ratio (y) = 0.49733 0.10962
# Poissons Ratio (z) = 0.74957 0.08006
#
# Static dielectric constant tensor:
#      x y z
#    x 3.317830 0.000000 -0.180620 
#    y 0.000000 2.731590 0.000000 
#    z -0.180620 0.000000 3.242710 
# 
# 
# High freq. dielectric constant tensor:
#      x y z
#    x 1.667520 0.000000 -0.016670 
#    y 0.000000 1.618240 0.000000 
#    z -0.016670 0.000000 1.647360 
# 
# From -- ./inp_files/45129.got.cif
#   From: 2010.06.25/outbox.cif.g09.slc.cpg/sg10_23_cif.got.tgz:45129.got - 2010.06.27 22:07:45.
