data_PCOD8057807
_publ_section_title
;
Structure prediction by ZEFSAII (Michael W. Deem and Ramdas Pophale) SiO2 
 PCOD8057807
Probable space group: P 2/M
;
_chemical_formula_sum "Si O2"
_cell_formula_units_Z 24
_cell_length_a 12.912391
_cell_length_b 9.061197
_cell_length_c 19.019286
_cell_angle_alpha 90.000000
_cell_angle_beta 45.383608
_cell_angle_gamma 90.000000
_cell_volume 1584.016748
_symmetry_space_group_name_H-M "P 2/M"
_symmetry_group_IT_number 10
_symmetry_cell_setting 'monoclinic'
loop_
_space_group_symop_operation_xyz
x,y,z
-x,y,-z
-x,-y,-z
x,-y,z
loop_
_atom_site_type_symbol
_atom_site_label
_atom_site_fract_x
_atom_site_fract_y
_atom_site_fract_z
Si Si1 0.448413 0.827123 0.863945
Si Si2 0.809379 0.828357 0.907856
Si Si3 0.866508 0.825887 0.209157
Si Si4 0.621508 0.333004 0.390176
Si Si5 0.367132 0.666352 0.116835
Si Si6 0.655260 0.666870 0.220337
O O1 0.589175 0.758055 0.834869
O O2 0.435867 0.755127 0.793600
O O3 0.474316 0.000000 0.843630
O O4 0.302012 0.790387 0.976628
O O5 0.771195 0.740278 0.855028
O O6 0.967791 0.778318 0.857824
O O7 0.803471 0.000000 0.891514
O O8 0.768388 0.766913 0.321780
O O9 0.809479 0.748610 0.164117
O O10 0.849317 0.000000 0.209601
O O11 0.500000 0.264898 0.500000
O O12 0.660191 0.500000 0.395656
O O13 0.562194 0.333460 0.337653
O O14 0.327230 0.500000 0.157900
O O15 0.500000 0.670266 0.000000
O O16 0.685743 0.500000 0.179746
#
# Coordination Sequence:
#
# PCOD8057807 Si02
#       6
#     4   4   4   4   4   4
#     4  10  18  29  44  61  87 121 151 180 214 253
#     4   9  18  30  43  61  89 121 149 179 214 253
#     4   9  17  29  44  65  89 113 146 179 213 258
#     4   8  16  31  47  63  86 113 140 176 220 263
#     4   9  17  28  43  62  83 112 152 188 214 246
#     4   9  18  30  43  63  89 114 145 180 216 260
#
# _framework density 15.151355000000001
#
# number of rings (size 3 to 8) (size 9 to 14) (size 15 to 20)
#    1.000    2.000    0.000    1.500    0.000    5.000 
#    0.000    3.333    0.000    0.000    0.000    1.167 
#    0.000    9.333    0.000    0.000    0.000    0.000 
#
# Total GULP energy -297403.287703 kJ/mol
# GULP energy per Si atom -12391.803654 kJ/mol
# Density = 1.511687 g / cm^3
# Si number density = 15.151355 Si / 1000 Ang^3
#
#
#
# Elastic Constant Matrix: (Units=GPa)
#
#
# Indices 1 2 3 4 5 6 
#
# 1 96.8605 48.2756 16.8987 0.0000 16.6971 0.0000
# 2 48.2756 88.1520 19.4688 0.0000 8.6143 0.0000
# 3 16.8987 19.4688 35.0365 0.0000 9.3817 0.0000
# 4 0.0000 0.0000 0.0000 16.0143 0.0000 4.2464
# 5 16.6971 8.6143 9.3817 0.0000 7.5372 0.0000
# 6 0.0000 0.0000 0.0000 4.2464 0.0000 29.5490
#
#
#
# Elastic Compliance Matrix: (Units=1/GPa)
#
#
# Indices 1 2 3 4 5 6 
#
# 1 0.021410 -0.008745 0.006835 0.000000 -0.045942 0.000000
# 2 -0.008745 0.016900 -0.007782 0.000000 0.009744 0.000000
# 3 0.006835 -0.007782 0.046861 0.000000 -0.064575 0.000000
# 4 0.000000 0.000000 0.000000 0.064918 0.000000 -0.009329
# 5 -0.045942 0.009744 -0.064575 0.000000 0.303693 0.000000
# 6 0.000000 0.000000 0.000000 -0.009329 0.000000 0.035183
#
#
# Mechanical properties :
#
#
# Convention : Reuss Voigt Hill
#
# Bulk Modulus (GPa) = 15.20087 43.25948 29.23017
# Shear Modulus (GPa) = 9.42904 19.64714 14.53809
#
# Velocity S-wave (km/s) = 2.49735 3.60491 3.10098
# Velocity P-wave (km/s) = 4.28604 6.77796 5.67058
#
# Compressibility (1/GPa) = 0.06578572
#
# Stress axis : x y z
#
# Youngs Moduli (GPa) = 46.70760 59.17305 21.33986
#
# Poissons Ratio (x) = 0.51746 -0.14585
# Poissons Ratio (y) = 0.40845 0.16607
# Poissons Ratio (z) = -0.31924 0.46049
#
# Static dielectric constant tensor:
#      x y z
#    x 2.875080 0.000000 0.025240 
#    y 0.000000 2.996180 0.000000 
#    z 0.025240 0.000000 2.589500 
# 
# 
# High freq. dielectric constant tensor:
#      x y z
#    x 1.574050 0.000000 0.005680 
#    y 0.000000 1.595740 0.000000 
#    z 0.005680 0.000000 1.532300 
# 
# From -- ./inp_files/54449.got.cif
#   From: 2010.06.25/outbox.cif.g09.slc.cpg/sg10_28_cif.got.tgz:54449.got - 2010.06.27 22:07:45.
