data_PCOD8057894
_publ_section_title
;
Structure prediction by ZEFSAII (Michael W. Deem and Ramdas Pophale) SiO2 
 PCOD8057894
Probable space group: P 2/M
;
_chemical_formula_sum "Si O2"
_cell_formula_units_Z 28
_cell_length_a 14.850063
_cell_length_b 9.021962
_cell_length_c 14.686295
_cell_angle_alpha 90.000000
_cell_angle_beta 50.035723
_cell_angle_gamma 90.000000
_cell_volume 1508.073705
_symmetry_space_group_name_H-M "P 2/M"
_symmetry_group_IT_number 10
_symmetry_cell_setting 'monoclinic'
loop_
_space_group_symop_operation_xyz
x,y,z
-x,y,-z
-x,-y,-z
x,-y,z
loop_
_atom_site_type_symbol
_atom_site_label
_atom_site_fract_x
_atom_site_fract_y
_atom_site_fract_z
Si Si1 0.700055 0.829612 0.038955
Si Si2 0.793819 0.175390 0.542605
Si Si3 0.951313 0.824913 0.934596
Si Si4 0.445344 0.829063 0.207414
Si Si5 0.356063 0.336476 0.103642
Si Si6 0.943301 0.323740 0.307962
Si Si7 0.883833 0.663862 0.649017
O O1 0.573516 0.804118 0.172139
O O2 0.718336 0.000000 0.004785
O O3 0.813604 0.774197 0.021647
O O4 0.697984 0.751103 0.944188
O O5 0.659731 0.220208 0.657188
O O6 0.822664 0.253156 0.426938
O O7 0.891140 0.235983 0.552515
O O8 0.808055 0.000000 0.524889
O O9 0.028615 0.742707 0.808711
O O10 0.965877 0.000000 0.911009
O O11 0.000000 0.773312 0.000000
O O12 0.456569 0.741481 0.102107
O O13 0.425254 0.000000 0.193903
O O14 0.397117 0.500000 0.045912
O O15 0.252839 0.345453 0.243159
O O16 0.931312 0.500000 0.307250
O O17 0.047138 0.271765 0.308738
O O18 0.932820 0.500000 0.594768
#
# Coordination Sequence:
#
# PCOD8057894 Si02
#       7
#     4   4   4   4   4   4   4
#     4  10  19  33  53  73 101 137 171 213 264 313
#     4  10  20  32  49  75 106 140 178 212 246 301
#     4  10  22  39  59  82 103 128 172 227 274 314
#     4   9  19  33  48  72 106 143 176 206 249 306
#     4  10  18  29  46  73 107 141 176 210 248 301
#     4  11  21  35  54  75 104 139 173 213 264 316
#     4   9  18  31  46  70 106 142 174 209 251 304
#
# _framework density 18.56673
#
# number of rings (size 3 to 8) (size 9 to 14) (size 15 to 20)
#    0.000    2.143    1.429    2.143    0.000    6.571 
#    0.000    0.000    0.000    0.857    0.000    6.000 
#    0.000    0.000    0.000    0.000    0.000    0.000 
#
# Total GULP energy -346953.354915 kJ/mol
# GULP energy per Si atom -12391.191247 kJ/mol
# Density = 1.852447 g / cm^3
# Si number density = 18.566730 Si / 1000 Ang^3
#
#
#
# Elastic Constant Matrix: (Units=GPa)
#
#
# Indices 1 2 3 4 5 6 
#
# 1 119.0096 38.2971 70.7051 0.0000 0.7883 0.0000
# 2 38.2971 51.4022 41.5646 0.0000 4.9316 0.0000
# 3 70.7051 41.5646 121.1335 0.0000 2.4219 0.0000
# 4 0.0000 0.0000 0.0000 -26.0211 0.0000 1.3138
# 5 0.7883 4.9316 2.4219 0.0000 19.2596 0.0000
# 6 0.0000 0.0000 0.0000 1.3138 0.0000 11.7589
#
#
#
# Elastic Compliance Matrix: (Units=1/GPa)
#
#
# Indices 1 2 3 4 5 6 
#
# 1 0.013854 -0.005413 -0.006261 0.000000 0.001606 0.000000
# 2 -0.005413 0.029690 -0.006898 0.000000 -0.006513 0.000000
# 3 -0.006261 -0.006898 0.014272 0.000000 0.000228 0.000000
# 4 0.000000 0.000000 0.000000 -0.038215 0.000000 0.004270
# 5 0.001606 -0.006513 0.000228 0.000000 0.053496 0.000000
# 6 0.000000 0.000000 0.000000 0.004270 0.000000 0.084565
#
#
# Mechanical properties :
#
#
# Convention : Reuss Voigt Hill
#
# Bulk Modulus (GPa) = 48.37426 65.85320 57.11373
# Shear Modulus (GPa) = 24.78980 10.39806 17.59393
#
# Velocity S-wave (km/s) = 3.65797 2.36908 3.08166
# Velocity P-wave (km/s) = 6.62961 6.55963 6.59472
#
# Compressibility (1/GPa) = 0.02067215
#
# Stress axis : x y z
#
# Youngs Moduli (GPa) = 72.18269 33.68151 70.06624
#
# Poissons Ratio (x) = 0.18232 0.43869
# Poissons Ratio (y) = 0.39072 0.48330
# Poissons Ratio (z) = 0.45194 0.23233
#
# Static dielectric constant tensor:
#      x y z
#    x 3.488960 0.000000 -0.410010 
#    y 0.000000 3.507990 0.000000 
#    z -0.410010 0.000000 3.485750 
# 
# 
# High freq. dielectric constant tensor:
#      x y z
#    x 1.699230 0.000000 -0.040100 
#    y 0.000000 1.720480 0.000000 
#    z -0.040100 0.000000 1.720830 
# 
# From -- ./inp_files/49647.got.cif
#   From: 2010.06.25/outbox.cif.g09.slc.cpg/sg10_25_cif.got.tgz:49647.got - 2010.06.27 22:07:45.
