data_PCOD8057164
_publ_section_title
;
Structure prediction by ZEFSAII (Michael W. Deem and Ramdas Pophale) SiO2 
 PCOD8057164
Probable space group: P 2/M
;
_chemical_formula_sum "Si O2"
_cell_formula_units_Z 32
_cell_length_a 22.108919
_cell_length_b 8.541867
_cell_length_c 33.008174
_cell_angle_alpha 90.000000
_cell_angle_beta 162.084849
_cell_angle_gamma 90.000000
_cell_volume 1917.519464
_symmetry_space_group_name_H-M "P 2/M"
_symmetry_group_IT_number 10
_symmetry_cell_setting 'monoclinic'
loop_
_space_group_symop_operation_xyz
x,y,z
-x,y,-z
-x,-y,-z
x,-y,z
loop_
_atom_site_type_symbol
_atom_site_label
_atom_site_fract_x
_atom_site_fract_y
_atom_site_fract_z
Si Si1 0.012125 0.317529 0.749370
Si Si2 0.539484 0.318997 0.190214
Si Si3 0.377084 0.817123 0.478290
Si Si4 0.276789 0.181419 0.850247
Si Si5 0.852268 0.176240 0.443092
Si Si6 0.832129 0.680806 0.303128
Si Si7 0.128920 0.817626 0.908873
Si Si8 0.254315 0.683185 0.314693
O O1 0.003201 0.500000 0.753247
O O2 0.139642 0.286261 0.791060
O O3 0.112852 0.235198 0.852007
O O4 0.790695 0.254722 0.599502
O O5 0.483796 0.500000 0.158529
O O6 0.654224 0.265343 0.303692
O O7 0.670102 0.286541 0.233988
O O8 0.343883 0.217515 0.062606
O O9 0.308211 0.781303 0.388932
O O10 0.592362 0.737331 0.622697
O O11 0.394979 0.000000 0.497882
O O12 0.222678 0.211379 0.769424
O O13 0.245048 0.000000 0.840693
O O14 0.500000 0.233465 0.000000
O O15 0.000000 0.173648 0.500000
O O16 0.952188 0.270087 0.543636
O O17 0.801439 0.000000 0.424616
O O18 0.836121 0.500000 0.292737
O O19 0.972232 0.728015 0.838416
O O20 0.085539 0.000000 0.883894
O O21 0.277367 0.500000 0.337536
#
# Coordination Sequence:
#
# PCOD8057164 Si02
#       8
#     4   4   4   4   4   4   4   4
#     4  11  21  33  47  64  88 120 157 193 229 269
#     4  10  19  31  47  68  93 120 151 187 229 275
#     4  10  17  28  44  62  85 114 149 186 224 266
#     4  11  23  36  49  66  90 121 157 195 232 269
#     4   9  17  30  48  68  89 115 148 186 228 273
#     4  10  20  33  49  67  89 119 154 192 231 271
#     4  11  20  30  44  65  93 123 154 187 227 273
#     4  10  17  27  42  62  87 116 149 183 223 268
#
# _framework density 16.688227999999999
#
# number of rings (size 3 to 8) (size 9 to 14) (size 15 to 20)
#    0.000    1.750    0.000    9.000    0.000    6.000 
#    0.000    0.000    0.000    0.000    0.000    0.000 
#    0.000    1.000    0.000   10.000    0.000    6.000 
#
# Total GULP energy -396790.618549 kJ/mol
# GULP energy per Si atom -12399.706830 kJ/mol
# Density = 1.665024 g / cm^3
# Si number density = 16.688228 Si / 1000 Ang^3
#
#
#
# Elastic Constant Matrix: (Units=GPa)
#
#
# Indices 1 2 3 4 5 6 
#
# 1 49.5895 22.0509 42.4298 0.0000 12.0742 0.0000
# 2 22.0509 86.6932 31.9057 0.0000 10.7480 0.0000
# 3 42.4298 31.9057 102.0686 0.0000 7.2387 0.0000
# 4 0.0000 0.0000 0.0000 28.9232 0.0000 3.3822
# 5 12.0742 10.7480 7.2387 0.0000 24.6259 0.0000
# 6 0.0000 0.0000 0.0000 3.3822 0.0000 22.6636
#
#
#
# Elastic Compliance Matrix: (Units=1/GPa)
#
#
# Indices 1 2 3 4 5 6 
#
# 1 0.035564 -0.002700 -0.013059 0.000000 -0.012420 0.000000
# 2 -0.002700 0.013767 -0.002910 0.000000 -0.003830 0.000000
# 3 -0.013059 -0.002910 0.015923 0.000000 0.002992 0.000000
# 4 0.000000 0.000000 0.000000 0.035188 0.000000 -0.005251
# 5 -0.012420 -0.003830 0.002992 0.000000 0.047489 0.000000
# 6 0.000000 0.000000 0.000000 -0.005251 0.000000 0.044907
#
#
# Mechanical properties :
#
#
# Convention : Reuss Voigt Hill
#
# Bulk Modulus (GPa) = 35.82016 47.90269 41.86142
# Shear Modulus (GPa) = 20.87842 24.70688 22.79265
#
# Velocity S-wave (km/s) = 3.54091 3.85190 3.69967
# Velocity P-wave (km/s) = 6.18290 6.96776 6.58703
#
# Compressibility (1/GPa) = 0.02791724
#
# Stress axis : x y z
#
# Youngs Moduli (GPa) = 28.11857 72.63601 62.80133
#
# Poissons Ratio (x) = 0.19611 0.82012
# Poissons Ratio (y) = 0.07592 0.18272
# Poissons Ratio (z) = 0.36720 0.21134
#
# Static dielectric constant tensor:
#      x y z
#    x 2.972790 0.000000 0.417960 
#    y 0.000000 3.247010 0.000000 
#    z 0.417960 0.000000 3.443700 
# 
# 
# High freq. dielectric constant tensor:
#      x y z
#    x 1.593590 0.000000 0.027030 
#    y 0.000000 1.665780 0.000000 
#    z 0.027030 0.000000 1.639430 
# 
# From -- ./inp_files/95677.got.cif
#   From: 2010.06.25/outbox.cif.g09.slc.cpg/sg10_48_cif.got.tgz:95677.got - 2010.06.27 22:07:45.
