data_PCOD8057686
_publ_section_title
;
Structure prediction by ZEFSAII (Michael W. Deem and Ramdas Pophale) SiO2 
 PCOD8057686
Probable space group: P 2/M
;
_chemical_formula_sum "Si O2"
_cell_formula_units_Z 32
_cell_length_a 13.968302
_cell_length_b 9.146870
_cell_length_c 15.170589
_cell_angle_alpha 90.000000
_cell_angle_beta 89.409906
_cell_angle_gamma 90.000000
_cell_volume 1938.186356
_symmetry_space_group_name_H-M "P 2/M"
_symmetry_group_IT_number 10
_symmetry_cell_setting 'monoclinic'
loop_
_space_group_symop_operation_xyz
x,y,z
-x,y,-z
-x,-y,-z
x,-y,z
loop_
_atom_site_type_symbol
_atom_site_label
_atom_site_fract_x
_atom_site_fract_y
_atom_site_fract_z
Si Si1 0.379911 0.827555 0.752117
Si Si2 0.224291 0.334652 0.843956
Si Si3 0.455517 0.839418 0.125212
Si Si4 0.305809 0.667229 0.032988
Si Si5 0.316570 0.159718 0.291615
Si Si6 0.483229 0.824521 0.402005
Si Si7 0.013971 0.327079 0.898283
Si Si8 0.166463 0.175941 0.164317
O O1 0.275364 0.756221 0.765434
O O2 0.445315 0.779970 0.835006
O O3 0.429068 0.772005 0.660749
O O4 0.367364 0.000000 0.749218
O O5 0.217341 0.500000 0.810884
O O6 0.118145 0.275293 0.864777
O O7 0.289028 0.322005 0.929834
O O8 0.412114 0.730755 0.051918
O O9 0.381757 0.854469 0.205302
O O10 0.470018 0.000000 0.082415
O O11 0.299334 0.500000 0.066269
O O12 0.223661 0.761356 0.080444
O O13 0.380816 0.240437 0.366304
O O14 0.217622 0.231482 0.256000
O O15 0.290371 0.000000 0.329127
O O16 0.500000 0.764113 0.500000
O O17 0.477445 0.000000 0.399257
O O18 0.998482 0.500000 0.887898
O O19 0.939940 0.240616 0.837006
O O20 0.000000 0.281113 0.000000
O O21 0.165618 0.000000 0.159294
#
# Coordination Sequence:
#
# PCOD8057686 Si02
#       8
#     4   4   4   4   4   4   4   4
#     4   9  18  31  46  66  93 118 145 186 226 266
#     4  10  21  33  44  59  85 120 154 190 230 266
#     4   8  15  28  42  59  86 118 148 182 224 260
#     4  10  18  29  43  60  83 118 159 192 222 259
#     4   7  12  23  39  63  93 116 138 175 219 263
#     4   8  13  25  48  74  96 119 144 171 215 274
#     4  10  19  34  48  60  84 118 159 202 233 263
#     4  10  18  28  44  66  91 117 149 192 236 269
#
# _framework density 16.510280000000002
#
# number of rings (size 3 to 8) (size 9 to 14) (size 15 to 20)
#    0.000    3.000    1.250    3.000    0.000    2.750 
#    0.000    2.500    0.000    0.375    0.000    0.875 
#    0.000    7.000    0.000    0.000    0.000    0.000 
#
# Total GULP energy -396425.035526 kJ/mol
# GULP energy per Si atom -12388.282360 kJ/mol
# Density = 1.647270 g / cm^3
# Si number density = 16.510280 Si / 1000 Ang^3
#
#
#
# Elastic Constant Matrix: (Units=GPa)
#
#
# Indices 1 2 3 4 5 6 
#
# 1 123.7938 37.1067 56.4536 0.0000 3.5046 0.0000
# 2 37.1067 42.6290 23.5864 0.0000 0.6695 0.0000
# 3 56.4536 23.5864 77.1510 0.0000 10.3899 0.0000
# 4 0.0000 0.0000 0.0000 46.0684 0.0000 52.0127
# 5 3.5046 0.6695 10.3899 0.0000 21.1258 0.0000
# 6 0.0000 0.0000 0.0000 52.0127 0.0000 106.7574
#
#
#
# Elastic Compliance Matrix: (Units=1/GPa)
#
#
# Indices 1 2 3 4 5 6 
#
# 1 0.014086 -0.007756 -0.008197 0.000000 0.001941 0.000000
# 2 -0.007756 0.032761 -0.004684 0.000000 0.002552 0.000000
# 3 -0.008197 -0.004684 0.021621 0.000000 -0.009125 0.000000
# 4 0.000000 0.000000 0.000000 0.048245 0.000000 -0.023505
# 5 0.001941 0.002552 -0.009125 0.000000 0.051421 0.000000
# 6 0.000000 0.000000 0.000000 -0.023505 0.000000 0.020819
#
#
# Mechanical properties :
#
#
# Convention : Reuss Voigt Hill
#
# Bulk Modulus (GPa) = 36.77421 53.09636 44.93528
# Shear Modulus (GPa) = 20.89500 43.21879 32.05690
#
# Velocity S-wave (km/s) = 3.56135 5.12189 4.41118
# Velocity P-wave (km/s) = 6.26361 8.19803 7.29522
#
# Compressibility (1/GPa) = 0.02719297
#
# Stress axis : x y z
#
# Youngs Moduli (GPa) = 70.99161 30.52390 46.25217
#
# Poissons Ratio (x) = 0.23675 0.37914
# Poissons Ratio (y) = 0.55063 0.21664
# Poissons Ratio (z) = 0.58194 0.14297
#
# Static dielectric constant tensor:
#      x y z
#    x 3.390870 0.000000 0.302530 
#    y 0.000000 2.941400 0.000000 
#    z 0.302530 0.000000 2.981530 
# 
# 
# High freq. dielectric constant tensor:
#      x y z
#    x 1.636790 0.000000 0.013990 
#    y 0.000000 1.610490 0.000000 
#    z 0.013990 0.000000 1.596860 
# 
# From -- ./inp_files/66157.got.cif
#   From: 2010.06.25/outbox.cif.g09.slc.cpg/sg10_34_cif.got.tgz:66157.got - 2010.06.27 22:07:45.
