data_PCOD8057304
_publ_section_title
;
Structure prediction by ZEFSAII (Michael W. Deem and Ramdas Pophale) SiO2 
 PCOD8057304
Probable space group: P 2/M
;
_chemical_formula_sum "Si O2"
_cell_formula_units_Z 30
_cell_length_a 12.669954
_cell_length_b 18.510245
_cell_length_c 12.503425
_cell_angle_alpha 90.000000
_cell_angle_beta 145.883420
_cell_angle_gamma 90.000000
_cell_volume 1644.693826
_symmetry_space_group_name_H-M "P 2/M"
_symmetry_group_IT_number 10
_symmetry_cell_setting 'monoclinic'
loop_
_space_group_symop_operation_xyz
x,y,z
-x,y,-z
-x,-y,-z
x,-y,z
loop_
_atom_site_type_symbol
_atom_site_label
_atom_site_fract_x
_atom_site_fract_y
_atom_site_fract_z
Si Si1 0.820600 0.419743 0.419065
Si Si2 0.904734 0.921539 0.118574
Si Si3 0.987266 0.232197 0.110710
Si Si4 0.500000 0.626164 0.000000
Si Si5 0.763982 0.279175 0.499358
Si Si6 0.879204 0.135807 0.502147
Si Si7 0.624654 0.266175 0.931179
Si Si8 0.469612 0.888596 0.093018
O O1 0.835457 0.500000 0.482671
O O2 0.641485 0.420759 0.189601
O O3 0.812307 0.361316 0.507321
O O4 0.000000 0.400317 0.500000
O O5 0.950268 0.854629 0.077981
O O6 0.026226 0.909181 0.325574
O O7 0.960749 0.000000 0.114943
O O8 0.684864 0.929854 0.965938
O O9 0.178786 0.258768 0.330695
O O10 0.818297 0.272795 0.029258
O O11 0.000000 0.258977 0.000000
O O12 0.621506 0.672834 0.018544
O O13 0.878021 0.222343 0.520739
O O14 0.541033 0.269781 0.295991
O O15 0.667554 0.106447 0.318995
O O16 0.000000 0.119188 0.500000
O O17 0.611095 0.192399 0.986583
O O18 0.500000 0.921197 0.000000
#
# Coordination Sequence:
#
# PCOD8057304 Si02
#       8
#     4   4   4   2   4   4   4   4
#     4  10  19  29  46  78 117 148 170 197 242 303
#     4  10  22  35  47  69  99 129 163 205 261 312
#     4  10  21  37  56  75  94 125 176 224 260 299
#     4  10  17  30  52  78 111 144 170 198 245 302
#     4   9  19  32  51  74  99 134 171 214 251 290
#     4  10  18  30  48  70  98 132 168 202 242 299
#     4   9  18  30  52  78 102 130 166 210 251 296
#     4  10  17  29  46  69  97 130 164 200 237 293
#
# _framework density 18.240476999999998
#
# number of rings (size 3 to 8) (size 9 to 14) (size 15 to 20)
#    0.000    2.267    2.000    1.400    0.000    1.867 
#    0.000    0.000    0.000    0.400    0.000   11.200 
#    0.000    0.000    0.000    0.000    0.000    0.000 
#
# Total GULP energy -371821.401751 kJ/mol
# GULP energy per Si atom -12394.046725 kJ/mol
# Density = 1.819896 g / cm^3
# Si number density = 18.240477 Si / 1000 Ang^3
#
#
#
# Elastic Constant Matrix: (Units=GPa)
#
#
# Indices 1 2 3 4 5 6 
#
# 1 57.7112 10.3372 23.3685 0.0000 -9.6174 0.0000
# 2 10.3372 89.6281 17.2267 0.0000 -2.2311 0.0000
# 3 23.3685 17.2267 77.2782 0.0000 -3.3123 0.0000
# 4 0.0000 0.0000 0.0000 22.7767 0.0000 5.1720
# 5 -9.6174 -2.2311 -3.3123 0.0000 24.4819 0.0000
# 6 0.0000 0.0000 0.0000 5.1720 0.0000 1.9785
#
#
#
# Elastic Compliance Matrix: (Units=1/GPa)
#
#
# Indices 1 2 3 4 5 6 
#
# 1 0.021120 -0.001134 -0.005816 0.000000 0.007407 0.000000
# 2 -0.001134 0.011730 -0.002258 0.000000 0.000318 0.000000
# 3 -0.005816 -0.002258 0.015184 0.000000 -0.000436 0.000000
# 4 0.000000 0.000000 0.000000 0.108029 0.000000 -0.282393
# 5 0.007407 0.000318 -0.000436 0.000000 0.043726 0.000000
# 6 0.000000 0.000000 0.000000 -0.282393 0.000000 1.243614
#
#
# Mechanical properties :
#
#
# Convention : Reuss Voigt Hill
#
# Bulk Modulus (GPa) = 33.76426 36.27580 35.02003
# Shear Modulus (GPa) = 3.39745 21.42644 12.41195
#
# Velocity S-wave (km/s) = 1.36625 3.43106 2.61140
# Velocity P-wave (km/s) = 4.58690 5.96883 5.32290
#
# Compressibility (1/GPa) = 0.02961712
#
# Stress axis : x y z
#
# Youngs Moduli (GPa) = 47.34805 85.25192 65.85944
#
# Poissons Ratio (x) = 0.09664 0.38307
# Poissons Ratio (y) = 0.05367 0.14874
# Poissons Ratio (z) = 0.27540 0.19253
#
# Static dielectric constant tensor:
#      x y z
#    x 2.971030 0.000000 0.216520 
#    y 0.000000 3.285010 0.000000 
#    z 0.216520 0.000000 3.556240 
# 
# 
# High freq. dielectric constant tensor:
#      x y z
#    x 1.667450 0.000000 0.018570 
#    y 0.000000 1.697190 0.000000 
#    z 0.018570 0.000000 1.718830 
# 
# From -- ./inp_files/47923.got.cif
#   From: 2010.06.25/outbox.cif.g09.slc.cpg/sg10_24_cif.got.tgz:47923.got - 2010.06.27 22:07:45.
