data_PCOD8057284
_publ_section_title
;
Structure prediction by ZEFSAII (Michael W. Deem and Ramdas Pophale) SiO2 
 PCOD8057284
Probable space group: P 2/M
;
_chemical_formula_sum "Si O2"
_cell_formula_units_Z 32
_cell_length_a 12.305289
_cell_length_b 8.972702
_cell_length_c 20.010379
_cell_angle_alpha 90.000000
_cell_angle_beta 54.256140
_cell_angle_gamma 90.000000
_cell_volume 1793.213471
_symmetry_space_group_name_H-M "P 2/M"
_symmetry_group_IT_number 10
_symmetry_cell_setting 'monoclinic'
loop_
_space_group_symop_operation_xyz
x,y,z
-x,y,-z
-x,-y,-z
x,-y,z
loop_
_atom_site_type_symbol
_atom_site_label
_atom_site_fract_x
_atom_site_fract_y
_atom_site_fract_z
Si Si1 0.398772 0.175942 0.954836
Si Si2 0.324449 0.676088 0.107474
Si Si3 0.427951 0.824994 0.797527
Si Si4 0.346166 0.826967 0.686668
Si Si5 0.349440 0.169860 0.458869
Si Si6 0.719396 0.826971 0.665030
Si Si7 0.895323 0.674840 0.706203
Si Si8 0.808957 0.324434 0.370325
O O1 0.549325 0.234382 0.909609
O O2 0.355119 0.210861 0.893900
O O3 0.394229 0.000000 0.971112
O O4 0.299683 0.264392 0.040512
O O5 0.353924 0.500000 0.096348
O O6 0.196631 0.718064 0.197569
O O7 0.341376 0.767152 0.765457
O O8 0.578733 0.758457 0.742564
O O9 0.448020 0.000000 0.778507
O O10 0.493731 0.796816 0.604827
O O11 0.236558 0.737024 0.684856
O O12 0.309015 0.000000 0.695492
O O13 0.271676 0.200184 0.417584
O O14 0.292858 0.277423 0.535436
O O15 0.327491 0.000000 0.489952
O O16 0.841304 0.744345 0.657061
O O17 0.731395 0.000000 0.678390
O O18 0.898450 0.500000 0.694179
O O19 0.043155 0.738449 0.667029
O O20 0.811347 0.500000 0.364440
#
# Coordination Sequence:
#
# PCOD8057284 Si02
#       8
#     4   4   4   4   4   4   4   4
#     4  10  17  28  50  78 103 125 156 199 247 290
#     4  10  19  31  46  69 102 136 165 194 235 290
#     4   8  15  29  51  77 102 124 152 201 253 291
#     4   9  18  35  56  75  97 126 162 205 252 295
#     4   9  19  35  55  77  99 124 159 208 258 298
#     4   9  17  32  53  75  98 127 164 201 244 298
#     4  10  22  36  48  66 102 142 168 199 241 290
#     4  11  23  36  49  70  99 133 172 208 244 286
#
# _framework density 17.845058999999999
#
# number of rings (size 3 to 8) (size 9 to 14) (size 15 to 20)
#    0.000    2.500    1.250    3.750    0.000    4.500 
#    0.000    5.625    0.000    0.750    0.000    5.250 
#    0.000    0.000    0.000    0.000    0.000    0.000 
#
# Total GULP energy -396701.808774 kJ/mol
# GULP energy per Si atom -12396.931524 kJ/mol
# Density = 1.780444 g / cm^3
# Si number density = 17.845059 Si / 1000 Ang^3
#
#
#
# Elastic Constant Matrix: (Units=GPa)
#
#
# Indices 1 2 3 4 5 6 
#
# 1 121.1576 30.2967 25.4748 0.0000 16.5530 0.0000
# 2 30.2967 44.3532 15.7278 0.0000 4.8567 0.0000
# 3 25.4748 15.7278 44.2029 0.0000 18.5713 0.0000
# 4 0.0000 0.0000 0.0000 2.7329 0.0000 -10.7953
# 5 16.5530 4.8567 18.5713 0.0000 24.4880 0.0000
# 6 0.0000 0.0000 0.0000 -10.7953 0.0000 16.6028
#
#
#
# Elastic Compliance Matrix: (Units=1/GPa)
#
#
# Indices 1 2 3 4 5 6 
#
# 1 0.010863 -0.006153 -0.002200 0.000000 -0.004455 0.000000
# 2 -0.006153 0.029409 -0.009121 0.000000 0.005244 0.000000
# 3 -0.002200 -0.009121 0.037793 0.000000 -0.025366 0.000000
# 4 0.000000 0.000000 0.000000 -0.233303 0.000000 -0.151695
# 5 -0.004455 0.005244 -0.025366 0.000000 0.062044 0.000000
# 6 0.000000 0.000000 0.000000 -0.151695 0.000000 -0.038402
#
#
# Mechanical properties :
#
#
# Convention : Reuss Voigt Hill
#
# Bulk Modulus (GPa) = 23.19212 39.19024 31.19118
# Shear Modulus (GPa) = -60.77267 17.97904 -21.39681
#
# Velocity S-wave (km/s) = -5.84206 3.17757 -3.46646
# Velocity P-wave (km/s) = 5.69927 5.95581 1.22271
#
# Compressibility (1/GPa) = 0.04311810
#
# Stress axis : x y z
#
# Youngs Moduli (GPa) = 92.05191 34.00288 26.45968
#
# Poissons Ratio (x) = 0.20921 0.05821
# Poissons Ratio (y) = 0.56636 0.24135
# Poissons Ratio (z) = 0.20252 0.31015
#
# Static dielectric constant tensor:
#      x y z
#    x 3.351860 0.000000 0.242430 
#    y 0.000000 3.133660 0.000000 
#    z 0.242430 0.000000 3.420050 
# 
# 
# High freq. dielectric constant tensor:
#      x y z
#    x 1.679320 0.000000 0.026040 
#    y 0.000000 1.678580 0.000000 
#    z 0.026040 0.000000 1.683760 
# 
# From -- ./inp_files/83590.got.cif
#   From: 2010.06.25/outbox.cif.g09.slc.cpg/sg10_42_cif.got.tgz:83590.got - 2010.06.27 22:07:45.
