data_PCOD8057129
_publ_section_title
;
Structure prediction by ZEFSAII (Michael W. Deem and Ramdas Pophale) SiO2 
 PCOD8057129
Probable space group: P 2/M
;
_chemical_formula_sum "Si O2"
_cell_formula_units_Z 32
_cell_length_a 25.584228
_cell_length_b 8.692206
_cell_length_c 24.814462
_cell_angle_alpha 90.000000
_cell_angle_beta 16.281385
_cell_angle_gamma 90.000000
_cell_volume 1547.088935
_symmetry_space_group_name_H-M "P 2/M"
_symmetry_group_IT_number 10
_symmetry_cell_setting 'monoclinic'
loop_
_space_group_symop_operation_xyz
x,y,z
-x,y,-z
-x,-y,-z
x,-y,z
loop_
_atom_site_type_symbol
_atom_site_label
_atom_site_fract_x
_atom_site_fract_y
_atom_site_fract_z
Si Si1 0.988179 0.682635 0.426438
Si Si2 0.393178 0.324454 0.383806
Si Si3 0.335569 0.181240 0.545593
Si Si4 0.722050 0.174606 0.282416
Si Si5 0.211245 0.179665 0.996505
Si Si6 0.260330 0.319735 0.840866
Si Si7 0.045197 0.677931 0.660913
Si Si8 0.292827 0.316805 0.206956
O O1 0.977128 0.500000 0.435167
O O2 0.179936 0.735927 0.265345
O O3 0.979807 0.747777 0.374179
O O4 0.813076 0.744189 0.634800
O O5 0.456292 0.500000 0.329805
O O6 0.266744 0.270749 0.560444
O O7 0.577691 0.222580 0.195542
O O8 0.263573 0.305765 0.459754
O O9 0.220497 0.229679 0.713664
O O10 0.551020 0.223821 0.339847
O O11 0.318325 0.000000 0.553350
O O12 0.500000 0.191206 0.500000
O O13 0.823657 0.274652 0.135052
O O14 0.785011 0.000000 0.210757
O O15 0.140349 0.266370 0.011756
O O16 0.197407 0.000000 0.999044
O O17 0.080319 0.223024 0.175373
O O18 0.296894 0.500000 0.806663
O O19 0.982105 0.500000 0.726832
O O20 0.301754 0.500000 0.199768
O O21 0.500000 0.245134 0.000000
#
# Coordination Sequence:
#
# PCOD8057129 Si02
#       8
#     4   4   4   4   4   4   4   4
#     4   8  15  27  43  70 107 140 173 211 253 307
#     4  10  20  34  53  76 104 137 176 223 272 323
#     4   9  16  27  44  66  96 132 170 213 262 320
#     4   8  14  24  39  63  94 127 164 208 261 321
#     4  11  22  36  54  74 102 140 181 224 268 320
#     4  10  17  26  44  69  97 128 167 216 268 322
#     4  10  21  36  54  78 109 144 180 221 269 315
#     4   8  13  23  43  72 106 142 173 205 251 304
#
# _framework density 20.684007999999999
#
# number of rings (size 3 to 8) (size 9 to 14) (size 15 to 20)
#    0.000    2.750    0.000    6.000    0.000    4.750 
#    0.000    3.750    0.000    0.750    0.000    7.000 
#    0.000    5.000    0.000    0.000    0.000    0.000 
#
# Total GULP energy -396538.722971 kJ/mol
# GULP energy per Si atom -12391.835093 kJ/mol
# Density = 2.063693 g / cm^3
# Si number density = 20.684008 Si / 1000 Ang^3
#
#
#
# Elastic Constant Matrix: (Units=GPa)
#
#
# Indices 1 2 3 4 5 6 
#
# 1 125.0772 18.0198 25.8565 0.0000 23.1138 0.0000
# 2 18.0198 43.9179 7.0634 0.0000 3.0132 0.0000
# 3 25.8565 7.0634 70.3146 0.0000 12.1928 0.0000
# 4 0.0000 0.0000 0.0000 6.9491 0.0000 9.3024
# 5 23.1138 3.0132 12.1928 0.0000 23.1900 0.0000
# 6 0.0000 0.0000 0.0000 9.3024 0.0000 7.5191
#
#
#
# Elastic Compliance Matrix: (Units=1/GPa)
#
#
# Indices 1 2 3 4 5 6 
#
# 1 0.010565 -0.003396 -0.001974 0.000000 -0.009051 0.000000
# 2 -0.003396 0.024317 -0.001357 0.000000 0.000939 0.000000
# 3 -0.001974 -0.001357 0.016188 0.000000 -0.006367 0.000000
# 4 0.000000 0.000000 0.000000 -0.219328 0.000000 0.271344
# 5 -0.009051 0.000939 -0.006367 0.000000 0.055369 0.000000
# 6 0.000000 0.000000 0.000000 0.271344 0.000000 -0.202701
#
#
# Mechanical properties :
#
#
# Convention : Reuss Voigt Hill
#
# Bulk Modulus (GPa) = 26.58470 37.90989 32.24729
# Shear Modulus (GPa) = -17.26543 20.08964 1.41211
#
# Velocity S-wave (km/s) = -2.89229 3.11989 0.82716
# Velocity P-wave (km/s) = 1.31410 5.59877 4.06651
#
# Compressibility (1/GPa) = 0.03761562
#
# Stress axis : x y z
#
# Youngs Moduli (GPa) = 94.65104 41.12333 61.77326
#
# Poissons Ratio (x) = 0.13967 0.12197
# Poissons Ratio (y) = 0.32147 0.08380
# Poissons Ratio (z) = 0.18688 0.05579
#
# Static dielectric constant tensor:
#      x y z
#    x 4.386490 0.000000 0.247330 
#    y 0.000000 3.370580 0.000000 
#    z 0.247330 0.000000 3.610270 
# 
# 
# High freq. dielectric constant tensor:
#      x y z
#    x 1.818120 0.000000 0.008080 
#    y 0.000000 1.773460 0.000000 
#    z 0.008080 0.000000 1.792780 
# 
# From -- ./inp_files/90540.got.cif
#   From: 2010.06.25/outbox.cif.g09.slc.cpg/sg10_46_cif.got.tgz:90540.got - 2010.06.27 22:07:45.
