data_PCOD8057513
_publ_section_title
;
Structure prediction by ZEFSAII (Michael W. Deem and Ramdas Pophale) SiO2 
 PCOD8057513
Probable space group: P 2/M
;
_chemical_formula_sum "Si O2"
_cell_formula_units_Z 32
_cell_length_a 17.514429
_cell_length_b 12.895283
_cell_length_c 11.954678
_cell_angle_alpha 90.000000
_cell_angle_beta 124.840020
_cell_angle_gamma 90.000000
_cell_volume 2216.031014
_symmetry_space_group_name_H-M "P 2/M"
_symmetry_group_IT_number 10
_symmetry_cell_setting 'monoclinic'
loop_
_space_group_symop_operation_xyz
x,y,z
-x,y,-z
-x,-y,-z
x,-y,z
loop_
_atom_site_type_symbol
_atom_site_label
_atom_site_fract_x
_atom_site_fract_y
_atom_site_fract_z
Si Si1 0.336623 0.378736 0.427211
Si Si2 0.786337 0.378300 0.117129
Si Si3 0.341645 0.622310 0.180370
Si Si4 0.462786 0.297544 0.719247
Si Si5 0.307671 0.700938 0.748740
Si Si6 0.179013 0.380841 0.462384
Si Si7 0.019225 0.621673 0.639613
Si Si8 0.570435 0.881873 0.162012
O O1 0.365531 0.500000 0.455313
O O2 0.334907 0.333141 0.300281
O O3 0.413461 0.312143 0.557812
O O4 0.233572 0.361965 0.392305
O O5 0.797187 0.500000 0.114461
O O6 0.711759 0.354602 0.151252
O O7 0.887610 0.327699 0.228137
O O8 0.744256 0.333801 0.965689
O O9 0.335608 0.500000 0.182286
O O10 0.436590 0.652256 0.198325
O O11 0.396548 0.352246 0.758669
O O12 0.471848 0.175833 0.762760
O O13 0.218148 0.691716 0.593676
O O14 0.333368 0.822533 0.790837
O O15 0.190238 0.500000 0.511846
O O16 0.069635 0.354595 0.355162
O O17 0.037530 0.500000 0.642776
O O18 0.000000 0.668246 0.500000
O O19 0.592930 0.000000 0.212137
O O20 0.500000 0.873995 0.000000
#
# Coordination Sequence:
#
# PCOD8057513 Si02
#       8
#     4   4   4   4   4   4   4   4
#     4   9  17  29  43  60  85 117 150 174 203 244
#     4  10  18  26  38  62  93 116 144 177 205 244
#     4  10  19  28  39  59  89 122 147 174 206 239
#     4   9  18  28  45  61  80 111 146 173 202 251
#     4   9  17  26  42  63  83 107 139 171 208 251
#     4   9  15  26  43  63  84 109 144 177 204 245
#     4   9  15  24  39  59  86 117 142 171 211 247
#     4   9  18  31  44  61  86 111 135 168 217 267
#
# _framework density 14.440231000000001
#
# number of rings (size 3 to 8) (size 9 to 14) (size 15 to 20)
#    0.750    2.000    1.250    1.875    0.000    2.500 
#    0.000    1.875    0.000    5.250    0.000    1.750 
#    0.000    0.000    0.000    1.125    0.000    0.125 
#
# Total GULP energy -396420.545005 kJ/mol
# GULP energy per Si atom -12388.142031 kJ/mol
# Density = 1.440736 g / cm^3
# Si number density = 14.440231 Si / 1000 Ang^3
#
#
#
# Elastic Constant Matrix: (Units=GPa)
#
#
# Indices 1 2 3 4 5 6 
#
# 1 71.8187 17.1096 53.0057 0.0000 8.7152 0.0000
# 2 17.1096 18.2124 32.9899 0.0000 -0.1515 0.0000
# 3 53.0057 32.9899 120.5058 0.0000 4.1590 0.0000
# 4 0.0000 0.0000 0.0000 11.1361 0.0000 -1.8659
# 5 8.7152 -0.1515 4.1590 0.0000 21.2672 0.0000
# 6 0.0000 0.0000 0.0000 -1.8659 0.0000 5.2939
#
#
#
# Elastic Compliance Matrix: (Units=1/GPa)
#
#
# Indices 1 2 3 4 5 6 
#
# 1 0.022096 -0.007329 -0.007449 0.000000 -0.007650 0.000000
# 2 -0.007329 0.112295 -0.027837 0.000000 0.009247 0.000000
# 3 -0.007449 -0.027837 0.019227 0.000000 -0.000906 0.000000
# 4 0.000000 0.000000 0.000000 0.095434 0.000000 0.033636
# 5 -0.007650 0.009247 -0.000906 0.000000 0.050399 0.000000
# 6 0.000000 0.000000 0.000000 0.033636 0.000000 0.200751
#
#
# Mechanical properties :
#
#
# Convention : Reuss Voigt Hill
#
# Bulk Modulus (GPa) = 14.62269 46.30526 30.46397
# Shear Modulus (GPa) = 8.22062 14.70157 11.46110
#
# Velocity S-wave (km/s) = 2.38856 3.19423 2.82031
# Velocity P-wave (km/s) = 4.21370 6.76318 5.63453
#
# Compressibility (1/GPa) = 0.06838688
#
# Stress axis : x y z
#
# Youngs Moduli (GPa) = 45.25754 8.90515 52.01098
#
# Poissons Ratio (x) = 0.06527 0.38741
# Poissons Ratio (y) = 0.33170 1.44784
# Poissons Ratio (z) = 0.33710 0.24790
#
# Static dielectric constant tensor:
#      x y z
#    x 2.879520 0.000000 0.042460 
#    y 0.000000 2.423700 0.000000 
#    z 0.042460 0.000000 3.070840 
# 
# 
# High freq. dielectric constant tensor:
#      x y z
#    x 1.552400 0.000000 0.003770 
#    y 0.000000 1.489000 0.000000 
#    z 0.003770 0.000000 1.555180 
# 
# From -- ./inp_files/53548.got.cif
#   From: 2010.06.25/outbox.cif.g09.slc.cpg/sg10_27_cif.got.tgz:53548.got - 2010.06.27 22:07:45.
