data_PCOD8057355
_publ_section_title
;
Structure prediction by ZEFSAII (Michael W. Deem and Ramdas Pophale) SiO2 
 PCOD8057355
Probable space group: P 2/M
;
_chemical_formula_sum "Si O2"
_cell_formula_units_Z 28
_cell_length_a 17.604618
_cell_length_b 11.683631
_cell_length_c 23.357331
_cell_angle_alpha 90.000000
_cell_angle_beta 20.256116
_cell_angle_gamma 90.000000
_cell_volume 1663.321860
_symmetry_space_group_name_H-M "P 2/M"
_symmetry_group_IT_number 10
_symmetry_cell_setting 'monoclinic'
loop_
_space_group_symop_operation_xyz
x,y,z
-x,y,-z
-x,-y,-z
x,-y,z
loop_
_atom_site_type_symbol
_atom_site_label
_atom_site_fract_x
_atom_site_fract_y
_atom_site_fract_z
Si Si1 0.029102 0.128137 0.156892
Si Si2 0.627866 0.366177 0.967258
Si Si3 0.879409 0.864118 0.029867
Si Si4 0.488727 0.188557 0.156465
Si Si5 0.752863 0.000000 0.840609
Si Si6 0.805349 0.000000 0.681726
Si Si7 0.991745 0.789998 0.299228
Si Si8 0.391289 0.862908 0.347509
O O1 0.910048 0.203479 0.290463
O O2 0.932809 0.000000 0.228136
O O3 0.998201 0.180608 0.114713
O O4 0.289327 0.124007 0.983760
O O5 0.616756 0.500000 0.986674
O O6 0.882761 0.329214 0.778403
O O7 0.500000 0.331449 0.000000
O O8 0.526697 0.307358 0.095879
O O9 0.624038 0.829530 0.211250
O O10 0.900413 0.000000 0.015097
O O11 0.000000 0.810389 0.000000
O O12 0.344256 0.111545 0.216932
O O13 0.360718 0.200391 0.307788
O O14 0.903511 0.000000 0.676465
O O15 0.817969 0.112184 0.830423
O O16 0.500000 0.000000 0.000000
O O17 0.000000 0.000000 0.500000
O O18 0.790909 0.807816 0.483008
O O19 0.364963 0.000000 0.359775
#
# Coordination Sequence:
#
# PCOD8057355 Si02
#       8
#     4   4   4   4   2   2   4   4
#     4   9  14  26  44  63  93 127 159 187 232 279
#     4  10  22  38  51  63  88 130 176 211 237 273
#     4   8  15  26  43  65  97 138 167 181 211 284
#     4  10  18  31  47  66  94 125 157 194 240 294
#     4  12  20  26  42  68  93 121 152 193 243 294
#     4  12  20  26  42  70  97 115 144 195 249 290
#     4  11  19  30  47  71  98 124 159 199 247 290
#     4  10  17  30  48  73 105 127 149 192 251 290
#
# _framework density 16.833783
#
# number of rings (size 3 to 8) (size 9 to 14) (size 15 to 20)
#    0.000    2.000    2.857    4.714    0.000    0.000 
#    0.000    1.429    0.000    5.571    0.000    0.000 
#    0.000   67.429    0.000    0.000    0.000    0.000 
#
# Total GULP energy -346988.572868 kJ/mol
# GULP energy per Si atom -12392.449031 kJ/mol
# Density = 1.679547 g / cm^3
# Si number density = 16.833783 Si / 1000 Ang^3
#
#
#
# Elastic Constant Matrix: (Units=GPa)
#
#
# Indices 1 2 3 4 5 6 
#
# 1 131.2943 34.0713 43.9890 0.0000 22.8793 0.0000
# 2 34.0713 56.4868 26.4649 0.0000 6.1343 0.0000
# 3 43.9890 26.4649 78.1763 0.0000 25.8207 0.0000
# 4 0.0000 0.0000 0.0000 14.0831 0.0000 1.6704
# 5 22.8793 6.1343 25.8207 0.0000 31.6135 0.0000
# 6 0.0000 0.0000 0.0000 1.6704 0.0000 11.8661
#
#
#
# Elastic Compliance Matrix: (Units=1/GPa)
#
#
# Indices 1 2 3 4 5 6 
#
# 1 0.010532 -0.004487 -0.002982 0.000000 -0.004316 0.000000
# 2 -0.004487 0.023083 -0.006686 0.000000 0.004229 0.000000
# 3 -0.002982 -0.006686 0.021352 0.000000 -0.013984 0.000000
# 4 0.000000 0.000000 0.000000 0.072213 0.000000 -0.010165
# 5 -0.004316 0.004229 -0.013984 0.000000 0.045357 0.000000
# 6 0.000000 0.000000 0.000000 -0.010165 0.000000 0.085705
#
#
# Mechanical properties :
#
#
# Convention : Reuss Voigt Hill
#
# Bulk Modulus (GPa) = 37.51426 52.77862 45.14644
# Shear Modulus (GPa) = 16.92413 22.27470 19.59941
#
# Velocity S-wave (km/s) = 3.17419 3.64155 3.41587
# Velocity P-wave (km/s) = 5.98059 7.00728 6.51420
#
# Compressibility (1/GPa) = 0.02665653
#
# Stress axis : x y z
#
# Youngs Moduli (GPa) = 94.94895 43.32192 46.83481
#
# Poissons Ratio (x) = 0.19438 0.13965
# Poissons Ratio (y) = 0.42603 0.31316
# Poissons Ratio (z) = 0.28311 0.28967
#
# Static dielectric constant tensor:
#      x y z
#    x 3.723490 0.000000 0.225600 
#    y 0.000000 2.580970 0.000000 
#    z 0.225600 0.000000 3.118910 
# 
# 
# High freq. dielectric constant tensor:
#      x y z
#    x 1.664130 0.000000 0.024500 
#    y 0.000000 1.586420 0.000000 
#    z 0.024500 0.000000 1.640800 
# 
# From -- ./inp_files/80257.got.cif
#   From: 2010.06.25/outbox.cif.g09.slc.cpg/sg10_41_cif.got.tgz:80257.got - 2010.06.27 22:07:45.
