data_PCOD8057260
_publ_section_title
;
Structure prediction by ZEFSAII (Michael W. Deem and Ramdas Pophale) SiO2 
 PCOD8057260
Probable space group: P 2/M
;
_chemical_formula_sum "Si O2"
_cell_formula_units_Z 32
_cell_length_a 21.518646
_cell_length_b 9.083357
_cell_length_c 30.661403
_cell_angle_alpha 90.000000
_cell_angle_beta 18.289493
_cell_angle_gamma 90.000000
_cell_volume 1880.752611
_symmetry_space_group_name_H-M "P 2/M"
_symmetry_group_IT_number 10
_symmetry_cell_setting 'monoclinic'
loop_
_space_group_symop_operation_xyz
x,y,z
-x,y,-z
-x,-y,-z
x,-y,z
loop_
_atom_site_type_symbol
_atom_site_label
_atom_site_fract_x
_atom_site_fract_y
_atom_site_fract_z
Si Si1 0.594077 0.325445 0.229706
Si Si2 0.095569 0.672757 0.139141
Si Si3 0.250630 0.669630 0.566074
Si Si4 0.225750 0.172791 0.209824
Si Si5 0.373621 0.174198 0.019030
Si Si6 0.063534 0.675268 0.062654
Si Si7 0.312485 0.670165 0.736584
Si Si8 0.791447 0.173057 0.495567
O O1 0.567287 0.500000 0.248441
O O2 0.671960 0.265667 0.224624
O O3 0.379194 0.254695 0.363309
O O4 0.744735 0.272907 0.092150
O O5 0.135958 0.500000 0.111906
O O6 0.281270 0.748314 0.038589
O O7 0.080454 0.736838 0.100331
O O8 0.888587 0.711069 0.300713
O O9 0.220171 0.500000 0.571520
O O10 0.480026 0.694193 0.427162
O O11 0.200579 0.776061 0.559705
O O12 0.263822 0.235259 0.135655
O O13 0.006259 0.214937 0.373085
O O14 0.248150 0.000000 0.189123
O O15 0.394779 0.223776 0.131338
O O16 0.350794 0.000000 0.028207
O O17 0.048897 0.500000 0.073519
O O18 0.866869 0.744137 0.170936
O O19 0.259477 0.500000 0.776792
O O20 0.751964 0.000000 0.523441
#
# Coordination Sequence:
#
# PCOD8057260 Si02
#       8
#     4   4   4   4   4   4   4   4
#     4   9  17  30  48  69  90 116 154 196 229 260
#     4  10  19  29  43  68  99 124 148 183 224 270
#     4   9  17  28  43  67  96 120 148 184 223 268
#     4   8  15  27  47  70  89 114 151 184 218 268
#     4   9  16  30  48  66  90 121 151 180 218 270
#     4   9  17  29  46  66  91 124 157 187 223 265
#     4   8  14  26  46  68  87 115 155 194 225 260
#     4  10  17  28  48  71  92 115 145 186 233 274
#
# _framework density 17.014465999999999
#
# number of rings (size 3 to 8) (size 9 to 14) (size 15 to 20)
#    0.000    3.000    1.250    2.250    0.000    2.000 
#    0.000    5.625    0.000    9.750    0.000    9.625 
#    0.000    0.000    0.000    0.000    0.000    0.000 
#
# Total GULP energy -396583.517984 kJ/mol
# GULP energy per Si atom -12393.234937 kJ/mol
# Density = 1.697574 g / cm^3
# Si number density = 17.014466 Si / 1000 Ang^3
#
#
#
# Elastic Constant Matrix: (Units=GPa)
#
#
# Indices 1 2 3 4 5 6 
#
# 1 87.7261 18.4641 74.6963 0.0000 -2.3087 0.0000
# 2 18.4641 27.0189 30.9021 0.0000 -4.8349 0.0000
# 3 74.6963 30.9021 152.2488 0.0000 -12.8829 0.0000
# 4 0.0000 0.0000 0.0000 18.2736 0.0000 0.8122
# 5 -2.3087 -4.8349 -12.8829 0.0000 25.8328 0.0000
# 6 0.0000 0.0000 0.0000 0.8122 0.0000 3.5443
#
#
#
# Elastic Compliance Matrix: (Units=1/GPa)
#
#
# Indices 1 2 3 4 5 6 
#
# 1 0.020090 -0.003581 -0.009433 0.000000 -0.003579 0.000000
# 2 -0.003581 0.049306 -0.007827 0.000000 0.005005 0.000000
# 3 -0.009433 -0.007827 0.013144 0.000000 0.004247 0.000000
# 4 0.000000 0.000000 0.000000 0.055287 0.000000 -0.012669
# 5 -0.003579 0.005005 0.004247 0.000000 0.041445 0.000000
# 6 0.000000 0.000000 0.000000 -0.012669 0.000000 0.285049
#
#
# Mechanical properties :
#
#
# Convention : Reuss Voigt Hill
#
# Bulk Modulus (GPa) = 24.47480 57.23544 40.85512
# Shear Modulus (GPa) = 9.62235 19.05890 14.34062
#
# Velocity S-wave (km/s) = 2.38069 3.35051 2.90634
# Velocity P-wave (km/s) = 4.68752 6.97712 5.94361
#
# Compressibility (1/GPa) = 0.04085835
#
# Stress axis : x y z
#
# Youngs Moduli (GPa) = 49.77514 20.28136 76.07976
#
# Poissons Ratio (x) = 0.07264 0.71763
# Poissons Ratio (y) = 0.17827 0.59549
# Poissons Ratio (z) = 0.46951 0.15875
#
# Static dielectric constant tensor:
#      x y z
#    x 3.156020 0.000000 -0.206100 
#    y 0.000000 2.798840 0.000000 
#    z -0.206100 0.000000 3.489640 
# 
# 
# High freq. dielectric constant tensor:
#      x y z
#    x 1.631180 0.000000 -0.016690 
#    y 0.000000 1.616620 0.000000 
#    z -0.016690 0.000000 1.667850 
# 
# From -- ./inp_files/52796.got.cif
#   From: 2010.06.25/outbox.cif.g09.slc.cpg/sg10_27_cif.got.tgz:52796.got - 2010.06.27 22:07:45.
