data_PCOD8057228
_publ_section_title
;
Structure prediction by ZEFSAII (Michael W. Deem and Ramdas Pophale) SiO2 
 PCOD8057228
Probable space group: P 2/M
;
_chemical_formula_sum "Si O2"
_cell_formula_units_Z 28
_cell_length_a 9.811238
_cell_length_b 9.564894
_cell_length_c 31.754015
_cell_angle_alpha 90.000000
_cell_angle_beta 34.316526
_cell_angle_gamma 90.000000
_cell_volume 1679.964825
_symmetry_space_group_name_H-M "P 2/M"
_symmetry_group_IT_number 10
_symmetry_cell_setting 'monoclinic'
loop_
_space_group_symop_operation_xyz
x,y,z
-x,y,-z
-x,-y,-z
x,-y,z
loop_
_atom_site_type_symbol
_atom_site_label
_atom_site_fract_x
_atom_site_fract_y
_atom_site_fract_z
Si Si1 0.748233 0.665194 0.294956
Si Si2 0.607356 0.161350 0.104372
Si Si3 0.968501 0.160374 0.940281
Si Si4 0.700615 0.338002 0.696047
Si Si5 0.217689 0.667400 0.416464
Si Si6 0.853354 0.338246 0.176409
Si Si7 0.830796 0.666493 0.753065
O O1 0.731387 0.500000 0.295051
O O2 0.473604 0.721451 0.370365
O O3 0.867717 0.718450 0.220743
O O4 0.911175 0.710669 0.292980
O O5 0.377332 0.261147 0.166608
O O6 0.802474 0.202828 0.089791
O O7 0.529260 0.000000 0.129543
O O8 0.723112 0.186526 0.028877
O O9 0.961047 0.252659 0.899946
O O10 0.989040 0.000000 0.921367
O O11 0.759576 0.500000 0.679691
O O12 0.807063 0.274392 0.625281
O O13 0.415981 0.311280 0.772025
O O14 0.826391 0.275968 0.706029
O O15 0.210498 0.500000 0.418321
O O16 0.000000 0.729702 0.500000
O O17 0.925381 0.500000 0.154981
O O18 0.789487 0.500000 0.765758
#
# Coordination Sequence:
#
# PCOD8057228 Si02
#       7
#     4   4   4   4   4   4   4
#     4   8  16  27  41  62  90 118 142 176 220 255
#     4   9  18  30  43  62  89 115 141 182 227 259
#     4   9  17  29  44  63  86 111 144 187 225 254
#     4   8  14  23  39  62  84 110 146 180 206 245
#     4   8  13  24  41  61  89 122 145 166 210 264
#     4   9  15  27  44  62  84 113 148 182 214 256
#     4  10  17  28  44  64  89 116 146 181 217 254
#
# _framework density 16.667014999999999
#
# number of rings (size 3 to 8) (size 9 to 14) (size 15 to 20)
#    0.000    3.286    1.429    2.571    0.000    0.571 
#    0.000    3.571    0.000    8.571    0.000    0.000 
#    0.000   21.714    0.000    0.000    0.000    0.000 
#
# Total GULP energy -346967.547349 kJ/mol
# GULP energy per Si atom -12391.698120 kJ/mol
# Density = 1.662908 g / cm^3
# Si number density = 16.667015 Si / 1000 Ang^3
#
#
#
# Elastic Constant Matrix: (Units=GPa)
#
#
# Indices 1 2 3 4 5 6 
#
# 1 105.2215 20.3125 46.2450 0.0000 0.7364 0.0000
# 2 20.3125 26.1875 30.2634 0.0000 2.0167 0.0000
# 3 46.2450 30.2634 107.7354 0.0000 5.3399 0.0000
# 4 0.0000 0.0000 0.0000 3.8781 0.0000 -3.4514
# 5 0.7364 2.0167 5.3399 0.0000 19.7048 0.0000
# 6 0.0000 0.0000 0.0000 -3.4514 0.0000 9.6367
#
#
#
# Elastic Compliance Matrix: (Units=1/GPa)
#
#
# Indices 1 2 3 4 5 6 
#
# 1 0.012169 -0.005070 -0.003854 0.000000 0.001109 0.000000
# 2 -0.005070 0.058697 -0.014215 0.000000 -0.001966 0.000000
# 3 -0.003854 -0.014215 0.015052 0.000000 -0.002480 0.000000
# 4 0.000000 0.000000 0.000000 0.378506 0.000000 0.135564
# 5 0.001109 -0.001966 -0.002480 0.000000 0.051581 0.000000
# 6 0.000000 0.000000 0.000000 0.135564 0.000000 0.152323
#
#
# Mechanical properties :
#
#
# Convention : Reuss Voigt Hill
#
# Bulk Modulus (GPa) = 25.22668 48.08736 36.65702
# Shear Modulus (GPa) = 6.86984 16.13216 11.50100
#
# Velocity S-wave (km/s) = 2.03243 3.11450 2.62972
# Velocity P-wave (km/s) = 4.54711 6.46900 5.59125
#
# Compressibility (1/GPa) = 0.03964057
#
# Stress axis : x y z
#
# Youngs Moduli (GPa) = 82.17852 17.03657 66.43545
#
# Poissons Ratio (x) = 0.08638 0.25605
# Poissons Ratio (y) = 0.41666 0.94435
# Poissons Ratio (z) = 0.31672 0.24217
#
# Static dielectric constant tensor:
#      x y z
#    x 3.321390 0.000000 0.165800 
#    y 0.000000 2.662810 0.000000 
#    z 0.165800 0.000000 3.223300 
# 
# 
# High freq. dielectric constant tensor:
#      x y z
#    x 1.636260 0.000000 0.014130 
#    y 0.000000 1.592350 0.000000 
#    z 0.014130 0.000000 1.633860 
# 
# From -- ./inp_files/34564.got.cif
#   From: 2010.06.25/outbox.cif.g09.slc.cpg/sg10_18_cif.got.tgz:34564.got - 2010.06.27 22:07:45.
