data_PCOD8057242
_publ_section_title
;
Structure prediction by ZEFSAII (Michael W. Deem and Ramdas Pophale) SiO2 
 PCOD8057242
Probable space group: P 2/M
;
_chemical_formula_sum "Si O2"
_cell_formula_units_Z 32
_cell_length_a 26.461182
_cell_length_b 8.999910
_cell_length_c 14.450825
_cell_angle_alpha 90.000000
_cell_angle_beta 34.879630
_cell_angle_gamma 90.000000
_cell_volume 1968.001405
_symmetry_space_group_name_H-M "P 2/M"
_symmetry_group_IT_number 10
_symmetry_cell_setting 'monoclinic'
loop_
_space_group_symop_operation_xyz
x,y,z
-x,y,-z
-x,-y,-z
x,-y,z
loop_
_atom_site_type_symbol
_atom_site_label
_atom_site_fract_x
_atom_site_fract_y
_atom_site_fract_z
Si Si1 0.083434 0.324258 0.433305
Si Si2 0.144554 0.332675 0.034801
Si Si3 0.909387 0.176277 0.186140
Si Si4 0.242490 0.668930 0.699153
Si Si5 0.761734 0.676133 0.927706
Si Si6 0.600891 0.173322 0.244211
Si Si7 0.600281 0.825914 0.456077
Si Si8 0.048841 0.323454 0.692183
O O1 0.074925 0.500000 0.441487
O O2 0.083978 0.272046 0.538998
O O3 0.000000 0.257958 0.500000
O O4 0.177954 0.273319 0.249494
O O5 0.121717 0.500000 0.100049
O O6 0.210538 0.325566 0.851684
O O7 0.189394 0.255634 0.055479
O O8 0.051030 0.260512 0.149290
O O9 0.823324 0.234958 0.263247
O O10 0.899108 0.240341 0.304873
O O11 0.906681 0.000000 0.192530
O O12 0.000000 0.232416 0.000000
O O13 0.246737 0.500000 0.655225
O O14 0.340020 0.740118 0.557881
O O15 0.750528 0.500000 0.948731
O O16 0.663951 0.745980 0.074639
O O17 0.500673 0.209395 0.365572
O O18 0.618032 0.228435 0.323886
O O19 0.619406 0.000000 0.210723
O O20 0.620674 0.000000 0.432901
O O21 0.057419 0.500000 0.694907
#
# Coordination Sequence:
#
# PCOD8057242 Si02
#       8
#     4   4   4   4   4   4   4   4
#     4   9  16  27  48  73  97 127 162 199 240 282
#     4   9  16  25  43  69  96 124 157 196 233 270
#     4  11  23  35  47  67  96 130 164 199 240 284
#     4  11  20  31  49  73  95 123 164 203 240 282
#     4  10  17  28  46  72  99 127 164 201 235 277
#     4   9  18  31  46  66  96 133 163 191 235 288
#     4   9  18  32  47  66  96 130 162 195 236 287
#     4  10  18  32  50  68  94 129 167 203 236 276
#
# _framework density 16.260149999999999
#
# number of rings (size 3 to 8) (size 9 to 14) (size 15 to 20)
#    0.000    2.250    3.750    1.500    0.000    1.000 
#    0.000    2.500    0.000    0.750    0.000    0.875 
#    0.000    7.000    0.000    0.000    0.000    0.000 
#
# Total GULP energy -396622.078886 kJ/mol
# GULP energy per Si atom -12394.439965 kJ/mol
# Density = 1.622314 g / cm^3
# Si number density = 16.260150 Si / 1000 Ang^3
#
#
#
# Elastic Constant Matrix: (Units=GPa)
#
#
# Indices 1 2 3 4 5 6 
#
# 1 98.7594 36.1451 44.5272 0.0000 -6.8245 0.0000
# 2 36.1451 46.9884 33.6356 0.0000 -4.3878 0.0000
# 3 44.5272 33.6356 102.5729 0.0000 -9.5226 0.0000
# 4 0.0000 0.0000 0.0000 19.9862 0.0000 -3.1494
# 5 -6.8245 -4.3878 -9.5226 0.0000 26.3130 0.0000
# 6 0.0000 0.0000 0.0000 -3.1494 0.0000 20.4461
#
#
#
# Elastic Compliance Matrix: (Units=1/GPa)
#
#
# Indices 1 2 3 4 5 6 
#
# 1 0.015066 -0.008986 -0.003487 0.000000 0.001147 0.000000
# 2 -0.008986 0.033218 -0.006927 0.000000 0.000702 0.000000
# 3 -0.003487 -0.006927 0.013807 0.000000 0.002937 0.000000
# 4 0.000000 0.000000 0.000000 0.051279 0.000000 0.007899
# 5 0.001147 0.000702 0.002937 0.000000 0.039482 0.000000
# 6 0.000000 0.000000 0.000000 0.007899 0.000000 0.050126
#
#
# Mechanical properties :
#
#
# Convention : Reuss Voigt Hill
#
# Bulk Modulus (GPa) = 42.93432 52.99292 47.96362
# Shear Modulus (GPa) = 20.03681 22.28326 21.16003
#
# Velocity S-wave (km/s) = 3.51417 3.70594 3.61133
# Velocity P-wave (km/s) = 6.55193 7.13956 6.85205
#
# Compressibility (1/GPa) = 0.02329139
#
# Stress axis : x y z
#
# Youngs Moduli (GPa) = 66.37540 30.10405 72.42702
#
# Poissons Ratio (x) = 0.27051 0.25255
# Poissons Ratio (y) = 0.59645 0.50169
# Poissons Ratio (z) = 0.23145 0.20853
#
# Static dielectric constant tensor:
#      x y z
#    x 2.979590 0.000000 -0.050460 
#    y 0.000000 2.844060 0.000000 
#    z -0.050460 0.000000 3.106240 
# 
# 
# High freq. dielectric constant tensor:
#      x y z
#    x 1.608640 0.000000 -0.011070 
#    y 0.000000 1.603250 0.000000 
#    z -0.011070 0.000000 1.615160 
# 
# From -- ./inp_files/72197.got.cif
#   From: 2010.06.25/outbox.cif.g09.slc.cpg/sg10_37_cif.got.tgz:72197.got - 2010.06.27 22:07:45.
