data_PCOD8057735
_publ_section_title
;
Structure prediction by ZEFSAII (Michael W. Deem and Ramdas Pophale) SiO2 
 PCOD8057735
Probable space group: P 2/M
;
_chemical_formula_sum "Si O2"
_cell_formula_units_Z 20
_cell_length_a 18.232872
_cell_length_b 9.405868
_cell_length_c 10.289454
_cell_angle_alpha 90.000000
_cell_angle_beta 41.811866
_cell_angle_gamma 90.000000
_cell_volume 1176.435654
_symmetry_space_group_name_H-M "P 2/M"
_symmetry_group_IT_number 10
_symmetry_cell_setting 'monoclinic'
loop_
_space_group_symop_operation_xyz
x,y,z
-x,y,-z
-x,-y,-z
x,-y,z
loop_
_atom_site_type_symbol
_atom_site_label
_atom_site_fract_x
_atom_site_fract_y
_atom_site_fract_z
Si Si1 0.023897 0.657228 0.315881
Si Si2 0.785870 0.664425 0.625949
Si Si3 0.776739 0.164542 0.899100
Si Si4 0.537488 0.835981 0.310302
Si Si5 0.564566 0.335688 0.787345
O O1 0.060204 0.500000 0.221012
O O2 0.121243 0.767401 0.155282
O O3 0.000000 0.657701 0.500000
O O4 0.906540 0.701601 0.406095
O O5 0.784612 0.500000 0.674881
O O6 0.757485 0.760562 0.786972
O O7 0.694779 0.689955 0.635867
O O8 0.803167 0.000000 0.839379
O O9 0.668115 0.186805 0.127907
O O10 0.500000 0.779020 0.500000
O O11 0.471520 0.751043 0.289388
O O12 0.505635 0.000000 0.334144
O O13 0.536369 0.500000 0.799701
O O14 0.500000 0.281116 0.000000
#
# Coordination Sequence:
#
# PCOD8057735 Si02
#       5
#     4   4   4   4   4
#     4   8  15  27  44  66  96 129 155 190 244 294
#     4   9  17  30  47  71 101 127 153 194 249 295
#     4  10  18  28  46  70  96 126 164 204 237 281
#     4  10  22  37  50  69 101 137 168 201 245 294
#     4  10  19  32  53  77 100 126 162 208 248 290
#
# _framework density 17.000505
#
# number of rings (size 3 to 8) (size 9 to 14) (size 15 to 20)
#    0.000    2.600    2.000    1.800    0.000    6.000 
#    0.000    0.000    0.000    1.200    0.000    8.400 
#    0.000    0.000    0.000    0.000    0.000    0.000 
#
# Total GULP energy -247933.244825 kJ/mol
# GULP energy per Si atom -12396.662241 kJ/mol
# Density = 1.696181 g / cm^3
# Si number density = 17.000505 Si / 1000 Ang^3
#
#
#
# Elastic Constant Matrix: (Units=GPa)
#
#
# Indices 1 2 3 4 5 6 
#
# 1 128.9547 58.6413 64.8103 0.0000 -17.5057 0.0000
# 2 58.6413 88.0791 55.3512 0.0000 -5.8795 0.0000
# 3 64.8103 55.3512 85.6559 0.0000 -4.4329 0.0000
# 4 0.0000 0.0000 0.0000 14.6134 0.0000 -0.4136
# 5 -17.5057 -5.8795 -4.4329 0.0000 27.3161 0.0000
# 6 0.0000 0.0000 0.0000 -0.4136 0.0000 20.8508
#
#
#
# Elastic Compliance Matrix: (Units=1/GPa)
#
#
# Indices 1 2 3 4 5 6 
#
# 1 0.014687 -0.004291 -0.007967 0.000000 0.007196 0.000000
# 2 -0.004291 0.020494 -0.009994 0.000000 0.000039 0.000000
# 3 -0.007967 -0.009994 0.023987 0.000000 -0.003364 0.000000
# 4 0.000000 0.000000 0.000000 0.068469 0.000000 0.001358
# 5 0.007196 0.000039 -0.003364 0.000000 0.040682 0.000000
# 6 0.000000 0.000000 0.000000 0.001358 0.000000 0.047987
#
#
# Mechanical properties :
#
#
# Convention : Reuss Voigt Hill
#
# Bulk Modulus (GPa) = 68.20162 73.36615 70.78388
# Shear Modulus (GPa) = 18.81829 20.81519 19.81674
#
# Velocity S-wave (km/s) = 3.33066 3.50292 3.41787
# Velocity P-wave (km/s) = 7.41590 7.72072 7.56984
#
# Compressibility (1/GPa) = 0.01466241
#
# Stress axis : x y z
#
# Youngs Moduli (GPa) = 68.08670 48.79572 41.68874
#
# Poissons Ratio (x) = 0.20939 0.33215
# Poissons Ratio (y) = 0.29217 0.41665
# Poissons Ratio (z) = 0.54248 0.48768
#
# Static dielectric constant tensor:
#      x y z
#    x 3.455090 0.000000 -0.497260 
#    y 0.000000 3.211160 0.000000 
#    z -0.497260 0.000000 3.061170 
# 
# 
# High freq. dielectric constant tensor:
#      x y z
#    x 1.656390 0.000000 -0.037650 
#    y 0.000000 1.656730 0.000000 
#    z -0.037650 0.000000 1.620990 
# 
# From -- ./inp_files/31114.got.cif
#   From: 2010.06.25/outbox.cif.g09.slc.cpg/sg10_16_cif.got.tgz:31114.got - 2010.06.27 22:07:45.
