data_PCOD8057296
_publ_section_title
;
Structure prediction by ZEFSAII (Michael W. Deem and Ramdas Pophale) SiO2 
 PCOD8057296
Probable space group: P 2/M
;
_chemical_formula_sum "Si O2"
_cell_formula_units_Z 30
_cell_length_a 22.039299
_cell_length_b 8.895863
_cell_length_c 14.911557
_cell_angle_alpha 90.000000
_cell_angle_beta 33.031433
_cell_angle_gamma 90.000000
_cell_volume 1593.618216
_symmetry_space_group_name_H-M "P 2/M"
_symmetry_group_IT_number 10
_symmetry_cell_setting 'monoclinic'
loop_
_space_group_symop_operation_xyz
x,y,z
-x,y,-z
-x,-y,-z
x,-y,z
loop_
_atom_site_type_symbol
_atom_site_label
_atom_site_fract_x
_atom_site_fract_y
_atom_site_fract_z
Si Si1 0.881005 0.177027 0.106697
Si Si2 0.745031 0.838180 0.735490
Si Si3 0.882026 0.326157 0.420899
Si Si4 0.500000 0.206001 0.000000
Si Si5 0.109443 0.821869 0.109033
Si Si6 0.472737 0.819702 0.225968
Si Si7 0.714907 0.822971 0.968468
Si Si8 0.737850 0.675609 0.429022
O O1 0.784029 0.266733 0.277287
O O2 0.858592 0.000000 0.143668
O O3 0.876230 0.234173 0.010379
O O4 0.000000 0.221171 0.000000
O O5 0.793460 0.720378 0.605681
O O6 0.759466 0.765384 0.816534
O O7 0.806955 0.000000 0.650526
O O8 0.614918 0.878425 0.880047
O O9 0.908500 0.500000 0.399173
O O10 0.830998 0.288423 0.387554
O O11 0.995470 0.236181 0.293137
O O12 0.527644 0.279857 0.867489
O O13 0.211417 0.755246 0.041911
O O14 0.106007 0.000000 0.115248
O O15 0.372598 0.768794 0.412595
O O16 0.463520 0.000000 0.215279
O O17 0.585031 0.781801 0.142104
O O18 0.729751 0.000000 0.949835
O O19 0.709146 0.500000 0.459785
#
# Coordination Sequence:
#
# PCOD8057296 Si02
#       8
#     4   4   4   2   4   4   4   4
#     4  10  20  35  58  84 103 131 179 228 273 318
#     4  10  18  32  54  80 108 141 181 218 261 312
#     4  11  23  35  50  79 114 146 178 216 267 318
#     4  10  17  28  53  82 105 136 177 222 259 300
#     4  10  20  38  60  80 106 137 177 225 271 319
#     4  10  18  33  57  82 109 138 178 221 263 313
#     4   8  18  35  57  83 107 139 179 221 265 313
#     4  11  23  36  52  80 115 143 174 219 272 321
#
# _framework density 18.825085000000001
#
# number of rings (size 3 to 8) (size 9 to 14) (size 15 to 20)
#    0.000    2.000    2.667    2.800    0.000    2.400 
#    0.000    8.000    0.000    4.000    0.000    0.000 
#    0.000    0.000    0.000    0.000    0.000    0.000 
#
# Total GULP energy -371646.301549 kJ/mol
# GULP energy per Si atom -12388.210052 kJ/mol
# Density = 1.878224 g / cm^3
# Si number density = 18.825085 Si / 1000 Ang^3
#
#
#
# Elastic Constant Matrix: (Units=GPa)
#
#
# Indices 1 2 3 4 5 6 
#
# 1 140.3430 29.6228 60.7693 0.0000 3.0902 0.0000
# 2 29.6228 28.0672 30.9217 0.0000 -0.9685 0.0000
# 3 60.7693 30.9217 129.6699 0.0000 4.4154 0.0000
# 4 0.0000 0.0000 0.0000 0.6349 0.0000 0.6403
# 5 3.0902 -0.9685 4.4154 0.0000 26.6068 0.0000
# 6 0.0000 0.0000 0.0000 0.6403 0.0000 11.6902
#
#
#
# Elastic Compliance Matrix: (Units=1/GPa)
#
#
# Indices 1 2 3 4 5 6 
#
# 1 0.009944 -0.007364 -0.002872 0.000000 -0.000946 0.000000
# 2 -0.007364 0.054141 -0.009610 0.000000 0.004421 0.000000
# 3 -0.002872 -0.009610 0.011415 0.000000 -0.001911 0.000000
# 4 0.000000 0.000000 0.000000 1.667247 0.000000 -0.091316
# 5 -0.000946 0.004421 -0.001911 0.000000 0.038172 0.000000
# 6 0.000000 0.000000 0.000000 -0.091316 0.000000 0.090543
#
#
# Mechanical properties :
#
#
# Convention : Reuss Voigt Hill
#
# Bulk Modulus (GPa) = 27.92711 60.07862 44.00287
# Shear Modulus (GPa) = 2.59998 19.57080 11.08539
#
# Velocity S-wave (km/s) = 1.17649 3.22780 2.42928
# Velocity P-wave (km/s) = 4.08812 6.77311 5.59409
#
# Compressibility (1/GPa) = 0.03580750
#
# Stress axis : x y z
#
# Youngs Moduli (GPa) = 100.56140 18.47033 87.60699
#
# Poissons Ratio (x) = 0.13601 0.25161
# Poissons Ratio (y) = 0.74052 0.84192
# Poissons Ratio (z) = 0.28882 0.17750
#
# Static dielectric constant tensor:
#      x y z
#    x 3.805900 0.000000 0.043120 
#    y 0.000000 3.043480 0.000000 
#    z 0.043120 0.000000 3.405290 
# 
# 
# High freq. dielectric constant tensor:
#      x y z
#    x 1.728660 0.000000 0.001660 
#    y 0.000000 1.695180 0.000000 
#    z 0.001660 0.000000 1.738080 
# 
# From -- ./inp_files/71291.got.cif
#   From: 2010.06.25/outbox.cif.g09.slc.cpg/sg10_36_cif.got.tgz:71291.got - 2010.06.27 22:07:45.
