data_PCOD8057699
_publ_section_title
;
Structure prediction by ZEFSAII (Michael W. Deem and Ramdas Pophale) SiO2 
 PCOD8057699
Probable space group: P 2/M
;
_chemical_formula_sum "Si O2"
_cell_formula_units_Z 32
_cell_length_a 20.316157
_cell_length_b 9.180543
_cell_length_c 29.365020
_cell_angle_alpha 90.000000
_cell_angle_beta 160.075051
_cell_angle_gamma 90.000000
_cell_volume 1866.490339
_symmetry_space_group_name_H-M "P 2/M"
_symmetry_group_IT_number 10
_symmetry_cell_setting 'monoclinic'
loop_
_space_group_symop_operation_xyz
x,y,z
-x,y,-z
-x,-y,-z
x,-y,z
loop_
_atom_site_type_symbol
_atom_site_label
_atom_site_fract_x
_atom_site_fract_y
_atom_site_fract_z
Si Si1 0.735717 0.172697 0.608731
Si Si2 0.809723 0.173567 0.852145
Si Si3 0.248929 0.672535 0.617067
Si Si4 0.695839 0.826846 0.681495
Si Si5 0.580352 0.828443 0.353393
Si Si6 0.065258 0.171852 0.351287
Si Si7 0.302739 0.327489 0.848771
Si Si8 0.185179 0.671712 0.674922
O O1 0.522453 0.234706 0.459320
O O2 0.798821 0.222440 0.700980
O O3 0.885236 0.226921 0.667737
O O4 0.724108 0.000000 0.598349
O O5 0.808956 0.232032 0.799408
O O6 0.617799 0.228379 0.752994
O O7 0.814514 0.000000 0.855987
O O8 0.000000 0.238724 0.000000
O O9 0.271061 0.500000 0.625222
O O10 0.401328 0.752026 0.683708
O O11 0.288641 0.722540 0.695370
O O12 0.034428 0.729308 0.464439
O O13 0.687480 0.000000 0.678093
O O14 0.758416 0.783115 0.501346
O O15 0.574278 0.000000 0.341787
O O16 0.873159 0.254668 0.239742
O O17 0.027666 0.000000 0.329031
O O18 0.278752 0.500000 0.837252
O O19 0.304384 0.276882 0.796821
O O20 0.500000 0.272937 0.000000
O O21 0.169037 0.500000 0.662149
#
# Coordination Sequence:
#
# PCOD8057699 Si02
#       8
#     4   4   4   4   4   4   4   4
#     4   8  13  22  39  62  86 110 145 190 221 251
#     4   9  16  26  40  60  91 125 150 178 223 273
#     4   9  16  29  50  69  88 117 154 193 224 263
#     4   8  12  21  38  60  84 114 151 183 214 256
#     4  10  18  28  44  71  99 119 149 192 234 269
#     4  10  18  29  46  70  97 120 148 192 235 269
#     4  10  20  34  51  69  91 120 154 189 225 274
#     4   8  15  29  48  69  89 114 153 191 222 263
#
# _framework density 17.144477999999999
#
# number of rings (size 3 to 8) (size 9 to 14) (size 15 to 20)
#    0.000    3.000    2.500    1.500    0.000    0.250 
#    0.000    3.125    0.000    1.875    0.000    2.625 
#    0.000    0.000    0.000    0.000    0.000    0.000 
#
# Total GULP energy -396528.474058 kJ/mol
# GULP energy per Si atom -12391.514814 kJ/mol
# Density = 1.710546 g / cm^3
# Si number density = 17.144478 Si / 1000 Ang^3
#
#
#
# Elastic Constant Matrix: (Units=GPa)
#
#
# Indices 1 2 3 4 5 6 
#
# 1 185.2521 26.7318 83.7175 0.0000 -11.6291 0.0000
# 2 26.7318 14.4561 19.9919 0.0000 1.9036 0.0000
# 3 83.7175 19.9919 120.9404 0.0000 -8.6885 0.0000
# 4 0.0000 0.0000 0.0000 2.5742 0.0000 -6.0838
# 5 -11.6291 1.9036 -8.6885 0.0000 28.3413 0.0000
# 6 0.0000 0.0000 0.0000 -6.0838 0.0000 10.7317
#
#
#
# Elastic Compliance Matrix: (Units=1/GPa)
#
#
# Indices 1 2 3 4 5 6 
#
# 1 0.009171 -0.011578 -0.004201 0.000000 0.003253 0.000000
# 2 -0.011578 0.107649 -0.010880 0.000000 -0.015317 0.000000
# 3 -0.004201 -0.010880 0.013194 0.000000 0.003052 0.000000
# 4 0.000000 0.000000 0.000000 -1.143223 0.000000 -0.648097
# 5 0.003253 -0.015317 0.003052 0.000000 0.038583 0.000000
# 6 0.000000 0.000000 0.000000 -0.648097 0.000000 -0.274227
#
#
# Mechanical properties :
#
#
# Convention : Reuss Voigt Hill
#
# Bulk Modulus (GPa) = 13.03862 64.61456 38.82659
# Shear Modulus (GPa) = -4.27362 21.00993 8.36816
#
# Velocity S-wave (km/s) = -1.58055 3.50446 2.21169
# Velocity P-wave (km/s) = 2.07143 7.35833 5.40536
#
# Compressibility (1/GPa) = 0.07669524
#
# Stress axis : x y z
#
# Youngs Moduli (GPa) = 109.03346 9.28948 75.78933
#
# Poissons Ratio (x) = 0.10755 0.31840
# Poissons Ratio (y) = 1.26240 0.82462
# Poissons Ratio (z) = 0.45806 0.10107
#
# Static dielectric constant tensor:
#      x y z
#    x 3.718800 0.000000 -0.234980 
#    y 0.000000 2.646040 0.000000 
#    z -0.234980 0.000000 3.175820 
# 
# 
# High freq. dielectric constant tensor:
#      x y z
#    x 1.685020 0.000000 -0.008100 
#    y 0.000000 1.603720 0.000000 
#    z -0.008100 0.000000 1.636380 
# 
# From -- ./inp_files/93479.got.cif
#   From: 2010.06.25/outbox.cif.g09.slc.cpg/sg10_47_cif.got.tgz:93479.got - 2010.06.27 22:07:45.
