data_PCOD8057187
_publ_section_title
;
Structure prediction by ZEFSAII (Michael W. Deem and Ramdas Pophale) SiO2 
 PCOD8057187
Probable space group: P 2/M
;
_chemical_formula_sum "Si O2"
_cell_formula_units_Z 24
_cell_length_a 9.198169
_cell_length_b 8.517138
_cell_length_c 21.066935
_cell_angle_alpha 90.000000
_cell_angle_beta 131.737401
_cell_angle_gamma 90.000000
_cell_volume 1231.555162
_symmetry_space_group_name_H-M "P 2/M"
_symmetry_group_IT_number 10
_symmetry_cell_setting 'monoclinic'
loop_
_space_group_symop_operation_xyz
x,y,z
-x,y,-z
-x,-y,-z
x,-y,z
loop_
_atom_site_type_symbol
_atom_site_label
_atom_site_fract_x
_atom_site_fract_y
_atom_site_fract_z
Si Si1 0.718805 0.183940 0.412886
Si Si2 0.456273 0.683440 0.241617
Si Si3 0.222034 0.813981 0.757806
Si Si4 0.954398 0.316811 0.582647
Si Si5 0.290581 0.186330 0.919329
Si Si6 0.049028 0.816294 0.086512
O O1 0.507338 0.233019 0.324338
O O2 0.757183 0.235073 0.497334
O O3 0.869203 0.281135 0.413648
O O4 0.755147 0.000000 0.415254
O O5 0.492855 0.500000 0.259100
O O6 0.590656 0.749478 0.224572
O O7 0.234083 0.717255 0.161354
O O8 0.232397 0.752125 0.832789
O O9 0.016948 0.753060 0.669030
O O10 0.227735 0.000000 0.755253
O O11 0.915935 0.500000 0.578092
O O12 0.131057 0.242991 0.923497
O O13 0.303040 0.000000 0.922649
O O14 0.500000 0.257340 0.000000
O O15 0.092680 0.000000 0.108986
O O16 0.000000 0.777450 0.000000
#
# Coordination Sequence:
#
# PCOD8057187 Si02
#       6
#     4   4   4   4   4   4
#     4  10  17  28  47  72 101 135 176 216 256 300
#     4  11  21  33  50  76 109 141 174 213 260 308
#     4  10  18  31  52  77 105 138 177 217 258 305
#     4  10  17  27  44  71 106 138 170 211 260 306
#     4   9  18  33  55  81 104 130 170 218 261 304
#     4  10  20  36  58  80 103 134 173 215 260 310
#
# _framework density 19.487556000000001
#
# number of rings (size 3 to 8) (size 9 to 14) (size 15 to 20)
#    0.000    2.000    0.000    9.000    0.000    3.000 
#    0.000    1.667    0.000    4.500    0.000    7.000 
#    0.000    0.000    0.000    0.000    0.000    0.000 
#
# Total GULP energy -297537.645748 kJ/mol
# GULP energy per Si atom -12397.401906 kJ/mol
# Density = 1.944320 g / cm^3
# Si number density = 19.487556 Si / 1000 Ang^3
#
#
#
# Elastic Constant Matrix: (Units=GPa)
#
#
# Indices 1 2 3 4 5 6 
#
# 1 84.3338 29.1524 66.4470 0.0000 -9.3815 0.0000
# 2 29.1524 84.5786 48.5838 0.0000 0.6307 0.0000
# 3 66.4470 48.5838 192.8516 0.0000 -14.2509 0.0000
# 4 0.0000 0.0000 0.0000 23.1070 0.0000 10.0000
# 5 -9.3815 0.6307 -14.2509 0.0000 23.9445 0.0000
# 6 0.0000 0.0000 0.0000 10.0000 0.0000 5.3122
#
#
#
# Elastic Compliance Matrix: (Units=1/GPa)
#
#
# Indices 1 2 3 4 5 6 
#
# 1 0.017207 -0.003183 -0.004835 0.000000 0.003948 0.000000
# 2 -0.003183 0.014563 -0.002816 0.000000 -0.003307 0.000000
# 3 -0.004835 -0.002816 0.007768 0.000000 0.002803 0.000000
# 4 0.000000 0.000000 0.000000 0.233503 0.000000 -0.439557
# 5 0.003948 -0.003307 0.002803 0.000000 0.045065 0.000000
# 6 0.000000 0.000000 0.000000 -0.439557 0.000000 1.015688
#
#
# Mechanical properties :
#
#
# Convention : Reuss Voigt Hill
#
# Bulk Modulus (GPa) = 55.96350 72.23670 64.10010
# Shear Modulus (GPa) = 3.67264 24.97815 14.32540
#
# Velocity S-wave (km/s) = 1.37430 3.58404 2.71422
# Velocity P-wave (km/s) = 5.59448 7.36720 6.54117
#
# Compressibility (1/GPa) = 0.01786879
#
# Stress axis : x y z
#
# Youngs Moduli (GPa) = 58.11748 68.66786 128.73550
#
# Poissons Ratio (x) = 0.21856 0.62243
# Poissons Ratio (y) = 0.18498 0.36257
# Poissons Ratio (z) = 0.28099 0.19340
#
# Static dielectric constant tensor:
#      x y z
#    x 3.181150 0.000000 -0.076620 
#    y 0.000000 3.359180 0.000000 
#    z -0.076620 0.000000 4.493150 
# 
# 
# High freq. dielectric constant tensor:
#      x y z
#    x 1.704050 0.000000 -0.002130 
#    y 0.000000 1.751710 0.000000 
#    z -0.002130 0.000000 1.792190 
# 
# From -- ./inp_files/82045.got.cif
#   From: 2010.06.25/outbox.cif.g09.slc.cpg/sg10_42_cif.got.tgz:82045.got - 2010.06.27 22:07:45.
