data_PCOD8057084
_publ_section_title
;
Structure prediction by ZEFSAII (Michael W. Deem and Ramdas Pophale) SiO2 
 PCOD8057084
Probable space group: P 2/M
;
_chemical_formula_sum "Si O2"
_cell_formula_units_Z 28
_cell_length_a 25.756617
_cell_length_b 12.332815
_cell_length_c 25.756377
_cell_angle_alpha 90.000000
_cell_angle_beta 11.631484
_cell_angle_gamma 90.000000
_cell_volume 1649.533591
_symmetry_space_group_name_H-M "P 2/M"
_symmetry_group_IT_number 10
_symmetry_cell_setting 'monoclinic'
loop_
_space_group_symop_operation_xyz
x,y,z
-x,y,-z
-x,-y,-z
x,-y,z
loop_
_atom_site_type_symbol
_atom_site_label
_atom_site_fract_x
_atom_site_fract_y
_atom_site_fract_z
Si Si1 0.471068 0.627581 0.971024
Si Si2 0.838103 0.123898 0.337978
Si Si3 0.939326 0.370341 0.439269
Si Si4 0.267271 0.377490 0.767340
Si Si5 0.360393 0.382538 0.860264
Si Si6 0.684951 0.784214 0.185108
Si Si7 0.116688 0.299791 0.616787
O O1 0.474155 0.500000 0.974024
O O2 0.708180 0.664222 0.703259
O O3 0.500000 0.680432 0.000000
O O4 0.203302 0.664207 0.208138
O O5 0.574608 0.145026 0.564223
O O6 0.865395 0.191075 0.365311
O O7 0.847179 0.000000 0.346987
O O8 0.064340 0.145048 0.074488
O O9 0.932177 0.500000 0.432144
O O10 0.914515 0.288268 0.414410
O O11 0.500000 0.362060 0.500000
O O12 0.279399 0.500000 0.779979
O O13 0.287862 0.278864 0.787614
O O14 0.000000 0.361872 0.000000
O O15 0.347733 0.500000 0.847589
O O16 0.336447 0.305843 0.836258
O O17 0.626875 0.369461 0.628822
O O18 0.128918 0.369459 0.126774
#
# Coordination Sequence:
#
# PCOD8057084 Si02
#       7
#     4   4   4   4   4   4   4
#     4   9  17  27  39  57  85 125 163 188 216 263
#     4  10  21  37  55  72  95 127 164 207 246 286
#     4  10  17  26  41  61  91 122 150 189 231 274
#     4  10  20  34  54  80 109 135 159 193 237 285
#     4  10  18  29  45  68  99 125 151 186 229 290
#     4  10  20  34  54  75  96 129 165 196 236 287
#     4  10  20  30  45  70  94 123 158 193 240 289
#
# _framework density 16.974494
#
# number of rings (size 3 to 8) (size 9 to 14) (size 15 to 20)
#    0.000    2.143    0.000    4.286    0.000    2.857 
#    0.000    4.286    0.000    8.571    0.000    0.000 
#    0.000    3.429    0.000    0.000    0.000    0.000 
#
# Total GULP energy -346979.523729 kJ/mol
# GULP energy per Si atom -12392.125847 kJ/mol
# Density = 1.693586 g / cm^3
# Si number density = 16.974494 Si / 1000 Ang^3
#
#
#
# Elastic Constant Matrix: (Units=GPa)
#
#
# Indices 1 2 3 4 5 6 
#
# 1 102.0359 26.2034 48.3087 0.0000 -2.4165 0.0000
# 2 26.2034 69.0572 31.2413 0.0000 -0.4664 0.0000
# 3 48.3087 31.2413 164.4695 0.0000 -3.2264 0.0000
# 4 0.0000 0.0000 0.0000 23.9803 0.0000 -0.5055
# 5 -2.4165 -0.4664 -3.2264 0.0000 40.3073 0.0000
# 6 0.0000 0.0000 0.0000 -0.5055 0.0000 18.2548
#
#
#
# Elastic Compliance Matrix: (Units=1/GPa)
#
#
# Indices 1 2 3 4 5 6 
#
# 1 0.012020 -0.003243 -0.002906 0.000000 0.000451 0.000000
# 2 -0.003243 0.016717 -0.002226 0.000000 -0.000179 0.000000
# 3 -0.002906 -0.002226 0.007364 0.000000 0.000390 0.000000
# 4 0.000000 0.000000 0.000000 0.041725 0.000000 0.001155
# 5 0.000451 -0.000179 0.000390 0.000000 0.024866 0.000000
# 6 0.000000 0.000000 0.000000 0.001155 0.000000 0.054812
#
#
# Mechanical properties :
#
#
# Convention : Reuss Voigt Hill
#
# Bulk Modulus (GPa) = 51.67764 60.78548 56.23156
# Shear Modulus (GPa) = 27.66941 31.82907 29.74924
#
# Velocity S-wave (km/s) = 4.04178 4.33495 4.19093
# Velocity P-wave (km/s) = 7.23130 7.80663 7.52446
#
# Compressibility (1/GPa) = 0.01935073
#
# Stress axis : x y z
#
# Youngs Moduli (GPa) = 83.19695 59.81791 135.79326
#
# Poissons Ratio (x) = 0.19401 0.39456
# Poissons Ratio (y) = 0.26983 0.30233
# Poissons Ratio (z) = 0.24173 0.13318
#
# Static dielectric constant tensor:
#      x y z
#    x 3.241890 0.000000 0.016240 
#    y 0.000000 2.733170 0.000000 
#    z 0.016240 0.000000 3.055230 
# 
# 
# High freq. dielectric constant tensor:
#      x y z
#    x 1.653070 0.000000 -0.002800 
#    y 0.000000 1.609560 0.000000 
#    z -0.002800 0.000000 1.684690 
# 
# From -- ./inp_files/12254.got.cif
#   From: 2010.06.25/outbox.cif.g09.slc.cpg/sg10_7_cif.got.tgz:12254.got - 2010.06.27 22:07:45.
