data_PCOD8057153
_publ_section_title
;
Structure prediction by ZEFSAII (Michael W. Deem and Ramdas Pophale) SiO2 
 PCOD8057153
Probable space group: P 2/M
;
_chemical_formula_sum "Si O2"
_cell_formula_units_Z 32
_cell_length_a 16.890817
_cell_length_b 8.908719
_cell_length_c 14.324536
_cell_angle_alpha 90.000000
_cell_angle_beta 81.015563
_cell_angle_gamma 90.000000
_cell_volume 2129.046148
_symmetry_space_group_name_H-M "P 2/M"
_symmetry_group_IT_number 10
_symmetry_cell_setting 'monoclinic'
loop_
_space_group_symop_operation_xyz
x,y,z
-x,y,-z
-x,-y,-z
x,-y,z
loop_
_atom_site_type_symbol
_atom_site_label
_atom_site_fract_x
_atom_site_fract_y
_atom_site_fract_z
Si Si1 0.448087 0.329642 0.150473
Si Si2 0.608712 0.332178 0.051023
Si Si3 0.171684 0.324894 0.380181
Si Si4 0.295270 0.822551 0.233258
Si Si5 0.765631 0.679741 0.943820
Si Si6 0.944444 0.678325 0.928542
Si Si7 0.017723 0.324756 0.284066
Si Si8 0.921914 0.830781 0.450742
O O1 0.448955 0.500000 0.189932
O O2 0.539070 0.256928 0.128776
O O3 0.388676 0.227715 0.222818
O O4 0.416601 0.332375 0.051519
O O5 0.613911 0.500000 0.088759
O O6 0.699086 0.262484 0.032919
O O7 0.191211 0.500000 0.382522
O O8 0.250849 0.236016 0.333950
O O9 0.101274 0.290337 0.319675
O O10 0.147544 0.266102 0.487253
O O11 0.250198 0.751726 0.153457
O O12 0.290805 0.000000 0.227942
O O13 0.759677 0.500000 0.932026
O O14 0.852943 0.730295 0.963274
O O15 0.948504 0.500000 0.928334
O O16 0.975598 0.736439 0.822767
O O17 0.000000 0.746879 0.000000
O O18 0.998089 0.500000 0.291589
O O19 0.943861 0.239392 0.346415
O O20 0.000000 0.825257 0.500000
O O21 0.891165 0.000000 0.442260
#
# Coordination Sequence:
#
# PCOD8057153 Si02
#       8
#     4   4   4   4   4   4   4   4
#     4   8  13  23  35  49  68  95 127 157 187 224
#     4   7  11  20  37  52  65  90 128 162 187 223
#     4  10  17  27  41  56  74 102 132 160 189 230
#     4  11  19  24  34  54  78 102 127 159 194 229
#     4   9  15  27  41  53  70  99 133 164 198 233
#     4   9  16  26  42  62  79  98 132 174 205 227
#     4   9  16  27  41  56  73  99 131 162 195 233
#     4   9  17  27  39  57  77  97 122 159 197 232
#
# _framework density 15.030205
#
# number of rings (size 3 to 8) (size 9 to 14) (size 15 to 20)
#    0.000    3.000    1.250    3.375    0.000    2.000 
#    0.000    5.000    0.000    1.500    0.000    0.000 
#    0.000    0.000    0.000    1.125    0.000   26.500 
#
# Total GULP energy -396421.575835 kJ/mol
# GULP energy per Si atom -12388.174245 kJ/mol
# Density = 1.499600 g / cm^3
# Si number density = 15.030205 Si / 1000 Ang^3
#
#
#
# Elastic Constant Matrix: (Units=GPa)
#
#
# Indices 1 2 3 4 5 6 
#
# 1 85.4348 26.0933 58.5703 0.0000 -30.6779 0.0000
# 2 26.0933 55.4591 29.0030 0.0000 -15.4663 0.0000
# 3 58.5703 29.0030 86.3963 0.0000 -27.4922 0.0000
# 4 0.0000 0.0000 0.0000 9.7251 0.0000 -2.7996
# 5 -30.6779 -15.4663 -27.4922 0.0000 27.5513 0.0000
# 6 0.0000 0.0000 0.0000 -2.7996 0.0000 7.3829
#
#
#
# Elastic Compliance Matrix: (Units=1/GPa)
#
#
# Indices 1 2 3 4 5 6 
#
# 1 0.026397 -0.001474 -0.012177 0.000000 0.016414 0.000000
# 2 -0.001474 0.022990 -0.004592 0.000000 0.006682 0.000000
# 3 -0.012177 -0.004592 0.023791 0.000000 0.007603 0.000000
# 4 0.000000 0.000000 0.000000 0.115427 0.000000 0.043770
# 5 0.016414 0.006682 0.007603 0.000000 0.065910 0.000000
# 6 0.000000 0.000000 0.000000 0.043770 0.000000 0.152046
#
#
# Mechanical properties :
#
#
# Convention : Reuss Voigt Hill
#
# Bulk Modulus (GPa) = 27.25468 50.51370 38.88419
# Shear Modulus (GPa) = 10.98231 16.50676 13.74453
#
# Velocity S-wave (km/s) = 2.70605 3.31756 3.02729
# Velocity P-wave (km/s) = 5.28547 6.95385 6.17626
#
# Compressibility (1/GPa) = 0.03669095
#
# Stress axis : x y z
#
# Youngs Moduli (GPa) = 37.88267 43.49760 42.03323
#
# Poissons Ratio (x) = 0.06411 0.51186
# Poissons Ratio (y) = 0.05584 0.19302
# Poissons Ratio (z) = 0.46131 0.19974
#
# Static dielectric constant tensor:
#      x y z
#    x 3.085640 0.000000 -0.496390 
#    y 0.000000 2.721690 0.000000 
#    z -0.496390 0.000000 2.884540 
# 
# 
# High freq. dielectric constant tensor:
#      x y z
#    x 1.544780 0.000000 -0.052610 
#    y 0.000000 1.556080 0.000000 
#    z -0.052610 0.000000 1.549380 
# 
# From -- ./inp_files/68213.got.cif
#   From: 2010.06.25/outbox.cif.g09.slc.cpg/sg10_35_cif.got.tgz:68213.got - 2010.06.27 22:07:45.
