data_PCOD8057168
_publ_section_title
;
Structure prediction by ZEFSAII (Michael W. Deem and Ramdas Pophale) SiO2 
 PCOD8057168
Probable space group: P 2/M
;
_chemical_formula_sum "Si O2"
_cell_formula_units_Z 24
_cell_length_a 16.540431
_cell_length_b 8.433796
_cell_length_c 22.848225
_cell_angle_alpha 90.000000
_cell_angle_beta 156.096828
_cell_angle_gamma 90.000000
_cell_volume 1291.467431
_symmetry_space_group_name_H-M "P 2/M"
_symmetry_group_IT_number 10
_symmetry_cell_setting 'monoclinic'
loop_
_space_group_symop_operation_xyz
x,y,z
-x,y,-z
-x,-y,-z
x,-y,z
loop_
_atom_site_type_symbol
_atom_site_label
_atom_site_fract_x
_atom_site_fract_y
_atom_site_fract_z
Si Si1 0.465623 0.815712 0.910513
Si Si2 0.201327 0.812478 0.286413
Si Si3 0.522990 0.687633 0.427277
Si Si4 0.854693 0.184182 0.578614
Si Si5 0.054416 0.316034 0.600900
Si Si6 0.131412 0.684990 0.862092
O O1 0.286683 0.713905 0.765826
O O2 0.409409 0.000000 0.869725
O O3 0.500000 0.762460 0.000000
O O4 0.662388 0.780490 0.003184
O O5 0.296723 0.751855 0.287920
O O6 0.342037 0.750104 0.430776
O O7 0.982848 0.739778 0.154233
O O8 0.189136 0.000000 0.278719
O O9 0.521204 0.500000 0.423994
O O10 0.625278 0.757271 0.436168
O O11 0.915449 0.215045 0.552276
O O12 0.002988 0.279589 0.719182
O O13 0.874318 0.000000 0.607029
O O14 0.005469 0.500000 0.577625
O O15 0.000000 0.259073 0.500000
O O16 0.177638 0.500000 0.895733
#
# Coordination Sequence:
#
# PCOD8057168 Si02
#       6
#     4   4   4   4   4   4
#     4  11  22  36  56  81 107 140 180 222 268 321
#     4  10  17  27  42  66 101 135 170 213 262 314
#     4  10  17  27  43  66  98 135 173 212 261 315
#     4  11  20  32  50  74 103 138 178 218 266 317
#     4  11  24  40  57  79 107 141 181 224 269 319
#     4  11  20  31  50  75 105 139 176 218 266 315
#
# _framework density 18.58351
#
# number of rings (size 3 to 8) (size 9 to 14) (size 15 to 20)
#    0.000    1.333    1.667   10.000    0.000    2.000 
#    0.000    0.000    0.000    0.000    0.000    1.167 
#    0.000    9.333    0.000    0.000    0.000    0.000 
#
# Total GULP energy -297592.458358 kJ/mol
# GULP energy per Si atom -12399.685765 kJ/mol
# Density = 1.854121 g / cm^3
# Si number density = 18.583510 Si / 1000 Ang^3
#
#
#
# Elastic Constant Matrix: (Units=GPa)
#
#
# Indices 1 2 3 4 5 6 
#
# 1 123.7046 20.3298 52.6971 0.0000 37.0832 0.0000
# 2 20.3298 88.6360 10.7653 0.0000 3.0567 0.0000
# 3 52.6971 10.7653 58.0064 0.0000 12.6034 0.0000
# 4 0.0000 0.0000 0.0000 -6.7718 0.0000 23.2654
# 5 37.0832 3.0567 12.6034 0.0000 33.5280 0.0000
# 6 0.0000 0.0000 0.0000 23.2654 0.0000 24.7876
#
#
#
# Elastic Compliance Matrix: (Units=1/GPa)
#
#
# Indices 1 2 3 4 5 6 
#
# 1 0.018745 -0.002154 -0.013250 0.000000 -0.015556 0.000000
# 2 -0.002154 0.011792 -0.000562 0.000000 0.001518 0.000000
# 3 -0.013250 -0.000562 0.028515 0.000000 0.003987 0.000000
# 4 0.000000 0.000000 0.000000 -0.034955 0.000000 0.032808
# 5 -0.015556 0.001518 0.003987 0.000000 0.045394 0.000000
# 6 0.000000 0.000000 0.000000 0.032808 0.000000 0.009549
#
#
# Mechanical properties :
#
#
# Convention : Reuss Voigt Hill
#
# Bulk Modulus (GPa) = 36.87172 48.65904 42.76538
# Shear Modulus (GPa) = 41.66262 22.74575 32.20419
#
# Velocity S-wave (km/s) = 4.74002 3.50233 4.16738
# Velocity P-wave (km/s) = 7.05983 6.52656 6.79843
#
# Compressibility (1/GPa) = 0.02712105
#
# Stress axis : x y z
#
# Youngs Moduli (GPa) = 53.34667 84.80361 35.06978
#
# Poissons Ratio (x) = 0.18264 0.46467
# Poissons Ratio (y) = 0.11489 0.01970
# Poissons Ratio (z) = 0.70684 0.04764
#
# Static dielectric constant tensor:
#      x y z
#    x 4.282440 0.000000 0.797270 
#    y 0.000000 3.463530 0.000000 
#    z 0.797270 0.000000 3.235680 
# 
# 
# High freq. dielectric constant tensor:
#      x y z
#    x 1.726540 0.000000 0.050920 
#    y 0.000000 1.742080 0.000000 
#    z 0.050920 0.000000 1.665850 
# 
# From -- ./inp_files/90066.got.cif
#   From: 2010.06.25/outbox.cif.g09.slc.cpg/sg10_46_cif.got.tgz:90066.got - 2010.06.27 22:07:45.
