data_PCOD8057605
_publ_section_title
;
Structure prediction by ZEFSAII (Michael W. Deem and Ramdas Pophale) SiO2 
 PCOD8057605
Probable space group: P 2/M
;
_chemical_formula_sum "Si O2"
_cell_formula_units_Z 32
_cell_length_a 16.851964
_cell_length_b 12.427121
_cell_length_c 16.311935
_cell_angle_alpha 90.000000
_cell_angle_beta 34.837835
_cell_angle_gamma 90.000000
_cell_volume 1951.448377
_symmetry_space_group_name_H-M "P 2/M"
_symmetry_group_IT_number 10
_symmetry_cell_setting 'monoclinic'
loop_
_space_group_symop_operation_xyz
x,y,z
-x,y,-z
-x,-y,-z
x,-y,z
loop_
_atom_site_type_symbol
_atom_site_label
_atom_site_fract_x
_atom_site_fract_y
_atom_site_fract_z
Si Si1 0.791004 0.625346 0.648008
Si Si2 0.350178 0.761901 0.652218
Si Si3 0.737009 0.380685 0.417216
Si Si4 0.307364 0.624595 0.848174
Si Si5 0.579246 0.626007 0.704102
Si Si6 0.075745 0.124275 0.853260
Si Si7 0.035554 0.304027 0.166119
Si Si8 0.934827 0.626908 0.684673
O O1 0.782792 0.500000 0.672827
O O2 0.645722 0.672147 0.733024
O O3 0.827595 0.673339 0.706624
O O4 0.910433 0.647332 0.479833
O O5 0.500000 0.809869 0.500000
O O6 0.313245 0.664275 0.625441
O O7 0.347166 0.711030 0.745226
O O8 0.238822 0.856384 0.731524
O O9 0.678774 0.500000 0.467684
O O10 0.663689 0.320668 0.556186
O O11 0.903265 0.382071 0.280809
O O12 0.321364 0.500000 0.806680
O O13 0.414792 0.646965 0.832606
O O14 0.151611 0.644917 0.009475
O O15 0.613643 0.500000 0.677620
O O16 0.014388 0.188951 0.827342
O O17 0.048857 0.000000 0.856756
O O18 0.000000 0.162765 0.000000
O O19 0.091193 0.299875 0.212412
O O20 0.911808 0.500000 0.724330
#
# Coordination Sequence:
#
# PCOD8057605 Si02
#       8
#     4   4   4   4   4   4   4   4
#     4   8  14  25  42  66  96 136 170 191 225 269
#     4  11  21  33  49  72  97 129 165 195 236 293
#     4  10  18  27  44  66  97 133 162 191 224 272
#     4  11  21  30  43  70 107 138 162 193 230 277
#     4   9  16  27  41  62  96 138 167 188 219 262
#     4  10  22  41  57  70  92 120 158 213 261 294
#     4  11  20  32  49  72  93 125 164 205 247 285
#     4   9  15  25  45  71 100 127 161 201 229 278
#
# _framework density 16.398077000000001
#
# number of rings (size 3 to 8) (size 9 to 14) (size 15 to 20)
#    0.000    2.125    3.750    2.250    0.000    0.750 
#    0.000    2.500    0.000    3.000    0.000    1.750 
#    0.000    1.000    0.000    0.000    0.000    0.250 
#
# Total GULP energy -396455.787883 kJ/mol
# GULP energy per Si atom -12389.243371 kJ/mol
# Density = 1.636075 g / cm^3
# Si number density = 16.398077 Si / 1000 Ang^3
#
#
#
# Elastic Constant Matrix: (Units=GPa)
#
#
# Indices 1 2 3 4 5 6 
#
# 1 109.5127 23.4794 22.9015 0.0000 -0.2664 0.0000
# 2 23.4794 39.0671 10.1814 0.0000 4.7793 0.0000
# 3 22.9015 10.1814 79.7751 0.0000 -9.3988 0.0000
# 4 0.0000 0.0000 0.0000 11.2595 0.0000 3.3056
# 5 -0.2664 4.7793 -9.3988 0.0000 29.6723 0.0000
# 6 0.0000 0.0000 0.0000 3.3056 0.0000 10.0441
#
#
#
# Elastic Compliance Matrix: (Units=1/GPa)
#
#
# Indices 1 2 3 4 5 6 
#
# 1 0.010902 -0.005985 -0.002328 0.000000 0.000325 0.000000
# 2 -0.005985 0.030671 -0.002892 0.000000 -0.005910 0.000000
# 3 -0.002328 -0.002892 0.014153 0.000000 0.004928 0.000000
# 4 0.000000 0.000000 0.000000 0.098313 0.000000 -0.032356
# 5 0.000325 -0.005910 0.004928 0.000000 0.036217 0.000000
# 6 0.000000 0.000000 0.000000 -0.032356 0.000000 0.110210
#
#
# Mechanical properties :
#
#
# Convention : Reuss Voigt Hill
#
# Bulk Modulus (GPa) = 30.01603 37.94216 33.97910
# Shear Modulus (GPa) = 14.97084 21.64802 18.30943
#
# Velocity S-wave (km/s) = 3.02481 3.63734 3.34512
# Velocity P-wave (km/s) = 5.52663 6.38973 5.97379
#
# Compressibility (1/GPa) = 0.03331553
#
# Stress axis : x y z
#
# Youngs Moduli (GPa) = 91.72508 32.60413 70.65532
#
# Poissons Ratio (x) = 0.19515 0.16446
# Poissons Ratio (y) = 0.54900 0.20437
# Poissons Ratio (z) = 0.21350 0.09431
#
# Static dielectric constant tensor:
#      x y z
#    x 3.540690 0.000000 -0.138330 
#    y 0.000000 2.533510 0.000000 
#    z -0.138330 0.000000 3.194690 
# 
# 
# High freq. dielectric constant tensor:
#      x y z
#    x 1.648820 0.000000 -0.007950 
#    y 0.000000 1.559530 0.000000 
#    z -0.007950 0.000000 1.630370 
# 
# From -- ./inp_files/34861.got.cif
#   From: 2010.06.25/outbox.cif.g09.slc.cpg/sg10_18_cif.got.tgz:34861.got - 2010.06.27 22:07:45.
