data_PCOD8057412
_publ_section_title
;
Structure prediction by ZEFSAII (Michael W. Deem and Ramdas Pophale) SiO2 
 PCOD8057412
Probable space group: P 2/M
;
_chemical_formula_sum "Si O2"
_cell_formula_units_Z 28
_cell_length_a 8.466929
_cell_length_b 12.052404
_cell_length_c 14.850333
_cell_angle_alpha 90.000000
_cell_angle_beta 103.013644
_cell_angle_gamma 90.000000
_cell_volume 1476.508103
_symmetry_space_group_name_H-M "P 2/M"
_symmetry_group_IT_number 10
_symmetry_cell_setting 'monoclinic'
loop_
_space_group_symop_operation_xyz
x,y,z
-x,y,-z
-x,-y,-z
x,-y,z
loop_
_atom_site_type_symbol
_atom_site_label
_atom_site_fract_x
_atom_site_fract_y
_atom_site_fract_z
Si Si1 0.918192 0.698688 0.121282
Si Si2 0.411073 0.295472 0.251416
Si Si3 0.961668 0.767832 0.590599
Si Si4 0.763288 0.630497 0.283377
Si Si5 0.776982 0.377489 0.932347
Si Si6 0.866201 0.872032 0.758457
Si Si7 0.659981 0.375381 0.568342
O O1 0.818161 0.641927 0.187533
O O2 0.065883 0.618707 0.112201
O O3 0.998416 0.816125 0.159679
O O4 0.800611 0.709184 0.018505
O O5 0.605827 0.291808 0.281247
O O6 0.375498 0.344900 0.148257
O O7 0.314812 0.178530 0.250140
O O8 0.348307 0.373203 0.324145
O O9 0.927472 0.858110 0.663544
O O10 0.802536 0.698348 0.549378
O O11 0.000000 0.827857 0.500000
O O12 0.098493 0.679162 0.635109
O O13 0.730108 0.500000 0.300735
O O14 0.748053 0.500000 0.968788
O O15 0.856213 0.000000 0.782589
O O16 0.500000 0.327098 0.500000
O O17 0.690147 0.500000 0.539672
#
# Coordination Sequence:
#
# PCOD8057412 Si02
#       7
#     4   4   4   4   4   4   4
#     4   9  19  32  51  79 103 135 178 218 261 315
#     4  10  21  33  49  76 106 143 185 219 257 314
#     4  10  21  34  53  81 108 134 175 222 266 321
#     4  11  20  32  51  79 116 146 170 209 264 324
#     4  10  17  31  52  77 112 145 175 213 261 319
#     4   9  20  40  59  73  99 138 183 231 271 305
#     4  10  19  32  51  75 109 149 180 209 257 320
#
# _framework density 18.963660999999998
#
# number of rings (size 3 to 8) (size 9 to 14) (size 15 to 20)
#    0.000    2.143    0.000    5.143    0.000    3.143 
#    0.000   10.000    0.000   14.571    0.000   13.000 
#    0.000    0.000    0.000    0.000    0.000    0.000 
#
# Total GULP energy -347016.942847 kJ/mol
# GULP energy per Si atom -12393.462245 kJ/mol
# Density = 1.892050 g / cm^3
# Si number density = 18.963661 Si / 1000 Ang^3
#
#
#
# Elastic Constant Matrix: (Units=GPa)
#
#
# Indices 1 2 3 4 5 6 
#
# 1 76.8315 30.6585 29.2387 0.0000 5.2243 0.0000
# 2 30.6585 107.6922 33.7477 0.0000 8.1325 0.0000
# 3 29.2387 33.7477 110.7814 0.0000 2.2629 0.0000
# 4 0.0000 0.0000 0.0000 14.0725 0.0000 3.1327
# 5 5.2243 8.1325 2.2629 0.0000 36.1590 0.0000
# 6 0.0000 0.0000 0.0000 3.1327 0.0000 15.1067
#
#
#
# Elastic Compliance Matrix: (Units=1/GPa)
#
#
# Indices 1 2 3 4 5 6 
#
# 1 0.015623 -0.003389 -0.003064 0.000000 -0.001303 0.000000
# 2 -0.003389 0.011165 -0.002469 0.000000 -0.001867 0.000000
# 3 -0.003064 -0.002469 0.010581 0.000000 0.000336 0.000000
# 4 0.000000 0.000000 0.000000 0.074500 0.000000 -0.015449
# 5 -0.001303 -0.001867 0.000336 0.000000 0.028243 0.000000
# 6 0.000000 0.000000 0.000000 -0.015449 0.000000 0.069400
#
#
# Mechanical properties :
#
#
# Convention : Reuss Voigt Hill
#
# Bulk Modulus (GPa) = 51.21724 53.62165 52.41945
# Shear Modulus (GPa) = 21.38010 26.51165 23.94587
#
# Velocity S-wave (km/s) = 3.36136 3.74307 3.55734
# Velocity P-wave (km/s) = 6.49089 6.85698 6.67645
#
# Compressibility (1/GPa) = 0.01952467
#
# Stress axis : x y z
#
# Youngs Moduli (GPa) = 64.01015 89.56490 94.51143
#
# Poissons Ratio (x) = 0.30352 0.28961
# Poissons Ratio (y) = 0.21692 0.23332
# Poissons Ratio (z) = 0.19615 0.22111
#
# Static dielectric constant tensor:
#      x y z
#    x 3.534060 0.000000 0.027270 
#    y 0.000000 3.003110 0.000000 
#    z 0.027270 0.000000 3.769530 
# 
# 
# High freq. dielectric constant tensor:
#      x y z
#    x 1.736580 0.000000 0.001300 
#    y 0.000000 1.687340 0.000000 
#    z 0.001300 0.000000 1.757500 
# 
# From -- ./inp_files/61009.got.cif
#   From: 2010.06.25/outbox.cif.g09.slc.cpg/sg10_31_cif.got.tgz:61009.got - 2010.06.27 22:07:45.
