data_PCOD8057570
_publ_section_title
;
Structure prediction by ZEFSAII (Michael W. Deem and Ramdas Pophale) SiO2 
 PCOD8057570
Probable space group: P 2/M
;
_chemical_formula_sum "Si O2"
_cell_formula_units_Z 32
_cell_length_a 9.097521
_cell_length_b 10.810118
_cell_length_c 17.583587
_cell_angle_alpha 90.000000
_cell_angle_beta 80.960835
_cell_angle_gamma 90.000000
_cell_volume 1707.787302
_symmetry_space_group_name_H-M "P 2/M"
_symmetry_group_IT_number 10
_symmetry_cell_setting 'monoclinic'
loop_
_space_group_symop_operation_xyz
x,y,z
-x,y,-z
-x,-y,-z
x,-y,z
loop_
_atom_site_type_symbol
_atom_site_label
_atom_site_fract_x
_atom_site_fract_y
_atom_site_fract_z
Si Si1 0.438043 0.852620 0.425300
Si Si2 0.170953 0.789609 0.128943
Si Si3 0.511651 0.141235 0.865150
Si Si4 0.106350 0.147563 0.423718
Si Si5 0.942936 0.632177 0.088202
Si Si6 0.973015 0.138997 0.279466
Si Si7 0.214845 0.862422 0.957246
Si Si8 0.351450 0.147158 0.726069
O O1 0.500000 0.801414 0.500000
O O2 0.272414 0.800185 0.424064
O O3 0.548601 0.803339 0.351262
O O4 0.435203 0.000000 0.425901
O O5 0.345703 0.772495 0.130925
O O6 0.085498 0.657921 0.131445
O O7 0.093024 0.866650 0.201910
O O8 0.148308 0.853349 0.047568
O O9 0.394691 0.149055 0.944644
O O10 0.427719 0.192528 0.797568
O O11 0.569536 0.000000 0.850239
O O12 0.000000 0.194407 0.500000
O O13 0.044466 0.202306 0.348745
O O14 0.112416 0.000000 0.420863
O O15 0.868391 0.500000 0.120507
O O16 0.839777 0.755038 0.096303
O O17 0.000000 0.609828 0.000000
O O18 0.816298 0.203476 0.268232
O O19 0.932881 0.000000 0.306434
O O20 0.173444 0.000000 0.927933
O O21 0.344311 0.000000 0.728677
#
# Coordination Sequence:
#
# PCOD8057570 Si02
#       8
#     4   4   4   4   4   4   4   4
#     4   9  15  23  35  50  72 109 155 196 234 281
#     4  11  20  30  48  69  95 125 160 203 252 295
#     4  10  19  30  44  68 100 128 158 203 254 299
#     4   9  16  25  37  55  82 118 158 195 235 289
#     4   9  20  37  53  70  96 129 165 205 249 298
#     4  10  18  27  41  63  90 121 159 201 243 288
#     4  10  20  33  51  74  98 127 166 208 250 298
#     4   9  17  27  37  53  83 119 153 193 241 291
#
# _framework density 18.737696
#
# number of rings (size 3 to 8) (size 9 to 14) (size 15 to 20)
#    0.000    2.375    0.000    3.750    0.000   10.250 
#    0.000    0.625    0.000    3.000    0.000    0.000 
#    0.000    0.500    0.000    0.125    0.000   21.500 
#
# Total GULP energy -396464.482405 kJ/mol
# GULP energy per Si atom -12389.515075 kJ/mol
# Density = 1.869505 g / cm^3
# Si number density = 18.737696 Si / 1000 Ang^3
#
#
#
# Elastic Constant Matrix: (Units=GPa)
#
#
# Indices 1 2 3 4 5 6 
#
# 1 137.8906 37.5525 38.6511 0.0000 5.9356 0.0000
# 2 37.5525 66.8948 15.5589 0.0000 9.7881 0.0000
# 3 38.6511 15.5589 90.4858 0.0000 -0.4564 0.0000
# 4 0.0000 0.0000 0.0000 7.6301 0.0000 3.2110
# 5 5.9356 9.7881 -0.4564 0.0000 40.8101 0.0000
# 6 0.0000 0.0000 0.0000 3.2110 0.0000 8.7479
#
#
#
# Elastic Compliance Matrix: (Units=1/GPa)
#
#
# Indices 1 2 3 4 5 6 
#
# 1 0.009393 -0.004470 -0.003245 0.000000 -0.000330 0.000000
# 2 -0.004470 0.018299 -0.001256 0.000000 -0.003753 0.000000
# 3 -0.003245 -0.001256 0.012658 0.000000 0.000915 0.000000
# 4 0.000000 0.000000 0.000000 0.155003 0.000000 -0.056895
# 5 -0.000330 -0.003753 0.000915 0.000000 0.025462 0.000000
# 6 0.000000 0.000000 0.000000 -0.056895 0.000000 0.135197
#
#
# Mechanical properties :
#
#
# Convention : Reuss Voigt Hill
#
# Bulk Modulus (GPa) = 44.62676 53.19958 48.91317
# Shear Modulus (GPa) = 13.10872 25.00486 19.05679
#
# Velocity S-wave (km/s) = 2.64785 3.65700 3.19255
# Velocity P-wave (km/s) = 5.76337 6.80330 6.30481
#
# Compressibility (1/GPa) = 0.02240808
#
# Stress axis : x y z
#
# Youngs Moduli (GPa) = 106.45788 54.64652 78.99910
#
# Poissons Ratio (x) = 0.24427 0.25639
# Poissons Ratio (y) = 0.47586 0.09923
# Poissons Ratio (z) = 0.34551 0.06864
#
# Static dielectric constant tensor:
#      x y z
#    x 3.721760 0.000000 0.073500 
#    y 0.000000 2.963430 0.000000 
#    z 0.073500 0.000000 3.532470 
# 
# 
# High freq. dielectric constant tensor:
#      x y z
#    x 1.745990 0.000000 0.001890 
#    y 0.000000 1.631300 0.000000 
#    z 0.001890 0.000000 1.732510 
# 
# From -- ./inp_files/74820.got.cif
#   From: 2010.06.25/outbox.cif.g09.slc.cpg/sg10_38_cif.got.tgz:74820.got - 2010.06.27 22:07:45.
