data_PCOD8057135
_publ_section_title
;
Structure prediction by ZEFSAII (Michael W. Deem and Ramdas Pophale) SiO2 
 PCOD8057135
Probable space group: P 2/M
;
_chemical_formula_sum "Si O2"
_cell_formula_units_Z 32
_cell_length_a 21.224114
_cell_length_b 8.841004
_cell_length_c 21.200463
_cell_angle_alpha 90.000000
_cell_angle_beta 153.797263
_cell_angle_gamma 90.000000
_cell_volume 1756.528201
_symmetry_space_group_name_H-M "P 2/M"
_symmetry_group_IT_number 10
_symmetry_cell_setting 'monoclinic'
loop_
_space_group_symop_operation_xyz
x,y,z
-x,y,-z
-x,-y,-z
x,-y,z
loop_
_atom_site_type_symbol
_atom_site_label
_atom_site_fract_x
_atom_site_fract_y
_atom_site_fract_z
Si Si1 0.011152 0.177481 0.817421
Si Si2 0.618877 0.323707 0.559928
Si Si3 0.939866 0.676132 0.878757
Si Si4 0.243940 0.677099 0.939189
Si Si5 0.563580 0.327472 0.265947
Si Si6 0.692414 0.176262 0.501016
Si Si7 0.613310 0.675764 0.173261
Si Si8 0.688965 0.821441 0.124114
O O1 0.021183 0.225121 0.899499
O O2 0.857394 0.227120 0.652026
O O3 0.129291 0.269686 0.886392
O O4 0.039679 0.000000 0.836064
O O5 0.500000 0.254357 0.500000
O O6 0.592438 0.500000 0.527427
O O7 0.772213 0.287092 0.727557
O O8 0.602077 0.252475 0.475683
O O9 0.969541 0.500000 0.891846
O O10 0.000000 0.726720 0.000000
O O11 0.230331 0.500000 0.914512
O O12 0.212389 0.761006 0.844288
O O13 0.399994 0.718023 0.106078
O O14 0.573593 0.500000 0.298616
O O15 0.627857 0.218821 0.375914
O O16 0.657427 0.305461 0.286170
O O17 0.679544 0.000000 0.499879
O O18 0.582530 0.500000 0.130946
O O19 0.730286 0.743461 0.229034
O O20 0.471211 0.772779 0.035551
O O21 0.705427 0.000000 0.144840
#
# Coordination Sequence:
#
# PCOD8057135 Si02
#       8
#     4   4   4   4   4   4   4   4
#     4  10  21  36  52  74 103 135 169 204 248 302
#     4   9  18  33  52  72  96 128 165 204 243 288
#     4   9  18  33  52  73  97 128 166 204 244 292
#     4  10  20  34  52  75 101 132 170 212 253 296
#     4   9  19  33  51  75 101 130 169 211 248 292
#     4  10  21  35  52  74 103 136 167 202 248 301
#     4   9  16  28  45  68  99 133 168 207 249 296
#     4  10  17  26  44  71 101 132 164 204 254 302
#
# _framework density 18.217755
#
# number of rings (size 3 to 8) (size 9 to 14) (size 15 to 20)
#    0.000    2.500    0.000    4.125    0.000    6.000 
#    0.000    2.500    0.000    0.750    0.000    5.250 
#    0.000    0.000    0.000    0.000    0.000    0.000 
#
# Total GULP energy -396723.003022 kJ/mol
# GULP energy per Si atom -12397.593844 kJ/mol
# Density = 1.817629 g / cm^3
# Si number density = 18.217755 Si / 1000 Ang^3
#
#
#
# Elastic Constant Matrix: (Units=GPa)
#
#
# Indices 1 2 3 4 5 6 
#
# 1 145.8906 49.3278 59.3945 0.0000 -15.0800 0.0000
# 2 49.3278 70.1170 30.2534 0.0000 -5.3425 0.0000
# 3 59.3945 30.2534 55.0969 0.0000 -12.6646 0.0000
# 4 0.0000 0.0000 0.0000 18.5221 0.0000 1.5411
# 5 -15.0800 -5.3425 -12.6646 0.0000 23.0223 0.0000
# 6 0.0000 0.0000 0.0000 1.5411 0.0000 24.7040
#
#
#
# Elastic Compliance Matrix: (Units=1/GPa)
#
#
# Indices 1 2 3 4 5 6 
#
# 1 0.013079 -0.004124 -0.011546 0.000000 0.001259 0.000000
# 2 -0.004124 0.020035 -0.006992 0.000000 -0.001898 0.000000
# 3 -0.011546 -0.006992 0.037003 0.000000 0.011170 0.000000
# 4 0.000000 0.000000 0.000000 0.054271 0.000000 -0.003386
# 5 0.001259 -0.001898 0.011170 0.000000 0.049965 0.000000
# 6 0.000000 0.000000 0.000000 -0.003386 0.000000 0.040690
#
#
# Mechanical properties :
#
#
# Convention : Reuss Voigt Hill
#
# Bulk Modulus (GPa) = 40.33185 61.00623 50.66904
# Shear Modulus (GPa) = 18.61275 22.05827 20.33551
#
# Velocity S-wave (km/s) = 3.19984 3.48345 3.34465
# Velocity P-wave (km/s) = 5.98655 7.05260 6.54133
#
# Compressibility (1/GPa) = 0.02479430
#
# Stress axis : x y z
#
# Youngs Moduli (GPa) = 76.45592 49.91191 27.02464
#
# Poissons Ratio (x) = 0.20583 0.31202
# Poissons Ratio (y) = 0.31529 0.18896
# Poissons Ratio (z) = 0.88275 0.34899
#
# Static dielectric constant tensor:
#      x y z
#    x 3.830400 0.000000 -0.146340 
#    y 0.000000 3.318190 0.000000 
#    z -0.146340 0.000000 3.092000 
# 
# 
# High freq. dielectric constant tensor:
#      x y z
#    x 1.724080 0.000000 -0.014680 
#    y 0.000000 1.710660 0.000000 
#    z -0.014680 0.000000 1.665110 
# 
# From -- ./inp_files/86138.got.cif
#   From: 2010.06.25/outbox.cif.g09.slc.cpg/sg10_44_cif.got.tgz:86138.got - 2010.06.27 22:07:45.
