data_PCOD8057290
_publ_section_title
;
Structure prediction by ZEFSAII (Michael W. Deem and Ramdas Pophale) SiO2 
 PCOD8057290
Probable space group: P 2/M
;
_chemical_formula_sum "Si O2"
_cell_formula_units_Z 28
_cell_length_a 21.094226
_cell_length_b 9.150383
_cell_length_c 15.765388
_cell_angle_alpha 90.000000
_cell_angle_beta 152.441561
_cell_angle_gamma 90.000000
_cell_volume 1407.871412
_symmetry_space_group_name_H-M "P 2/M"
_symmetry_group_IT_number 10
_symmetry_cell_setting 'monoclinic'
loop_
_space_group_symop_operation_xyz
x,y,z
-x,y,-z
-x,-y,-z
x,-y,z
loop_
_atom_site_type_symbol
_atom_site_label
_atom_site_fract_x
_atom_site_fract_y
_atom_site_fract_z
Si Si1 0.982996 0.672208 0.575493
Si Si2 0.695930 0.827864 0.606854
Si Si3 0.521015 0.826755 0.243624
Si Si4 0.223068 0.163667 0.559764
Si Si5 0.752501 0.172893 0.857316
Si Si6 0.949116 0.836053 0.813358
Si Si7 0.268086 0.673196 0.995923
O O1 0.967812 0.500000 0.559946
O O2 0.000000 0.729343 0.500000
O O3 0.840815 0.735806 0.442978
O O4 0.116152 0.722466 0.787134
O O5 0.579902 0.771105 0.404946
O O6 0.661780 0.794781 0.664943
O O7 0.845822 0.761289 0.758968
O O8 0.708591 0.000000 0.604858
O O9 0.626777 0.782930 0.293818
O O10 0.378701 0.740410 0.060994
O O11 0.494830 0.000000 0.212256
O O12 0.120201 0.167748 0.359880
O O13 0.235308 0.000000 0.610641
O O14 0.693188 0.259732 0.866596
O O15 0.752087 0.000000 0.878432
O O16 0.903257 0.240375 0.017374
O O17 0.981603 0.000000 0.881603
O O18 0.282491 0.500000 0.014602
#
# Coordination Sequence:
#
# PCOD8057290 Si02
#       7
#     4   4   4   4   4   4   4
#     4  10  22  40  60  81 105 135 174 218 264 322
#     4   8  15  27  47  77 106 139 181 220 253 299
#     4   9  19  36  56  79 111 145 180 216 255 309
#     4   9  17  33  58  86 109 134 171 219 269 313
#     4  10  17  28  51  77 105 140 180 223 264 300
#     4   8  13  24  46  77 107 132 169 217 262 302
#     4  11  23  37  53  76 107 142 179 218 266 319
#
# _framework density 19.888179000000001
#
# number of rings (size 3 to 8) (size 9 to 14) (size 15 to 20)
#    0.000    2.714    1.429    2.571    0.000    3.714 
#    0.000    4.286    0.000    6.857    0.000    0.000 
#    0.000    0.000    0.000    0.000    0.000    0.000 
#
# Total GULP energy -346953.442941 kJ/mol
# GULP energy per Si atom -12391.194391 kJ/mol
# Density = 1.984291 g / cm^3
# Si number density = 19.888179 Si / 1000 Ang^3
#
#
#
# Elastic Constant Matrix: (Units=GPa)
#
#
# Indices 1 2 3 4 5 6 
#
# 1 131.7389 44.0726 40.9320 0.0000 7.5076 0.0000
# 2 44.0726 46.0592 23.6521 0.0000 6.1359 0.0000
# 3 40.9320 23.6521 35.2606 0.0000 13.4670 0.0000
# 4 0.0000 0.0000 0.0000 17.8685 0.0000 -0.9646
# 5 7.5076 6.1359 13.4670 0.0000 31.4281 0.0000
# 6 0.0000 0.0000 0.0000 -0.9646 0.0000 -0.1388
#
#
#
# Elastic Compliance Matrix: (Units=1/GPa)
#
#
# Indices 1 2 3 4 5 6 
#
# 1 0.013617 -0.007165 -0.012307 0.000000 0.003420 0.000000
# 2 -0.007165 0.037244 -0.017387 0.000000 0.001891 0.000000
# 3 -0.012307 -0.017387 0.062044 0.000000 -0.020252 0.000000
# 4 0.000000 0.000000 0.000000 0.040694 0.000000 -0.282891
# 5 0.003420 0.001891 -0.020252 0.000000 0.039311 0.000000
# 6 0.000000 0.000000 0.000000 -0.282891 0.000000 -5.240472
#
#
# Mechanical properties :
#
#
# Convention : Reuss Voigt Hill
#
# Bulk Modulus (GPa) = 25.51867 47.81913 36.66890
# Shear Modulus (GPa) = -1.00791 16.79168 7.89189
#
# Velocity S-wave (km/s) = -0.71266 2.90884 1.99418
# Velocity P-wave (km/s) = 3.49024 5.94794 4.87646
#
# Compressibility (1/GPa) = 0.03918700
#
# Stress axis : x y z
#
# Youngs Moduli (GPa) = 73.43893 26.84997 16.11769
#
# Poissons Ratio (x) = 0.19239 0.19835
# Poissons Ratio (y) = 0.52622 0.28023
# Poissons Ratio (z) = 0.90378 0.46683
#
# Static dielectric constant tensor:
#      x y z
#    x 3.750090 0.000000 0.159580 
#    y 0.000000 3.119220 0.000000 
#    z 0.159580 0.000000 3.561440 
# 
# 
# High freq. dielectric constant tensor:
#      x y z
#    x 1.785160 0.000000 0.014710 
#    y 0.000000 1.719720 0.000000 
#    z 0.014710 0.000000 1.764710 
# 
# From -- ./inp_files/70303.got.cif
#   From: 2010.06.25/outbox.cif.g09.slc.cpg/sg10_36_cif.got.tgz:70303.got - 2010.06.27 22:07:45.
