data_PCOD8057724
_publ_section_title
;
Structure prediction by ZEFSAII (Michael W. Deem and Ramdas Pophale) SiO2 
 PCOD8057724
Probable space group: P 2/M
;
_chemical_formula_sum "Si O2"
_cell_formula_units_Z 32
_cell_length_a 15.458592
_cell_length_b 9.167193
_cell_length_c 21.308232
_cell_angle_alpha 90.000000
_cell_angle_beta 146.167832
_cell_angle_gamma 90.000000
_cell_volume 1681.215441
_symmetry_space_group_name_H-M "P 2/M"
_symmetry_group_IT_number 10
_symmetry_cell_setting 'monoclinic'
loop_
_space_group_symop_operation_xyz
x,y,z
-x,y,-z
-x,-y,-z
x,-y,z
loop_
_atom_site_type_symbol
_atom_site_label
_atom_site_fract_x
_atom_site_fract_y
_atom_site_fract_z
Si Si1 0.133765 0.828654 0.895782
Si Si2 0.133521 0.672903 0.670205
Si Si3 0.990716 0.667223 0.064799
Si Si4 0.319608 0.328089 0.903051
Si Si5 0.628498 0.330008 0.436651
Si Si6 0.673147 0.334620 0.675318
Si Si7 0.803124 0.670547 0.426246
Si Si8 0.796320 0.830855 0.639132
O O1 0.268265 0.753278 0.935919
O O2 0.125496 0.759993 0.960956
O O3 0.971630 0.795108 0.763804
O O4 0.166984 0.000000 0.921982
O O5 0.145925 0.500000 0.683783
O O6 0.219067 0.736092 0.783709
O O7 0.219044 0.731458 0.657817
O O8 0.956058 0.729240 0.555675
O O9 0.931513 0.500000 0.028926
O O10 0.164553 0.680527 0.193153
O O11 0.000000 0.731128 0.000000
O O12 0.292359 0.500000 0.896418
O O13 0.500000 0.293187 0.000000
O O14 0.655922 0.500000 0.465972
O O15 0.458242 0.278890 0.355504
O O16 0.650598 0.294084 0.375919
O O17 0.764956 0.243884 0.553972
O O18 0.640087 0.500000 0.634238
O O19 0.671539 0.235947 0.612569
O O20 0.832440 0.500000 0.436348
O O21 0.762847 0.000000 0.614483
#
# Coordination Sequence:
#
# PCOD8057724 Si02
#       8
#     4   4   4   4   4   4   4   4
#     4  10  21  36  54  76 101 136 178 213 252 309
#     4   8  14  27  46  69  98 127 161 202 247 300
#     4   9  18  35  56  77 102 134 172 218 264 304
#     4  10  20  34  53  81 108 132 166 216 271 312
#     4  10  18  28  45  72 100 129 163 201 250 304
#     4   9  18  31  46  70 101 130 164 204 253 307
#     4   8  14  25  44  69  95 128 163 198 243 296
#     4  10  20  32  48  70  97 132 170 206 248 295
#
# _framework density 19.033847999999999
#
# number of rings (size 3 to 8) (size 9 to 14) (size 15 to 20)
#    0.000    2.750    0.000    2.625    0.000    5.000 
#    2.250    0.000    0.000    0.750    0.000    3.500 
#    0.000    0.000    0.000    0.000    0.000    0.000 
#
# Total GULP energy -396599.173700 kJ/mol
# GULP energy per Si atom -12393.724178 kJ/mol
# Density = 1.899053 g / cm^3
# Si number density = 19.033848 Si / 1000 Ang^3
#
#
#
# Elastic Constant Matrix: (Units=GPa)
#
#
# Indices 1 2 3 4 5 6 
#
# 1 170.1580 50.1277 35.9306 0.0000 -7.2348 0.0000
# 2 50.1277 54.2440 17.8909 0.0000 -0.5160 0.0000
# 3 35.9306 17.8909 42.4681 0.0000 -11.9118 0.0000
# 4 0.0000 0.0000 0.0000 15.9360 0.0000 2.6031
# 5 -7.2348 -0.5160 -11.9118 0.0000 28.7993 0.0000
# 6 0.0000 0.0000 0.0000 2.6031 0.0000 5.4225
#
#
#
# Elastic Compliance Matrix: (Units=1/GPa)
#
#
# Indices 1 2 3 4 5 6 
#
# 1 0.008808 -0.006617 -0.004612 0.000000 0.000186 0.000000
# 2 -0.006617 0.026752 -0.006792 0.000000 -0.003992 0.000000
# 3 -0.004612 -0.006792 0.033882 0.000000 0.012734 0.000000
# 4 0.000000 0.000000 0.000000 0.068090 0.000000 -0.032687
# 5 0.000186 -0.003992 0.012734 0.000000 0.039965 0.000000
# 6 0.000000 0.000000 0.000000 -0.032687 0.000000 0.200107
#
#
# Mechanical properties :
#
#
# Convention : Reuss Voigt Hill
#
# Bulk Modulus (GPa) = 29.93936 52.75206 41.34571
# Shear Modulus (GPa) = 11.77083 20.89296 16.33189
#
# Velocity S-wave (km/s) = 2.48949 3.31671 2.93242
# Velocity P-wave (km/s) = 4.90175 6.51479 5.76496
#
# Compressibility (1/GPa) = 0.03340084
#
# Stress axis : x y z
#
# Youngs Moduli (GPa) = 113.53364 37.38080 29.51398
#
# Poissons Ratio (x) = 0.24733 0.13613
# Poissons Ratio (y) = 0.75120 0.20045
# Poissons Ratio (z) = 0.52366 0.25388
#
# Static dielectric constant tensor:
#      x y z
#    x 3.788350 0.000000 -0.174500 
#    y 0.000000 3.151380 0.000000 
#    z -0.174500 0.000000 3.412890 
# 
# 
# High freq. dielectric constant tensor:
#      x y z
#    x 1.758600 0.000000 -0.006340 
#    y 0.000000 1.699110 0.000000 
#    z -0.006340 0.000000 1.719540 
# 
# From -- ./inp_files/84761.got.cif
#   From: 2010.06.25/outbox.cif.g09.slc.cpg/sg10_43_cif.got.tgz:84761.got - 2010.06.27 22:07:45.
