data_PCOD8057101
_publ_section_title
;
Structure prediction by ZEFSAII (Michael W. Deem and Ramdas Pophale) SiO2 
 PCOD8057101
Probable space group: P 2/M
;
_chemical_formula_sum "Si O2"
_cell_formula_units_Z 28
_cell_length_a 22.678272
_cell_length_b 8.898306
_cell_length_c 12.091351
_cell_angle_alpha 90.000000
_cell_angle_beta 135.133504
_cell_angle_gamma 90.000000
_cell_volume 1721.324787
_symmetry_space_group_name_H-M "P 2/M"
_symmetry_group_IT_number 10
_symmetry_cell_setting 'monoclinic'
loop_
_space_group_symop_operation_xyz
x,y,z
-x,y,-z
-x,-y,-z
x,-y,z
loop_
_atom_site_type_symbol
_atom_site_label
_atom_site_fract_x
_atom_site_fract_y
_atom_site_fract_z
Si Si1 0.381785 0.329717 0.934458
Si Si2 0.993662 0.174533 0.170875
Si Si3 0.945992 0.673890 0.536040
Si Si4 0.775008 0.822657 0.348564
Si Si5 0.446455 0.332032 0.771726
Si Si6 0.273219 0.321107 0.485993
Si Si7 0.865568 0.173635 0.819219
O O1 0.361521 0.500000 0.946629
O O2 0.298832 0.228743 0.833581
O O3 0.410638 0.332975 0.847060
O O4 0.460593 0.256301 0.108932
O O5 0.998599 0.276480 0.285569
O O6 0.069749 0.215317 0.191270
O O7 0.998026 0.000000 0.210166
O O8 0.906629 0.210573 0.992487
O O9 0.921571 0.500000 0.516184
O O10 0.862480 0.771893 0.413173
O O11 0.000000 0.704845 0.500000
O O12 0.767481 0.750392 0.459259
O O13 0.772563 0.000000 0.358128
O O14 0.463182 0.500000 0.752945
O O15 0.369975 0.261977 0.597622
O O16 0.273104 0.500000 0.499688
O O17 0.218520 0.271549 0.307727
O O18 0.840876 0.000000 0.779375
#
# Coordination Sequence:
#
# PCOD8057101 Si02
#       7
#     4   4   4   4   4   4   4
#     4   8  13  25  41  55  78 113 148 179 212 254
#     4   9  18  32  48  65  89 117 147 181 223 269
#     4  11  23  36  49  66  87 112 150 194 227 260
#     4  11  20  29  42  61  86 115 148 183 222 267
#     4   7  12  22  37  57  82 113 145 176 212 253
#     4  10  17  26  42  64  89 118 151 182 214 258
#     4   9  17  29  45  67  92 118 146 181 220 263
#
# _framework density 16.266539999999999
#
# number of rings (size 3 to 8) (size 9 to 14) (size 15 to 20)
#    0.000    2.714    1.429    4.714    0.000    1.714 
#    0.000    7.857    0.000    0.000    0.000    0.000 
#    0.000    1.143    0.000   12.857    0.000    6.714 
#
# Total GULP energy -346877.200652 kJ/mol
# GULP energy per Si atom -12388.471452 kJ/mol
# Density = 1.622952 g / cm^3
# Si number density = 16.266540 Si / 1000 Ang^3
#
#
#
# Elastic Constant Matrix: (Units=GPa)
#
#
# Indices 1 2 3 4 5 6 
#
# 1 40.4592 27.4403 45.1004 0.0000 8.8231 0.0000
# 2 27.4403 71.6226 46.8507 0.0000 10.3077 0.0000
# 3 45.1004 46.8507 136.7073 0.0000 34.4723 0.0000
# 4 0.0000 0.0000 0.0000 26.4166 0.0000 0.0554
# 5 8.8231 10.3077 34.4723 0.0000 27.1267 0.0000
# 6 0.0000 0.0000 0.0000 0.0554 0.0000 8.8106
#
#
#
# Elastic Compliance Matrix: (Units=1/GPa)
#
#
# Indices 1 2 3 4 5 6 
#
# 1 0.044001 -0.009345 -0.012655 0.000000 0.005322 0.000000
# 2 -0.009345 0.020021 -0.003865 0.000000 0.000343 0.000000
# 3 -0.012655 -0.003865 0.016785 0.000000 -0.015745 0.000000
# 4 0.000000 0.000000 0.000000 0.037856 0.000000 -0.000238
# 5 0.005322 0.000343 -0.015745 0.000000 0.055011 0.000000
# 6 0.000000 0.000000 0.000000 -0.000238 0.000000 0.113501
#
#
# Mechanical properties :
#
#
# Convention : Reuss Voigt Hill
#
# Bulk Modulus (GPa) = 34.39297 54.17464 44.28381
# Shear Modulus (GPa) = 14.34313 21.09728 17.72021
#
# Velocity S-wave (km/s) = 2.97266 3.60526 3.30413
# Velocity P-wave (km/s) = 5.74209 7.12090 6.46834
#
# Compressibility (1/GPa) = 0.02907571
#
# Stress axis : x y z
#
# Youngs Moduli (GPa) = 22.72668 49.94679 59.57762
#
# Poissons Ratio (x) = 0.46678 0.75398
# Poissons Ratio (y) = 0.21239 0.23026
# Poissons Ratio (z) = 0.28761 0.19304
#
# Static dielectric constant tensor:
#      x y z
#    x 2.673690 0.000000 0.471520 
#    y 0.000000 2.980970 0.000000 
#    z 0.471520 0.000000 3.610250 
# 
# 
# High freq. dielectric constant tensor:
#      x y z
#    x 1.562080 0.000000 0.039270 
#    y 0.000000 1.615090 0.000000 
#    z 0.039270 0.000000 1.639800 
# 
# From -- ./inp_files/54988.got.cif
#   From: 2010.06.25/outbox.cif.g09.slc.cpg/sg10_28_cif.got.tgz:54988.got - 2010.06.27 22:07:45.
