data_PCOD8057684
_publ_section_title
;
Structure prediction by ZEFSAII (Michael W. Deem and Ramdas Pophale) SiO2 
 PCOD8057684
Probable space group: P 2/M
;
_chemical_formula_sum "Si O2"
_cell_formula_units_Z 32
_cell_length_a 30.920365
_cell_length_b 9.020897
_cell_length_c 21.531179
_cell_angle_alpha 90.000000
_cell_angle_beta 160.702652
_cell_angle_gamma 90.000000
_cell_volume 1984.701133
_symmetry_space_group_name_H-M "P 2/M"
_symmetry_group_IT_number 10
_symmetry_cell_setting 'monoclinic'
loop_
_space_group_symop_operation_xyz
x,y,z
-x,y,-z
-x,-y,-z
x,-y,z
loop_
_atom_site_type_symbol
_atom_site_label
_atom_site_fract_x
_atom_site_fract_y
_atom_site_fract_z
Si Si1 0.049648 0.675509 0.715373
Si Si2 0.884667 0.323696 0.060808
Si Si3 0.497576 0.175544 0.678284
Si Si4 0.882451 0.324213 0.382300
Si Si5 0.292789 0.674949 0.960381
Si Si6 0.611547 0.173357 0.700598
Si Si7 0.011247 0.824830 0.915230
Si Si8 0.795172 0.175060 0.716835
O O1 0.048838 0.500000 0.717195
O O2 0.177942 0.726443 0.851428
O O3 0.915521 0.730666 0.497775
O O4 0.056880 0.738604 0.794840
O O5 0.881565 0.500000 0.054524
O O6 0.738736 0.263961 0.853156
O O7 0.980487 0.262117 0.137981
O O8 0.563643 0.225599 0.703399
O O9 0.350677 0.241813 0.482143
O O10 0.495549 0.000000 0.681529
O O11 0.575090 0.241902 0.841789
O O12 0.886707 0.500000 0.386915
O O13 0.746719 0.275885 0.164421
O O14 0.000000 0.261714 0.500000
O O15 0.316800 0.500000 0.997238
O O16 0.500000 0.211458 0.500000
O O17 0.646003 0.000000 0.746229
O O18 0.128229 0.767931 0.118461
O O19 0.021190 0.000000 0.916633
O O20 0.873248 0.781590 0.760111
O O21 0.788923 0.000000 0.713904
#
# Coordination Sequence:
#
# PCOD8057684 Si02
#       8
#     4   4   4   4   4   4   4   4
#     4   8  14  25  40  61  89 118 146 175 209 257
#     4  11  20  29  44  68  96 118 140 178 228 268
#     4  10  18  28  44  66  90 113 143 183 226 260
#     4   7  11  21  40  60  79 112 153 179 198 245
#     4   9  15  26  43  63  87 116 148 177 211 259
#     4  10  20  32  45  61  86 122 157 180 204 255
#     4   9  17  33  53  66  81 111 156 194 219 255
#     4   8  16  32  52  67  80 111 155 193 221 255
#
# _framework density 16.123334
#
# number of rings (size 3 to 8) (size 9 to 14) (size 15 to 20)
#    0.000    3.000    1.250    3.375    0.000    2.250 
#    0.000    3.750    0.000    4.875    0.000    0.875 
#    0.000    7.000    0.000    0.000    0.000    0.000 
#
# Total GULP energy -396461.436019 kJ/mol
# GULP energy per Si atom -12389.419876 kJ/mol
# Density = 1.608664 g / cm^3
# Si number density = 16.123334 Si / 1000 Ang^3
#
#
#
# Elastic Constant Matrix: (Units=GPa)
#
#
# Indices 1 2 3 4 5 6 
#
# 1 87.8550 20.6604 42.4318 0.0000 -13.0363 0.0000
# 2 20.6604 24.0587 15.9343 0.0000 -3.5529 0.0000
# 3 42.4318 15.9343 81.6062 0.0000 -17.8367 0.0000
# 4 0.0000 0.0000 0.0000 18.7341 0.0000 -0.8552
# 5 -13.0363 -3.5529 -17.8367 0.0000 28.3147 0.0000
# 6 0.0000 0.0000 0.0000 -0.8552 0.0000 10.1515
#
#
#
# Elastic Compliance Matrix: (Units=1/GPa)
#
#
# Indices 1 2 3 4 5 6 
#
# 1 0.017267 -0.010192 -0.006413 0.000000 0.002631 0.000000
# 2 -0.010192 0.053755 -0.005506 0.000000 -0.001416 0.000000
# 3 -0.006413 -0.005506 0.018401 0.000000 0.007948 0.000000
# 4 0.000000 0.000000 0.000000 0.053585 0.000000 0.004514
# 5 0.002631 -0.001416 0.007948 0.000000 0.041358 0.000000
# 6 0.000000 0.000000 0.000000 0.004514 0.000000 0.098888
#
#
# Mechanical properties :
#
#
# Convention : Reuss Voigt Hill
#
# Bulk Modulus (GPa) = 22.12365 39.06365 30.59365
# Shear Modulus (GPa) = 14.59674 19.07295 16.83485
#
# Velocity S-wave (km/s) = 3.01211 3.44312 3.23480
# Velocity P-wave (km/s) = 5.08413 6.33146 5.74177
#
# Compressibility (1/GPa) = 0.04520050
#
# Stress axis : x y z
#
# Youngs Moduli (GPa) = 57.91437 18.60290 54.34560
#
# Poissons Ratio (x) = 0.18960 0.34851
# Poissons Ratio (y) = 0.59026 0.29924
# Poissons Ratio (z) = 0.37140 0.10243
#
# Static dielectric constant tensor:
#      x y z
#    x 3.174980 0.000000 -0.310230 
#    y 0.000000 2.674480 0.000000 
#    z -0.310230 0.000000 3.374490 
# 
# 
# High freq. dielectric constant tensor:
#      x y z
#    x 1.603130 0.000000 -0.023680 
#    y 0.000000 1.584530 0.000000 
#    z -0.023680 0.000000 1.616750 
# 
# From -- ./inp_files/83384.got.cif
#   From: 2010.06.25/outbox.cif.g09.slc.cpg/sg10_42_cif.got.tgz:83384.got - 2010.06.27 22:07:45.
