data_PCOD8057977
_publ_section_title
;
Structure prediction by ZEFSAII (Michael W. Deem and Ramdas Pophale) SiO2 
 PCOD8057977
Probable space group: P 2/M
;
_chemical_formula_sum "Si O2"
_cell_formula_units_Z 28
_cell_length_a 5.123863
_cell_length_b 21.919602
_cell_length_c 13.613429
_cell_angle_alpha 90.000000
_cell_angle_beta 100.835124
_cell_angle_gamma 90.000000
_cell_volume 1501.707465
_symmetry_space_group_name_H-M "P 2/M"
_symmetry_group_IT_number 10
_symmetry_cell_setting 'monoclinic'
loop_
_space_group_symop_operation_xyz
x,y,z
-x,y,-z
-x,-y,-z
x,-y,z
loop_
_atom_site_type_symbol
_atom_site_label
_atom_site_fract_x
_atom_site_fract_y
_atom_site_fract_z
Si Si1 0.105073 0.633907 0.744156
Si Si2 0.215602 0.858482 0.936560
Si Si3 0.535787 0.368658 0.608945
Si Si4 0.797784 0.500000 0.251130
Si Si5 0.528767 0.072190 0.610976
Si Si6 0.915874 0.927798 0.268848
Si Si7 0.784778 0.283813 0.063888
Si Si8 0.644073 0.500000 0.635094
O O1 0.293555 0.646169 0.664149
O O2 0.146513 0.565934 0.796812
O O3 0.172690 0.682346 0.831399
O O4 0.807487 0.646497 0.685278
O O5 0.180576 0.896197 0.835918
O O6 0.185447 0.787392 0.910390
O O7 0.500000 0.874722 0.000000
O O8 0.000000 0.880349 0.000000
O O9 0.500000 0.334311 0.500000
O O10 0.530214 0.439684 0.577388
O O11 0.492213 0.500000 0.264970
O O12 0.035169 0.500000 0.349297
O O13 0.500000 0.100624 0.500000
O O14 0.276335 0.092113 0.656360
O O15 0.793466 0.097016 0.682276
O O16 0.552175 0.000000 0.603686
O O17 0.909999 0.000000 0.251583
O O18 0.500000 0.300329 0.000000
O O19 0.000000 0.305748 0.000000
#
# Coordination Sequence:
#
# PCOD8057977 Si02
#       8
#     4   4   4   2   4   4   4   2
#     4  10  19  33  51  72 100 128 160 205 242 285
#     4  10  21  36  54  75  99 128 165 206 247 299
#     4  10  18  29  48  74 102 132 160 190 240 296
#     4   8  16  28  45  71  97 122 155 197 247 284
#     4   9  17  30  49  74 105 139 172 202 233 281
#     4  10  19  31  51  78 105 133 164 202 250 290
#     4  10  21  38  57  73  91 127 173 207 244 293
#     4   8  15  26  42  67  99 130 159 189 226 288
#
# _framework density 18.645441999999999
#
# number of rings (size 3 to 8) (size 9 to 14) (size 15 to 20)
#    0.000    2.429    0.000    2.786    0.000    2.286 
#    0.000    5.000    0.000    5.143    0.000    0.000 
#    0.000    0.000    0.000    0.000    0.000    0.000 
#
# Total GULP energy -346933.151029 kJ/mol
# GULP energy per Si atom -12390.469680 kJ/mol
# Density = 1.860300 g / cm^3
# Si number density = 18.645442 Si / 1000 Ang^3
#
#
#
# Elastic Constant Matrix: (Units=GPa)
#
#
# Indices 1 2 3 4 5 6 
#
# 1 100.0924 20.7158 20.5971 0.0000 3.7129 0.0000
# 2 20.7158 35.6965 43.6840 0.0000 0.2430 0.0000
# 3 20.5971 43.6840 106.8649 0.0000 -2.7321 0.0000
# 4 0.0000 0.0000 0.0000 18.7655 0.0000 5.5317
# 5 3.7129 0.2430 -2.7321 0.0000 22.5103 0.0000
# 6 0.0000 0.0000 0.0000 5.5317 0.0000 26.6250
#
#
#
# Elastic Compliance Matrix: (Units=1/GPa)
#
#
# Indices 1 2 3 4 5 6 
#
# 1 0.011473 -0.007779 0.000925 0.000000 -0.001696 0.000000
# 2 -0.007779 0.061590 -0.023735 0.000000 -0.002263 0.000000
# 3 0.000925 -0.023735 0.018943 0.000000 0.002403 0.000000
# 4 0.000000 0.000000 0.000000 0.056766 0.000000 -0.011794
# 5 -0.001696 -0.002263 0.002403 0.000000 0.045020 0.000000
# 6 0.000000 0.000000 0.000000 -0.011794 0.000000 0.040009
#
#
# Mechanical properties :
#
#
# Convention : Reuss Voigt Hill
#
# Bulk Modulus (GPa) = 32.43755 45.84971 39.14363
# Shear Modulus (GPa) = 16.37978 24.09063 20.23520
#
# Velocity S-wave (km/s) = 2.96714 3.59839 3.29791
# Velocity P-wave (km/s) = 5.40124 6.47366 5.96161
#
# Compressibility (1/GPa) = 0.03082847
#
# Stress axis : x y z
#
# Youngs Moduli (GPa) = 87.15903 16.23650 52.78976
#
# Poissons Ratio (x) = 0.12630 -0.04884
# Poissons Ratio (y) = 0.67800 1.25296
# Poissons Ratio (z) = -0.08063 0.38537
#
# Static dielectric constant tensor:
#      x y z
#    x 3.687980 0.000000 -0.025870 
#    y 0.000000 3.189070 0.000000 
#    z -0.025870 0.000000 3.257110 
# 
# 
# High freq. dielectric constant tensor:
#      x y z
#    x 1.747470 0.000000 0.002300 
#    y 0.000000 1.687790 0.000000 
#    z 0.002300 0.000000 1.716280 
# 
# From -- ./inp_files/39732.got.cif
#   From: 2010.06.25/outbox.cif.g09.slc.cpg/sg10_20_cif.got.tgz:39732.got - 2010.06.27 22:07:45.
