data_PCOD8057765
_publ_section_title
;
Structure prediction by ZEFSAII (Michael W. Deem and Ramdas Pophale) SiO2 
 PCOD8057765
Probable space group: P 2/M
;
_chemical_formula_sum "Si O2"
_cell_formula_units_Z 30
_cell_length_a 13.999301
_cell_length_b 8.950203
_cell_length_c 17.247055
_cell_angle_alpha 90.000000
_cell_angle_beta 129.081344
_cell_angle_gamma 90.000000
_cell_volume 1677.477720
_symmetry_space_group_name_H-M "P 2/M"
_symmetry_group_IT_number 10
_symmetry_cell_setting 'monoclinic'
loop_
_space_group_symop_operation_xyz
x,y,z
-x,y,-z
-x,-y,-z
x,-y,z
loop_
_atom_site_type_symbol
_atom_site_label
_atom_site_fract_x
_atom_site_fract_y
_atom_site_fract_z
Si Si1 0.560250 0.179345 0.137524
Si Si2 0.676888 0.320387 0.059889
Si Si3 0.191264 0.676281 0.315763
Si Si4 0.508257 0.825965 0.278664
Si Si5 0.751854 0.164652 0.805482
Si Si6 0.000000 0.750263 0.000000
Si Si7 0.065315 0.333887 0.865847
Si Si8 0.398623 0.177240 0.510709
O O1 0.667528 0.262771 0.144114
O O2 0.574339 0.231937 0.234342
O O3 0.567108 0.000000 0.131327
O O4 0.428717 0.237501 0.041482
O O5 0.661801 0.500000 0.046963
O O6 0.805397 0.257597 0.090113
O O7 0.194308 0.500000 0.329624
O O8 0.252062 0.714083 0.264307
O O9 0.264992 0.755551 0.422293
O O10 0.050516 0.740066 0.238985
O O11 0.361757 0.791803 0.196762
O O12 0.564865 0.755922 0.386305
O O13 0.531886 0.000000 0.296108
O O14 0.879672 0.153119 0.917844
O O15 0.727226 0.000000 0.756377
O O16 0.961579 0.655599 0.055720
O O17 0.076548 0.500000 0.839540
O O18 0.500000 0.231045 0.500000
O O19 0.388662 0.000000 0.505685
#
# Coordination Sequence:
#
# PCOD8057765 Si02
#       8
#     4   4   4   4   4   2   4   4
#     4  10  19  33  52  77 103 128 164 210 252 288
#     4  10  19  34  53  73 100 135 170 200 242 299
#     4  10  20  33  48  71  99 130 167 205 243 291
#     4   9  18  31  50  72  99 131 162 200 251 300
#     4  10  18  31  46  68  99 134 165 198 241 294
#     4  10  18  28  48  74  99 128 169 206 237 284
#     4   9  19  33  49  69 101 137 164 199 250 300
#     4  10  18  33  54  72  97 134 167 201 252 305
#
# _framework density 17.883991999999999
#
# number of rings (size 3 to 8) (size 9 to 14) (size 15 to 20)
#    0.000    2.267    1.333    3.200    0.000    0.800 
#    0.000   10.000    0.000    0.800    0.000    5.600 
#    0.000    0.000    0.000    0.000    0.000    0.000 
#
# Total GULP energy -371673.302163 kJ/mol
# GULP energy per Si atom -12389.110072 kJ/mol
# Density = 1.784329 g / cm^3
# Si number density = 17.883992 Si / 1000 Ang^3
#
#
#
# Elastic Constant Matrix: (Units=GPa)
#
#
# Indices 1 2 3 4 5 6 
#
# 1 124.6135 16.7269 58.8397 0.0000 -2.5525 0.0000
# 2 16.7269 42.0811 13.4517 0.0000 1.3491 0.0000
# 3 58.8397 13.4517 114.0500 0.0000 -5.0164 0.0000
# 4 0.0000 0.0000 0.0000 20.5005 0.0000 2.7870
# 5 -2.5525 1.3491 -5.0164 0.0000 29.5547 0.0000
# 6 0.0000 0.0000 0.0000 2.7870 0.0000 17.4291
#
#
#
# Elastic Compliance Matrix: (Units=1/GPa)
#
#
# Indices 1 2 3 4 5 6 
#
# 1 0.010883 -0.002638 -0.005296 0.000000 0.000161 0.000000
# 2 -0.002638 0.025413 -0.001710 0.000000 -0.001678 0.000000
# 3 -0.005296 -0.001710 0.011774 0.000000 0.001619 0.000000
# 4 0.000000 0.000000 0.000000 0.049863 0.000000 -0.007973
# 5 0.000161 -0.001678 0.001619 0.000000 0.034201 0.000000
# 6 0.000000 0.000000 0.000000 -0.007973 0.000000 0.058650
#
#
# Mechanical properties :
#
#
# Convention : Reuss Voigt Hill
#
# Bulk Modulus (GPa) = 34.74633 50.97567 42.86100
# Shear Modulus (GPa) = 22.76178 26.27861 24.52020
#
# Velocity S-wave (km/s) = 3.57143 3.83742 3.70681
# Velocity P-wave (km/s) = 6.03968 6.94261 6.50682
#
# Compressibility (1/GPa) = 0.02878002
#
# Stress axis : x y z
#
# Youngs Moduli (GPa) = 91.88557 39.35040 84.93641
#
# Poissons Ratio (x) = 0.10381 0.44986
# Poissons Ratio (y) = 0.24240 0.14525
# Poissons Ratio (z) = 0.48667 0.06729
#
# Static dielectric constant tensor:
#      x y z
#    x 3.603800 0.000000 -0.026820 
#    y 0.000000 3.093390 0.000000 
#    z -0.026820 0.000000 3.523120 
# 
# 
# High freq. dielectric constant tensor:
#      x y z
#    x 1.682280 0.000000 0.003880 
#    y 0.000000 1.673080 0.000000 
#    z 0.003880 0.000000 1.686310 
# 
# From -- ./inp_files/77571.got.cif
#   From: 2010.06.25/outbox.cif.g09.slc.cpg/sg10_39_cif.got.tgz:77571.got - 2010.06.27 22:07:45.
