data_PCOD8057785
_publ_section_title
;
Structure prediction by ZEFSAII (Michael W. Deem and Ramdas Pophale) SiO2 
 PCOD8057785
Probable space group: P 2/M
;
_chemical_formula_sum "Si O2"
_cell_formula_units_Z 32
_cell_length_a 5.187320
_cell_length_b 18.445421
_cell_length_c 22.155407
_cell_angle_alpha 90.000000
_cell_angle_beta 97.741629
_cell_angle_gamma 90.000000
_cell_volume 2100.558866
_symmetry_space_group_name_H-M "P 2/M"
_symmetry_group_IT_number 10
_symmetry_cell_setting 'monoclinic'
loop_
_space_group_symop_operation_xyz
x,y,z
-x,y,-z
-x,-y,-z
x,-y,z
loop_
_atom_site_type_symbol
_atom_site_label
_atom_site_fract_x
_atom_site_fract_y
_atom_site_fract_z
Si Si1 0.607049 0.913887 0.756034
Si Si2 0.453649 0.657784 0.671415
Si Si3 0.056179 0.632255 0.567550
Si Si4 0.851283 0.086133 0.172270
Si Si5 0.039083 0.201300 0.433052
Si Si6 0.962576 0.418677 0.685802
Si Si7 0.503797 0.818316 0.640953
Si Si8 0.229763 0.913520 0.964848
O O1 0.377485 0.885223 0.791898
O O2 0.575349 0.882054 0.688641
O O3 0.875664 0.885797 0.793249
O O4 0.602893 0.000000 0.749721
O O5 0.696429 0.612304 0.704899
O O6 0.531319 0.741890 0.677110
O O7 0.361612 0.638955 0.598761
O O8 0.209052 0.634654 0.707052
O O9 0.933453 0.712169 0.566917
O O10 0.913733 0.580625 0.611554
O O11 0.000000 0.598663 0.500000
O O12 0.809610 0.117496 0.103754
O O13 0.847286 0.000000 0.169411
O O14 0.304526 0.173272 0.410548
O O15 0.000000 0.172611 0.500000
O O16 0.793644 0.171946 0.388206
O O17 0.014799 0.500000 0.711329
O O18 0.229047 0.000000 0.963887
O O19 0.500000 0.883894 0.000000
O O20 0.000000 0.883870 0.000000
#
# Coordination Sequence:
#
# PCOD8057785 Si02
#       8
#     4   4   4   4   4   4   4   4
#     4  10  20  31  47  65  83 107 132 172 225 258
#     4   9  18  30  40  57  72  98 128 154 184 232
#     4   8  17  28  39  55  76  95 120 147 183 230
#     4   9  17  29  41  62  90 110 137 171 204 243
#     4  10  19  31  48  64  78  95 128 166 205 259
#     4  10  18  29  40  55  80 101 120 149 187 226
#     4  11  18  33  49  62  79 100 131 167 206 263
#     4   9  15  23  38  58  83 117 146 165 189 223
#
# _framework density 15.23404
#
# number of rings (size 3 to 8) (size 9 to 14) (size 15 to 20)
#    0.750    1.750    1.250    2.250    0.000    3.750 
#    0.000    0.625    0.000    2.250    0.000    0.000 
#    0.000    0.000    0.000    0.000    0.000    0.000 
#
# Total GULP energy -396466.793590 kJ/mol
# GULP energy per Si atom -12389.587300 kJ/mol
# Density = 1.519937 g / cm^3
# Si number density = 15.234040 Si / 1000 Ang^3
#
#
#
# Elastic Constant Matrix: (Units=GPa)
#
#
# Indices 1 2 3 4 5 6 
#
# 1 114.0526 17.7640 22.8066 0.0000 -2.3950 0.0000
# 2 17.7640 27.5362 17.4322 0.0000 1.5364 0.0000
# 3 22.8066 17.4322 54.5693 0.0000 -1.4268 0.0000
# 4 0.0000 0.0000 0.0000 0.6403 0.0000 0.2653
# 5 -2.3950 1.5364 -1.4268 0.0000 22.3044 0.0000
# 6 0.0000 0.0000 0.0000 0.2653 0.0000 11.8654
#
#
#
# Elastic Compliance Matrix: (Units=1/GPa)
#
#
# Indices 1 2 3 4 5 6 
#
# 1 0.010083 -0.004923 -0.002608 0.000000 0.001255 0.000000
# 2 -0.004923 0.048298 -0.013495 0.000000 -0.004719 0.000000
# 3 -0.002608 -0.013495 0.023783 0.000000 0.002171 0.000000
# 4 0.000000 0.000000 0.000000 1.576260 0.000000 -0.035244
# 5 0.001255 -0.004719 0.002171 0.000000 0.045433 0.000000
# 6 0.000000 0.000000 0.000000 -0.035244 0.000000 0.085066
#
#
# Mechanical properties :
#
#
# Convention : Reuss Voigt Hill
#
# Bulk Modulus (GPa) = 24.93058 34.68486 29.80772
# Shear Modulus (GPa) = 2.71099 16.17240 9.44169
#
# Velocity S-wave (km/s) = 1.33545 3.26175 2.49223
# Velocity P-wave (km/s) = 4.33341 6.08299 5.28116
#
# Compressibility (1/GPa) = 0.04011138
#
# Stress axis : x y z
#
# Youngs Moduli (GPa) = 99.18055 20.70475 42.04667
#
# Poissons Ratio (x) = 0.10193 0.10967
# Poissons Ratio (y) = 0.48828 0.56741
# Poissons Ratio (z) = 0.25870 0.27940
#
# Static dielectric constant tensor:
#      x y z
#    x 3.099440 0.000000 0.023500 
#    y 0.000000 2.494630 0.000000 
#    z 0.023500 0.000000 2.674990 
# 
# 
# High freq. dielectric constant tensor:
#      x y z
#    x 1.604700 0.000000 0.002670 
#    y 0.000000 1.533040 0.000000 
#    z 0.002670 0.000000 1.542100 
# 
# From -- ./inp_files/73736.got.cif
#   From: 2010.06.25/outbox.cif.g09.slc.cpg/sg10_37_cif.got.tgz:73736.got - 2010.06.27 22:07:45.
