data_PCOD8057658
_publ_section_title
;
Structure prediction by ZEFSAII (Michael W. Deem and Ramdas Pophale) SiO2 
 PCOD8057658
Probable space group: P 2/M
;
_chemical_formula_sum "Si O2"
_cell_formula_units_Z 32
_cell_length_a 15.878857
_cell_length_b 8.712968
_cell_length_c 16.070043
_cell_angle_alpha 90.000000
_cell_angle_beta 110.173219
_cell_angle_gamma 90.000000
_cell_volume 2086.930941
_symmetry_space_group_name_H-M "P 2/M"
_symmetry_group_IT_number 10
_symmetry_cell_setting 'monoclinic'
loop_
_space_group_symop_operation_xyz
x,y,z
-x,y,-z
-x,-y,-z
x,-y,z
loop_
_atom_site_type_symbol
_atom_site_label
_atom_site_fract_x
_atom_site_fract_y
_atom_site_fract_z
Si Si1 0.484115 0.831357 0.092055
Si Si2 0.828889 0.320847 0.324916
Si Si3 0.020039 0.321174 0.318312
Si Si4 0.866146 0.181000 0.972608
Si Si5 0.020848 0.319107 0.128745
Si Si6 0.694901 0.678752 0.989318
Si Si7 0.901460 0.827601 0.504018
Si Si8 0.320110 0.819429 0.836429
O O1 0.579593 0.775741 0.162394
O O2 0.457633 0.000000 0.117885
O O3 0.500000 0.843982 0.000000
O O4 0.403626 0.713200 0.082616
O O5 0.808680 0.500000 0.309373
O O6 0.836695 0.276295 0.424877
O O7 0.747587 0.225333 0.259059
O O8 0.918764 0.271840 0.306518
O O9 0.031884 0.500000 0.339290
O O10 0.039941 0.275175 0.230439
O O11 0.093633 0.235756 0.400296
O O12 0.764974 0.227695 0.957743
O O13 0.930187 0.235229 0.069291
O O14 0.874453 0.000000 0.964388
O O15 0.895153 0.262348 0.896726
O O16 0.006623 0.500000 0.112569
O O17 0.715801 0.500000 0.989292
O O18 0.703917 0.728161 0.088102
O O19 0.000000 0.819988 0.500000
O O20 0.863605 0.000000 0.492585
O O21 0.314614 0.000000 0.854654
#
# Coordination Sequence:
#
# PCOD8057658 Si02
#       8
#     4   4   4   4   4   4   4   4
#     4   8  16  30  44  60  84 112 140 174 214 254
#     4  10  18  28  43  63  88 116 146 176 210 253
#     4   9  18  30  44  61  83 113 144 177 216 255
#     4  11  21  32  45  62  86 115 147 181 218 256
#     4  10  19  32  47  64  87 112 144 184 221 255
#     4  11  20  30  45  63  84 113 148 181 215 254
#     4   9  17  28  42  60  83 111 143 178 212 249
#     4  10  19  30  44  63  88 115 144 177 214 256
#
# _framework density 15.333520999999999
#
# number of rings (size 3 to 8) (size 9 to 14) (size 15 to 20)
#    0.000    2.250    0.000    6.000    0.000    6.750 
#    0.000    0.000    0.000    0.000    0.000    0.000 
#    0.000    1.000    0.000   10.500    0.000    4.500 
#
# Total GULP energy -396773.682802 kJ/mol
# GULP energy per Si atom -12399.177588 kJ/mol
# Density = 1.529862 g / cm^3
# Si number density = 15.333521 Si / 1000 Ang^3
#
#
#
# Elastic Constant Matrix: (Units=GPa)
#
#
# Indices 1 2 3 4 5 6 
#
# 1 70.8927 16.7023 33.5870 0.0000 5.9661 0.0000
# 2 16.7023 55.5137 22.7348 0.0000 1.5245 0.0000
# 3 33.5870 22.7348 90.5616 0.0000 3.0780 0.0000
# 4 0.0000 0.0000 0.0000 21.5529 0.0000 2.5641
# 5 5.9661 1.5245 3.0780 0.0000 17.9865 0.0000
# 6 0.0000 0.0000 0.0000 2.5641 0.0000 21.5785
#
#
#
# Elastic Compliance Matrix: (Units=1/GPa)
#
#
# Indices 1 2 3 4 5 6 
#
# 1 0.017913 -0.002903 -0.005754 0.000000 -0.004711 0.000000
# 2 -0.002903 0.020561 -0.004082 0.000000 -0.000081 0.000000
# 3 -0.005754 -0.004082 0.014207 0.000000 -0.000177 0.000000
# 4 0.000000 0.000000 0.000000 0.047063 0.000000 -0.005592
# 5 -0.004711 -0.000081 -0.000177 0.000000 0.057197 0.000000
# 6 0.000000 0.000000 0.000000 -0.005592 0.000000 0.047007
#
#
# Mechanical properties :
#
#
# Convention : Reuss Voigt Hill
#
# Bulk Modulus (GPa) = 36.76324 40.33514 38.54919
# Shear Modulus (GPa) = 20.96489 21.81986 21.39237
#
# Velocity S-wave (km/s) = 3.70166 3.77638 3.73921
# Velocity P-wave (km/s) = 6.50365 6.73625 6.62097
#
# Compressibility (1/GPa) = 0.02720108
#
# Stress axis : x y z
#
# Youngs Moduli (GPa) = 55.82686 48.63554 70.38712
#
# Poissons Ratio (x) = 0.14120 0.40503
# Poissons Ratio (y) = 0.16208 0.28733
# Poissons Ratio (z) = 0.32125 0.19854
#
# Static dielectric constant tensor:
#      x y z
#    x 2.942450 0.000000 0.145790 
#    y 0.000000 3.027180 0.000000 
#    z 0.145790 0.000000 2.894310 
# 
# 
# High freq. dielectric constant tensor:
#      x y z
#    x 1.561860 0.000000 0.012890 
#    y 0.000000 1.602900 0.000000 
#    z 0.012890 0.000000 1.566810 
# 
# From -- ./inp_files/66191.got.cif
#   From: 2010.06.25/outbox.cif.g09.slc.cpg/sg10_34_cif.got.tgz:66191.got - 2010.06.27 22:07:45.
