data_PCOD8057697
_publ_section_title
;
Structure prediction by ZEFSAII (Michael W. Deem and Ramdas Pophale) SiO2 
 PCOD8057697
Probable space group: P 2/M
;
_chemical_formula_sum "Si O2"
_cell_formula_units_Z 30
_cell_length_a 11.986850
_cell_length_b 9.443223
_cell_length_c 17.692948
_cell_angle_alpha 90.000000
_cell_angle_beta 58.844076
_cell_angle_gamma 90.000000
_cell_volume 1713.873541
_symmetry_space_group_name_H-M "P 2/M"
_symmetry_group_IT_number 10
_symmetry_cell_setting 'monoclinic'
loop_
_space_group_symop_operation_xyz
x,y,z
-x,y,-z
-x,-y,-z
x,-y,z
loop_
_atom_site_type_symbol
_atom_site_label
_atom_site_fract_x
_atom_site_fract_y
_atom_site_fract_z
Si Si1 0.813481 0.840341 0.196440
Si Si2 0.024997 0.164099 0.725395
Si Si3 0.249922 0.344759 0.995713
Si Si4 0.266502 0.832744 0.132775
Si Si5 0.000000 0.753195 0.000000
Si Si6 0.684624 0.667030 0.742033
Si Si7 0.066754 0.833310 0.398287
Si Si8 0.403682 0.342584 0.792452
O O1 0.874690 0.764779 0.250488
O O2 0.677803 0.762373 0.230807
O O3 0.773011 0.000000 0.226680
O O4 0.915728 0.842032 0.090449
O O5 0.881093 0.208327 0.798589
O O6 0.038569 0.202969 0.631592
O O7 0.044373 0.000000 0.732702
O O8 0.259529 0.500000 0.030583
O O9 0.358543 0.327762 0.894249
O O10 0.291383 0.223185 0.039911
O O11 0.104315 0.336409 0.011498
O O12 0.346972 0.746301 0.167569
O O13 0.297748 0.000000 0.126211
O O14 0.712291 0.500000 0.745957
O O15 0.804028 0.739913 0.656035
O O16 0.557600 0.689588 0.734270
O O17 0.000000 0.792886 0.500000
O O18 0.104884 0.000000 0.380176
O O19 0.374685 0.500000 0.772635
#
# Coordination Sequence:
#
# PCOD8057697 Si02
#       8
#     4   4   4   4   2   4   4   4
#     4  10  18  29  48  71  98 133 173 212 251 298
#     4   8  15  29  47  72 102 128 156 202 254 297
#     4  10  19  31  46  66  95 136 180 216 254 297
#     4  10  19  32  49  71 100 131 169 218 262 299
#     4  10  18  28  44  70 100 134 172 220 258 286
#     4  10  20  36  54  72  99 133 168 206 252 307
#     4   9  18  34  58  84 106 127 155 200 259 314
#     4   9  21  36  47  66  99 138 175 212 251 295
#
# _framework density 17.504208999999999
#
# number of rings (size 3 to 8) (size 9 to 14) (size 15 to 20)
#    0.000    2.533    1.333    2.000    0.000    4.533 
#    0.000    3.333    0.000    0.800    0.000    5.600 
#    0.000    0.000    0.000    0.000    0.000    0.000 
#
# Total GULP energy -371692.815706 kJ/mol
# GULP energy per Si atom -12389.760524 kJ/mol
# Density = 1.746437 g / cm^3
# Si number density = 17.504209 Si / 1000 Ang^3
#
#
#
# Elastic Constant Matrix: (Units=GPa)
#
#
# Indices 1 2 3 4 5 6 
#
# 1 117.3194 61.1238 60.6982 0.0000 11.6114 0.0000
# 2 61.1238 104.5796 48.3023 0.0000 5.9108 0.0000
# 3 60.6982 48.3023 85.0771 0.0000 16.6918 0.0000
# 4 0.0000 0.0000 0.0000 17.8637 0.0000 -1.1680
# 5 11.6114 5.9108 16.6918 0.0000 23.4796 0.0000
# 6 0.0000 0.0000 0.0000 -1.1680 0.0000 22.0226
#
#
#
# Elastic Compliance Matrix: (Units=1/GPa)
#
#
# Indices 1 2 3 4 5 6 
#
# 1 0.015442 -0.005370 -0.007827 0.000000 -0.000720 0.000000
# 2 -0.005370 0.014934 -0.005150 0.000000 0.002557 0.000000
# 3 -0.007827 -0.005150 0.022368 0.000000 -0.010734 0.000000
# 4 0.000000 0.000000 0.000000 0.056174 0.000000 0.002979
# 5 -0.000720 0.002557 -0.010734 0.000000 0.049934 0.000000
# 6 0.000000 0.000000 0.000000 0.002979 0.000000 0.045566
#
#
# Mechanical properties :
#
#
# Convention : Reuss Voigt Hill
#
# Bulk Modulus (GPa) = 62.29876 71.91385 67.10631
# Shear Modulus (GPa) = 20.28703 21.79666 21.04184
#
# Velocity S-wave (km/s) = 3.40807 3.53260 3.47090
# Velocity P-wave (km/s) = 7.15224 7.60342 7.38128
#
# Compressibility (1/GPa) = 0.01605168
#
# Stress axis : x y z
#
# Youngs Moduli (GPa) = 64.75703 66.95915 44.70622
#
# Poissons Ratio (x) = 0.35955 0.34993
# Poissons Ratio (y) = 0.34772 0.23022
# Poissons Ratio (z) = 0.50688 0.34482
#
# Static dielectric constant tensor:
#      x y z
#    x 3.297330 0.000000 0.181720 
#    y 0.000000 3.179440 0.000000 
#    z 0.181720 0.000000 3.058430 
# 
# 
# High freq. dielectric constant tensor:
#      x y z
#    x 1.680310 0.000000 0.012240 
#    y 0.000000 1.671140 0.000000 
#    z 0.012240 0.000000 1.642280 
# 
# From -- ./inp_files/76187.got.cif
#   From: 2010.06.25/outbox.cif.g09.slc.cpg/sg10_39_cif.got.tgz:76187.got - 2010.06.27 22:07:45.
