data_PCOD8057193
_publ_section_title
;
Structure prediction by ZEFSAII (Michael W. Deem and Ramdas Pophale) SiO2 
 PCOD8057193
Probable space group: P 2/M
;
_chemical_formula_sum "Si O2"
_cell_formula_units_Z 32
_cell_length_a 26.419953
_cell_length_b 9.164308
_cell_length_c 21.516366
_cell_angle_alpha 90.000000
_cell_angle_beta 20.358312
_cell_angle_gamma 90.000000
_cell_volume 1812.352120
_symmetry_space_group_name_H-M "P 2/M"
_symmetry_group_IT_number 10
_symmetry_cell_setting 'monoclinic'
loop_
_space_group_symop_operation_xyz
x,y,z
-x,y,-z
-x,-y,-z
x,-y,z
loop_
_atom_site_type_symbol
_atom_site_label
_atom_site_fract_x
_atom_site_fract_y
_atom_site_fract_z
Si Si1 0.177012 0.328060 0.991996
Si Si2 0.551923 0.169470 0.370901
Si Si3 0.372611 0.828529 0.011770
Si Si4 0.326375 0.838668 0.199111
Si Si5 0.676968 0.672806 0.678335
Si Si6 0.689052 0.334960 0.033694
Si Si7 0.148153 0.672965 0.641212
Si Si8 0.602738 0.667939 0.557051
O O1 0.197806 0.500000 0.956448
O O2 0.291692 0.244918 0.816980
O O3 0.203672 0.291682 0.033736
O O4 0.016240 0.271253 0.159350
O O5 0.500000 0.198217 0.500000
O O6 0.430785 0.236534 0.464779
O O7 0.568374 0.000000 0.336422
O O8 0.523757 0.743180 0.837876
O O9 0.279148 0.771977 0.060739
O O10 0.404480 0.000000 0.969084
O O11 0.281695 0.795280 0.179866
O O12 0.265266 0.726079 0.320600
O O13 0.267277 0.000000 0.283704
O O14 0.500000 0.839170 0.000000
O O15 0.657901 0.500000 0.701543
O O16 0.792218 0.726288 0.494066
O O17 0.718366 0.500000 0.978074
O O18 0.523378 0.316548 0.246784
O O19 0.151243 0.500000 0.637281
O O20 0.249363 0.728226 0.581431
O O21 0.617525 0.500000 0.518805
#
# Coordination Sequence:
#
# PCOD8057193 Si02
#       8
#     4   4   4   4   4   4   4   4
#     4   9  19  35  55  76 101 132 164 201 246 294
#     4  10  21  37  55  77 106 135 164 200 238 281
#     4  10  18  27  42  64  94 129 164 205 249 293
#     4   8  16  28  38  58  92 126 163 205 247 292
#     4  10  17  27  45  68  95 125 159 202 252 297
#     4   9  16  28  47  72  96 122 162 209 248 288
#     4   9  17  32  52  76 104 129 159 206 254 293
#     4   9  17  32  54  78 102 129 165 205 243 290
#
# _framework density 17.656613
#
# number of rings (size 3 to 8) (size 9 to 14) (size 15 to 20)
#    0.000    2.750    1.250    2.625    0.000    5.750 
#    0.000    2.500    0.000    4.500    0.000    5.250 
#    0.000    0.000    0.000    0.000    0.000    0.000 
#
# Total GULP energy -396676.116377 kJ/mol
# GULP energy per Si atom -12396.128637 kJ/mol
# Density = 1.761643 g / cm^3
# Si number density = 17.656613 Si / 1000 Ang^3
#
#
#
# Elastic Constant Matrix: (Units=GPa)
#
#
# Indices 1 2 3 4 5 6 
#
# 1 117.9915 55.9301 58.7823 0.0000 2.5689 0.0000
# 2 55.9301 79.6295 37.1763 0.0000 8.3844 0.0000
# 3 58.7823 37.1763 90.7580 0.0000 -11.1077 0.0000
# 4 0.0000 0.0000 0.0000 6.6457 0.0000 6.8586
# 5 2.5689 8.3844 -11.1077 0.0000 25.1584 0.0000
# 6 0.0000 0.0000 0.0000 6.8586 0.0000 30.3537
#
#
#
# Elastic Compliance Matrix: (Units=1/GPa)
#
#
# Indices 1 2 3 4 5 6 
#
# 1 0.015715 -0.007271 -0.007505 0.000000 -0.002495 0.000000
# 2 -0.007271 0.020795 -0.004826 0.000000 -0.008319 0.000000
# 3 -0.007505 -0.004826 0.019184 0.000000 0.010845 0.000000
# 4 0.000000 0.000000 0.000000 0.196236 0.000000 -0.044341
# 5 -0.002495 -0.008319 0.010845 0.000000 0.047563 0.000000
# 6 0.000000 0.000000 0.000000 -0.044341 0.000000 0.042964
#
#
# Mechanical properties :
#
#
# Convention : Reuss Voigt Hill
#
# Bulk Modulus (GPa) = 60.65319 65.79517 63.22418
# Shear Modulus (GPa) = 12.91459 21.53091 17.22275
#
# Velocity S-wave (km/s) = 2.70743 3.49581 3.12657
# Velocity P-wave (km/s) = 6.64829 7.32386 6.99423
#
# Compressibility (1/GPa) = 0.01648718
#
# Stress axis : x y z
#
# Youngs Moduli (GPa) = 63.63160 48.08931 52.12760
#
# Poissons Ratio (x) = 0.34968 0.39124
# Poissons Ratio (y) = 0.46269 0.25159
# Poissons Ratio (z) = 0.47758 0.23210
#
# Static dielectric constant tensor:
#      x y z
#    x 3.541420 0.000000 -0.051200 
#    y 0.000000 3.202880 0.000000 
#    z -0.051200 0.000000 3.086560 
# 
# 
# High freq. dielectric constant tensor:
#      x y z
#    x 1.690080 0.000000 0.001320 
#    y 0.000000 1.672790 0.000000 
#    z 0.001320 0.000000 1.644700 
# 
# From -- ./inp_files/91220.got.cif
#   From: 2010.06.25/outbox.cif.g09.slc.cpg/sg10_46_cif.got.tgz:91220.got - 2010.06.27 22:07:45.
