data_PCOD8057987
_publ_section_title
;
Structure prediction by ZEFSAII (Michael W. Deem and Ramdas Pophale) SiO2 
 PCOD8057987
Probable space group: P 2/M
;
_chemical_formula_sum "Si O2"
_cell_formula_units_Z 32
_cell_length_a 21.327636
_cell_length_b 13.346690
_cell_length_c 18.585570
_cell_angle_alpha 90.000000
_cell_angle_beta 20.650966
_cell_angle_gamma 90.000000
_cell_volume 1865.803121
_symmetry_space_group_name_H-M "P 2/M"
_symmetry_group_IT_number 10
_symmetry_cell_setting 'monoclinic'
loop_
_space_group_symop_operation_xyz
x,y,z
-x,y,-z
-x,-y,-z
x,-y,z
loop_
_atom_site_type_symbol
_atom_site_label
_atom_site_fract_x
_atom_site_fract_y
_atom_site_fract_z
Si Si1 0.167841 0.386366 0.012698
Si Si2 0.485908 0.881144 0.241969
Si Si3 0.989272 0.114356 0.430371
Si Si4 0.851060 0.802193 0.877703
Si Si5 0.113539 0.114634 0.708068
Si Si6 0.462117 0.382982 0.460564
Si Si7 0.085172 0.299803 0.831024
Si Si8 0.419065 0.885792 0.157976
O O1 0.158156 0.500000 0.051370
O O2 0.122442 0.313430 0.128123
O O3 0.021443 0.373280 0.107612
O O4 0.364367 0.360553 0.773137
O O5 0.306010 0.849426 0.474682
O O6 0.487384 0.836662 0.158761
O O7 0.501271 0.000000 0.223229
O O8 0.648568 0.833827 0.110942
O O9 0.791271 0.120358 0.614489
O O10 0.000000 0.156488 0.500000
O O11 0.108612 0.183046 0.250220
O O12 0.061778 0.000000 0.350535
O O13 0.976223 0.874699 0.789849
O O14 0.059145 0.185220 0.832953
O O15 0.113272 0.000000 0.735017
O O16 0.500000 0.341921 0.500000
O O17 0.416430 0.500000 0.512577
O O18 0.293200 0.326952 0.608015
O O19 0.000000 0.312805 0.000000
O O20 0.486294 0.000000 0.084183
O O21 0.500000 0.831024 0.000000
#
# Coordination Sequence:
#
# PCOD8057987 Si02
#       8
#     4   4   4   4   4   4   4   4
#     4  10  22  37  54  78 103 129 164 212 262 310
#     4  10  18  30  49  70  99 136 170 203 243 295
#     4  10  18  29  48  76 107 135 170 210 246 290
#     4  11  20  33  53  74 102 135 172 208 254 302
#     4  10  21  35  49  70 103 139 173 205 240 296
#     4  10  19  33  55  79 103 126 158 212 270 314
#     4  11  21  34  55  78 101 131 167 207 254 306
#     4   9  16  26  41  68 103 133 162 201 244 283
#
# _framework density 17.150793
#
# number of rings (size 3 to 8) (size 9 to 14) (size 15 to 20)
#    0.000    1.875    2.500    3.000    0.000    2.750 
#    0.000    0.000    0.000    0.750    0.000    0.000 
#    0.000    2.000    0.000    0.000    0.000    0.000 
#
# Total GULP energy -396796.809757 kJ/mol
# GULP energy per Si atom -12399.900305 kJ/mol
# Density = 1.711176 g / cm^3
# Si number density = 17.150793 Si / 1000 Ang^3
#
#
#
# Elastic Constant Matrix: (Units=GPa)
#
#
# Indices 1 2 3 4 5 6 
#
# 1 82.5541 30.3005 33.5449 0.0000 -4.9761 0.0000
# 2 30.3005 62.5870 28.7280 0.0000 8.4842 0.0000
# 3 33.5449 28.7280 75.6577 0.0000 -15.0642 0.0000
# 4 0.0000 0.0000 0.0000 22.0011 0.0000 0.5982
# 5 -4.9761 8.4842 -15.0642 0.0000 34.4435 0.0000
# 6 0.0000 0.0000 0.0000 0.5982 0.0000 12.9959
#
#
#
# Elastic Compliance Matrix: (Units=1/GPa)
#
#
# Indices 1 2 3 4 5 6 
#
# 1 0.016298 -0.006047 -0.004562 0.000000 0.001849 0.000000
# 2 -0.006047 0.024337 -0.008684 0.000000 -0.010666 0.000000
# 3 -0.004562 -0.008684 0.020628 0.000000 0.010502 0.000000
# 4 0.000000 0.000000 0.000000 0.045509 0.000000 -0.002095
# 5 0.001849 -0.010666 0.010502 0.000000 0.036521 0.000000
# 6 0.000000 0.000000 0.000000 -0.002095 0.000000 0.077043
#
#
# Mechanical properties :
#
#
# Convention : Reuss Voigt Hill
#
# Bulk Modulus (GPa) = 44.09523 45.10508 44.60016
# Shear Modulus (GPa) = 18.76303 22.43647 20.59975
#
# Velocity S-wave (km/s) = 3.31116 3.62081 3.46944
# Velocity P-wave (km/s) = 6.35488 6.62092 6.48926
#
# Compressibility (1/GPa) = 0.02267819
#
# Stress axis : x y z
#
# Youngs Moduli (GPa) = 61.35777 41.08940 48.47683
#
# Poissons Ratio (x) = 0.24847 0.22114
# Poissons Ratio (y) = 0.37103 0.42096
# Poissons Ratio (z) = 0.27990 0.35681
#
# Static dielectric constant tensor:
#      x y z
#    x 3.282730 0.000000 -0.098720 
#    y 0.000000 2.868740 0.000000 
#    z -0.098720 0.000000 3.295120 
# 
# 
# High freq. dielectric constant tensor:
#      x y z
#    x 1.666800 0.000000 -0.012950 
#    y 0.000000 1.618860 0.000000 
#    z -0.012950 0.000000 1.674850 
# 
# From -- ./inp_files/79703.got.cif
#   From: 2010.06.25/outbox.cif.g09.slc.cpg/sg10_40_cif.got.tgz:79703.got - 2010.06.27 22:07:45.
