data_PCOD8057248
_publ_section_title
;
Structure prediction by ZEFSAII (Michael W. Deem and Ramdas Pophale) SiO2 
 PCOD8057248
Probable space group: P 2/M
;
_chemical_formula_sum "Si O2"
_cell_formula_units_Z 32
_cell_length_a 20.174140
_cell_length_b 9.322134
_cell_length_c 19.909640
_cell_angle_alpha 90.000000
_cell_angle_beta 30.213995
_cell_angle_gamma 90.000000
_cell_volume 1884.261605
_symmetry_space_group_name_H-M "P 2/M"
_symmetry_group_IT_number 10
_symmetry_cell_setting 'monoclinic'
loop_
_space_group_symop_operation_xyz
x,y,z
-x,y,-z
-x,-y,-z
x,-y,z
loop_
_atom_site_type_symbol
_atom_site_label
_atom_site_fract_x
_atom_site_fract_y
_atom_site_fract_z
Si Si1 0.366577 0.829473 0.355750
Si Si2 0.346877 0.829957 0.850083
Si Si3 0.102604 0.666113 0.814816
Si Si4 0.682423 0.829411 0.889315
Si Si5 0.396574 0.829361 0.182137
Si Si6 0.187979 0.665939 0.886486
Si Si7 0.863299 0.170823 0.346444
Si Si8 0.148821 0.170399 0.138827
O O1 0.506450 0.775611 0.261568
O O2 0.344398 0.769720 0.299213
O O3 0.249408 0.771352 0.504957
O O4 0.365121 0.000000 0.355909
O O5 0.303248 0.760334 0.818020
O O6 0.341449 0.000000 0.847249
O O7 0.248821 0.774725 0.994166
O O8 0.110415 0.500000 0.787478
O O9 0.187685 0.695195 0.807112
O O10 0.163782 0.762755 0.702709
O O11 0.951918 0.711791 0.959585
O O12 0.695349 0.777435 0.800088
O O13 0.801490 0.771543 0.831823
O O14 0.681594 0.000000 0.891972
O O15 0.544901 0.773207 0.040474
O O16 0.398579 0.000000 0.182622
O O17 0.215664 0.500000 0.877088
O O18 0.002525 0.228733 0.253102
O O19 0.861342 0.000000 0.341525
O O20 0.147645 0.000000 0.139824
#
# Coordination Sequence:
#
# PCOD8057248 Si02
#       8
#     4   4   4   4   4   4   4   4
#     4   9  17  28  41  62  95 127 151 182 227 270
#     4  10  17  28  47  69  92 119 151 186 224 266
#     4   9  18  33  50  68  92 119 146 183 230 272
#     4   8  12  19  35  58  85 118 154 186 217 262
#     4   8  12  20  35  56  85 122 154 179 219 269
#     4   9  18  32  50  71  92 113 145 191 231 264
#     4  10  19  30  45  67  95 123 150 185 227 269
#     4   9  15  24  39  63  90 115 150 190 221 255
#
# _framework density 16.982779000000001
#
# number of rings (size 3 to 8) (size 9 to 14) (size 15 to 20)
#    0.000    3.000    2.500    1.500    0.000    0.500 
#    0.000    3.125    0.000    7.500    0.000    0.000 
#    0.000    6.000    0.000    0.000    0.000    0.000 
#
# Total GULP energy -396587.456858 kJ/mol
# GULP energy per Si atom -12393.358027 kJ/mol
# Density = 1.694413 g / cm^3
# Si number density = 16.982779 Si / 1000 Ang^3
#
#
#
# Elastic Constant Matrix: (Units=GPa)
#
#
# Indices 1 2 3 4 5 6 
#
# 1 152.6864 28.2862 71.6111 0.0000 9.3499 0.0000
# 2 28.2862 17.1563 19.7953 0.0000 4.1410 0.0000
# 3 71.6111 19.7953 118.8279 0.0000 7.9838 0.0000
# 4 0.0000 0.0000 0.0000 10.2299 0.0000 -1.6449
# 5 9.3499 4.1410 7.9838 0.0000 28.1399 0.0000
# 6 0.0000 0.0000 0.0000 -1.6449 0.0000 2.2527
#
#
#
# Elastic Compliance Matrix: (Units=1/GPa)
#
#
# Indices 1 2 3 4 5 6 
#
# 1 0.011090 -0.012988 -0.004486 0.000000 -0.000501 0.000000
# 2 -0.012988 0.088889 -0.006516 0.000000 -0.006916 0.000000
# 3 -0.004486 -0.006516 0.012274 0.000000 -0.001033 0.000000
# 4 0.000000 0.000000 0.000000 0.110757 0.000000 0.080875
# 5 -0.000501 -0.006916 -0.001033 0.000000 0.037014 0.000000
# 6 0.000000 0.000000 0.000000 0.080875 0.000000 0.502964
#
#
# Mechanical properties :
#
#
# Convention : Reuss Voigt Hill
#
# Bulk Modulus (GPa) = 15.55865 58.67287 37.11576
# Shear Modulus (GPa) = 6.00679 19.38971 12.69825
#
# Velocity S-wave (km/s) = 1.88273 3.38261 2.73740
# Velocity P-wave (km/s) = 3.72928 7.06254 5.64744
#
# Compressibility (1/GPa) = 0.06427294
#
# Stress axis : x y z
#
# Youngs Moduli (GPa) = 90.17031 11.25003 81.47278
#
# Poissons Ratio (x) = 0.14611 0.36550
# Poissons Ratio (y) = 1.17109 0.53089
# Poissons Ratio (z) = 0.40452 0.07331
#
# Static dielectric constant tensor:
#      x y z
#    x 3.528160 0.000000 0.054950 
#    y 0.000000 2.588530 0.000000 
#    z 0.054950 0.000000 3.152010 
# 
# 
# High freq. dielectric constant tensor:
#      x y z
#    x 1.674630 0.000000 0.006180 
#    y 0.000000 1.594220 0.000000 
#    z 0.006180 0.000000 1.632080 
# 
# From -- ./inp_files/78962.got.cif
#   From: 2010.06.25/outbox.cif.g09.slc.cpg/sg10_40_cif.got.tgz:78962.got - 2010.06.27 22:07:45.
