data_PCOD8057659
_publ_section_title
;
Structure prediction by ZEFSAII (Michael W. Deem and Ramdas Pophale) SiO2 
 PCOD8057659
Probable space group: P 2/M
;
_chemical_formula_sum "Si O2"
_cell_formula_units_Z 32
_cell_length_a 23.760898
_cell_length_b 8.781879
_cell_length_c 19.336419
_cell_angle_alpha 90.000000
_cell_angle_beta 151.628372
_cell_angle_gamma 90.000000
_cell_volume 1917.309948
_symmetry_space_group_name_H-M "P 2/M"
_symmetry_group_IT_number 10
_symmetry_cell_setting 'monoclinic'
loop_
_space_group_symop_operation_xyz
x,y,z
-x,y,-z
-x,-y,-z
x,-y,z
loop_
_atom_site_type_symbol
_atom_site_label
_atom_site_fract_x
_atom_site_fract_y
_atom_site_fract_z
Si Si1 0.701383 0.671134 0.839403
Si Si2 0.239536 0.821673 0.962810
Si Si3 0.411884 0.819050 0.846562
Si Si4 0.156010 0.181085 0.620705
Si Si5 0.498493 0.179072 0.794106
Si Si6 0.625807 0.681452 0.616210
Si Si7 0.082002 0.680361 0.680667
Si Si8 0.428040 0.329704 0.585899
O O1 0.750922 0.500000 0.902901
O O2 0.719539 0.726882 0.778503
O O3 0.562086 0.673725 0.703908
O O4 0.770236 0.782847 0.966143
O O5 0.139133 0.727196 0.815000
O O6 0.219429 0.000000 0.929549
O O7 0.366834 0.765591 0.071829
O O8 0.278801 0.767615 0.719182
O O9 0.449907 0.751119 0.813270
O O10 0.421505 0.000000 0.856139
O O11 0.500000 0.752293 0.000000
O O12 0.155235 0.238551 0.698745
O O13 0.052770 0.261132 0.465398
O O14 0.138508 0.000000 0.601137
O O15 0.413747 0.229258 0.639267
O O16 0.494938 0.000000 0.793518
O O17 0.500000 0.755868 0.500000
O O18 0.614008 0.500000 0.603177
O O19 0.655004 0.731886 0.568056
O O20 0.084707 0.500000 0.673179
O O21 0.390327 0.500000 0.565692
#
# Coordination Sequence:
#
# PCOD8057659 Si02
#       8
#     4   4   4   4   4   4   4   4
#     4   8  13  22  36  55  80 110 144 179 213 248
#     4  10  18  28  43  63  88 117 148 178 211 253
#     4   9  17  30  48  67  87 113 143 174 210 253
#     4  10  19  33  52  69  85 109 143 178 212 253
#     4   9  17  28  42  62  87 114 145 180 215 252
#     4   7  10  18  33  51  74 108 145 175 205 247
#     4  11  21  33  48  65  88 113 140 177 218 257
#     4   8  13  22  36  54  78 111 147 177 208 249
#
# _framework density 16.690049999999999
#
# number of rings (size 3 to 8) (size 9 to 14) (size 15 to 20)
#    0.000    3.000    0.000    4.875    0.000    2.500 
#    0.000    1.875    0.000    6.375    0.000    0.000 
#    0.000    1.000    0.000   11.500    0.000    6.625 
#
# Total GULP energy -396471.758483 kJ/mol
# GULP energy per Si atom -12389.742453 kJ/mol
# Density = 1.665206 g / cm^3
# Si number density = 16.690050 Si / 1000 Ang^3
#
#
#
# Elastic Constant Matrix: (Units=GPa)
#
#
# Indices 1 2 3 4 5 6 
#
# 1 82.8579 15.2107 64.1012 0.0000 -25.5024 0.0000
# 2 15.2107 40.9997 26.6876 0.0000 -2.4329 0.0000
# 3 64.1012 26.6876 105.0696 0.0000 -30.3881 0.0000
# 4 0.0000 0.0000 0.0000 20.5901 0.0000 -9.7321
# 5 -25.5024 -2.4329 -30.3881 0.0000 30.6160 0.0000
# 6 0.0000 0.0000 0.0000 -9.7321 0.0000 15.4963
#
#
#
# Elastic Compliance Matrix: (Units=1/GPa)
#
#
# Indices 1 2 3 4 5 6 
#
# 1 0.024086 -0.000450 -0.012326 0.000000 0.007793 0.000000
# 2 -0.000450 0.030366 -0.009607 0.000000 -0.007497 0.000000
# 3 -0.012326 -0.009607 0.022845 0.000000 0.011644 0.000000
# 4 0.000000 0.000000 0.000000 0.069070 0.000000 0.043378
# 5 0.007793 -0.007497 0.011644 0.000000 0.050116 0.000000
# 6 0.000000 0.000000 0.000000 0.043378 0.000000 0.091774
#
#
# Mechanical properties :
#
#
# Convention : Reuss Voigt Hill
#
# Bulk Modulus (GPa) = 30.73959 48.99179 39.86569
# Shear Modulus (GPa) = 14.54056 21.53566 18.03811
#
# Velocity S-wave (km/s) = 2.95483 3.59601 3.29107
# Velocity P-wave (km/s) = 5.48628 6.83077 6.19510
#
# Compressibility (1/GPa) = 0.03253134
#
# Stress axis : x y z
#
# Youngs Moduli (GPa) = 41.51801 32.93198 43.77245
#
# Poissons Ratio (x) = 0.01482 0.53955
# Poissons Ratio (y) = 0.01868 0.42050
# Poissons Ratio (z) = 0.51177 0.31636
#
# Static dielectric constant tensor:
#      x y z
#    x 3.185700 0.000000 -0.462710 
#    y 0.000000 2.917730 0.000000 
#    z -0.462710 0.000000 3.215010 
# 
# 
# High freq. dielectric constant tensor:
#      x y z
#    x 1.612320 0.000000 -0.044100 
#    y 0.000000 1.622950 0.000000 
#    z -0.044100 0.000000 1.631790 
# 
# From -- ./inp_files/79960.got.cif
#   From: 2010.06.25/outbox.cif.g09.slc.cpg/sg10_40_cif.got.tgz:79960.got - 2010.06.27 22:07:45.
