data_PCOD8057061
_publ_section_title
;
Structure prediction by ZEFSAII (Michael W. Deem and Ramdas Pophale) SiO2 
 PCOD8057061
Probable space group: P 2/M
;
_chemical_formula_sum "Si O2"
_cell_formula_units_Z 32
_cell_length_a 18.659947
_cell_length_b 8.496119
_cell_length_c 13.909127
_cell_angle_alpha 90.000000
_cell_angle_beta 68.823087
_cell_angle_gamma 90.000000
_cell_volume 2056.200558
_symmetry_space_group_name_H-M "P 2/M"
_symmetry_group_IT_number 10
_symmetry_cell_setting 'monoclinic'
loop_
_space_group_symop_operation_xyz
x,y,z
-x,y,-z
-x,-y,-z
x,-y,z
loop_
_atom_site_type_symbol
_atom_site_label
_atom_site_fract_x
_atom_site_fract_y
_atom_site_fract_z
Si Si1 0.734492 0.686695 0.776968
Si Si2 0.732984 0.184214 0.990616
Si Si3 0.966807 0.686448 0.159756
Si Si4 0.575809 0.183357 0.850999
Si Si5 0.964551 0.312558 0.372733
Si Si6 0.883477 0.686964 0.597738
Si Si7 0.879712 0.686307 0.016920
Si Si8 0.577854 0.315771 0.061443
O O1 0.733773 0.500000 0.782596
O O2 0.654434 0.746204 0.768966
O O3 0.802381 0.752326 0.675565
O O4 0.749305 0.749848 0.876644
O O5 0.803382 0.221364 0.026152
O O6 0.657138 0.266305 0.075087
O O7 0.718638 0.000000 0.991130
O O8 0.969026 0.500000 0.161223
O O9 0.947373 0.756626 0.274718
O O10 0.901788 0.737990 0.115000
O O11 0.051333 0.742779 0.086058
O O12 0.499286 0.265911 0.842649
O O13 0.571990 0.000000 0.830952
O O14 0.577888 0.217299 0.963127
O O15 0.965476 0.500000 0.368694
O O16 0.899471 0.255373 0.480273
O O17 0.047918 0.251410 0.367099
O O18 0.882598 0.500000 0.600990
O O19 0.865612 0.500000 0.015300
O O20 0.576481 0.500000 0.039548
#
# Coordination Sequence:
#
# PCOD8057061 Si02
#       8
#     4   4   4   4   4   4   4   4
#     4  10  17  26  39  57  79 107 138 169 197 232
#     4  11  20  28  38  56  80 108 135 166 201 237
#     4   8  14  24  41  59  80 105 134 168 204 238
#     4  10  17  26  38  55  79 106 132 161 194 235
#     4   8  12  21  35  57  83 106 129 165 208 238
#     4   8  14  21  35  58  83 104 131 167 203 235
#     4   9  16  27  41  60  79 103 136 170 201 237
#     4  10  17  27  41  56  75 103 134 164 193 232
#
# _framework density 15.562685
#
# number of rings (size 3 to 8) (size 9 to 14) (size 15 to 20)
#    0.000    2.750    0.000    8.250    0.000    2.000 
#    0.000    1.250    0.000    0.000    0.000   18.375 
#    0.000    1.000    0.000   11.750    0.000    2.250 
#
# Total GULP energy -396519.995882 kJ/mol
# GULP energy per Si atom -12391.249871 kJ/mol
# Density = 1.552726 g / cm^3
# Si number density = 15.562685 Si / 1000 Ang^3
#
#
#
# Elastic Constant Matrix: (Units=GPa)
#
#
# Indices 1 2 3 4 5 6 
#
# 1 129.5390 26.7247 64.6536 0.0000 -20.3829 0.0000
# 2 26.7247 51.1824 17.9294 0.0000 -4.7042 0.0000
# 3 64.6536 17.9294 100.7814 0.0000 -6.8230 0.0000
# 4 0.0000 0.0000 0.0000 0.4173 0.0000 1.1288
# 5 -20.3829 -4.7042 -6.8230 0.0000 26.7563 0.0000
# 6 0.0000 0.0000 0.0000 1.1288 0.0000 13.1169
#
#
#
# Elastic Compliance Matrix: (Units=1/GPa)
#
#
# Indices 1 2 3 4 5 6 
#
# 1 0.013385 -0.003689 -0.007412 0.000000 0.007658 0.000000
# 2 -0.003689 0.022056 -0.001511 0.000000 0.000682 0.000000
# 3 -0.007412 -0.001511 0.014802 0.000000 -0.002138 0.000000
# 4 0.000000 0.000000 0.000000 3.122919 0.000000 -0.268737
# 5 0.007658 0.000682 -0.002138 0.000000 0.042783 0.000000
# 6 0.000000 0.000000 0.000000 -0.268737 0.000000 0.099363
#
#
# Mechanical properties :
#
#
# Convention : Reuss Voigt Hill
#
# Bulk Modulus (GPa) = 39.97018 55.56869 47.76943
# Shear Modulus (GPa) = 1.49304 19.53779 10.51541
#
# Velocity S-wave (km/s) = 0.98054 3.54704 2.60221
# Velocity P-wave (km/s) = 5.19818 7.24977 6.30794
#
# Compressibility (1/GPa) = 0.02501865
#
# Stress axis : x y z
#
# Youngs Moduli (GPa) = 74.70990 45.33895 67.55991
#
# Poissons Ratio (x) = 0.16724 0.50077
# Poissons Ratio (y) = 0.27557 0.10211
# Poissons Ratio (z) = 0.55376 0.06852
#
# Static dielectric constant tensor:
#      x y z
#    x 3.419740 0.000000 -0.283780 
#    y 0.000000 2.703970 0.000000 
#    z -0.283780 0.000000 3.117660 
# 
# 
# High freq. dielectric constant tensor:
#      x y z
#    x 1.597090 0.000000 -0.022160 
#    y 0.000000 1.579360 0.000000 
#    z -0.022160 0.000000 1.556650 
# 
# From -- ./inp_files/68224.got.cif
#   From: 2010.06.25/outbox.cif.g09.slc.cpg/sg10_35_cif.got.tgz:68224.got - 2010.06.27 22:07:45.
