data_PCOD8057227
_publ_section_title
;
Structure prediction by ZEFSAII (Michael W. Deem and Ramdas Pophale) SiO2 
 PCOD8057227
Probable space group: P 2/M
;
_chemical_formula_sum "Si O2"
_cell_formula_units_Z 32
_cell_length_a 15.252829
_cell_length_b 8.803798
_cell_length_c 31.125228
_cell_angle_alpha 90.000000
_cell_angle_beta 28.634992
_cell_angle_gamma 90.000000
_cell_volume 2002.973366
_symmetry_space_group_name_H-M "P 2/M"
_symmetry_group_IT_number 10
_symmetry_cell_setting 'monoclinic'
loop_
_space_group_symop_operation_xyz
x,y,z
-x,y,-z
-x,-y,-z
x,-y,z
loop_
_atom_site_type_symbol
_atom_site_label
_atom_site_fract_x
_atom_site_fract_y
_atom_site_fract_z
Si Si1 0.671126 0.680843 0.703594
Si Si2 0.278024 0.679824 0.892750
Si Si3 0.635432 0.680117 0.621523
Si Si4 0.327097 0.320053 0.630979
Si Si5 0.046966 0.680843 0.578314
Si Si6 0.265505 0.178900 0.744832
Si Si7 0.047130 0.320053 0.910945
Si Si8 0.734297 0.320176 0.436477
O O1 0.678121 0.500000 0.701542
O O2 0.486265 0.741134 0.806531
O O3 0.672325 0.736644 0.653939
O O4 0.847578 0.748667 0.652422
O O5 0.276466 0.500000 0.891500
O O6 0.189619 0.735688 0.886084
O O7 0.156553 0.730836 0.985925
O O8 0.611194 0.500000 0.629602
O O9 0.806467 0.736645 0.519797
O O10 0.451158 0.751112 0.682948
O O11 0.313245 0.500000 0.644261
O O12 0.228154 0.234387 0.712398
O O13 0.537491 0.264313 0.538212
O O14 0.229119 0.269164 0.628403
O O15 0.039132 0.500000 0.581205
O O16 0.107876 0.741134 0.599327
O O17 0.093503 0.234387 0.847050
O O18 0.278597 0.000000 0.740468
O O19 0.059271 0.500000 0.898234
O O20 0.727433 0.500000 0.440534
#
# Coordination Sequence:
#
# PCOD8057227 Si02
#       8
#     4   4   4   4   4   4   4   4
#     4   9  15  23  41  70  94 112 143 183 214 245
#     4   8  14  25  44  67  86 110 144 181 216 255
#     4  10  17  28  44  62  90 125 153 173 202 251
#     4   9  16  29  47  63  84 114 147 178 216 266
#     4   9  15  23  41  70  94 112 143 183 214 245
#     4  12  22  29  41  65  91 117 148 184 222 254
#     4   9  16  29  47  63  84 114 147 178 216 266
#     4   8  14  25  44  67  86 110 144 181 216 255
#
# _framework density 15.976248
#
# number of rings (size 3 to 8) (size 9 to 14) (size 15 to 20)
#    0.000    2.750    2.500    3.000    0.000    1.500 
#    0.000    2.500    0.000    1.500    0.000    0.875 
#    0.000    7.000    0.000    0.000    0.000    0.000 
#
# Total GULP energy -396575.001702 kJ/mol
# GULP energy per Si atom -12392.968803 kJ/mol
# Density = 1.593989 g / cm^3
# Si number density = 15.976248 Si / 1000 Ang^3
#
#
#
# Elastic Constant Matrix: (Units=GPa)
#
#
# Indices 1 2 3 4 5 6 
#
# 1 121.6293 16.1776 75.9788 0.0000 7.9602 0.0000
# 2 16.1776 25.3024 18.8569 0.0000 4.8375 0.0000
# 3 75.9788 18.8569 130.5689 0.0000 8.1819 0.0000
# 4 0.0000 0.0000 0.0000 2.3110 0.0000 -0.9317
# 5 7.9602 4.8375 8.1819 0.0000 25.4297 0.0000
# 6 0.0000 0.0000 0.0000 -0.9317 0.0000 2.8269
#
#
#
# Elastic Compliance Matrix: (Units=1/GPa)
#
#
# Indices 1 2 3 4 5 6 
#
# 1 0.013160 -0.002827 -0.007170 0.000000 -0.001275 0.000000
# 2 -0.002827 0.045974 -0.004595 0.000000 -0.006382 0.000000
# 3 -0.007170 -0.004595 0.012552 0.000000 -0.000920 0.000000
# 4 0.000000 0.000000 0.000000 0.499033 0.000000 0.164477
# 5 -0.001275 -0.006382 -0.000920 0.000000 0.041233 0.000000
# 6 0.000000 0.000000 0.000000 0.164477 0.000000 0.407951
#
#
# Mechanical properties :
#
#
# Convention : Reuss Voigt Hill
#
# Bulk Modulus (GPa) = 23.52759 55.50302 39.51531
# Shear Modulus (GPa) = 4.70255 17.21267 10.95761
#
# Velocity S-wave (km/s) = 1.71751 3.28593 2.62175
# Velocity P-wave (km/s) = 4.32339 7.01518 5.82686
#
# Compressibility (1/GPa) = 0.04250329
#
# Stress axis : x y z
#
# Youngs Moduli (GPa) = 75.98879 21.75149 79.66815
#
# Poissons Ratio (x) = 0.06149 0.57119
# Poissons Ratio (y) = 0.21482 0.36604
# Poissons Ratio (z) = 0.54481 0.09994
#
# Static dielectric constant tensor:
#      x y z
#    x 3.294850 0.000000 0.004360 
#    y 0.000000 2.527460 0.000000 
#    z 0.004360 0.000000 3.297260 
# 
# 
# High freq. dielectric constant tensor:
#      x y z
#    x 1.601270 0.000000 0.011590 
#    y 0.000000 1.563360 0.000000 
#    z 0.011590 0.000000 1.607690 
# 
# From -- ./inp_files/66089.got.cif
#   From: 2010.06.25/outbox.cif.g09.slc.cpg/sg10_34_cif.got.tgz:66089.got - 2010.06.27 22:07:45.
