data_PCOD8057074
_publ_section_title
;
Structure prediction by ZEFSAII (Michael W. Deem and Ramdas Pophale) SiO2 
 PCOD8057074
Probable space group: P 2/M
;
_chemical_formula_sum "Si O2"
_cell_formula_units_Z 32
_cell_length_a 22.003313
_cell_length_b 8.688229
_cell_length_c 32.845539
_cell_angle_alpha 90.000000
_cell_angle_beta 18.211224
_cell_angle_gamma 90.000000
_cell_volume 1962.343113
_symmetry_space_group_name_H-M "P 2/M"
_symmetry_group_IT_number 10
_symmetry_cell_setting 'monoclinic'
loop_
_space_group_symop_operation_xyz
x,y,z
-x,y,-z
-x,-y,-z
x,-y,z
loop_
_atom_site_type_symbol
_atom_site_label
_atom_site_fract_x
_atom_site_fract_y
_atom_site_fract_z
Si Si1 0.138791 0.327224 0.450361
Si Si2 0.445577 0.179283 0.203223
Si Si3 0.279649 0.679102 0.149018
Si Si4 0.636587 0.319747 0.465789
Si Si5 0.171387 0.822403 0.301554
Si Si6 0.731167 0.179391 0.319339
Si Si7 0.138476 0.818432 0.085553
Si Si8 0.003276 0.818773 0.259222
O O1 0.163717 0.500000 0.451031
O O2 0.348735 0.262459 0.303600
O O3 0.000000 0.321616 0.500000
O O4 0.044469 0.223053 0.545775
O O5 0.327482 0.211067 0.237243
O O6 0.450193 0.000000 0.210639
O O7 0.661582 0.250181 0.059684
O O8 0.246095 0.500000 0.161362
O O9 0.229982 0.715054 0.227049
O O10 0.141626 0.779345 0.208384
O O11 0.500000 0.728800 0.000000
O O12 0.652123 0.500000 0.447277
O O13 0.682817 0.219795 0.396604
O O14 0.411772 0.275055 0.620177
O O15 0.794198 0.266421 0.399126
O O16 0.171370 0.000000 0.288238
O O17 0.959916 0.223184 0.168499
O O18 0.697704 0.000000 0.332755
O O19 0.099214 0.755345 0.156211
O O20 0.163089 0.000000 0.073915
O O21 0.966518 0.000000 0.281079
#
# Coordination Sequence:
#
# PCOD8057074 Si02
#       8
#     4   4   4   4   4   4   4   4
#     4   9  17  29  44  63  86 111 140 178 224 267
#     4   9  16  28  45  65  87 112 145 181 218 261
#     4  11  23  35  46  64  91 119 147 183 224 260
#     4  10  17  26  40  59  83 111 144 183 224 260
#     4  10  19  31  48  65  83 114 153 188 218 254
#     4   9  15  25  40  59  83 114 148 178 214 261
#     4   8  15  26  42  63  87 114 145 182 217 253
#     4  10  19  32  47  62  83 116 156 189 217 256
#
# _framework density 16.307034999999999
#
# number of rings (size 3 to 8) (size 9 to 14) (size 15 to 20)
#    0.000    2.500    0.000    5.250    0.000    4.000 
#    0.000    3.750    0.000    0.000    0.000    0.000 
#    0.000    1.000    0.000   10.750    0.000    5.000 
#
# Total GULP energy -396629.518489 kJ/mol
# GULP energy per Si atom -12394.672453 kJ/mol
# Density = 1.626992 g / cm^3
# Si number density = 16.307035 Si / 1000 Ang^3
#
#
#
# Elastic Constant Matrix: (Units=GPa)
#
#
# Indices 1 2 3 4 5 6 
#
# 1 43.7397 21.0528 41.7023 0.0000 -12.7144 0.0000
# 2 21.0528 51.4732 33.0830 0.0000 -9.0443 0.0000
# 3 41.7023 33.0830 122.5254 0.0000 -14.7708 0.0000
# 4 0.0000 0.0000 0.0000 21.2265 0.0000 -1.4366
# 5 -12.7144 -9.0443 -14.7708 0.0000 25.3974 0.0000
# 6 0.0000 0.0000 0.0000 -1.4366 0.0000 19.7217
#
#
#
# Elastic Compliance Matrix: (Units=1/GPa)
#
#
# Indices 1 2 3 4 5 6 
#
# 1 0.039303 -0.007724 -0.009949 0.000000 0.011139 0.000000
# 2 -0.007724 0.025639 -0.003935 0.000000 0.002975 0.000000
# 3 -0.009949 -0.003935 0.012734 0.000000 0.001024 0.000000
# 4 0.000000 0.000000 0.000000 0.047344 0.000000 0.003449
# 5 0.011139 0.002975 0.001024 0.000000 0.046606 0.000000
# 6 0.000000 0.000000 0.000000 0.003449 0.000000 0.050957
#
#
# Mechanical properties :
#
#
# Convention : Reuss Voigt Hill
#
# Bulk Modulus (GPa) = 29.01891 45.49049 37.25470
# Shear Modulus (GPa) = 18.03201 21.39579 19.71390
#
# Velocity S-wave (km/s) = 3.32894 3.62617 3.48072
# Velocity P-wave (km/s) = 5.71049 6.74455 6.24894
#
# Compressibility (1/GPa) = 0.03446029
#
# Stress axis : x y z
#
# Youngs Moduli (GPa) = 25.44303 39.00376 78.53177
#
# Poissons Ratio (x) = 0.30125 0.78130
# Poissons Ratio (y) = 0.19651 0.30904
# Poissons Ratio (z) = 0.25313 0.15349
#
# Static dielectric constant tensor:
#      x y z
#    x 2.879130 0.000000 -0.401650 
#    y 0.000000 3.021890 0.000000 
#    z -0.401650 0.000000 3.556140 
# 
# 
# High freq. dielectric constant tensor:
#      x y z
#    x 1.578720 0.000000 -0.026340 
#    y 0.000000 1.630750 0.000000 
#    z -0.026340 0.000000 1.626470 
# 
# From -- ./inp_files/95645.got.cif
#   From: 2010.06.25/outbox.cif.g09.slc.cpg/sg10_48_cif.got.tgz:95645.got - 2010.06.27 22:07:45.
