data_PCOD8057574
_publ_section_title
;
Structure prediction by ZEFSAII (Michael W. Deem and Ramdas Pophale) SiO2 
 PCOD8057574
Probable space group: P 2/M
;
_chemical_formula_sum "Si O2"
_cell_formula_units_Z 32
_cell_length_a 30.233572
_cell_length_b 9.118389
_cell_length_c 15.824865
_cell_angle_alpha 90.000000
_cell_angle_beta 150.211897
_cell_angle_gamma 90.000000
_cell_volume 2167.323438
_symmetry_space_group_name_H-M "P 2/M"
_symmetry_group_IT_number 10
_symmetry_cell_setting 'monoclinic'
loop_
_space_group_symop_operation_xyz
x,y,z
-x,y,-z
-x,-y,-z
x,-y,z
loop_
_atom_site_type_symbol
_atom_site_label
_atom_site_fract_x
_atom_site_fract_y
_atom_site_fract_z
Si Si1 0.976981 0.831212 0.097949
Si Si2 0.328998 0.170974 0.813157
Si Si3 0.857059 0.168467 0.741196
Si Si4 0.306295 0.673202 0.599836
Si Si5 0.009612 0.673220 0.709196
Si Si6 0.499784 0.661512 0.899213
Si Si7 0.092377 0.161653 0.702105
Si Si8 0.838940 0.828997 0.355641
O O1 0.070736 0.791122 0.210257
O O2 0.960021 0.725616 0.148433
O O3 0.978011 0.000000 0.129447
O O4 0.897401 0.803640 0.900382
O O5 0.298021 0.250942 0.677012
O O6 0.257508 0.206419 0.766940
O O7 0.336356 0.000000 0.805492
O O8 0.424382 0.226845 0.006423
O O9 0.771959 0.272080 0.590476
O O10 0.827795 0.000000 0.682365
O O11 0.299499 0.500000 0.603127
O O12 0.399982 0.713539 0.708730
O O13 0.004363 0.500000 0.697668
O O14 0.912766 0.737602 0.528261
O O15 0.085007 0.725648 0.767419
O O16 0.520361 0.500000 0.895772
O O17 0.500000 0.653568 0.000000
O O18 0.163687 0.212791 0.748863
O O19 0.000000 0.154549 0.500000
O O20 0.116830 0.000000 0.778244
O O21 0.864110 0.000000 0.408161
#
# Coordination Sequence:
#
# PCOD8057574 Si02
#       8
#     4   4   4   4   4   4   4   4
#     4   9  18  32  45  58  80 108 136 169 207 239
#     4  10  18  27  42  62  81 104 139 175 199 231
#     4   9  18  31  46  61  77 103 141 176 200 231
#     4  10  19  29  41  58  83 112 137 164 203 245
#     4  11  20  27  40  62  83 106 138 170 199 236
#     4   8  16  29  40  54  80 110 135 161 199 243
#     4   8  15  29  44  55  75 108 137 163 200 241
#     4   9  18  30  42  58  81 109 138 167 203 242
#
# _framework density 14.764754999999999
#
# number of rings (size 3 to 8) (size 9 to 14) (size 15 to 20)
#    0.000    2.750    0.000    4.875    0.000   10.000 
#    0.000    1.250    0.000    0.000    0.000    0.000 
#    0.000    1.000    0.000   11.250    0.000    5.625 
#
# Total GULP energy -396672.912186 kJ/mol
# GULP energy per Si atom -12396.028506 kJ/mol
# Density = 1.473115 g / cm^3
# Si number density = 14.764755 Si / 1000 Ang^3
#
#
#
# Elastic Constant Matrix: (Units=GPa)
#
#
# Indices 1 2 3 4 5 6 
#
# 1 100.2182 55.3228 43.2914 0.0000 3.9679 0.0000
# 2 55.3228 89.3371 44.6484 0.0000 4.1446 0.0000
# 3 43.2914 44.6484 78.0816 0.0000 11.6905 0.0000
# 4 0.0000 0.0000 0.0000 20.4748 0.0000 4.7448
# 5 3.9679 4.1446 11.6905 0.0000 20.5769 0.0000
# 6 0.0000 0.0000 0.0000 4.7448 0.0000 9.3190
#
#
#
# Elastic Compliance Matrix: (Units=1/GPa)
#
#
# Indices 1 2 3 4 5 6 
#
# 1 0.016265 -0.007747 -0.004757 0.000000 0.001126 0.000000
# 2 -0.007747 0.019447 -0.007063 0.000000 0.001590 0.000000
# 3 -0.004757 -0.007063 0.020911 0.000000 -0.009541 0.000000
# 4 0.000000 0.000000 0.000000 0.055374 0.000000 -0.028194
# 5 0.001126 0.001590 -0.009541 0.000000 0.053481 0.000000
# 6 0.000000 0.000000 0.000000 -0.028194 0.000000 0.121662
#
#
# Mechanical properties :
#
#
# Convention : Reuss Voigt Hill
#
# Bulk Modulus (GPa) = 57.17459 61.57357 59.37408
# Shear Modulus (GPa) = 15.05549 18.36578 16.71063
#
# Velocity S-wave (km/s) = 3.19672 3.53071 3.36786
# Velocity P-wave (km/s) = 7.24107 7.64296 7.44473
#
# Compressibility (1/GPa) = 0.01749029
#
# Stress axis : x y z
#
# Youngs Moduli (GPa) = 61.48167 51.42121 47.82070
#
# Poissons Ratio (x) = 0.39838 0.22746
# Poissons Ratio (y) = 0.47632 0.33775
# Poissons Ratio (z) = 0.29244 0.36318
#
# Static dielectric constant tensor:
#      x y z
#    x 3.045120 0.000000 0.164920 
#    y 0.000000 2.884730 0.000000 
#    z 0.164920 0.000000 2.780380 
# 
# 
# High freq. dielectric constant tensor:
#      x y z
#    x 1.551540 0.000000 0.009920 
#    y 0.000000 1.569620 0.000000 
#    z 0.009920 0.000000 1.534280 
# 
# From -- ./inp_files/72567.got.cif
#   From: 2010.06.25/outbox.cif.g09.slc.cpg/sg10_37_cif.got.tgz:72567.got - 2010.06.27 22:07:45.
