data_PCOD8057526
_publ_section_title
;
Structure prediction by ZEFSAII (Michael W. Deem and Ramdas Pophale) SiO2 
 PCOD8057526
Probable space group: P 2/M
;
_chemical_formula_sum "Si O2"
_cell_formula_units_Z 28
_cell_length_a 29.017702
_cell_length_b 8.719098
_cell_length_c 14.532628
_cell_angle_alpha 90.000000
_cell_angle_beta 27.928502
_cell_angle_gamma 90.000000
_cell_volume 1722.135167
_symmetry_space_group_name_H-M "P 2/M"
_symmetry_group_IT_number 10
_symmetry_cell_setting 'monoclinic'
loop_
_space_group_symop_operation_xyz
x,y,z
-x,y,-z
-x,-y,-z
x,-y,z
loop_
_atom_site_type_symbol
_atom_site_label
_atom_site_fract_x
_atom_site_fract_y
_atom_site_fract_z
Si Si1 0.909474 0.825076 0.800515
Si Si2 0.764411 0.173937 0.898590
Si Si3 0.915585 0.181672 0.262506
Si Si4 0.124770 0.182129 0.464481
Si Si5 0.610122 0.182043 0.314420
Si Si6 0.876749 0.320169 0.145086
Si Si7 0.750063 0.323844 0.202854
O O1 0.867659 0.818602 0.771037
O O2 0.020276 0.762783 0.608425
O O3 0.902068 0.000000 0.851699
O O4 0.846642 0.712677 0.974386
O O5 0.788073 0.249288 0.756110
O O6 0.730486 0.000000 0.943370
O O7 0.676599 0.252741 0.113229
O O8 0.864229 0.234468 0.448863
O O9 0.856159 0.263536 0.285169
O O10 0.910321 0.000000 0.258933
O O11 0.029668 0.230706 0.061559
O O12 0.129113 0.000000 0.450012
O O13 0.500000 0.248092 0.500000
O O14 0.656412 0.228143 0.331402
O O15 0.610910 0.000000 0.308310
O O16 0.901676 0.500000 0.100317
O O17 0.778608 0.284907 0.258448
O O18 0.721689 0.500000 0.241571
#
# Coordination Sequence:
#
# PCOD8057526 Si02
#       7
#     4   4   4   4   4   4   4
#     4   9  15  25  41  60  85 116 148 177 203 245
#     4   8  14  24  41  63  87 112 139 173 213 260
#     4  10  18  26  41  62  85 114 151 186 211 240
#     4   9  15  23  38  63  88 114 146 176 210 250
#     4   9  18  32  50  70  88 109 140 179 221 262
#     4  10  19  30  41  57  85 119 151 178 214 254
#     4  10  19  29  44  64  87 117 147 177 216 258
#
# _framework density 16.258887000000001
#
# number of rings (size 3 to 8) (size 9 to 14) (size 15 to 20)
#    0.000    2.714    1.429    3.429    0.000    3.714 
#    0.000    0.000    0.000   13.714    0.000    1.000 
#    0.000    8.000    0.000    0.000    0.000    0.000 
#
# Total GULP energy -346892.300580 kJ/mol
# GULP energy per Si atom -12389.010735 kJ/mol
# Density = 1.622188 g / cm^3
# Si number density = 16.258887 Si / 1000 Ang^3
#
#
#
# Elastic Constant Matrix: (Units=GPa)
#
#
# Indices 1 2 3 4 5 6 
#
# 1 115.6077 21.4368 68.1445 0.0000 8.1618 0.0000
# 2 21.4368 23.0508 12.9777 0.0000 2.6293 0.0000
# 3 68.1445 12.9777 87.5989 0.0000 3.6297 0.0000
# 4 0.0000 0.0000 0.0000 5.1760 0.0000 -2.4380
# 5 8.1618 2.6293 3.6297 0.0000 23.0121 0.0000
# 6 0.0000 0.0000 0.0000 -2.4380 0.0000 19.4925
#
#
#
# Elastic Compliance Matrix: (Units=1/GPa)
#
#
# Indices 1 2 3 4 5 6 
#
# 1 0.017945 -0.009302 -0.012443 0.000000 -0.003339 0.000000
# 2 -0.009302 0.052585 -0.000445 0.000000 -0.002639 0.000000
# 3 -0.012443 -0.000445 0.021115 0.000000 0.001134 0.000000
# 4 0.000000 0.000000 0.000000 0.205294 0.000000 0.025677
# 5 -0.003339 -0.002639 0.001134 0.000000 0.044762 0.000000
# 6 0.000000 0.000000 0.000000 0.025677 0.000000 0.054513
#
#
# Mechanical properties :
#
#
# Convention : Reuss Voigt Hill
#
# Bulk Modulus (GPa) = 21.15789 47.93062 34.54425
# Shear Modulus (GPa) = 10.95652 17.78268 14.36960
#
# Velocity S-wave (km/s) = 2.59873 3.31073 2.97610
# Velocity P-wave (km/s) = 4.69531 6.64517 5.75344
#
# Compressibility (1/GPa) = 0.04726370
#
# Stress axis : x y z
#
# Youngs Moduli (GPa) = 55.72485 19.01699 47.36080
#
# Poissons Ratio (x) = 0.17690 0.58933
# Poissons Ratio (y) = 0.51836 0.02106
# Poissons Ratio (z) = 0.69341 0.00846
#
# Static dielectric constant tensor:
#      x y z
#    x 3.310240 0.000000 0.207890 
#    y 0.000000 2.835230 0.000000 
#    z 0.207890 0.000000 3.090260 
# 
# 
# High freq. dielectric constant tensor:
#      x y z
#    x 1.622890 0.000000 0.018760 
#    y 0.000000 1.602590 0.000000 
#    z 0.018760 0.000000 1.588720 
# 
# From -- ./inp_files/72463.got.cif
#   From: 2010.06.25/outbox.cif.g09.slc.cpg/sg10_37_cif.got.tgz:72463.got - 2010.06.27 22:07:45.
