data_PCOD8057968
_publ_section_title
;
Structure prediction by ZEFSAII (Michael W. Deem and Ramdas Pophale) SiO2 
 PCOD8057968
Probable space group: P 2/M
;
_chemical_formula_sum "Si O2"
_cell_formula_units_Z 30
_cell_length_a 16.103813
_cell_length_b 9.449598
_cell_length_c 11.005967
_cell_angle_alpha 90.000000
_cell_angle_beta 118.518246
_cell_angle_gamma 90.000000
_cell_volume 1471.613093
_symmetry_space_group_name_H-M "P 2/M"
_symmetry_group_IT_number 10
_symmetry_cell_setting 'monoclinic'
loop_
_space_group_symop_operation_xyz
x,y,z
-x,y,-z
-x,-y,-z
x,-y,z
loop_
_atom_site_type_symbol
_atom_site_label
_atom_site_fract_x
_atom_site_fract_y
_atom_site_fract_z
Si Si1 0.734201 0.160901 0.686260
Si Si2 0.210181 0.335227 0.802008
Si Si3 0.811794 0.845969 0.982696
Si Si4 0.580269 0.663027 0.144451
Si Si5 0.147999 0.160995 0.541762
Si Si6 0.899576 0.339481 0.704908
Si Si7 0.000000 0.242715 0.000000
Si Si8 0.636180 0.844526 0.393561
O O1 0.724021 0.172194 0.825622
O O2 0.803543 0.286492 0.697561
O O3 0.636557 0.185459 0.540528
O O4 0.770698 0.000000 0.678758
O O5 0.182840 0.500000 0.775906
O O6 0.319577 0.309556 0.848285
O O7 0.143410 0.247153 0.664728
O O8 0.191227 0.280387 0.924161
O O9 0.907710 0.849380 0.968499
O O10 0.803096 0.000000 0.041345
O O11 0.560233 0.500000 0.155406
O O12 0.573969 0.736147 0.272233
O O13 0.500000 0.726716 0.000000
O O14 0.078473 0.239266 0.396611
O O15 0.254023 0.166589 0.566225
O O16 0.113047 0.000000 0.537948
O O17 0.887559 0.500000 0.650475
O O18 0.980703 0.334614 0.864786
O O19 0.595848 0.000000 0.336308
#
# Coordination Sequence:
#
# PCOD8057968 Si02
#       8
#     4   4   4   4   4   4   2   4
#     4   8  16  30  47  69  97 131 169 206 245 295
#     4  10  20  34  53  77 104 132 165 208 254 298
#     4  10  20  35  55  75  99 133 171 209 250 299
#     4   9  18  32  50  74 104 135 164 197 243 300
#     4   9  17  31  50  71  98 132 168 205 248 301
#     4  10  18  29  48  73 100 129 165 210 254 294
#     4  10  22  36  52  74 102 134 170 208 250 298
#     4   8  14  26  46  72  98 124 161 206 244 284
#
# _framework density 20.385793
#
# number of rings (size 3 to 8) (size 9 to 14) (size 15 to 20)
#    0.000    2.800    0.000    2.400    0.000    8.267 
#    0.000    0.667    0.000    4.000    0.000    5.600 
#    0.000    0.000    0.000    0.000    0.000    0.000 
#
# Total GULP energy -371661.836609 kJ/mol
# GULP energy per Si atom -12388.727887 kJ/mol
# Density = 2.033939 g / cm^3
# Si number density = 20.385793 Si / 1000 Ang^3
#
#
#
# Elastic Constant Matrix: (Units=GPa)
#
#
# Indices 1 2 3 4 5 6 
#
# 1 17.8904 19.1636 21.0224 0.0000 -5.5357 0.0000
# 2 19.1636 141.3136 85.6264 0.0000 -8.5954 0.0000
# 3 21.0224 85.6264 198.5019 0.0000 -12.4244 0.0000
# 4 0.0000 0.0000 0.0000 33.9874 0.0000 -5.4648
# 5 -5.5357 -8.5954 -12.4244 0.0000 22.2600 0.0000
# 6 0.0000 0.0000 0.0000 -5.4648 0.0000 11.6207
#
#
#
# Elastic Compliance Matrix: (Units=1/GPa)
#
#
# Indices 1 2 3 4 5 6 
#
# 1 0.071563 -0.006516 -0.003950 0.000000 0.013076 0.000000
# 2 -0.006516 0.010219 -0.003702 0.000000 0.000259 0.000000
# 3 -0.003950 -0.003702 0.007152 0.000000 0.001580 0.000000
# 4 0.000000 0.000000 0.000000 0.031829 0.000000 0.014968
# 5 0.013076 0.000259 0.001580 0.000000 0.049158 0.000000
# 6 0.000000 0.000000 0.000000 0.014968 0.000000 0.093092
#
#
# Mechanical properties :
#
#
# Convention : Reuss Voigt Hill
#
# Bulk Modulus (GPa) = 16.50203 67.70342 42.10273
# Shear Modulus (GPa) = 16.04892 29.03318 22.54105
#
# Velocity S-wave (km/s) = 2.80886 3.77793 3.32885
# Velocity P-wave (km/s) = 4.31648 7.23281 5.95590
#
# Compressibility (1/GPa) = 0.06059859
#
# Stress axis : x y z
#
# Youngs Moduli (GPa) = 13.97370 97.85802 139.82663
#
# Poissons Ratio (x) = 0.63766 0.55227
# Poissons Ratio (y) = 0.09105 0.51760
# Poissons Ratio (z) = 0.05519 0.36224
#
# Static dielectric constant tensor:
#      x y z
#    x 3.014790 0.000000 -0.059930 
#    y 0.000000 3.645560 0.000000 
#    z -0.059930 0.000000 4.344080 
# 
# 
# High freq. dielectric constant tensor:
#      x y z
#    x 1.724660 0.000000 -0.009080 
#    y 0.000000 1.796830 0.000000 
#    z -0.009080 0.000000 1.823840 
# 
# From -- ./inp_files/53096.got.cif
#   From: 2010.06.25/outbox.cif.g09.slc.cpg/sg10_27_cif.got.tgz:53096.got - 2010.06.27 22:07:45.
