data_PCOD8057417
_publ_section_title
;
Structure prediction by ZEFSAII (Michael W. Deem and Ramdas Pophale) SiO2 
 PCOD8057417
Probable space group: P 2/M
;
_chemical_formula_sum "Si O2"
_cell_formula_units_Z 24
_cell_length_a 13.924048
_cell_length_b 14.504766
_cell_length_c 9.176363
_cell_angle_alpha 90.000000
_cell_angle_beta 46.223926
_cell_angle_gamma 90.000000
_cell_volume 1338.177157
_symmetry_space_group_name_H-M "P 2/M"
_symmetry_group_IT_number 10
_symmetry_cell_setting 'monoclinic'
loop_
_space_group_symop_operation_xyz
x,y,z
-x,y,-z
-x,-y,-z
x,-y,z
loop_
_atom_site_type_symbol
_atom_site_label
_atom_site_fract_x
_atom_site_fract_y
_atom_site_fract_z
Si Si1 0.698770 0.109278 0.429669
Si Si2 0.765099 0.211507 0.066996
Si Si3 0.492215 0.210472 0.845245
Si Si4 0.014427 0.101431 0.812044
Si Si5 0.556597 0.600686 0.670257
Si Si6 0.712057 0.399710 0.229063
O O1 0.700439 0.156033 0.269218
O O2 0.574257 0.145526 0.650898
O O3 0.834020 0.133365 0.378144
O O4 0.686278 0.000000 0.418584
O O5 0.660815 0.210801 0.044460
O O6 0.802776 0.315692 0.077878
O O7 0.903253 0.169057 0.862189
O O8 0.553994 0.314207 0.785043
O O9 0.500000 0.170213 0.000000
O O10 0.988703 0.000000 0.772720
O O11 0.000000 0.098497 0.000000
O O12 0.563904 0.500000 0.741946
O O13 0.426569 0.606203 0.708531
O O14 0.683989 0.611875 0.430773
O O15 0.780055 0.500000 0.128594
#
# Coordination Sequence:
#
# PCOD8057417 Si02
#       6
#     4   4   4   4   4   4
#     4  10  20  35  53  71  94 127 163 201 245 288
#     4  10  17  31  54  74  95 128 161 199 237 285
#     4  11  22  32  46  75 105 127 159 200 242 282
#     4   8  16  31  52  74  91 118 164 204 235 283
#     4   8  14  27  45  67  97 128 158 192 232 282
#     4   8  13  23  45  74  97 120 154 196 239 280
#
# _framework density 17.934843999999998
#
# number of rings (size 3 to 8) (size 9 to 14) (size 15 to 20)
#    0.000    2.833    1.667    3.000    0.000    2.667 
#    0.000    0.833    0.000    7.500    0.000    0.000 
#    0.000    6.667    0.000    0.000    0.000    0.000 
#
# Total GULP energy -297388.163003 kJ/mol
# GULP energy per Si atom -12391.173458 kJ/mol
# Density = 1.789402 g / cm^3
# Si number density = 17.934844 Si / 1000 Ang^3
#
#
#
# Elastic Constant Matrix: (Units=GPa)
#
#
# Indices 1 2 3 4 5 6 
#
# 1 63.2548 33.6326 19.1557 0.0000 -4.7770 0.0000
# 2 33.6326 108.4605 11.7359 0.0000 -7.8560 0.0000
# 3 19.1557 11.7359 20.4591 0.0000 -1.1884 0.0000
# 4 0.0000 0.0000 0.0000 1.1865 0.0000 -0.7975
# 5 -4.7770 -7.8560 -1.1884 0.0000 23.3152 0.0000
# 6 0.0000 0.0000 0.0000 -0.7975 0.0000 17.6405
#
#
#
# Elastic Compliance Matrix: (Units=1/GPa)
#
#
# Indices 1 2 3 4 5 6 
#
# 1 0.024943 -0.005392 -0.020129 0.000000 0.002268 0.000000
# 2 -0.005392 0.011215 -0.001233 0.000000 0.002611 0.000000
# 3 -0.020129 -0.001233 0.068370 0.000000 -0.001054 0.000000
# 4 0.000000 0.000000 0.000000 0.869255 0.000000 0.039298
# 5 0.002268 0.002611 -0.001054 0.000000 0.044181 0.000000
# 6 0.000000 0.000000 0.000000 0.039298 0.000000 0.058464
#
#
# Mechanical properties :
#
#
# Convention : Reuss Voigt Hill
#
# Bulk Modulus (GPa) = 19.60009 35.69144 27.64576
# Shear Modulus (GPa) = 4.35941 16.93843 10.64892
#
# Velocity S-wave (km/s) = 1.56076 3.07651 2.43935
# Velocity P-wave (km/s) = 3.76831 5.70646 4.83549
#
# Compressibility (1/GPa) = 0.05102017
#
# Stress axis : x y z
#
# Youngs Moduli (GPa) = 40.09104 89.16986 14.62619
#
# Poissons Ratio (x) = 0.48083 0.29441
# Poissons Ratio (y) = 0.21618 0.01803
# Poissons Ratio (z) = 0.80700 0.10990
#
# Static dielectric constant tensor:
#      x y z
#    x 3.052660 0.000000 -0.253360 
#    y 0.000000 3.789350 0.000000 
#    z -0.253360 0.000000 3.064220 
# 
# 
# High freq. dielectric constant tensor:
#      x y z
#    x 1.656010 0.000000 -0.013160 
#    y 0.000000 1.712090 0.000000 
#    z -0.013160 0.000000 1.653390 
# 
# From -- ./inp_files/29260.got.cif
#   From: 2010.06.25/outbox.cif.g09.slc.cpg/sg10_15_cif.got.tgz:29260.got - 2010.06.27 22:07:45.
