data_PCOD8057023
_publ_section_title
;
Structure prediction by ZEFSAII (Michael W. Deem and Ramdas Pophale) SiO2 
 PCOD8057023
Probable space group: P 2/M
;
_chemical_formula_sum "Si O2"
_cell_formula_units_Z 32
_cell_length_a 17.057036
_cell_length_b 8.925529
_cell_length_c 13.629404
_cell_angle_alpha 90.000000
_cell_angle_beta 77.650006
_cell_angle_gamma 90.000000
_cell_volume 2026.965800
_symmetry_space_group_name_H-M "P 2/M"
_symmetry_group_IT_number 10
_symmetry_cell_setting 'monoclinic'
loop_
_space_group_symop_operation_xyz
x,y,z
-x,y,-z
-x,-y,-z
x,-y,z
loop_
_atom_site_type_symbol
_atom_site_label
_atom_site_fract_x
_atom_site_fract_y
_atom_site_fract_z
Si Si1 0.839716 0.829168 0.134878
Si Si2 0.593181 0.328922 0.074594
Si Si3 0.320056 0.823216 0.121208
Si Si4 0.168747 0.322013 0.070702
Si Si5 0.331604 0.169060 0.769895
Si Si6 0.517284 0.173496 0.387243
Si Si7 0.566650 0.672912 0.770400
Si Si8 0.993019 0.665777 0.118570
O O1 0.763203 0.812850 0.228797
O O2 0.919190 0.771443 0.170322
O O3 0.854559 0.000000 0.100151
O O4 0.819397 0.737873 0.042351
O O5 0.611270 0.500000 0.038676
O O6 0.646533 0.289694 0.154134
O O7 0.500148 0.307397 0.126652
O O8 0.617141 0.220203 0.980266
O O9 0.233201 0.750792 0.125793
O O10 0.354260 0.761236 0.215181
O O11 0.310492 0.000000 0.129241
O O12 0.179860 0.500000 0.064475
O O13 0.079689 0.279310 0.135593
O O14 0.387598 0.197066 0.659966
O O15 0.347829 0.000000 0.805715
O O16 0.500000 0.237953 0.500000
O O17 0.463145 0.261755 0.324411
O O18 0.492722 0.000000 0.387298
O O19 0.588149 0.500000 0.748839
O O20 0.973668 0.500000 0.163378
O O21 0.000000 0.664507 0.000000
#
# Coordination Sequence:
#
# PCOD8057023 Si02
#       8
#     4   4   4   4   4   4   4   4
#     4  10  17  25  40  62  87 115 149 188 222 257
#     4  10  19  30  44  61  85 118 151 183 219 258
#     4  12  22  30  43  63  88 118 151 186 221 260
#     4  10  19  30  42  57  83 119 155 186 219 258
#     4   9  17  28  43  66  91 116 149 185 222 262
#     4   9  18  34  53  69  89 117 147 183 227 269
#     4  10  21  34  47  65  87 114 149 185 222 264
#     4   8  16  28  40  55  79 115 152 185 219 256
#
# _framework density 15.787143
#
# number of rings (size 3 to 8) (size 9 to 14) (size 15 to 20)
#    0.000    2.250    1.250    3.750    0.000    6.500 
#    0.000    0.000    0.000    0.000    0.000    0.000 
#    0.000    1.000    0.000   11.500    0.000    2.875 
#
# Total GULP energy -396651.000061 kJ/mol
# GULP energy per Si atom -12395.343752 kJ/mol
# Density = 1.575121 g / cm^3
# Si number density = 15.787143 Si / 1000 Ang^3
#
#
#
# Elastic Constant Matrix: (Units=GPa)
#
#
# Indices 1 2 3 4 5 6 
#
# 1 137.2128 62.5361 46.9814 0.0000 7.2760 0.0000
# 2 62.5361 98.6602 31.3361 0.0000 4.6586 0.0000
# 3 46.9814 31.3361 56.1693 0.0000 0.4626 0.0000
# 4 0.0000 0.0000 0.0000 11.5815 0.0000 2.2624
# 5 7.2760 4.6586 0.4626 0.0000 13.1923 0.0000
# 6 0.0000 0.0000 0.0000 2.2624 0.0000 27.0938
#
#
#
# Elastic Compliance Matrix: (Units=1/GPa)
#
#
# Indices 1 2 3 4 5 6 
#
# 1 0.012533 -0.005350 -0.007459 0.000000 -0.004761 0.000000
# 2 -0.005350 0.014829 -0.003780 0.000000 -0.002153 0.000000
# 3 -0.007459 -0.003780 0.026114 0.000000 0.004533 0.000000
# 4 0.000000 0.000000 0.000000 0.087777 0.000000 -0.007330
# 5 -0.004761 -0.002153 0.004533 0.000000 0.079030 0.000000
# 6 0.000000 0.000000 0.000000 -0.007330 0.000000 0.037521
#
#
# Mechanical properties :
#
#
# Convention : Reuss Voigt Hill
#
# Bulk Modulus (GPa) = 49.26758 63.74996 56.50877
# Shear Modulus (GPa) = 16.79279 20.45274 18.62277
#
# Velocity S-wave (km/s) = 3.26498 3.60325 3.43828
# Velocity P-wave (km/s) = 6.74452 7.60131 7.18570
#
# Compressibility (1/GPa) = 0.02029732
#
# Stress axis : x y z
#
# Youngs Moduli (GPa) = 79.79200 67.43385 38.29404
#
# Poissons Ratio (x) = 0.36077 0.28562
# Poissons Ratio (y) = 0.42689 0.14477
# Poissons Ratio (z) = 0.59514 0.25493
#
# Static dielectric constant tensor:
#      x y z
#    x 3.382970 0.000000 -0.034220 
#    y 0.000000 3.109290 0.000000 
#    z -0.034220 0.000000 2.590160 
# 
# 
# High freq. dielectric constant tensor:
#      x y z
#    x 1.616000 0.000000 0.002710 
#    y 0.000000 1.619670 0.000000 
#    z 0.002710 0.000000 1.538290 
# 
# From -- ./inp_files/52801.got.cif
#   From: 2010.06.25/outbox.cif.g09.slc.cpg/sg10_27_cif.got.tgz:52801.got - 2010.06.27 22:07:45.
