data_PCOD8057022
_publ_section_title
;
Structure prediction by ZEFSAII (Michael W. Deem and Ramdas Pophale) SiO2 
 PCOD8057022
Probable space group: P 2/M
;
_chemical_formula_sum "Si O2"
_cell_formula_units_Z 28
_cell_length_a 13.940401
_cell_length_b 8.971944
_cell_length_c 16.184474
_cell_angle_alpha 90.000000
_cell_angle_beta 115.448263
_cell_angle_gamma 90.000000
_cell_volume 1827.828699
_symmetry_space_group_name_H-M "P 2/M"
_symmetry_group_IT_number 10
_symmetry_cell_setting 'monoclinic'
loop_
_space_group_symop_operation_xyz
x,y,z
-x,y,-z
-x,-y,-z
x,-y,z
loop_
_atom_site_type_symbol
_atom_site_label
_atom_site_fract_x
_atom_site_fract_y
_atom_site_fract_z
Si Si1 0.836949 0.823444 0.461388
Si Si2 0.882506 0.664021 0.992133
Si Si3 0.376004 0.822454 0.541585
Si Si4 0.010892 0.676502 0.807637
Si Si5 0.808548 0.823853 0.812993
Si Si6 0.031424 0.176426 0.643540
Si Si7 0.390855 0.823196 0.361695
O O1 0.720318 0.756591 0.438635
O O2 0.874631 0.773380 0.384306
O O3 0.919858 0.771582 0.562378
O O4 0.835485 0.000000 0.462745
O O5 0.829400 0.500000 0.968474
O O6 0.813261 0.776696 0.911144
O O7 0.000000 0.654682 0.000000
O O8 0.895762 0.718350 0.091914
O O9 0.362059 0.764237 0.442591
O O10 0.490316 0.767803 0.619329
O O11 0.370971 0.000000 0.540661
O O12 0.992971 0.500000 0.799119
O O13 0.900222 0.751767 0.791707
O O14 0.050717 0.736191 0.735002
O O15 0.695862 0.765571 0.735852
O O16 0.820448 0.000000 0.810765
O O17 0.033029 0.000000 0.660946
O O18 0.390196 0.000000 0.363439
#
# Coordination Sequence:
#
# PCOD8057022 Si02
#       7
#     4   4   4   4   4   4   4
#     4   8  14  24  39  59  84 109 130 160 199 234
#     4   8  16  29  40  53  77 106 132 157 194 244
#     4   8  12  21  35  54  84 113 130 150 189 235
#     4  10  19  29  40  56  80 109 135 159 194 240
#     4  10  17  25  40  62  83 102 130 167 198 226
#     4   9  16  26  41  62  82 102 134 168 196 228
#     4   8  14  21  34  59  84 105 131 159 187 227
#
# _framework density 15.318721999999999
#
# number of rings (size 3 to 8) (size 9 to 14) (size 15 to 20)
#    0.000    3.286    0.000    4.286    0.000    5.429 
#    0.000    1.429    0.000    0.000    0.000   22.000 
#    0.000    8.000    0.000    0.000    0.000    0.000 
#
# Total GULP energy -346931.838047 kJ/mol
# GULP energy per Si atom -12390.422787 kJ/mol
# Density = 1.528386 g / cm^3
# Si number density = 15.318722 Si / 1000 Ang^3
#
#
#
# Elastic Constant Matrix: (Units=GPa)
#
#
# Indices 1 2 3 4 5 6 
#
# 1 114.6278 22.9324 66.5394 0.0000 2.0336 0.0000
# 2 22.9324 38.1385 37.3031 0.0000 0.6776 0.0000
# 3 66.5394 37.3031 138.0569 0.0000 -1.2725 0.0000
# 4 0.0000 0.0000 0.0000 9.2785 0.0000 -5.9573
# 5 2.0336 0.6776 -1.2725 0.0000 23.6639 0.0000
# 6 0.0000 0.0000 0.0000 -5.9573 0.0000 3.7458
#
#
#
# Elastic Compliance Matrix: (Units=1/GPa)
#
#
# Indices 1 2 3 4 5 6 
#
# 1 0.012281 -0.002121 -0.005358 0.000000 -0.001283 0.000000
# 2 -0.002121 0.036062 -0.008734 0.000000 -0.001320 0.000000
# 3 -0.005358 -0.008734 0.012198 0.000000 0.001366 0.000000
# 4 0.000000 0.000000 0.000000 -5.098697 0.000000 -8.109065
# 5 -0.001283 -0.001320 0.001366 0.000000 0.042480 0.000000
# 6 0.000000 0.000000 0.000000 -8.109065 0.000000-12.629843
#
#
# Mechanical properties :
#
#
# Convention : Reuss Voigt Hill
#
# Bulk Modulus (GPa) = 35.56776 60.48589 48.02682
# Shear Modulus (GPa) = -0.28435 18.27419 8.99492
#
# Velocity S-wave (km/s) = -0.43131 3.45763 2.42582
# Velocity P-wave (km/s) = 4.79801 7.45057 6.26625
#
# Compressibility (1/GPa) = 0.02811535
#
# Stress axis : x y z
#
# Youngs Moduli (GPa) = 81.42564 27.73033 81.97984
#
# Poissons Ratio (x) = 0.05883 0.43923
# Poissons Ratio (y) = 0.17273 0.71598
# Poissons Ratio (z) = 0.43626 0.24219
#
# Static dielectric constant tensor:
#      x y z
#    x 3.108320 0.000000 0.043110 
#    y 0.000000 2.616950 0.000000 
#    z 0.043110 0.000000 3.229680 
# 
# 
# High freq. dielectric constant tensor:
#      x y z
#    x 1.562520 0.000000 -0.000600 
#    y 0.000000 1.554870 0.000000 
#    z -0.000600 0.000000 1.586790 
# 
# From -- ./inp_files/65918.got.cif
#   From: 2010.06.25/outbox.cif.g09.slc.cpg/sg10_33_cif.got.tgz:65918.got - 2010.06.27 22:07:45.
