data_PCOD8057117
_publ_section_title
;
Structure prediction by ZEFSAII (Michael W. Deem and Ramdas Pophale) SiO2 
 PCOD8057117
Probable space group: P 2/M
;
_chemical_formula_sum "Si O2"
_cell_formula_units_Z 28
_cell_length_a 15.158995
_cell_length_b 8.825898
_cell_length_c 19.248054
_cell_angle_alpha 90.000000
_cell_angle_beta 139.664455
_cell_angle_gamma 90.000000
_cell_volume 1666.851030
_symmetry_space_group_name_H-M "P 2/M"
_symmetry_group_IT_number 10
_symmetry_cell_setting 'monoclinic'
loop_
_space_group_symop_operation_xyz
x,y,z
-x,y,-z
-x,-y,-z
x,-y,z
loop_
_atom_site_type_symbol
_atom_site_label
_atom_site_fract_x
_atom_site_fract_y
_atom_site_fract_z
Si Si1 0.911210 0.170476 0.515708
Si Si2 0.978712 0.678731 0.882845
Si Si3 0.811451 0.824009 0.886282
Si Si4 0.406635 0.172564 0.139261
Si Si5 0.860359 0.322426 0.269351
Si Si6 0.837381 0.177135 0.111195
Si Si7 0.690238 0.676110 0.301544
O O1 0.762871 0.238105 0.409165
O O2 0.000000 0.176727 0.500000
O O3 0.986606 0.268806 0.619856
O O4 0.893615 0.000000 0.532893
O O5 0.958383 0.500000 0.867145
O O6 0.026846 0.740175 0.836788
O O7 0.836049 0.757413 0.823168
O O8 0.093985 0.725678 0.006555
O O9 0.656942 0.805366 0.821358
O O10 0.854525 0.000000 0.916128
O O11 0.531680 0.284961 0.205050
O O12 0.456608 0.000000 0.159240
O O13 0.294334 0.214960 0.014294
O O14 0.862108 0.500000 0.256091
O O15 0.806619 0.236531 0.169441
O O16 0.755936 0.276407 0.267570
O O17 0.867674 0.000000 0.130005
O O18 0.711516 0.500000 0.327516
#
# Coordination Sequence:
#
# PCOD8057117 Si02
#       7
#     4   4   4   4   4   4   4
#     4   9  17  31  51  70  88 115 154 196 234 274
#     4  10  17  26  43  66  90 118 152 192 234 274
#     4   9  16  28  44  63  89 121 155 191 229 271
#     4   9  19  32  46  66  94 127 161 193 226 274
#     4  10  20  33  48  69  95 122 155 195 237 277
#     4  10  20  33  47  66  94 128 161 192 230 278
#     4  10  20  32  48  69  95 124 154 194 238 276
#
# _framework density 16.798141999999999
#
# number of rings (size 3 to 8) (size 9 to 14) (size 15 to 20)
#    0.000    2.429    0.000    5.143    0.000    7.429 
#    0.000    2.857    0.000    0.000    0.000    1.000 
#    0.000    8.000    0.000    0.000    0.000    0.000 
#
# Total GULP energy -347094.381485 kJ/mol
# GULP energy per Si atom -12396.227910 kJ/mol
# Density = 1.675991 g / cm^3
# Si number density = 16.798142 Si / 1000 Ang^3
#
#
#
# Elastic Constant Matrix: (Units=GPa)
#
#
# Indices 1 2 3 4 5 6 
#
# 1 88.3859 40.1005 37.5283 0.0000 10.7518 0.0000
# 2 40.1005 84.0968 29.1795 0.0000 7.8623 0.0000
# 3 37.5283 29.1795 55.3929 0.0000 11.0282 0.0000
# 4 0.0000 0.0000 0.0000 27.4302 0.0000 -0.3072
# 5 10.7518 7.8623 11.0282 0.0000 4.0794 0.0000
# 6 0.0000 0.0000 0.0000 -0.3072 0.0000 29.1735
#
#
#
# Elastic Compliance Matrix: (Units=1/GPa)
#
#
# Indices 1 2 3 4 5 6 
#
# 1 0.018859 -0.004753 -0.004766 0.000000 -0.027660 0.000000
# 2 -0.004753 0.016238 -0.003458 0.000000 -0.009420 0.000000
# 3 -0.004766 -0.003458 0.041742 0.000000 -0.093617 0.000000
# 4 0.000000 0.000000 0.000000 0.036460 0.000000 0.000384
# 5 -0.027660 -0.009420 -0.093617 0.000000 0.589272 0.000000
# 6 0.000000 0.000000 0.000000 0.000384 0.000000 0.034282
#
#
# Mechanical properties :
#
#
# Convention : Reuss Voigt Hill
#
# Bulk Modulus (GPa) = 19.65259 49.05470 34.35364
# Shear Modulus (GPa) = 6.41215 20.20779 13.30997
#
# Velocity S-wave (km/s) = 1.95588 3.47216 2.81792
# Velocity P-wave (km/s) = 4.10186 6.73353 5.57520
#
# Compressibility (1/GPa) = 0.05088389
#
# Stress axis : x y z
#
# Youngs Moduli (GPa) = 53.02556 61.58386 23.95668
#
# Poissons Ratio (x) = 0.29270 0.11418
# Poissons Ratio (y) = 0.25203 0.08285
# Poissons Ratio (z) = 0.25273 0.21298
#
# Static dielectric constant tensor:
#      x y z
#    x 3.495650 0.000000 -0.044050 
#    y 0.000000 3.204950 0.000000 
#    z -0.044050 0.000000 2.861120 
# 
# 
# High freq. dielectric constant tensor:
#      x y z
#    x 1.642860 0.000000 0.000630 
#    y 0.000000 1.663790 0.000000 
#    z 0.000630 0.000000 1.603040 
# 
# From -- ./inp_files/54703.got.cif
#   From: 2010.06.25/outbox.cif.g09.slc.cpg/sg10_28_cif.got.tgz:54703.got - 2010.06.27 22:07:45.
