data_PCOD8057487
_publ_section_title
;
Structure prediction by ZEFSAII (Michael W. Deem and Ramdas Pophale) SiO2 
 PCOD8057487
Probable space group: P 2/M
;
_chemical_formula_sum "Si O2"
_cell_formula_units_Z 28
_cell_length_a 14.476120
_cell_length_b 9.315585
_cell_length_c 28.623187
_cell_angle_alpha 90.000000
_cell_angle_beta 29.116962
_cell_angle_gamma 90.000000
_cell_volume 1878.222654
_symmetry_space_group_name_H-M "P 2/M"
_symmetry_group_IT_number 10
_symmetry_cell_setting 'monoclinic'
loop_
_space_group_symop_operation_xyz
x,y,z
-x,y,-z
-x,-y,-z
x,-y,z
loop_
_atom_site_type_symbol
_atom_site_label
_atom_site_fract_x
_atom_site_fract_y
_atom_site_fract_z
Si Si1 0.276927 0.164335 0.683611
Si Si2 0.659430 0.330855 0.531212
Si Si3 0.156972 0.341092 0.970919
Si Si4 0.807745 0.669659 0.564085
Si Si5 0.895313 0.164335 0.144149
Si Si6 0.726703 0.658908 0.401189
Si Si7 0.412495 0.669146 0.778146
O O1 0.462299 0.246940 0.619085
O O2 0.116707 0.176341 0.794431
O O3 0.191584 0.231687 0.673482
O O4 0.331972 0.000000 0.649411
O O5 0.610142 0.500000 0.555079
O O6 0.781463 0.280861 0.521987
O O7 0.781185 0.296131 0.430352
O O8 0.175173 0.500000 0.984911
O O9 0.353426 0.296132 0.858110
O O10 0.000000 0.340209 0.000000
O O11 0.096387 0.231688 0.038548
O O12 0.825295 0.500000 0.558236
O O13 0.628887 0.719143 0.674562
O O14 0.000000 0.740098 0.500000
O O15 0.718149 0.246940 0.200468
O O16 0.887828 0.000000 0.130792
O O17 0.500000 0.659792 0.500000
O O18 0.805081 0.500000 0.355004
O O19 0.385525 0.500000 0.779697
#
# Coordination Sequence:
#
# PCOD8057487 Si02
#       7
#     4   4   4   4   4   4   4
#     4  10  18  25  36  56  79 103 131 159 192 233
#     4   9  16  27  41  55  75 103 133 162 192 228
#     4   8  15  25  37  54  74 100 131 158 189 231
#     4   9  16  26  43  63  79 101 135 169 196 225
#     4  10  18  25  36  56  79 103 131 159 192 233
#     4   8  15  25  37  54  74 100 131 158 189 231
#     4   9  16  27  41  55  75 103 133 162 192 228
#
# _framework density 14.907711000000001
#
# number of rings (size 3 to 8) (size 9 to 14) (size 15 to 20)
#    0.000    3.000    1.429    2.571    0.000    6.857 
#    0.000    0.000    0.000    1.714    0.000    0.000 
#    0.000    1.143    0.000   14.286    0.000    2.286 
#
# Total GULP energy -346955.148114 kJ/mol
# GULP energy per Si atom -12391.255290 kJ/mol
# Density = 1.487378 g / cm^3
# Si number density = 14.907711 Si / 1000 Ang^3
#
#
#
# Elastic Constant Matrix: (Units=GPa)
#
#
# Indices 1 2 3 4 5 6 
#
# 1 78.7396 32.0794 54.0751 0.0000 16.4275 0.0000
# 2 32.0794 67.9960 41.4686 0.0000 16.8745 0.0000
# 3 54.0751 41.4686 98.2294 0.0000 18.6005 0.0000
# 4 0.0000 0.0000 0.0000 15.9569 0.0000 8.7699
# 5 16.4275 16.8745 18.6005 0.0000 20.8081 0.0000
# 6 0.0000 0.0000 0.0000 8.7699 0.0000 11.0767
#
#
#
# Elastic Compliance Matrix: (Units=1/GPa)
#
#
# Indices 1 2 3 4 5 6 
#
# 1 0.021756 -0.002861 -0.009577 0.000000 -0.006295 0.000000
# 2 -0.002861 0.022220 -0.005803 0.000000 -0.010573 0.000000
# 3 -0.009577 -0.005803 0.018754 0.000000 -0.004497 0.000000
# 4 0.000000 0.000000 0.000000 0.110947 0.000000 -0.087841
# 5 -0.006295 -0.010573 -0.004497 0.000000 0.065622 0.000000
# 6 0.000000 0.000000 0.000000 -0.087841 0.000000 0.159828
#
#
# Mechanical properties :
#
#
# Convention : Reuss Voigt Hill
#
# Bulk Modulus (GPa) = 38.09967 55.57903 46.83935
# Shear Modulus (GPa) = 11.25222 17.39115 14.32168
#
# Velocity S-wave (km/s) = 2.75033 3.41924 3.10286
# Velocity P-wave (km/s) = 5.97480 7.27676 6.65768
#
# Compressibility (1/GPa) = 0.02624695
#
# Stress axis : x y z
#
# Youngs Moduli (GPa) = 45.96428 45.00519 53.32294
#
# Poissons Ratio (x) = 0.12878 0.51066
# Poissons Ratio (y) = 0.13153 0.30943
# Poissons Ratio (z) = 0.44019 0.26116
#
# Static dielectric constant tensor:
#      x y z
#    x 2.914980 0.000000 0.365150 
#    y 0.000000 2.841220 0.000000 
#    z 0.365150 0.000000 3.118220 
# 
# 
# High freq. dielectric constant tensor:
#      x y z
#    x 1.531450 0.000000 0.041460 
#    y 0.000000 1.562880 0.000000 
#    z 0.041460 0.000000 1.554520 
# 
# From -- ./inp_files/65787.got.cif
#   From: 2010.06.25/outbox.cif.g09.slc.cpg/sg10_33_cif.got.tgz:65787.got - 2010.06.27 22:07:45.
