data_PCOD8057877
_publ_section_title
;
Structure prediction by ZEFSAII (Michael W. Deem and Ramdas Pophale) SiO2 
 PCOD8057877
Probable space group: P 2/M
;
_chemical_formula_sum "Si O2"
_cell_formula_units_Z 24
_cell_length_a 24.146089
_cell_length_b 8.520775
_cell_length_c 18.518862
_cell_angle_alpha 90.000000
_cell_angle_beta 159.942294
_cell_angle_gamma 90.000000
_cell_volume 1306.747724
_symmetry_space_group_name_H-M "P 2/M"
_symmetry_group_IT_number 10
_symmetry_cell_setting 'monoclinic'
loop_
_space_group_symop_operation_xyz
x,y,z
-x,y,-z
-x,-y,-z
x,-y,z
loop_
_atom_site_type_symbol
_atom_site_label
_atom_site_fract_x
_atom_site_fract_y
_atom_site_fract_z
Si Si1 0.663303 0.681775 0.427279
Si Si2 0.135412 0.681567 0.455750
Si Si3 0.679537 0.314594 0.944780
Si Si4 0.012269 0.815051 0.596686
Si Si5 0.018211 0.686288 0.103762
Si Si6 0.158825 0.181584 0.986236
O O1 0.652296 0.500000 0.433087
O O2 0.696447 0.707285 0.381578
O O3 0.492208 0.757322 0.239287
O O4 0.812454 0.751984 0.656538
O O5 0.080905 0.500000 0.381896
O O6 0.136550 0.733915 0.540984
O O7 0.004939 0.792768 0.258512
O O8 0.690843 0.500000 0.970010
O O9 0.699853 0.271467 0.884824
O O10 0.815802 0.233234 0.160116
O O11 0.000000 0.753356 0.500000
O O12 0.990025 0.000000 0.573349
O O13 0.012756 0.500000 0.101685
O O14 0.866344 0.751187 0.963907
O O15 0.000000 0.747705 0.000000
O O16 0.203834 0.000000 0.045653
#
# Coordination Sequence:
#
# PCOD8057877 Si02
#       6
#     4   4   4   4   4   4
#     4   8  16  30  49  74  96 117 153 199 238 273
#     4   9  16  30  51  71  92 121 160 196 229 277
#     4  10  18  31  51  71  94 123 157 195 233 277
#     4  10  20  33  48  69  97 125 156 194 234 279
#     4   9  17  32  53  73  94 123 160 198 234 275
#     4  10  18  29  46  69  97 126 158 192 230 280
#
# _framework density 18.366205999999998
#
# number of rings (size 3 to 8) (size 9 to 14) (size 15 to 20)
#    0.000    2.667    0.000    6.000    0.000    1.667 
#    0.000   10.000    0.000   10.000    0.000    0.000 
#    0.000    0.000    0.000    0.000    0.000    0.000 
#
# Total GULP energy -297392.674489 kJ/mol
# GULP energy per Si atom -12391.361437 kJ/mol
# Density = 1.832440 g / cm^3
# Si number density = 18.366206 Si / 1000 Ang^3
#
#
#
# Elastic Constant Matrix: (Units=GPa)
#
#
# Indices 1 2 3 4 5 6 
#
# 1 202.1611 27.3367 63.8523 0.0000 9.9706 0.0000
# 2 27.3367 39.2232 11.1413 0.0000 1.0177 0.0000
# 3 63.8523 11.1413 59.1051 0.0000 13.8625 0.0000
# 4 0.0000 0.0000 0.0000 6.2031 0.0000 -9.1153
# 5 9.9706 1.0177 13.8625 0.0000 35.0012 0.0000
# 6 0.0000 0.0000 0.0000 -9.1153 0.0000 21.0721
#
#
#
# Elastic Compliance Matrix: (Units=1/GPa)
#
#
# Indices 1 2 3 4 5 6 
#
# 1 0.007919 -0.003217 -0.008204 0.000000 0.001087 0.000000
# 2 -0.003217 0.028303 -0.002074 0.000000 0.000915 0.000000
# 3 -0.008204 -0.002074 0.028233 0.000000 -0.008785 0.000000
# 4 0.000000 0.000000 0.000000 0.442468 0.000000 0.191401
# 5 0.001087 0.000915 -0.008785 0.000000 0.031713 0.000000
# 6 0.000000 0.000000 0.000000 0.191401 0.000000 0.130251
#
#
# Mechanical properties :
#
#
# Convention : Reuss Voigt Hill
#
# Bulk Modulus (GPa) = 26.69164 56.12779 41.40971
# Shear Modulus (GPa) = 7.05850 25.66587 16.36219
#
# Velocity S-wave (km/s) = 1.96254 3.74231 2.98801
# Velocity P-wave (km/s) = 4.43846 7.02138 5.87366
#
# Compressibility (1/GPa) = 0.03746492
#
# Stress axis : x y z
#
# Youngs Moduli (GPa) = 126.27742 35.33223 35.41989
#
# Poissons Ratio (x) = 0.11367 0.29057
# Poissons Ratio (y) = 0.40626 0.07346
# Poissons Ratio (z) = 1.03592 0.07328
#
# Static dielectric constant tensor:
#      x y z
#    x 4.114760 0.000000 0.189810 
#    y 0.000000 3.180630 0.000000 
#    z 0.189810 0.000000 3.165360 
# 
# 
# High freq. dielectric constant tensor:
#      x y z
#    x 1.738280 0.000000 0.014390 
#    y 0.000000 1.701420 0.000000 
#    z 0.014390 0.000000 1.658880 
# 
# From -- ./inp_files/35635.got.cif
#   From: 2010.06.25/outbox.cif.g09.slc.cpg/sg10_18_cif.got.tgz:35635.got - 2010.06.27 22:07:45.
