data_PCOD8057821
_publ_section_title
;
Structure prediction by ZEFSAII (Michael W. Deem and Ramdas Pophale) SiO2 
 PCOD8057821
Probable space group: P 2/M
;
_chemical_formula_sum "Si O2"
_cell_formula_units_Z 32
_cell_length_a 21.915369
_cell_length_b 13.291987
_cell_length_c 16.972218
_cell_angle_alpha 90.000000
_cell_angle_beta 25.259413
_cell_angle_gamma 90.000000
_cell_volume 2109.684795
_symmetry_space_group_name_H-M "P 2/M"
_symmetry_group_IT_number 10
_symmetry_cell_setting 'monoclinic'
loop_
_space_group_symop_operation_xyz
x,y,z
-x,y,-z
-x,-y,-z
x,-y,z
loop_
_atom_site_type_symbol
_atom_site_label
_atom_site_fract_x
_atom_site_fract_y
_atom_site_fract_z
Si Si1 0.343866 0.118707 0.658960
Si Si2 0.219690 0.881213 0.641633
Si Si3 0.286765 0.200743 0.111716
Si Si4 0.043654 0.213553 0.285335
Si Si5 0.120293 0.386558 0.292820
Si Si6 0.079769 0.881687 0.076200
Si Si7 0.427545 0.115904 0.261996
Si Si8 0.241033 0.113834 0.331564
O O1 0.500000 0.163777 0.500000
O O2 0.286712 0.165824 0.643261
O O3 0.358268 0.000000 0.632431
O O4 0.228242 0.145123 0.860697
O O5 0.311045 0.843482 0.460256
O O6 0.053595 0.850455 0.823954
O O7 0.227655 0.000000 0.638826
O O8 0.156722 0.156344 0.210565
O O9 0.257011 0.320034 0.162501
O O10 0.298704 0.139008 0.178094
O O11 0.432477 0.184963 0.892921
O O12 0.060419 0.334083 0.282248
O O13 0.074587 0.186150 0.159651
O O14 0.885707 0.185864 0.495343
O O15 0.169484 0.500000 0.216912
O O16 0.000000 0.383891 0.500000
O O17 0.069478 0.000000 0.110299
O O18 0.370340 0.128884 0.240684
O O19 0.466896 0.000000 0.234004
O O20 0.184334 0.000000 0.400980
#
# Coordination Sequence:
#
# PCOD8057821 Si02
#       8
#     4   4   4   4   4   4   4   4
#     4   9  18  28  42  63  90 125 164 198 223 257
#     4   9  17  30  43  59  90 136 166 181 222 270
#     4  10  20  31  45  70  88 125 162 196 237 273
#     4  10  19  31  47  72  86 122 162 197 233 277
#     4   9  18  35  52  66  87 117 158 207 255 282
#     4  10  18  29  44  65  97 127 156 191 225 275
#     4  10  20  30  44  65  99 136 159 189 230 275
#     4  11  19  31  43  65 101 133 159 187 225 275
#
# _framework density 15.168143000000001
#
# number of rings (size 3 to 8) (size 9 to 14) (size 15 to 20)
#    0.750    1.500    2.500    1.875    1.750    5.000 
#    0.000    0.000    0.000    2.250    0.000    0.000 
#    0.000    6.500    0.000    0.000    0.000    0.250 
#
# Total GULP energy -396569.997802 kJ/mol
# GULP energy per Si atom -12392.812431 kJ/mol
# Density = 1.513362 g / cm^3
# Si number density = 15.168143 Si / 1000 Ang^3
#
#
#
# Elastic Constant Matrix: (Units=GPa)
#
#
# Indices 1 2 3 4 5 6 
#
# 1 92.4500 23.7880 32.3559 0.0000 6.1542 0.0000
# 2 23.7880 44.8414 21.2956 0.0000 -10.7996 0.0000
# 3 32.3559 21.2956 101.1115 0.0000 -8.7639 0.0000
# 4 0.0000 0.0000 0.0000 8.9876 0.0000 2.3454
# 5 6.1542 -10.7996 -8.7639 0.0000 19.2075 0.0000
# 6 0.0000 0.0000 0.0000 2.3454 0.0000 3.1261
#
#
#
# Elastic Compliance Matrix: (Units=1/GPa)
#
#
# Indices 1 2 3 4 5 6 
#
# 1 0.015356 -0.009092 -0.004028 0.000000 -0.011870 0.000000
# 2 -0.009092 0.033153 -0.002296 0.000000 0.020506 0.000000
# 3 -0.004028 -0.002296 0.012143 0.000000 0.005540 0.000000
# 4 0.000000 0.000000 0.000000 0.138351 0.000000 -0.103800
# 5 -0.011870 0.020506 0.005540 0.000000 0.069924 0.000000
# 6 0.000000 0.000000 0.000000 -0.103800 0.000000 0.397770
#
#
# Mechanical properties :
#
#
# Convention : Reuss Voigt Hill
#
# Bulk Modulus (GPa) = 33.53398 43.69799 38.61599
# Shear Modulus (GPa) = 7.06746 16.99512 12.03129
#
# Velocity S-wave (km/s) = 2.16091 3.35094 2.81943
# Velocity P-wave (km/s) = 5.32749 6.62143 6.00939
#
# Compressibility (1/GPa) = 0.02982050
#
# Stress axis : x y z
#
# Youngs Moduli (GPa) = 65.12119 30.16307 82.35399
#
# Poissons Ratio (x) = 0.27425 0.33171
# Poissons Ratio (y) = 0.59209 0.18906
# Poissons Ratio (z) = 0.26230 0.06924
#
# Static dielectric constant tensor:
#      x y z
#    x 3.050880 0.000000 -0.023160 
#    y 0.000000 2.543120 0.000000 
#    z -0.023160 0.000000 2.972310 
# 
# 
# High freq. dielectric constant tensor:
#      x y z
#    x 1.586590 0.000000 -0.002440 
#    y 0.000000 1.515890 0.000000 
#    z -0.002440 0.000000 1.591500 
# 
# From -- ./inp_files/80332.got.cif
#   From: 2010.06.25/outbox.cif.g09.slc.cpg/sg10_41_cif.got.tgz:80332.got - 2010.06.27 22:07:45.
