data_PCOD8057645
_publ_section_title
;
Structure prediction by ZEFSAII (Michael W. Deem and Ramdas Pophale) SiO2 
 PCOD8057645
Probable space group: P 2/M
;
_chemical_formula_sum "Si O2"
_cell_formula_units_Z 28
_cell_length_a 16.130240
_cell_length_b 8.862059
_cell_length_c 16.106206
_cell_angle_alpha 90.000000
_cell_angle_beta 50.463429
_cell_angle_gamma 90.000000
_cell_volume 1775.603996
_symmetry_space_group_name_H-M "P 2/M"
_symmetry_group_IT_number 10
_symmetry_cell_setting 'monoclinic'
loop_
_space_group_symop_operation_xyz
x,y,z
-x,y,-z
-x,-y,-z
x,-y,z
loop_
_atom_site_type_symbol
_atom_site_label
_atom_site_fract_x
_atom_site_fract_y
_atom_site_fract_z
Si Si1 0.986449 0.823636 0.197201
Si Si2 0.373016 0.321908 0.163731
Si Si3 0.024062 0.178387 0.605298
Si Si4 0.791783 0.177696 0.024652
Si Si5 0.115187 0.669938 0.883930
Si Si6 0.158845 0.320131 0.385576
Si Si7 0.611933 0.678614 0.031448
O O1 0.964653 0.779577 0.305853
O O2 0.894830 0.742935 0.200827
O O3 0.975331 0.000000 0.188041
O O4 0.105976 0.769036 0.095414
O O5 0.370883 0.500000 0.157688
O O6 0.278110 0.265204 0.284289
O O7 0.488187 0.272368 0.127142
O O8 0.355794 0.261289 0.080887
O O9 0.130175 0.238621 0.490507
O O10 0.921566 0.265776 0.634857
O O11 0.009805 0.000000 0.600370
O O12 0.800523 0.239844 0.112894
O O13 0.683826 0.240927 0.053788
O O14 0.784186 0.000000 0.033823
O O15 0.156920 0.500000 0.847723
O O16 0.000000 0.678459 0.000000
O O17 0.150347 0.500000 0.400736
O O18 0.627476 0.500000 0.029569
#
# Coordination Sequence:
#
# PCOD8057645 Si02
#       7
#     4   4   4   4   4   4   4
#     4   9  18  30  43  60  87 118 143 172 211 253
#     4   8  16  29  45  63  85 113 144 180 216 248
#     4  10  19  30  43  62  87 116 146 174 212 255
#     4  10  18  28  42  63  90 116 141 172 211 252
#     4   9  17  28  43  63  85 111 143 175 208 250
#     4  10  18  29  44  63  86 113 146 181 213 246
#     4   9  16  29  46  63  84 113 147 177 210 252
#
# _framework density 15.769282
#
# number of rings (size 3 to 8) (size 9 to 14) (size 15 to 20)
#    0.000    2.714    0.000    4.286    0.000    3.429 
#    0.000    3.571    0.000    0.000    0.000    1.000 
#    0.000    8.000    0.000    0.000    0.000    0.000 
#
# Total GULP energy -347128.971236 kJ/mol
# GULP energy per Si atom -12397.463258 kJ/mol
# Density = 1.573339 g / cm^3
# Si number density = 15.769282 Si / 1000 Ang^3
#
#
#
# Elastic Constant Matrix: (Units=GPa)
#
#
# Indices 1 2 3 4 5 6 
#
# 1 121.9895 38.1710 60.7291 0.0000 11.3824 0.0000
# 2 38.1710 54.8785 31.1150 0.0000 6.6356 0.0000
# 3 60.7291 31.1150 102.2092 0.0000 4.3949 0.0000
# 4 0.0000 0.0000 0.0000 16.8885 0.0000 9.7652
# 5 11.3824 6.6356 4.3949 0.0000 28.2271 0.0000
# 6 0.0000 0.0000 0.0000 9.7652 0.0000 22.2064
#
#
#
# Elastic Compliance Matrix: (Units=1/GPa)
#
#
# Indices 1 2 3 4 5 6 
#
# 1 0.013185 -0.005352 -0.006071 0.000000 -0.003113 0.000000
# 2 -0.005352 0.024693 -0.004208 0.000000 -0.002991 0.000000
# 3 -0.006071 -0.004208 0.014622 0.000000 0.001161 0.000000
# 4 0.000000 0.000000 0.000000 0.079401 0.000000 -0.034917
# 5 -0.003113 -0.002991 0.001161 0.000000 0.037205 0.000000
# 6 0.000000 0.000000 0.000000 -0.034917 0.000000 0.060387
#
#
# Mechanical properties :
#
#
# Convention : Reuss Voigt Hill
#
# Bulk Modulus (GPa) = 47.08792 59.90082 53.49437
# Shear Modulus (GPa) = 18.66830 23.40186 21.03508
#
# Velocity S-wave (km/s) = 3.44443 3.85647 3.65626
# Velocity P-wave (km/s) = 6.76344 7.60908 7.19869
#
# Compressibility (1/GPa) = 0.02123687
#
# Stress axis : x y z
#
# Youngs Moduli (GPa) = 75.84482 40.49799 68.38991
#
# Poissons Ratio (x) = 0.21676 0.41517
# Poissons Ratio (y) = 0.40595 0.28780
# Poissons Ratio (z) = 0.46043 0.17043
#
# Static dielectric constant tensor:
#      x y z
#    x 3.000690 0.000000 -0.010400 
#    y 0.000000 2.952480 0.000000 
#    z -0.010400 0.000000 3.119480 
# 
# 
# High freq. dielectric constant tensor:
#      x y z
#    x 1.595540 0.000000 0.011430 
#    y 0.000000 1.605470 0.000000 
#    z 0.011430 0.000000 1.583860 
# 
# From -- ./inp_files/65927.got.cif
#   From: 2010.06.25/outbox.cif.g09.slc.cpg/sg10_33_cif.got.tgz:65927.got - 2010.06.27 22:07:45.
