data_PCOD8057548
_publ_section_title
;
Structure prediction by ZEFSAII (Michael W. Deem and Ramdas Pophale) SiO2 
 PCOD8057548
Probable space group: P 2/M
;
_chemical_formula_sum "Si O2"
_cell_formula_units_Z 32
_cell_length_a 17.780037
_cell_length_b 13.754613
_cell_length_c 21.363997
_cell_angle_alpha 90.000000
_cell_angle_beta 156.694542
_cell_angle_gamma 90.000000
_cell_volume 2067.074097
_symmetry_space_group_name_H-M "P 2/M"
_symmetry_group_IT_number 10
_symmetry_cell_setting 'monoclinic'
loop_
_space_group_symop_operation_xyz
x,y,z
-x,y,-z
-x,-y,-z
x,-y,z
loop_
_atom_site_type_symbol
_atom_site_label
_atom_site_fract_x
_atom_site_fract_y
_atom_site_fract_z
Si Si1 0.312613 0.383856 0.391515
Si Si2 0.593568 0.385532 0.831084
Si Si3 0.581829 0.726990 0.949244
Si Si4 0.748010 0.385092 0.516716
Si Si5 0.139303 0.386021 0.756957
Si Si6 0.161385 0.756878 0.671539
Si Si7 0.298660 0.891799 0.879762
Si Si8 0.972856 0.386154 0.048120
O O1 0.500000 0.344802 0.500000
O O2 0.311317 0.500000 0.392377
O O3 0.307693 0.341257 0.458254
O O4 0.129079 0.342247 0.214778
O O5 0.589787 0.500000 0.848034
O O6 0.627849 0.316448 0.916663
O O7 0.399943 0.351295 0.649594
O O8 0.762530 0.364604 0.911925
O O9 0.358056 0.742598 0.785371
O O10 0.662941 0.652223 0.062975
O O11 0.685327 0.830598 0.042980
O O12 0.737043 0.500000 0.512520
O O13 0.960770 0.351322 0.662616
O O14 0.149370 0.500000 0.759368
O O15 0.110899 0.345586 0.665322
O O16 0.159939 0.839029 0.724497
O O17 0.000000 0.787995 0.500000
O O18 0.222991 0.000000 0.837577
O O19 0.500000 0.896441 0.000000
O O20 0.011384 0.500000 0.072653
O O21 0.000000 0.339204 0.000000
#
# Coordination Sequence:
#
# PCOD8057548 Si02
#       8
#     4   4   4   4   4   4   4   4
#     4   9  15  23  35  50  70  99 138 180 214 243
#     4  10  18  27  40  59  85 114 143 176 211 245
#     4  10  19  30  45  63  82 107 140 173 208 251
#     4   9  17  27  38  54  77 109 145 176 208 243
#     4  10  19  30  42  56  80 114 147 175 203 241
#     4  10  20  31  44  64  85 107 139 174 210 250
#     4   8  16  32  50  65  82 104 131 167 211 256
#     4   9  16  25  37  54  77 108 145 179 209 243
#
# _framework density 15.48082
#
# number of rings (size 3 to 8) (size 9 to 14) (size 15 to 20)
#    0.000    2.625    0.000    3.750    0.000    7.000 
#    0.000    0.000    0.000    0.000    0.000    0.000 
#    0.000    0.500    0.000    0.000    0.000   51.000 
#
# Total GULP energy -396644.695398 kJ/mol
# GULP energy per Si atom -12395.146731 kJ/mol
# Density = 1.544558 g / cm^3
# Si number density = 15.480820 Si / 1000 Ang^3
#
#
#
# Elastic Constant Matrix: (Units=GPa)
#
#
# Indices 1 2 3 4 5 6 
#
# 1 76.3647 34.7894 28.5069 0.0000 -16.7127 0.0000
# 2 34.7894 64.1486 30.6056 0.0000 -3.8094 0.0000
# 3 28.5069 30.6056 103.3564 0.0000 -11.8648 0.0000
# 4 0.0000 0.0000 0.0000 9.3529 0.0000 -3.8233
# 5 -16.7127 -3.8094 -11.8648 0.0000 26.0087 0.0000
# 6 0.0000 0.0000 0.0000 -3.8233 0.0000 7.9843
#
#
#
# Elastic Compliance Matrix: (Units=1/GPa)
#
#
# Indices 1 2 3 4 5 6 
#
# 1 0.020524 -0.009757 -0.001500 0.000000 0.011075 0.000000
# 2 -0.009757 0.022793 -0.004638 0.000000 -0.005047 0.000000
# 3 -0.001500 -0.004638 0.011897 0.000000 0.003784 0.000000
# 4 0.000000 0.000000 0.000000 0.132942 0.000000 0.063660
# 5 0.011075 -0.005047 0.003784 0.000000 0.046552 0.000000
# 6 0.000000 0.000000 0.000000 0.063660 0.000000 0.155730
#
#
# Mechanical properties :
#
#
# Convention : Reuss Voigt Hill
#
# Bulk Modulus (GPa) = 42.69158 47.96373 45.32765
# Shear Modulus (GPa) = 11.62694 18.66703 15.14698
#
# Velocity S-wave (km/s) = 2.74351 3.47625 3.13139
# Velocity P-wave (km/s) = 6.13781 6.86749 6.51288
#
# Compressibility (1/GPa) = 0.02342382
#
# Stress axis : x y z
#
# Youngs Moduli (GPa) = 48.72360 43.87241 84.05707
#
# Poissons Ratio (x) = 0.42807 0.12610
# Poissons Ratio (y) = 0.47541 0.38983
# Poissons Ratio (z) = 0.07309 0.20347
#
# Static dielectric constant tensor:
#      x y z
#    x 3.014060 0.000000 -0.070580 
#    y 0.000000 2.702440 0.000000 
#    z -0.070580 0.000000 3.126640 
# 
# 
# High freq. dielectric constant tensor:
#      x y z
#    x 1.592450 0.000000 -0.005780 
#    y 0.000000 1.529540 0.000000 
#    z -0.005780 0.000000 1.608850 
# 
# From -- ./inp_files/32567.got.cif
#   From: 2010.06.25/outbox.cif.g09.slc.cpg/sg10_17_cif.got.tgz:32567.got - 2010.06.27 22:07:45.
