data_PCOD8057698
_publ_section_title
;
Structure prediction by ZEFSAII (Michael W. Deem and Ramdas Pophale) SiO2 
 PCOD8057698
Probable space group: P 2/M
;
_chemical_formula_sum "Si O2"
_cell_formula_units_Z 32
_cell_length_a 11.075892
_cell_length_b 13.158677
_cell_length_c 12.129256
_cell_angle_alpha 90.000000
_cell_angle_beta 75.875127
_cell_angle_gamma 90.000000
_cell_volume 1714.320939
_symmetry_space_group_name_H-M "P 2/M"
_symmetry_group_IT_number 10
_symmetry_cell_setting 'monoclinic'
loop_
_space_group_symop_operation_xyz
x,y,z
-x,y,-z
-x,-y,-z
x,-y,z
loop_
_atom_site_type_symbol
_atom_site_label
_atom_site_fract_x
_atom_site_fract_y
_atom_site_fract_z
Si Si1 0.226542 0.383033 0.975284
Si Si2 0.866021 0.757955 0.586558
Si Si3 0.901126 0.799238 0.104286
Si Si4 0.649018 0.116280 0.230542
Si Si5 0.005714 0.889989 0.283486
Si Si6 0.254433 0.888692 0.554409
Si Si7 0.519667 0.277125 0.119412
Si Si8 0.264121 0.618404 0.217401
O O1 0.199839 0.500000 0.952750
O O2 0.130817 0.315704 0.925297
O O3 0.367276 0.357270 0.908139
O O4 0.205196 0.360163 0.109753
O O5 0.752556 0.796047 0.532008
O O6 0.821860 0.660043 0.664799
O O7 0.000000 0.731754 0.500000
O O8 0.880031 0.850925 0.669167
O O9 0.777953 0.868236 0.135628
O O10 0.970796 0.801129 0.205546
O O11 0.000000 0.850013 0.000000
O O12 0.666630 0.146200 0.355615
O O13 0.543855 0.184673 0.198030
O O14 0.608092 0.000000 0.228965
O O15 0.888573 0.908095 0.386893
O O16 0.040832 0.000000 0.221961
O O17 0.305879 0.000000 0.500714
O O18 0.400050 0.332899 0.193487
O O19 0.500000 0.233844 0.000000
O O20 0.279357 0.500000 0.234351
#
# Coordination Sequence:
#
# PCOD8057698 Si02
#       8
#     4   4   4   4   4   4   4   4
#     4   9  18  33  53  74  97 129 170 213 251 289
#     4  10  19  32  52  75 100 130 166 207 248 294
#     4  10  18  28  44  71 106 136 165 196 242 301
#     4   9  18  32  50  73 103 136 166 201 247 296
#     4   9  17  29  46  70 100 134 167 197 236 290
#     4   8  15  30  51  71  94 129 167 201 239 283
#     4   9  18  34  55  76  99 129 166 205 249 300
#     4  10  20  35  54  74  97 127 166 212 257 299
#
# _framework density 18.666284000000001
#
# number of rings (size 3 to 8) (size 9 to 14) (size 15 to 20)
#    0.000    2.750    0.000    2.625    0.000    4.750 
#    0.000    2.500    0.000   13.500    0.000    0.000 
#    0.000    0.000    0.000    0.000    0.000    0.000 
#
# Total GULP energy -396496.760580 kJ/mol
# GULP energy per Si atom -12390.523768 kJ/mol
# Density = 1.862380 g / cm^3
# Si number density = 18.666284 Si / 1000 Ang^3
#
#
#
# Elastic Constant Matrix: (Units=GPa)
#
#
# Indices 1 2 3 4 5 6 
#
# 1 66.4249 51.9074 45.5779 0.0000 17.0408 0.0000
# 2 51.9074 125.2182 66.3840 0.0000 22.1010 0.0000
# 3 45.5779 66.3840 86.1106 0.0000 10.5457 0.0000
# 4 0.0000 0.0000 0.0000 28.7469 0.0000 -4.3408
# 5 17.0408 22.1010 10.5457 0.0000 30.1839 0.0000
# 6 0.0000 0.0000 0.0000 -4.3408 0.0000 -85.0437
#
#
#
# Elastic Compliance Matrix: (Units=1/GPa)
#
#
# Indices 1 2 3 4 5 6 
#
# 1 0.027869 -0.004651 -0.010087 0.000000 -0.008804 0.000000
# 2 -0.004651 0.015638 -0.008894 0.000000 -0.005717 0.000000
# 3 -0.010087 -0.008894 0.023311 0.000000 0.004063 0.000000
# 4 0.000000 0.000000 0.000000 0.034520 0.000000 -0.001762
# 5 -0.008804 -0.005717 0.004063 0.000000 0.040868 0.000000
# 6 0.000000 0.000000 0.000000 -0.001762 0.000000 -0.011669
#
#
# Mechanical properties :
#
#
# Convention : Reuss Voigt Hill
#
# Bulk Modulus (GPa) = 51.14006 67.27693 59.20850
# Shear Modulus (GPa) = 27.12678 2.36971 14.74825
#
# Velocity S-wave (km/s) = 3.81629 1.12795 2.81392
# Velocity P-wave (km/s) = 6.84655 6.14952 6.50737
#
# Compressibility (1/GPa) = 0.01955414
#
# Stress axis : x y z
#
# Youngs Moduli (GPa) = 35.88182 63.94585 42.89852
#
# Poissons Ratio (x) = 0.29743 0.43272
# Poissons Ratio (y) = 0.16689 0.38153
# Poissons Ratio (z) = 0.36195 0.56872
#
# Static dielectric constant tensor:
#      x y z
#    x 3.320090 0.000000 0.164020 
#    y 0.000000 3.601310 0.000000 
#    z 0.164020 0.000000 3.496690 
# 
# 
# High freq. dielectric constant tensor:
#      x y z
#    x 1.715010 0.000000 0.012280 
#    y 0.000000 1.713070 0.000000 
#    z 0.012280 0.000000 1.713370 
# 
# From -- ./inp_files/46980.got.cif
#   From: 2010.06.25/outbox.cif.g09.slc.cpg/sg10_24_cif.got.tgz:46980.got - 2010.06.27 22:07:45.
