data_PCOD8057489
_publ_section_title
;
Structure prediction by ZEFSAII (Michael W. Deem and Ramdas Pophale) SiO2 
 PCOD8057489
Probable space group: P 2/M
;
_chemical_formula_sum "Si O2"
_cell_formula_units_Z 32
_cell_length_a 23.029451
_cell_length_b 8.912458
_cell_length_c 14.197126
_cell_angle_alpha 90.000000
_cell_angle_beta 45.198159
_cell_angle_gamma 90.000000
_cell_volume 2067.584922
_symmetry_space_group_name_H-M "P 2/M"
_symmetry_group_IT_number 10
_symmetry_cell_setting 'monoclinic'
loop_
_space_group_symop_operation_xyz
x,y,z
-x,y,-z
-x,-y,-z
x,-y,z
loop_
_atom_site_type_symbol
_atom_site_label
_atom_site_fract_x
_atom_site_fract_y
_atom_site_fract_z
Si Si1 0.039141 0.173878 0.830797
Si Si2 0.672295 0.322929 0.704387
Si Si3 0.800190 0.172846 0.445235
Si Si4 0.895971 0.326752 0.057593
Si Si5 0.574246 0.666021 0.987554
Si Si6 0.263179 0.672866 0.667078
Si Si7 0.550424 0.674306 0.533109
Si Si8 0.471071 0.176215 0.248731
O O1 0.101008 0.198427 0.672105
O O2 0.071445 0.277815 0.877613
O O3 0.039476 0.000000 0.860396
O O4 0.945035 0.230328 0.920914
O O5 0.665555 0.500000 0.699843
O O6 0.763359 0.266162 0.574939
O O7 0.609578 0.251858 0.701691
O O8 0.651689 0.277158 0.836367
O O9 0.757888 0.221423 0.396334
O O10 0.779065 0.000000 0.485941
O O11 0.914672 0.500000 0.017184
O O12 0.798050 0.295585 0.174032
O O13 0.590967 0.500000 0.010349
O O14 0.552813 0.777764 0.097105
O O15 0.500000 0.657839 0.000000
O O16 0.253384 0.500000 0.645147
O O17 0.354482 0.707375 0.597213
O O18 0.500000 0.726415 0.500000
O O19 0.535575 0.500000 0.573225
O O20 0.517583 0.771205 0.657540
O O21 0.460295 0.000000 0.255783
#
# Coordination Sequence:
#
# PCOD8057489 Si02
#       8
#     4   4   4   4   4   4   4   4
#     4   9  16  24  33  50  75 101 128 157 192 233
#     4  10  18  28  42  59  80 107 137 166 197 238
#     4  10  18  25  37  57  80 106 133 163 200 236
#     4   9  15  23  36  52  69  94 130 164 195 230
#     4   8  16  29  43  58  77 103 133 163 197 239
#     4   9  17  28  41  55  73 100 133 170 206 241
#     4  10  20  33  47  60  77 106 141 174 210 248
#     4  11  20  29  43  61  80 102 131 170 210 244
#
# _framework density 15.476993
#
# number of rings (size 3 to 8) (size 9 to 14) (size 15 to 20)
#    0.000    2.500    1.250    4.125    0.000    5.000 
#    0.000    0.000    0.000    0.000    0.000    0.000 
#    0.000    0.000    0.000    1.125    0.000   23.500 
#
# Total GULP energy -396501.735939 kJ/mol
# GULP energy per Si atom -12390.679248 kJ/mol
# Density = 1.544177 g / cm^3
# Si number density = 15.476993 Si / 1000 Ang^3
#
#
#
# Elastic Constant Matrix: (Units=GPa)
#
#
# Indices 1 2 3 4 5 6 
#
# 1 33.5328 19.1980 38.6569 0.0000 -7.1769 0.0000
# 2 19.1980 77.8858 57.5645 0.0000 -5.5754 0.0000
# 3 38.6569 57.5645 145.4287 0.0000 -24.9274 0.0000
# 4 0.0000 0.0000 0.0000 22.0254 0.0000 -7.5168
# 5 -7.1769 -5.5754 -24.9274 0.0000 18.3521 0.0000
# 6 0.0000 0.0000 0.0000 -7.5168 0.0000 7.4451
#
#
#
# Elastic Compliance Matrix: (Units=1/GPa)
#
#
# Indices 1 2 3 4 5 6 
#
# 1 0.043614 -0.003295 -0.009824 0.000000 0.002711 0.000000
# 2 -0.003295 0.018839 -0.007587 0.000000 -0.005871 0.000000
# 3 -0.009824 -0.007587 0.014908 0.000000 0.014103 0.000000
# 4 0.000000 0.000000 0.000000 0.069270 0.000000 0.069937
# 5 0.002711 -0.005871 0.014103 0.000000 0.072921 0.000000
# 6 0.000000 0.000000 0.000000 0.069937 0.000000 0.204927
#
#
# Mechanical properties :
#
#
# Convention : Reuss Voigt Hill
#
# Bulk Modulus (GPa) = 27.81853 54.18735 41.00294
# Shear Modulus (GPa) = 10.46298 18.99306 14.72802
#
# Velocity S-wave (km/s) = 2.60289 3.50691 3.08816
# Velocity P-wave (km/s) = 5.20062 7.17534 6.26626
#
# Compressibility (1/GPa) = 0.03594726
#
# Stress axis : x y z
#
# Youngs Moduli (GPa) = 22.92858 53.08123 67.07746
#
# Poissons Ratio (x) = 0.17492 0.65897
# Poissons Ratio (y) = 0.07556 0.50894
# Poissons Ratio (z) = 0.22525 0.40275
#
# Static dielectric constant tensor:
#      x y z
#    x 2.571180 0.000000 -0.534120 
#    y 0.000000 3.015820 0.000000 
#    z -0.534120 0.000000 3.698920 
# 
# 
# High freq. dielectric constant tensor:
#      x y z
#    x 1.511380 0.000000 -0.037750 
#    y 0.000000 1.604260 0.000000 
#    z -0.037750 0.000000 1.609260 
# 
# From -- ./inp_files/56392.got.cif
#   From: 2010.06.25/outbox.cif.g09.slc.cpg/sg10_29_cif.got.tgz:56392.got - 2010.06.27 22:07:45.
