data_PCOD8057099
_publ_section_title
;
Structure prediction by ZEFSAII (Michael W. Deem and Ramdas Pophale) SiO2 
 PCOD8057099
Probable space group: P 2/M
;
_chemical_formula_sum "Si O2"
_cell_formula_units_Z 32
_cell_length_a 21.640240
_cell_length_b 13.615751
_cell_length_c 21.689914
_cell_angle_alpha 90.000000
_cell_angle_beta 161.922940
_cell_angle_gamma 90.000000
_cell_volume 1983.067308
_symmetry_space_group_name_H-M "P 2/M"
_symmetry_group_IT_number 10
_symmetry_cell_setting 'monoclinic'
loop_
_space_group_symop_operation_xyz
x,y,z
-x,y,-z
-x,-y,-z
x,-y,z
loop_
_atom_site_type_symbol
_atom_site_label
_atom_site_fract_x
_atom_site_fract_y
_atom_site_fract_z
Si Si1 0.564818 0.887156 0.497085
Si Si2 0.922582 0.112672 0.761061
Si Si3 0.641907 0.388312 0.317274
Si Si4 0.855467 0.775037 0.578668
Si Si5 0.634312 0.116319 0.813416
Si Si6 0.013528 0.387048 0.583701
Si Si7 0.539268 0.115176 0.219445
Si Si8 0.273126 0.272534 0.922761
O O1 0.500000 0.834954 0.500000
O O2 0.802488 0.878015 0.711644
O O3 0.468205 0.837546 0.344657
O O4 0.494264 0.000000 0.433913
O O5 0.813828 0.173175 0.604170
O O6 0.925366 0.000000 0.740712
O O7 0.140821 0.153464 0.978989
O O8 0.632212 0.500000 0.329691
O O9 0.731625 0.326764 0.459573
O O10 0.794399 0.372582 0.404851
O O11 0.418034 0.355331 0.088500
O O12 0.767844 0.845422 0.439826
O O13 0.089813 0.755084 0.793515
O O14 0.546995 0.150334 0.796006
O O15 0.611976 0.000000 0.789701
O O16 0.083960 0.500000 0.658639
O O17 0.179616 0.315113 0.771053
O O18 0.000000 0.356764 0.500000
O O19 0.527587 0.000000 0.194052
O O20 0.408616 0.173284 0.043701
#
# Coordination Sequence:
#
# PCOD8057099 Si02
#       8
#     4   4   4   4   4   4   4   4
#     4   9  17  27  38  55  85 125 162 195 230 268
#     4  10  17  26  42  63  90 123 157 193 227 268
#     4   9  19  33  48  71 100 124 147 182 230 279
#     4  10  18  28  45  67  91 123 157 191 230 277
#     4   9  16  25  39  58  83 117 155 191 224 263
#     4   9  18  33  53  76 100 125 152 181 222 280
#     4  10  18  28  44  67  92 121 159 197 232 270
#     4  10  19  30  47  71  96 124 155 193 233 272
#
# _framework density 16.136619
#
# number of rings (size 3 to 8) (size 9 to 14) (size 15 to 20)
#    0.000    2.500    2.500    0.750    0.000    2.000 
#    0.000    4.375    0.000    0.375    0.000    7.875 
#    0.000    0.500    0.000    2.375    0.000    0.125 
#
# Total GULP energy -396445.648140 kJ/mol
# GULP energy per Si atom -12388.926504 kJ/mol
# Density = 1.609989 g / cm^3
# Si number density = 16.136619 Si / 1000 Ang^3
#
#
#
# Elastic Constant Matrix: (Units=GPa)
#
#
# Indices 1 2 3 4 5 6 
#
# 1 55.7700 18.0573 17.2735 0.0000 -5.1114 0.0000
# 2 18.0573 85.6760 29.5770 0.0000 -3.5902 0.0000
# 3 17.2735 29.5770 92.0060 0.0000 4.4364 0.0000
# 4 0.0000 0.0000 0.0000 23.5291 0.0000 -0.3580
# 5 -5.1114 -3.5902 4.4364 0.0000 18.7925 0.0000
# 6 0.0000 0.0000 0.0000 -0.3580 0.0000 12.4787
#
#
#
# Elastic Compliance Matrix: (Units=1/GPa)
#
#
# Indices 1 2 3 4 5 6 
#
# 1 0.020393 -0.002971 -0.003149 0.000000 0.005723 0.000000
# 2 -0.002971 0.013799 -0.004012 0.000000 0.002775 0.000000
# 3 -0.003149 -0.004012 0.012976 0.000000 -0.004686 0.000000
# 4 0.000000 0.000000 0.000000 0.042519 0.000000 0.001220
# 5 0.005723 0.002775 -0.004686 0.000000 0.056406 0.000000
# 6 0.000000 0.000000 0.000000 0.001220 0.000000 0.080171
#
#
# Mechanical properties :
#
#
# Convention : Reuss Voigt Hill
#
# Bulk Modulus (GPa) = 37.17069 40.36307 38.76688
# Shear Modulus (GPa) = 19.56969 22.19633 20.88301
#
# Velocity S-wave (km/s) = 3.48623 3.71283 3.60132
# Velocity P-wave (km/s) = 6.26818 6.59149 6.43187
#
# Compressibility (1/GPa) = 0.02690292
#
# Stress axis : x y z
#
# Youngs Moduli (GPa) = 49.03715 72.46688 77.06605
#
# Poissons Ratio (x) = 0.21530 0.24272
# Poissons Ratio (y) = 0.14569 0.30920
# Poissons Ratio (z) = 0.15444 0.29075
#
# Static dielectric constant tensor:
#      x y z
#    x 2.945930 0.000000 0.033190 
#    y 0.000000 2.926440 0.000000 
#    z 0.033190 0.000000 3.315120 
# 
# 
# High freq. dielectric constant tensor:
#      x y z
#    x 1.589540 0.000000 0.008570 
#    y 0.000000 1.588450 0.000000 
#    z 0.008570 0.000000 1.642110 
# 
# From -- ./inp_files/86360.got.cif
#   From: 2010.06.25/outbox.cif.g09.slc.cpg/sg10_44_cif.got.tgz:86360.got - 2010.06.27 22:07:45.
