data_PCOD8057049
_publ_section_title
;
Structure prediction by ZEFSAII (Michael W. Deem and Ramdas Pophale) SiO2 
 PCOD8057049
Probable space group: P 2/M
;
_chemical_formula_sum "Si O2"
_cell_formula_units_Z 32
_cell_length_a 17.623017
_cell_length_b 9.165279
_cell_length_c 24.013329
_cell_angle_alpha 90.000000
_cell_angle_beta 149.287637
_cell_angle_gamma 90.000000
_cell_volume 1980.926510
_symmetry_space_group_name_H-M "P 2/M"
_symmetry_group_IT_number 10
_symmetry_cell_setting 'monoclinic'
loop_
_space_group_symop_operation_xyz
x,y,z
-x,y,-z
-x,-y,-z
x,-y,z
loop_
_atom_site_type_symbol
_atom_site_label
_atom_site_fract_x
_atom_site_fract_y
_atom_site_fract_z
Si Si1 0.095031 0.829661 0.440524
Si Si2 0.640591 0.329069 0.815734
Si Si3 0.064278 0.172648 0.980264
Si Si4 0.229644 0.171188 0.411601
Si Si5 0.881159 0.661379 0.375750
Si Si6 0.674517 0.330155 0.337684
Si Si7 0.178321 0.829844 0.258406
Si Si8 0.448157 0.829180 0.351623
O O1 0.109409 0.795106 0.383829
O O2 0.236476 0.760686 0.560214
O O3 0.936659 0.767702 0.361760
O O4 0.098547 0.000000 0.455148
O O5 0.669613 0.500000 0.826838
O O6 0.499611 0.297925 0.766637
O O7 0.614891 0.259967 0.739581
O O8 0.781057 0.253809 0.933335
O O9 0.950264 0.235616 0.862103
O O10 0.089725 0.000000 0.991859
O O11 0.000000 0.214134 0.000000
O O12 0.173887 0.239976 0.317847
O O13 0.390427 0.233888 0.530498
O O14 0.252386 0.000000 0.417153
O O15 0.864265 0.500000 0.339208
O O16 0.726876 0.712987 0.307681
O O17 0.000000 0.661701 0.500000
O O18 0.712302 0.500000 0.372145
O O19 0.340887 0.800404 0.336055
O O20 0.145799 0.000000 0.241352
O O21 0.451822 0.000000 0.337506
#
# Coordination Sequence:
#
# PCOD8057049 Si02
#       8
#     4   4   4   4   4   4   4   4
#     4  10  17  25  42  69  96 117 145 185 227 267
#     4  11  21  31  47  69  94 122 153 191 237 272
#     4  10  19  33  51  69  88 117 159 198 230 271
#     4   9  17  27  44  71  96 121 152 189 227 268
#     4   8  15  28  43  59  86 123 155 177 213 274
#     4   9  18  31  44  61  89 125 156 180 218 276
#     4   9  17  30  48  67  90 121 158 193 226 269
#     4  10  17  30  49  68  91 121 159 190 220 269
#
# _framework density 16.154057999999999
#
# number of rings (size 3 to 8) (size 9 to 14) (size 15 to 20)
#    0.000    2.500    2.500    1.875    0.000    4.500 
#    0.000    0.000    0.000    5.250    0.000    0.875 
#    0.000    7.000    0.000    0.000    0.000    0.000 
#
# Total GULP energy -396658.151646 kJ/mol
# GULP energy per Si atom -12395.567239 kJ/mol
# Density = 1.611729 g / cm^3
# Si number density = 16.154058 Si / 1000 Ang^3
#
#
#
# Elastic Constant Matrix: (Units=GPa)
#
#
# Indices 1 2 3 4 5 6 
#
# 1 117.0098 39.9262 49.1778 0.0000 6.7670 0.0000
# 2 39.9262 48.7711 24.6903 0.0000 4.4677 0.0000
# 3 49.1778 24.6903 75.9234 0.0000 -3.7169 0.0000
# 4 0.0000 0.0000 0.0000 9.8091 0.0000 10.3358
# 5 6.7670 4.4677 -3.7169 0.0000 21.9190 0.0000
# 6 0.0000 0.0000 0.0000 10.3358 0.0000 19.7544
#
#
#
# Elastic Compliance Matrix: (Units=1/GPa)
#
#
# Indices 1 2 3 4 5 6 
#
# 1 0.014395 -0.007897 -0.006952 0.000000 -0.004013 0.000000
# 2 -0.007897 0.029804 -0.004795 0.000000 -0.004450 0.000000
# 3 -0.006952 -0.004795 0.019549 0.000000 0.006439 0.000000
# 4 0.000000 0.000000 0.000000 0.227212 0.000000 -0.118881
# 5 -0.004013 -0.004450 0.006439 0.000000 0.048860 0.000000
# 6 0.000000 0.000000 0.000000 -0.118881 0.000000 0.112822
#
#
# Mechanical properties :
#
#
# Convention : Reuss Voigt Hill
#
# Bulk Modulus (GPa) = 40.88465 52.14365 46.51415
# Shear Modulus (GPa) = 9.99830 18.82384 14.41107
#
# Velocity S-wave (km/s) = 2.49054 3.41731 2.99005
# Velocity P-wave (km/s) = 5.79953 6.92241 6.38570
#
# Compressibility (1/GPa) = 0.02445906
#
# Stress axis : x y z
#
# Youngs Moduli (GPa) = 69.46810 33.55265 51.15358
#
# Poissons Ratio (x) = 0.26497 0.35564
# Poissons Ratio (y) = 0.54860 0.24528
# Poissons Ratio (z) = 0.48297 0.16088
#
# Static dielectric constant tensor:
#      x y z
#    x 3.406640 0.000000 0.111880 
#    y 0.000000 2.901140 0.000000 
#    z 0.111880 0.000000 3.023700 
# 
# 
# High freq. dielectric constant tensor:
#      x y z
#    x 1.628400 0.000000 0.012960 
#    y 0.000000 1.600020 0.000000 
#    z 0.012960 0.000000 1.589220 
# 
# From -- ./inp_files/56412.got.cif
#   From: 2010.06.25/outbox.cif.g09.slc.cpg/sg10_29_cif.got.tgz:56412.got - 2010.06.27 22:07:45.
