data_PCOD8057128
_publ_section_title
;
Structure prediction by ZEFSAII (Michael W. Deem and Ramdas Pophale) SiO2 
 PCOD8057128
Probable space group: P 2/M
;
_chemical_formula_sum "Si O2"
_cell_formula_units_Z 28
_cell_length_a 17.048268
_cell_length_b 12.999286
_cell_length_c 23.561723
_cell_angle_alpha 90.000000
_cell_angle_beta 19.431573
_cell_angle_gamma 90.000000
_cell_volume 1737.139146
_symmetry_space_group_name_H-M "P 2/M"
_symmetry_group_IT_number 10
_symmetry_cell_setting 'monoclinic'
loop_
_space_group_symop_operation_xyz
x,y,z
-x,y,-z
-x,-y,-z
x,-y,z
loop_
_atom_site_type_symbol
_atom_site_label
_atom_site_fract_x
_atom_site_fract_y
_atom_site_fract_z
Si Si1 0.541150 0.613973 0.063944
Si Si2 0.621866 0.881417 0.271260
Si Si3 0.220824 0.195501 0.055024
Si Si4 0.879032 0.613981 0.725938
Si Si5 0.542246 0.000000 0.063295
Si Si6 0.879901 0.000000 0.725540
Si Si7 0.117464 0.804511 0.606577
Si Si8 0.951044 0.118591 0.942200
O O1 0.558542 0.500000 0.079794
O O2 0.272559 0.636210 0.227514
O O3 0.626515 0.699697 0.050167
O O4 0.704253 0.620050 0.897858
O O5 0.392061 0.811172 0.434464
O O6 0.807325 0.846253 0.192613
O O7 0.552155 0.000000 0.328355
O O8 0.733264 0.866170 0.133309
O O9 0.085308 0.188781 0.088012
O O10 0.028280 0.194707 0.235924
O O11 0.402600 0.100943 0.937372
O O12 0.994603 0.500000 0.643594
O O13 0.080092 0.699671 0.596455
O O14 0.267430 0.000000 0.232655
O O15 0.700245 0.000000 0.899837
O O16 0.042609 0.100960 0.617259
O O17 0.970338 0.000000 0.910310
#
# Coordination Sequence:
#
# PCOD8057128 Si02
#       8
#     4   4   4   4   2   2   4   4
#     4   8  14  25  42  65  92 121 151 179 209 252
#     4   9  18  32  47  62  85 118 149 177 218 272
#     4  10  17  26  44  69  91 113 144 183 220 252
#     4   8  14  25  42  65  92 121 151 179 209 252
#     4   9  16  24  36  61  94 118 135 165 214 263
#     4   9  16  24  36  61  94 118 135 165 214 263
#     4  10  17  26  44  69  91 113 144 183 220 252
#     4   9  18  32  47  62  85 118 149 177 218 272
#
# _framework density 16.118455999999998
#
# number of rings (size 3 to 8) (size 9 to 14) (size 15 to 20)
#    0.000    3.000    1.429    2.571    0.000    4.000 
#    0.000    1.429    0.000    6.000    0.000    8.000 
#    0.000    0.000    0.000    0.000    0.000    0.000 
#
# Total GULP energy -347096.703433 kJ/mol
# GULP energy per Si atom -12396.310837 kJ/mol
# Density = 1.608177 g / cm^3
# Si number density = 16.118456 Si / 1000 Ang^3
#
#
#
# Elastic Constant Matrix: (Units=GPa)
#
#
# Indices 1 2 3 4 5 6 
#
# 1 86.0027 60.7414 45.2971 0.0000 -27.2575 0.0000
# 2 60.7414 126.9266 38.6395 0.0000 -19.7847 0.0000
# 3 45.2971 38.6395 38.5438 0.0000 -15.2117 0.0000
# 4 0.0000 0.0000 0.0000 14.4033 0.0000 -7.3403
# 5 -27.2575 -19.7847 -15.2117 0.0000 15.8615 0.0000
# 6 0.0000 0.0000 0.0000 -7.3403 0.0000 22.6476
#
#
#
# Elastic Compliance Matrix: (Units=1/GPa)
#
#
# Indices 1 2 3 4 5 6 
#
# 1 0.044576 -0.005703 -0.030964 0.000000 0.039793 0.000000
# 2 -0.005703 0.012343 -0.005572 0.000000 0.000252 0.000000
# 3 -0.030964 -0.005572 0.071080 0.000000 0.008006 0.000000
# 4 0.000000 0.000000 0.000000 0.083165 0.000000 0.026955
# 5 0.039793 0.000252 0.008006 0.000000 0.139422 0.000000
# 6 0.000000 0.000000 0.000000 0.026955 0.000000 0.052891
#
#
# Mechanical properties :
#
#
# Convention : Reuss Voigt Hill
#
# Bulk Modulus (GPa) = 22.97784 60.09210 41.53497
# Shear Modulus (GPa) = 9.95096 17.70216 13.82656
#
# Velocity S-wave (km/s) = 2.48738 3.31759 2.93202
# Velocity P-wave (km/s) = 4.74720 7.21371 6.10629
#
# Compressibility (1/GPa) = 0.04352019
#
# Stress axis : x y z
#
# Youngs Moduli (GPa) = 22.43344 81.01474 14.06862
#
# Poissons Ratio (x) = 0.46204 0.43563
# Poissons Ratio (y) = 0.12794 0.07840
# Poissons Ratio (z) = 0.69464 0.45144
#
# Static dielectric constant tensor:
#      x y z
#    x 2.972330 0.000000 -0.232940 
#    y 0.000000 3.189020 0.000000 
#    z -0.232940 0.000000 2.709070 
# 
# 
# High freq. dielectric constant tensor:
#      x y z
#    x 1.609200 0.000000 -0.021350 
#    y 0.000000 1.610740 0.000000 
#    z -0.021350 0.000000 1.585070 
# 
# From -- ./inp_files/36005.got.cif
#   From: 2010.06.25/outbox.cif.g09.slc.cpg/sg10_19_cif.got.tgz:36005.got - 2010.06.27 22:07:45.
