data_PCOD8057076
_publ_section_title
;
Structure prediction by ZEFSAII (Michael W. Deem and Ramdas Pophale) SiO2 
 PCOD8057076
Probable space group: P 2/M
;
_chemical_formula_sum "Si O2"
_cell_formula_units_Z 32
_cell_length_a 14.903164
_cell_length_b 18.168291
_cell_length_c 14.901917
_cell_angle_alpha 90.000000
_cell_angle_beta 149.213267
_cell_angle_gamma 90.000000
_cell_volume 2065.248322
_symmetry_space_group_name_H-M "P 2/M"
_symmetry_group_IT_number 10
_symmetry_cell_setting 'monoclinic'
loop_
_space_group_symop_operation_xyz
x,y,z
-x,y,-z
-x,-y,-z
x,-y,z
loop_
_atom_site_type_symbol
_atom_site_label
_atom_site_fract_x
_atom_site_fract_y
_atom_site_fract_z
Si Si1 0.380999 0.321159 0.481903
Si Si2 0.009201 0.664525 0.906842
Si Si3 0.414346 0.414282 0.682232
Si Si4 0.682002 0.151845 0.577814
Si Si5 0.357007 0.914767 0.259853
Si Si6 0.039632 0.412631 0.435903
Si Si7 0.786256 0.415082 0.065150
Si Si8 0.048729 0.834378 0.941556
O O1 0.500000 0.344475 0.500000
O O2 0.181543 0.346066 0.298619
O O3 0.455260 0.363926 0.631546
O O4 0.387022 0.233730 0.500684
O O5 0.148178 0.617625 0.971876
O O6 0.081419 0.747715 0.966786
O O7 0.000000 0.635110 0.000000
O O8 0.402309 0.500000 0.642816
O O9 0.234453 0.387854 0.574150
O O10 0.576029 0.402725 0.891098
O O11 0.662142 0.132072 0.665623
O O12 0.564115 0.097541 0.413572
O O13 0.890845 0.144324 0.736968
O O14 0.313577 0.000000 0.236210
O O15 0.227539 0.879689 0.072994
O O16 0.027509 0.500000 0.429762
O O17 0.000000 0.379014 0.500000
O O18 0.891921 0.380436 0.240547
O O19 0.834321 0.500000 0.103614
O O20 0.000000 0.860096 0.000000
#
# Coordination Sequence:
#
# PCOD8057076 Si02
#       8
#     4   4   4   4   4   4   4   4
#     4  11  19  30  47  62  90 127 159 199 228 270
#     4  10  19  30  45  63  89 126 160 195 227 269
#     4  10  21  33  47  70  92 117 157 196 235 279
#     4   9  17  27  38  57  78 109 150 188 219 266
#     4  10  17  26  41  57  78 109 150 195 225 253
#     4   9  18  35  54  70  92 116 145 194 242 283
#     4  10  20  33  48  69  93 117 153 196 234 277
#     4   8  17  27  37  56  78 107 149 186 216 266
#
# _framework density 15.494503999999999
#
# number of rings (size 3 to 8) (size 9 to 14) (size 15 to 20)
#    0.000    2.375    2.500    2.250    1.750    3.750 
#    0.000    2.500    0.000    0.000    0.000    0.000 
#    0.000    0.000    0.000    0.000    0.000    6.875 
#
# Total GULP energy -396500.753201 kJ/mol
# GULP energy per Si atom -12390.648538 kJ/mol
# Density = 1.545924 g / cm^3
# Si number density = 15.494504 Si / 1000 Ang^3
#
#
#
# Elastic Constant Matrix: (Units=GPa)
#
#
# Indices 1 2 3 4 5 6 
#
# 1 64.1649 23.5078 41.9289 0.0000 -1.1652 0.0000
# 2 23.5078 48.4202 39.2944 0.0000 1.0523 0.0000
# 3 41.9289 39.2944 129.9168 0.0000 11.3902 0.0000
# 4 0.0000 0.0000 0.0000 20.7648 0.0000 5.4023
# 5 -1.1652 1.0523 11.3902 0.0000 18.6789 0.0000
# 6 0.0000 0.0000 0.0000 5.4023 0.0000 1.4948
#
#
#
# Elastic Compliance Matrix: (Units=1/GPa)
#
#
# Indices 1 2 3 4 5 6 
#
# 1 0.021528 -0.006047 -0.005564 0.000000 0.005077 0.000000
# 2 -0.006047 0.029314 -0.007117 0.000000 0.002312 0.000000
# 3 -0.005564 -0.007117 0.012298 0.000000 -0.007446 0.000000
# 4 0.000000 0.000000 0.000000 0.805991 0.000000 -2.912907
# 5 0.005077 0.002312 -0.007446 0.000000 0.058263 0.000000
# 6 0.000000 0.000000 0.000000 -2.912907 0.000000 11.196444
#
#
# Mechanical properties :
#
#
# Convention : Reuss Voigt Hill
#
# Bulk Modulus (GPa) = 38.93456 50.21822 44.57639
# Shear Modulus (GPa) = 0.41085 17.37242 8.89164
#
# Velocity S-wave (km/s) = 0.51549 3.35206 2.39813
# Velocity P-wave (km/s) = 5.05340 6.88930 6.04149
#
# Compressibility (1/GPa) = 0.02568412
#
# Stress axis : x y z
#
# Youngs Moduli (GPa) = 46.45057 34.11351 81.31077
#
# Poissons Ratio (x) = 0.20627 0.45243
# Poissons Ratio (y) = 0.28087 0.57872
# Poissons Ratio (z) = 0.25846 0.24280
#
# Static dielectric constant tensor:
#      x y z
#    x 2.658710 0.000000 0.288360 
#    y 0.000000 2.741170 0.000000 
#    z 0.288360 0.000000 3.734650 
# 
# 
# High freq. dielectric constant tensor:
#      x y z
#    x 1.530380 0.000000 0.024920 
#    y 0.000000 1.570760 0.000000 
#    z 0.024920 0.000000 1.625380 
# 
# From -- ./inp_files/67739.got.cif
#   From: 2010.06.25/outbox.cif.g09.slc.cpg/sg10_34_cif.got.tgz:67739.got - 2010.06.27 22:07:45.
