data_PCOD8057590
_publ_section_title
;
Structure prediction by ZEFSAII (Michael W. Deem and Ramdas Pophale) SiO2 
 PCOD8057590
Probable space group: P 2/M
;
_chemical_formula_sum "Si O2"
_cell_formula_units_Z 32
_cell_length_a 21.251970
_cell_length_b 8.881426
_cell_length_c 30.843744
_cell_angle_alpha 90.000000
_cell_angle_beta 160.394544
_cell_angle_gamma 90.000000
_cell_volume 1953.416884
_symmetry_space_group_name_H-M "P 2/M"
_symmetry_group_IT_number 10
_symmetry_cell_setting 'monoclinic'
loop_
_space_group_symop_operation_xyz
x,y,z
-x,y,-z
-x,-y,-z
x,-y,z
loop_
_atom_site_type_symbol
_atom_site_label
_atom_site_fract_x
_atom_site_fract_y
_atom_site_fract_z
Si Si1 0.778763 0.672304 0.438350
Si Si2 0.818009 0.176061 0.909840
Si Si3 0.550748 0.178108 0.215433
Si Si4 0.175098 0.321114 0.992033
Si Si5 0.106796 0.833342 0.614667
Si Si6 0.464138 0.325672 0.638568
Si Si7 0.210010 0.678948 0.296834
Si Si8 0.568686 0.321634 0.479110
O O1 0.762349 0.500000 0.412712
O O2 0.642612 0.770356 0.320150
O O3 0.714169 0.694704 0.445821
O O4 0.996413 0.723643 0.575800
O O5 0.637056 0.224735 0.765464
O O6 0.806330 0.000000 0.912905
O O7 0.824986 0.266851 0.958812
O O8 0.000000 0.216884 0.000000
O O9 0.682172 0.223047 0.259498
O O10 0.525440 0.000000 0.201658
O O11 0.351471 0.257261 0.079868
O O12 0.185111 0.500000 0.998535
O O13 0.991234 0.257120 0.848278
O O14 0.000000 0.838600 0.500000
O O15 0.111644 0.000000 0.638575
O O16 0.529100 0.500000 0.679391
O O17 0.398209 0.267172 0.548524
O O18 0.202316 0.500000 0.290502
O O19 0.264895 0.736262 0.380967
O O20 0.367697 0.738546 0.365657
O O21 0.566538 0.500000 0.480122
#
# Coordination Sequence:
#
# PCOD8057590 Si02
#       8
#     4   4   4   4   4   4   4   4
#     4  10  18  27  42  68  95 120 151 189 229 270
#     4  11  23  34  44  62  92 129 160 185 223 276
#     4  10  19  31  45  63  91 126 156 185 225 276
#     4  11  20  30  47  71  94 119 154 194 234 273
#     4   8  16  29  44  61  85 122 158 183 222 273
#     4  10  19  30  47  70  94 121 152 189 231 275
#     4   8  15  27  46  69  90 116 153 195 234 272
#     4   8  14  28  47  67  91 118 151 192 235 274
#
# _framework density 16.381553
#
# number of rings (size 3 to 8) (size 9 to 14) (size 15 to 20)
#    0.000    2.500    1.250    3.750    0.000    5.250 
#    0.000    0.000    0.000    1.500    0.000    7.000 
#    0.000    7.000    0.000    0.000    0.000    0.000 
#
# Total GULP energy -396654.364171 kJ/mol
# GULP energy per Si atom -12395.448880 kJ/mol
# Density = 1.634427 g / cm^3
# Si number density = 16.381553 Si / 1000 Ang^3
#
#
#
# Elastic Constant Matrix: (Units=GPa)
#
#
# Indices 1 2 3 4 5 6 
#
# 1 105.4004 33.1737 67.1873 0.0000 10.3509 0.0000
# 2 33.1737 51.8316 26.9696 0.0000 8.2343 0.0000
# 3 67.1873 26.9696 100.1893 0.0000 6.8110 0.0000
# 4 0.0000 0.0000 0.0000 13.1226 0.0000 12.9410
# 5 10.3509 8.2343 6.8110 0.0000 27.6085 0.0000
# 6 0.0000 0.0000 0.0000 12.9410 0.0000 14.0642
#
#
#
# Elastic Compliance Matrix: (Units=1/GPa)
#
#
# Indices 1 2 3 4 5 6 
#
# 1 0.018269 -0.005822 -0.010513 0.000000 -0.002519 0.000000
# 2 -0.005822 0.025078 -0.002528 0.000000 -0.004673 0.000000
# 3 -0.010513 -0.002528 0.017689 0.000000 0.000332 0.000000
# 4 0.000000 0.000000 0.000000 0.822949 0.000000 -0.757224
# 5 -0.002519 -0.004673 0.000332 0.000000 0.038477 0.000000
# 6 0.000000 0.000000 0.000000 -0.757224 0.000000 0.767850
#
#
# Mechanical properties :
#
#
# Convention : Reuss Voigt Hill
#
# Bulk Modulus (GPa) = 42.90230 56.89808 49.90019
# Shear Modulus (GPa) = 2.88050 19.63177 11.25614
#
# Velocity S-wave (km/s) = 1.32748 3.46556 2.62415
# Velocity P-wave (km/s) = 5.34751 7.12895 6.30150
#
# Compressibility (1/GPa) = 0.02330878
#
# Stress axis : x y z
#
# Youngs Moduli (GPa) = 54.73830 39.87608 56.53253
#
# Poissons Ratio (x) = 0.23217 0.59430
# Poissons Ratio (y) = 0.31870 0.14294
# Poissons Ratio (z) = 0.57544 0.10083
#
# Static dielectric constant tensor:
#      x y z
#    x 3.289180 0.000000 0.214370 
#    y 0.000000 2.965750 0.000000 
#    z 0.214370 0.000000 3.287200 
# 
# 
# High freq. dielectric constant tensor:
#      x y z
#    x 1.622120 0.000000 0.021460 
#    y 0.000000 1.617390 0.000000 
#    z 0.021460 0.000000 1.612110 
# 
# From -- ./inp_files/54812.got.cif
#   From: 2010.06.25/outbox.cif.g09.slc.cpg/sg10_28_cif.got.tgz:54812.got - 2010.06.27 22:07:45.
