data_PCOD8057576
_publ_section_title
;
Structure prediction by ZEFSAII (Michael W. Deem and Ramdas Pophale) SiO2 
 PCOD8057576
Probable space group: P 2/M
;
_chemical_formula_sum "Si O2"
_cell_formula_units_Z 32
_cell_length_a 11.557591
_cell_length_b 9.051384
_cell_length_c 23.162799
_cell_angle_alpha 90.000000
_cell_angle_beta 53.837614
_cell_angle_gamma 90.000000
_cell_volume 1956.293674
_symmetry_space_group_name_H-M "P 2/M"
_symmetry_group_IT_number 10
_symmetry_cell_setting 'monoclinic'
loop_
_space_group_symop_operation_xyz
x,y,z
-x,y,-z
-x,-y,-z
x,-y,z
loop_
_atom_site_type_symbol
_atom_site_label
_atom_site_fract_x
_atom_site_fract_y
_atom_site_fract_z
Si Si1 0.694148 0.824433 0.791227
Si Si2 0.883624 0.165361 0.483699
Si Si3 0.653004 0.824522 0.934554
Si Si4 0.471025 0.675260 0.774242
Si Si5 0.872075 0.174795 0.963430
Si Si6 0.086014 0.665304 0.348354
Si Si7 0.685350 0.663070 0.617342
Si Si8 0.189518 0.174869 0.890048
O O1 0.685171 0.774842 0.860184
O O2 0.557694 0.755522 0.799495
O O3 0.844196 0.762394 0.722955
O O4 0.690139 0.000000 0.784341
O O5 0.732671 0.228693 0.551861
O O6 0.000000 0.168412 0.500000
O O7 0.938044 0.260425 0.413152
O O8 0.855814 0.000000 0.470154
O O9 0.776052 0.757811 0.940218
O O10 0.651919 0.000000 0.939759
O O11 0.500000 0.760660 0.000000
O O12 0.478301 0.500000 0.782611
O O13 0.539255 0.715972 0.691605
O O14 0.309776 0.734526 0.820519
O O15 0.037278 0.223785 0.907558
O O16 0.867699 0.000000 0.963523
O O17 0.807808 0.225093 0.043837
O O18 0.053463 0.500000 0.335273
O O19 0.193711 0.658637 0.369698
O O20 0.666360 0.500000 0.596169
O O21 0.216549 0.000000 0.875688
#
# Coordination Sequence:
#
# PCOD8057576 Si02
#       8
#     4   4   4   4   4   4   4   4
#     4  10  18  27  42  62  83 111 148 182 210 250
#     4   9  15  22  35  55  77 103 138 176 206 240
#     4   9  16  26  43  66  89 111 138 176 218 255
#     4  10  19  29  41  59  87 117 143 175 215 256
#     4   8  15  28  45  67  88 107 138 179 220 255
#     4   9  16  26  38  52  78 113 142 171 209 251
#     4   8  15  25  35  50  75 109 140 166 205 252
#     4   9  16  28  48  66  82 108 143 180 213 254
#
# _framework density 16.357461000000001
#
# number of rings (size 3 to 8) (size 9 to 14) (size 15 to 20)
#    0.000    3.000    0.000    3.750    0.000    7.000 
#    0.000    1.250    0.000    8.250    0.000    0.000 
#    0.000    1.000    0.000   11.500    0.000    5.625 
#
# Total GULP energy -396646.853978 kJ/mol
# GULP energy per Si atom -12395.214187 kJ/mol
# Density = 1.632023 g / cm^3
# Si number density = 16.357461 Si / 1000 Ang^3
#
#
#
# Elastic Constant Matrix: (Units=GPa)
#
#
# Indices 1 2 3 4 5 6 
#
# 1 67.3041 23.8188 50.4385 0.0000 -9.3821 0.0000
# 2 23.8188 78.0930 55.5891 0.0000 -9.5913 0.0000
# 3 50.4385 55.5891 147.0889 0.0000 -23.2479 0.0000
# 4 0.0000 0.0000 0.0000 20.7545 0.0000 -6.8435
# 5 -9.3821 -9.5913 -23.2479 0.0000 18.9834 0.0000
# 6 0.0000 0.0000 0.0000 -6.8435 0.0000 8.1846
#
#
#
# Elastic Compliance Matrix: (Units=1/GPa)
#
#
# Indices 1 2 3 4 5 6 
#
# 1 0.020204 -0.001659 -0.006021 0.000000 0.001774 0.000000
# 2 -0.001659 0.017667 -0.005985 0.000000 0.000776 0.000000
# 3 -0.006021 -0.005985 0.012620 0.000000 0.009455 0.000000
# 4 0.000000 0.000000 0.000000 0.066523 0.000000 0.055623
# 5 0.001774 0.000776 0.009455 0.000000 0.065525 0.000000
# 6 0.000000 0.000000 0.000000 0.055623 0.000000 0.168690
#
#
# Mechanical properties :
#
#
# Convention : Reuss Voigt Hill
#
# Bulk Modulus (GPa) = 43.17599 61.35320 52.26460
# Shear Modulus (GPa) = 12.94397 20.42714 16.68556
#
# Velocity S-wave (km/s) = 2.81609 3.53767 3.19730
# Velocity P-wave (km/s) = 6.08493 7.36722 6.75657
#
# Compressibility (1/GPa) = 0.02316102
#
# Stress axis : x y z
#
# Youngs Moduli (GPa) = 49.49394 56.60237 79.24079
#
# Poissons Ratio (x) = 0.09388 0.47712
# Poissons Ratio (y) = 0.08209 0.47429
# Poissons Ratio (z) = 0.29801 0.33879
#
# Static dielectric constant tensor:
#      x y z
#    x 2.857850 0.000000 -0.130030 
#    y 0.000000 2.991980 0.000000 
#    z -0.130030 0.000000 3.310150 
# 
# 
# High freq. dielectric constant tensor:
#      x y z
#    x 1.571540 0.000000 -0.017130 
#    y 0.000000 1.616950 0.000000 
#    z -0.017130 0.000000 1.641410 
# 
# From -- ./inp_files/87203.got.cif
#   From: 2010.06.25/outbox.cif.g09.slc.cpg/sg10_44_cif.got.tgz:87203.got - 2010.06.27 22:07:45.
