data_PCOD8057624
_publ_section_title
;
Structure prediction by ZEFSAII (Michael W. Deem and Ramdas Pophale) SiO2 
 PCOD8057624
Probable space group: P 2/M
;
_chemical_formula_sum "Si O2"
_cell_formula_units_Z 32
_cell_length_a 20.001931
_cell_length_b 9.185190
_cell_length_c 29.140913
_cell_angle_alpha 90.000000
_cell_angle_beta 22.797132
_cell_angle_gamma 90.000000
_cell_volume 2074.439053
_symmetry_space_group_name_H-M "P 2/M"
_symmetry_group_IT_number 10
_symmetry_cell_setting 'monoclinic'
loop_
_space_group_symop_operation_xyz
x,y,z
-x,y,-z
-x,-y,-z
x,-y,z
loop_
_atom_site_type_symbol
_atom_site_label
_atom_site_fract_x
_atom_site_fract_y
_atom_site_fract_z
Si Si1 0.382511 0.336977 0.443558
Si Si2 0.806708 0.325585 0.524253
Si Si3 0.533114 0.170830 0.428216
Si Si4 0.746514 0.335966 0.163548
Si Si5 0.116694 0.659744 0.381375
Si Si6 0.420399 0.674012 0.246785
Si Si7 0.738342 0.832022 0.074731
Si Si8 0.880830 0.166863 0.159543
O O1 0.329331 0.500000 0.491858
O O2 0.243141 0.271699 0.495325
O O3 0.392231 0.239522 0.482939
O O4 0.564258 0.338663 0.303599
O O5 0.813310 0.500000 0.521600
O O6 0.661969 0.275797 0.652527
O O7 0.997131 0.261259 0.418198
O O8 0.500000 0.233189 0.500000
O O9 0.728467 0.213681 0.290553
O O10 0.502158 0.000000 0.446418
O O11 0.803587 0.500000 0.114093
O O12 0.728031 0.235733 0.131392
O O13 0.884456 0.267209 0.111734
O O14 0.164077 0.500000 0.332678
O O15 0.297819 0.733683 0.282428
O O16 0.000000 0.643794 0.500000
O O17 0.439320 0.500000 0.232553
O O18 0.607631 0.748344 0.123370
O O19 0.683916 0.000000 0.111837
O O20 0.934722 0.814537 0.931806
O O21 0.853066 0.000000 0.161269
#
# Coordination Sequence:
#
# PCOD8057624 Si02
#       8
#     4   4   4   4   4   4   4   4
#     4   9  16  26  42  63  84 104 129 163 199 236
#     4   8  12  22  38  58  81 104 134 167 196 227
#     4   9  18  33  49  60  74  99 131 167 205 245
#     4  10  18  28  41  58  79 105 137 168 194 223
#     4   7  11  19  36  56  74 102 137 169 194 219
#     4   9  15  25  39  56  78 107 143 171 189 219
#     4  11  20  27  37  54  81 112 136 161 195 234
#     4   9  19  32  42  56  77 102 132 163 201 245
#
# _framework density 15.425857000000001
#
# number of rings (size 3 to 8) (size 9 to 14) (size 15 to 20)
#    0.000    3.000    1.250    2.625    0.000    3.250 
#    0.000    0.000    0.000    4.125    0.000    0.000 
#    0.000    1.000    0.000   12.500    0.000    0.000 
#
# Total GULP energy -396430.658243 kJ/mol
# GULP energy per Si atom -12388.458070 kJ/mol
# Density = 1.539075 g / cm^3
# Si number density = 15.425857 Si / 1000 Ang^3
#
#
#
# Elastic Constant Matrix: (Units=GPa)
#
#
# Indices 1 2 3 4 5 6 
#
# 1 121.4541 31.7028 47.6291 0.0000 -28.3628 0.0000
# 2 31.7028 43.7212 23.1432 0.0000 -8.8165 0.0000
# 3 47.6291 23.1432 47.5919 0.0000 -19.7545 0.0000
# 4 0.0000 0.0000 0.0000 12.4828 0.0000 -0.5964
# 5 -28.3628 -8.8165 -19.7545 0.0000 29.8377 0.0000
# 6 0.0000 0.0000 0.0000 -0.5964 0.0000 12.3157
#
#
#
# Elastic Compliance Matrix: (Units=1/GPa)
#
#
# Indices 1 2 3 4 5 6 
#
# 1 0.014715 -0.004017 -0.010287 0.000000 0.005990 0.000000
# 2 -0.004017 0.031924 -0.012650 0.000000 -0.002760 0.000000
# 3 -0.010287 -0.012650 0.043917 0.000000 0.015560 0.000000
# 4 0.000000 0.000000 0.000000 0.080296 0.000000 0.003888
# 5 0.005990 -0.002760 0.015560 0.000000 0.048695 0.000000
# 6 0.000000 0.000000 0.000000 0.003888 0.000000 0.081385
#
#
# Mechanical properties :
#
#
# Convention : Reuss Voigt Hill
#
# Bulk Modulus (GPa) = 27.28602 46.41304 36.84953
# Shear Modulus (GPa) = 13.62192 18.28006 15.95099
#
# Velocity S-wave (km/s) = 2.97485 3.44616 3.21914
# Velocity P-wave (km/s) = 5.43383 6.78143 6.14469
#
# Compressibility (1/GPa) = 0.03664880
#
# Stress axis : x y z
#
# Youngs Moduli (GPa) = 67.95818 31.32400 22.77039
#
# Poissons Ratio (x) = 0.12583 0.23423
# Poissons Ratio (y) = 0.27299 0.28805
# Poissons Ratio (z) = 0.69906 0.39625
#
# Static dielectric constant tensor:
#      x y z
#    x 3.214330 0.000000 -0.416890 
#    y 0.000000 2.849740 0.000000 
#    z -0.416890 0.000000 2.865040 
# 
# 
# High freq. dielectric constant tensor:
#      x y z
#    x 1.580800 0.000000 -0.037830 
#    y 0.000000 1.570720 0.000000 
#    z -0.037830 0.000000 1.555430 
# 
# From -- ./inp_files/68198.got.cif
#   From: 2010.06.25/outbox.cif.g09.slc.cpg/sg10_35_cif.got.tgz:68198.got - 2010.06.27 22:07:45.
