data_PCOD8057582
_publ_section_title
;
Structure prediction by ZEFSAII (Michael W. Deem and Ramdas Pophale) SiO2 
 PCOD8057582
Probable space group: P 2/M
;
_chemical_formula_sum "Si O2"
_cell_formula_units_Z 32
_cell_length_a 15.914852
_cell_length_b 8.720292
_cell_length_c 30.319611
_cell_angle_alpha 90.000000
_cell_angle_beta 150.325005
_cell_angle_gamma 90.000000
_cell_volume 2083.206058
_symmetry_space_group_name_H-M "P 2/M"
_symmetry_group_IT_number 10
_symmetry_cell_setting 'monoclinic'
loop_
_space_group_symop_operation_xyz
x,y,z
-x,y,-z
-x,-y,-z
x,-y,z
loop_
_atom_site_type_symbol
_atom_site_label
_atom_site_fract_x
_atom_site_fract_y
_atom_site_fract_z
Si Si1 0.591769 0.180629 0.804838
Si Si2 0.661220 0.678564 0.664845
Si Si3 0.094154 0.180800 0.481583
Si Si4 0.236151 0.319048 0.631721
Si Si5 0.728524 0.320893 0.518414
Si Si6 0.298803 0.172215 0.405093
Si Si7 0.198406 0.321905 0.177026
Si Si8 0.098931 0.168887 0.999580
O O1 0.420526 0.275023 0.733680
O O2 0.680713 0.224747 0.799517
O O3 0.711070 0.224617 0.901227
O O4 0.554437 0.000000 0.786614
O O5 0.672297 0.500000 0.659427
O O6 0.464953 0.727446 0.580120
O O7 0.754669 0.764323 0.667172
O O8 0.759487 0.724551 0.753886
O O9 0.217538 0.264358 0.572735
O O10 0.150784 0.224780 0.458531
O O11 0.901578 0.235559 0.400541
O O12 0.106114 0.000000 0.494450
O O13 0.208517 0.500000 0.621666
O O14 0.759637 0.500000 0.525082
O O15 0.778985 0.276262 0.591436
O O16 0.500000 0.179394 0.500000
O O17 0.229839 0.000000 0.378939
O O18 0.233545 0.500000 0.184233
O O19 0.999127 0.284642 0.077760
O O20 0.104150 0.000000 0.979937
O O21 0.000000 0.158306 0.000000
#
# Coordination Sequence:
#
# PCOD8057582 Si02
#       8
#     4   4   4   4   4   4   4   4
#     4  10  19  31  45  61  84 115 148 180 217 258
#     4   9  18  29  41  60  86 115 144 176 214 254
#     4  11  21  33  47  64  87 114 145 179 215 253
#     4  11  21  33  47  64  86 112 145 182 219 254
#     4  10  18  30  46  62  85 116 147 178 214 253
#     4   9  17  28  42  61  83 109 143 179 213 252
#     4  10  18  27  42  64  88 114 147 182 215 255
#     4   8  16  29  42  58  83 113 143 176 215 257
#
# _framework density 15.360939
#
# number of rings (size 3 to 8) (size 9 to 14) (size 15 to 20)
#    0.000    2.250    0.000    6.000    0.000    6.750 
#    0.000    0.000    0.000    0.000    0.000    0.000 
#    0.000    1.000    0.000   10.500    0.000    5.750 
#
# Total GULP energy -396779.304002 kJ/mol
# GULP energy per Si atom -12399.353250 kJ/mol
# Density = 1.532598 g / cm^3
# Si number density = 15.360939 Si / 1000 Ang^3
#
#
#
# Elastic Constant Matrix: (Units=GPa)
#
#
# Indices 1 2 3 4 5 6 
#
# 1 75.9124 25.2971 32.4908 0.0000 -9.9296 0.0000
# 2 25.2971 67.7337 22.3214 0.0000 -4.5687 0.0000
# 3 32.4908 22.3214 83.7747 0.0000 -4.5383 0.0000
# 4 0.0000 0.0000 0.0000 23.9990 0.0000 -0.8143
# 5 -9.9296 -4.5687 -4.5383 0.0000 19.3735 0.0000
# 6 0.0000 0.0000 0.0000 -0.8143 0.0000 24.6124
#
#
#
# Elastic Compliance Matrix: (Units=1/GPa)
#
#
# Indices 1 2 3 4 5 6 
#
# 1 0.017843 -0.004433 -0.005368 0.000000 0.006842 0.000000
# 2 -0.004433 0.017442 -0.002865 0.000000 0.001170 0.000000
# 3 -0.005368 -0.002865 0.014784 0.000000 0.000036 0.000000
# 4 0.000000 0.000000 0.000000 0.041715 0.000000 0.001380
# 5 0.006842 0.001170 0.000036 0.000000 0.055408 0.000000
# 6 0.000000 0.000000 0.000000 0.001380 0.000000 0.040676
#
#
# Mechanical properties :
#
#
# Convention : Reuss Voigt Hill
#
# Bulk Modulus (GPa) = 40.42547 43.07107 41.74827
# Shear Modulus (GPa) = 22.57878 23.41774 22.99826
#
# Velocity S-wave (km/s) = 3.83806 3.90872 3.87355
# Velocity P-wave (km/s) = 6.78345 6.96211 6.87336
#
# Compressibility (1/GPa) = 0.02473688
#
# Stress axis : x y z
#
# Youngs Moduli (GPa) = 56.04415 57.33140 67.64060
#
# Poissons Ratio (x) = 0.25417 0.36311
# Poissons Ratio (y) = 0.24847 0.19377
# Poissons Ratio (z) = 0.30086 0.16423
#
# Static dielectric constant tensor:
#      x y z
#    x 2.776820 0.000000 -0.082830 
#    y 0.000000 3.045070 0.000000 
#    z -0.082830 0.000000 3.051120 
# 
# 
# High freq. dielectric constant tensor:
#      x y z
#    x 1.560550 0.000000 -0.010070 
#    y 0.000000 1.604770 0.000000 
#    z -0.010070 0.000000 1.569130 
# 
# From -- ./inp_files/95272.got.cif
#   From: 2010.06.25/outbox.cif.g09.slc.cpg/sg10_48_cif.got.tgz:95272.got - 2010.06.27 22:07:45.
