data_PCOD8057078
_publ_section_title
;
Structure prediction by ZEFSAII (Michael W. Deem and Ramdas Pophale) SiO2 
 PCOD8057078
Probable space group: P 2/M
;
_chemical_formula_sum "Si O2"
_cell_formula_units_Z 32
_cell_length_a 16.550340
_cell_length_b 8.802686
_cell_length_c 14.000819
_cell_angle_alpha 90.000000
_cell_angle_beta 96.401639
_cell_angle_gamma 90.000000
_cell_volume 2027.025213
_symmetry_space_group_name_H-M "P 2/M"
_symmetry_group_IT_number 10
_symmetry_cell_setting 'monoclinic'
loop_
_space_group_symop_operation_xyz
x,y,z
-x,y,-z
-x,-y,-z
x,-y,z
loop_
_atom_site_type_symbol
_atom_site_label
_atom_site_fract_x
_atom_site_fract_y
_atom_site_fract_z
Si Si1 0.174678 0.676242 0.109460
Si Si2 0.934890 0.823714 0.572698
Si Si3 0.621397 0.827987 0.452323
Si Si4 0.022570 0.323753 0.225988
Si Si5 0.298086 0.818253 0.258354
Si Si6 0.923218 0.171273 0.058852
Si Si7 0.233304 0.678424 0.442242
Si Si8 0.460752 0.169920 0.353016
O O1 0.190714 0.500000 0.094803
O O2 0.257081 0.754567 0.157435
O O3 0.104292 0.705131 0.177133
O O4 0.152216 0.750491 0.004976
O O5 0.855554 0.727019 0.534641
O O6 0.000000 0.790968 0.500000
O O7 0.973255 0.772137 0.677457
O O8 0.911184 0.000000 0.575954
O O9 0.702325 0.725645 0.466502
O O10 0.582887 0.831686 0.551255
O O11 0.551194 0.754143 0.372798
O O12 0.644421 0.000000 0.424313
O O13 0.011272 0.500000 0.248825
O O14 0.944405 0.266256 0.156439
O O15 0.249575 0.759177 0.343838
O O16 0.392920 0.758243 0.272682
O O17 0.295333 0.000000 0.259532
O O18 0.899294 0.000000 0.084208
O O19 0.000000 0.172674 0.000000
O O20 0.237180 0.500000 0.425909
O O21 0.479127 0.000000 0.321739
#
# Coordination Sequence:
#
# PCOD8057078 Si02
#       8
#     4   4   4   4   4   4   4   4
#     4  10  18  27  40  62  87 111 140 174 211 251
#     4  11  23  36  49  63  79 105 144 184 218 255
#     4   8  13  25  41  54  73 102 137 171 202 242
#     4  10  19  31  46  62  83 107 134 174 218 257
#     4  10  17  26  41  58  81 112 144 174 204 244
#     4   9  17  28  43  61  81 108 141 172 203 246
#     4  11  20  29  41  59  80 105 136 173 217 256
#     4   7  12  22  37  56  75 102 138 171 201 235
#
# _framework density 15.78668
#
# number of rings (size 3 to 8) (size 9 to 14) (size 15 to 20)
#    0.000    2.500    1.250    4.500    0.000    3.500 
#    0.000    5.625    0.000    0.000    0.000    0.000 
#    0.000    0.000    0.000    1.125    0.000   22.500 
#
# Total GULP energy -396525.382837 kJ/mol
# GULP energy per Si atom -12391.418214 kJ/mol
# Density = 1.575075 g / cm^3
# Si number density = 15.786680 Si / 1000 Ang^3
#
#
#
# Elastic Constant Matrix: (Units=GPa)
#
#
# Indices 1 2 3 4 5 6 
#
# 1 93.0100 33.5284 48.4178 0.0000 41.9494 0.0000
# 2 33.5284 66.8421 21.9956 0.0000 15.9092 0.0000
# 3 48.4178 21.9956 47.9855 0.0000 26.2291 0.0000
# 4 0.0000 0.0000 0.0000 18.1070 0.0000 5.5095
# 5 41.9494 15.9092 26.2291 0.0000 32.5492 0.0000
# 6 0.0000 0.0000 0.0000 5.5095 0.0000 11.4301
#
#
#
# Elastic Compliance Matrix: (Units=1/GPa)
#
#
# Indices 1 2 3 4 5 6 
#
# 1 0.033514 -0.004812 -0.016597 0.000000 -0.027466 0.000000
# 2 -0.004812 0.018570 -0.003727 0.000000 0.000128 0.000000
# 3 -0.016597 -0.003727 0.047552 0.000000 -0.015107 0.000000
# 4 0.000000 0.000000 0.000000 0.064719 0.000000 -0.031195
# 5 -0.027466 0.000128 -0.015107 0.000000 0.078232 0.000000
# 6 0.000000 0.000000 0.000000 -0.031195 0.000000 0.102524
#
#
# Mechanical properties :
#
#
# Convention : Reuss Voigt Hill
#
# Bulk Modulus (GPa) = 20.25749 46.19123 33.22436
# Shear Modulus (GPa) = 12.14071 19.34367 15.74219
#
# Velocity S-wave (km/s) = 2.77618 3.50425 3.16124
# Velocity P-wave (km/s) = 4.81000 6.75989 5.86653
#
# Compressibility (1/GPa) = 0.04936445
#
# Stress axis : x y z
#
# Youngs Moduli (GPa) = 29.83866 53.84961 21.02968
#
# Poissons Ratio (x) = 0.25912 0.34902
# Poissons Ratio (y) = 0.14358 0.07838
# Poissons Ratio (z) = 0.49522 0.20070
#
# Static dielectric constant tensor:
#      x y z
#    x 3.238700 0.000000 0.592480 
#    y 0.000000 3.021260 0.000000 
#    z 0.592480 0.000000 2.800910 
# 
# 
# High freq. dielectric constant tensor:
#      x y z
#    x 1.589900 0.000000 0.054620 
#    y 0.000000 1.608350 0.000000 
#    z 0.054620 0.000000 1.561090 
# 
# From -- ./inp_files/54905.got.cif
#   From: 2010.06.25/outbox.cif.g09.slc.cpg/sg10_28_cif.got.tgz:54905.got - 2010.06.27 22:07:45.
