data_PCOD8057137
_publ_section_title
;
Structure prediction by ZEFSAII (Michael W. Deem and Ramdas Pophale) SiO2 
 PCOD8057137
Probable space group: P 2/M
;
_chemical_formula_sum "Si O2"
_cell_formula_units_Z 24
_cell_length_a 18.260604
_cell_length_b 9.980080
_cell_length_c 28.611606
_cell_angle_alpha 90.000000
_cell_angle_beta 164.553871
_cell_angle_gamma 90.000000
_cell_volume 1388.721368
_symmetry_space_group_name_H-M "P 2/M"
_symmetry_group_IT_number 10
_symmetry_cell_setting 'monoclinic'
loop_
_space_group_symop_operation_xyz
x,y,z
-x,y,-z
-x,-y,-z
x,-y,z
loop_
_atom_site_type_symbol
_atom_site_label
_atom_site_fract_x
_atom_site_fract_y
_atom_site_fract_z
Si Si1 0.120330 0.352146 0.973751
Si Si2 0.775012 0.848697 0.477718
Si Si3 0.278526 0.649274 0.633871
Si Si4 0.362289 0.847782 0.868104
Si Si5 0.468849 0.651427 0.849680
Si Si6 0.795686 0.153901 0.831606
O O1 0.987982 0.500000 0.898103
O O2 0.894747 0.241952 0.848631
O O3 0.392417 0.341124 0.173654
O O4 0.227640 0.331223 0.986492
O O5 0.857700 0.758513 0.483874
O O6 0.508635 0.797021 0.341539
O O7 0.032844 0.842323 0.671520
O O8 0.722583 0.000000 0.427121
O O9 0.175276 0.500000 0.556965
O O10 0.236331 0.675081 0.664714
O O11 0.453171 0.757465 0.880899
O O12 0.460456 0.000000 0.918556
O O13 0.500000 0.791911 0.000000
O O14 0.433650 0.500000 0.847351
O O15 0.794733 0.000000 0.814702
O O16 0.000000 0.177518 0.000000
#
# Coordination Sequence:
#
# PCOD8057137 Si02
#       6
#     4   4   4   4   4   4
#     4   8  16  29  46  71 101 130 155 187 233 288
#     4  10  20  32  47  72 104 133 164 200 240 289
#     4   8  16  30  47  73 103 129 155 190 240 294
#     4  10  22  38  53  69  93 129 171 212 246 279
#     4   8  17  34  53  74  99 127 160 201 246 294
#     4  10  17  26  44  71 103 132 157 190 236 293
#
# _framework density 17.282084999999999
#
# number of rings (size 3 to 8) (size 9 to 14) (size 15 to 20)
#    1.000    2.000    1.667    0.000    0.000    4.000 
#    0.000    3.333    0.000    1.000    0.000    7.000 
#    0.000    0.000    0.000    0.000    0.000    0.000 
#
# Total GULP energy -297404.375801 kJ/mol
# GULP energy per Si atom -12391.848992 kJ/mol
# Density = 1.724275 g / cm^3
# Si number density = 17.282085 Si / 1000 Ang^3
#
#
#
# Elastic Constant Matrix: (Units=GPa)
#
#
# Indices 1 2 3 4 5 6 
#
# 1 78.9611 53.2797 43.3265 0.0000 -10.7033 0.0000
# 2 53.2797 84.6297 33.3241 0.0000 -10.9169 0.0000
# 3 43.3265 33.3241 66.0540 0.0000 -5.7834 0.0000
# 4 0.0000 0.0000 0.0000 13.1599 0.0000 4.8312
# 5 -10.7033 -10.9169 -5.7834 0.0000 16.9990 0.0000
# 6 0.0000 0.0000 0.0000 4.8312 0.0000 35.9250
#
#
#
# Elastic Compliance Matrix: (Units=1/GPa)
#
#
# Indices 1 2 3 4 5 6 
#
# 1 0.028310 -0.012429 -0.011788 0.000000 0.005833 0.000000
# 2 -0.012429 0.021096 -0.002051 0.000000 0.005025 0.000000
# 3 -0.011788 -0.002051 0.023851 0.000000 -0.000625 0.000000
# 4 0.000000 0.000000 0.000000 0.079935 0.000000 -0.010750
# 5 0.005833 0.005025 -0.000625 0.000000 0.065514 0.000000
# 6 0.000000 0.000000 0.000000 -0.010750 0.000000 0.029281
#
#
# Mechanical properties :
#
#
# Convention : Reuss Voigt Hill
#
# Bulk Modulus (GPa) = 48.25768 54.38948 51.32358
# Shear Modulus (GPa) = 16.26385 19.86440 18.06413
#
# Velocity S-wave (km/s) = 3.07103 3.39399 3.23654
# Velocity P-wave (km/s) = 6.36861 6.84827 6.61279
#
# Compressibility (1/GPa) = 0.02072209
#
# Stress axis : x y z
#
# Youngs Moduli (GPa) = 35.32373 47.40123 41.92651
#
# Poissons Ratio (x) = 0.58913 0.49423
# Poissons Ratio (y) = 0.43902 0.08599
# Poissons Ratio (z) = 0.41640 0.09722
#
# Static dielectric constant tensor:
#      x y z
#    x 2.970530 0.000000 0.193500 
#    y 0.000000 3.178070 0.000000 
#    z 0.193500 0.000000 3.124900 
# 
# 
# High freq. dielectric constant tensor:
#      x y z
#    x 1.642600 0.000000 0.027680 
#    y 0.000000 1.672580 0.000000 
#    z 0.027680 0.000000 1.647610 
# 
# From -- ./inp_files/89744.got.cif
#   From: 2010.06.25/outbox.cif.g09.slc.cpg/sg10_45_cif.got.tgz:89744.got - 2010.06.27 22:07:45.
