data_PCOD8057534
_publ_section_title
;
Structure prediction by ZEFSAII (Michael W. Deem and Ramdas Pophale) SiO2 
 PCOD8057534
Probable space group: P 2/M
;
_chemical_formula_sum "Si O2"
_cell_formula_units_Z 32
_cell_length_a 23.886852
_cell_length_b 9.127476
_cell_length_c 17.636572
_cell_angle_alpha 90.000000
_cell_angle_beta 149.553917
_cell_angle_gamma 90.000000
_cell_volume 1948.489698
_symmetry_space_group_name_H-M "P 2/M"
_symmetry_group_IT_number 10
_symmetry_cell_setting 'monoclinic'
loop_
_space_group_symop_operation_xyz
x,y,z
-x,y,-z
-x,-y,-z
x,-y,z
loop_
_atom_site_type_symbol
_atom_site_label
_atom_site_fract_x
_atom_site_fract_y
_atom_site_fract_z
Si Si1 0.158642 0.831011 0.814504
Si Si2 0.938739 0.670774 0.599588
Si Si3 0.472333 0.828225 0.549907
Si Si4 0.101833 0.331427 0.279571
Si Si5 0.145435 0.671696 0.059487
Si Si6 0.869749 0.337776 0.362099
Si Si7 0.769607 0.174225 0.695728
Si Si8 0.701324 0.831037 0.879897
O O1 0.190012 0.766712 0.768383
O O2 0.052710 0.758033 0.728989
O O3 0.131638 0.000000 0.771850
O O4 0.261939 0.803779 0.990802
O O5 0.970842 0.500000 0.629402
O O6 0.878462 0.702412 0.608502
O O7 0.855687 0.715145 0.433369
O O8 0.500000 0.758398 0.500000
O O9 0.356314 0.766501 0.445366
O O10 0.571507 0.790765 0.723660
O O11 0.457229 0.000000 0.522038
O O12 0.128508 0.500000 0.291264
O O13 0.184168 0.226391 0.330845
O O14 0.976003 0.293987 0.112799
O O15 0.164899 0.500000 0.094619
O O16 0.157575 0.754203 0.153187
O O17 0.232949 0.729611 0.101142
O O18 0.820190 0.500000 0.293150
O O19 0.000000 0.336759 0.500000
O O20 0.778455 0.000000 0.711878
O O21 0.721413 0.000000 0.879123
#
# Coordination Sequence:
#
# PCOD8057534 Si02
#       8
#     4   4   4   4   4   4   4   4
#     4  10  18  26  43  71  99 121 150 196 237 270
#     4   9  17  31  47  64  92 132 161 181 224 285
#     4   9  17  33  53  68  89 123 160 197 240 282
#     4  10  21  35  49  68  98 129 158 194 236 280
#     4  11  21  33  50  70  96 128 158 193 237 281
#     4   8  15  27  44  63  90 128 161 182 218 284
#     4  11  22  35  52  70  91 124 164 202 236 280
#     4  10  19  32  50  71  95 126 161 195 236 283
#
# _framework density 16.422975999999998
#
# number of rings (size 3 to 8) (size 9 to 14) (size 15 to 20)
#    0.000    2.250    2.500    2.250    0.000    5.750 
#    0.000    1.875    0.000    0.000    0.000    0.875 
#    0.000    7.000    0.000    0.000    0.000    0.000 
#
# Total GULP energy -396722.392646 kJ/mol
# GULP energy per Si atom -12397.574770 kJ/mol
# Density = 1.638560 g / cm^3
# Si number density = 16.422976 Si / 1000 Ang^3
#
#
#
# Elastic Constant Matrix: (Units=GPa)
#
#
# Indices 1 2 3 4 5 6 
#
# 1 107.9440 43.6970 53.6473 0.0000 -19.0896 0.0000
# 2 43.6970 65.4572 35.9366 0.0000 -9.1352 0.0000
# 3 53.6473 35.9366 73.6221 0.0000 -18.4816 0.0000
# 4 0.0000 0.0000 0.0000 12.1676 0.0000 -7.0018
# 5 -19.0896 -9.1352 -18.4816 0.0000 29.0486 0.0000
# 6 0.0000 0.0000 0.0000 -7.0018 0.0000 26.5946
#
#
#
# Elastic Compliance Matrix: (Units=1/GPa)
#
#
# Indices 1 2 3 4 5 6 
#
# 1 0.016346 -0.005965 -0.008061 0.000000 0.003737 0.000000
# 2 -0.005965 0.023047 -0.007221 0.000000 -0.001266 0.000000
# 3 -0.008061 -0.007221 0.025089 0.000000 0.008394 0.000000
# 4 0.000000 0.000000 0.000000 0.096860 0.000000 0.025501
# 5 0.003737 -0.001266 0.008394 0.000000 0.041823 0.000000
# 6 0.000000 0.000000 0.000000 0.025501 0.000000 0.044316
#
#
# Mechanical properties :
#
#
# Convention : Reuss Voigt Hill
#
# Bulk Modulus (GPa) = 45.48080 57.06501 51.27291
# Shear Modulus (GPa) = 16.81778 21.14497 18.98138
#
# Velocity S-wave (km/s) = 3.20353 3.59210 3.40337
# Velocity P-wave (km/s) = 6.43716 7.21296 6.83607
#
# Compressibility (1/GPa) = 0.02198730
#
# Stress axis : x y z
#
# Youngs Moduli (GPa) = 61.17686 43.39019 39.85800
#
# Poissons Ratio (x) = 0.25881 0.32131
# Poissons Ratio (y) = 0.36490 0.28782
# Poissons Ratio (z) = 0.49317 0.31333
#
# Static dielectric constant tensor:
#      x y z
#    x 3.214860 0.000000 -0.302970 
#    y 0.000000 3.062090 0.000000 
#    z -0.302970 0.000000 3.175310 
# 
# 
# High freq. dielectric constant tensor:
#      x y z
#    x 1.618890 0.000000 -0.026180 
#    y 0.000000 1.627790 0.000000 
#    z -0.026180 0.000000 1.616400 
# 
# From -- ./inp_files/56415.got.cif
#   From: 2010.06.25/outbox.cif.g09.slc.cpg/sg10_29_cif.got.tgz:56415.got - 2010.06.27 22:07:45.
