data_PCOD8057433
_publ_section_title
;
Structure prediction by ZEFSAII (Michael W. Deem and Ramdas Pophale) SiO2 
 PCOD8057433
Probable space group: P 2/M
;
_chemical_formula_sum "Si O2"
_cell_formula_units_Z 32
_cell_length_a 17.930565
_cell_length_b 15.442692
_cell_length_c 12.772932
_cell_angle_alpha 90.000000
_cell_angle_beta 152.279769
_cell_angle_gamma 90.000000
_cell_volume 1645.147904
_symmetry_space_group_name_H-M "P 2/M"
_symmetry_group_IT_number 10
_symmetry_cell_setting 'monoclinic'
loop_
_space_group_symop_operation_xyz
x,y,z
-x,y,-z
-x,-y,-z
x,-y,z
loop_
_atom_site_type_symbol
_atom_site_label
_atom_site_fract_x
_atom_site_fract_y
_atom_site_fract_z
Si Si1 0.367433 0.255235 0.747506
Si Si2 0.296342 0.904201 0.531648
Si Si3 0.207386 0.402197 0.966353
Si Si4 0.177104 0.841463 0.177111
Si Si5 0.670235 0.337718 0.670243
Si Si6 0.012626 0.255224 0.392697
Si Si7 0.938939 0.904204 0.174221
Si Si8 0.551647 0.597800 0.310640
O O1 0.400921 0.167851 0.722056
O O2 0.196772 0.251591 0.590329
O O3 0.371877 0.338037 0.678140
O O4 0.500000 0.263937 0.000000
O O5 0.299927 0.886107 0.411220
O O6 0.115611 0.898392 0.346844
O O7 0.368625 0.000000 0.642656
O O8 0.151071 0.500000 0.872779
O O9 0.065639 0.338045 0.759332
O O10 0.245588 0.395906 0.137016
O O11 0.364761 0.378844 0.094230
O O12 0.214524 0.740844 0.214518
O O13 0.188656 0.886124 0.077399
O O14 0.000000 0.852621 0.000000
O O15 0.500000 0.301341 0.500000
O O16 0.645869 0.395915 0.537329
O O17 0.000000 0.263868 0.500000
O O18 0.920181 0.167853 0.241277
O O19 0.905395 0.000000 0.179414
O O20 0.570697 0.500000 0.292416
#
# Coordination Sequence:
#
# PCOD8057433 Si02
#       8
#     4   4   4   4   4   4   4   4
#     4  11  23  39  59  82 111 147 191 238 282 327
#     4   9  18  33  56  85 114 146 184 226 275 332
#     4  10  21  38  60  85 114 149 186 225 276 336
#     4  10  17  31  57  86 114 146 183 223 273 332
#     4  10  19  33  57  86 118 148 177 221 279 336
#     4  11  23  39  59  82 111 147 191 238 282 327
#     4   9  18  33  56  85 114 146 184 226 275 332
#     4  10  21  38  60  85 114 149 186 225 276 336
#
# _framework density 19.451139999999999
#
# number of rings (size 3 to 8) (size 9 to 14) (size 15 to 20)
#    0.000    2.000    2.500    1.500    0.000    4.500 
#    0.000    0.000    0.000    9.000    0.000    0.000 
#    0.000    0.000    0.000    0.000    0.000    0.000 
#
# Total GULP energy -396791.231886 kJ/mol
# GULP energy per Si atom -12399.725996 kJ/mol
# Density = 1.940687 g / cm^3
# Si number density = 19.451140 Si / 1000 Ang^3
#
#
#
# Elastic Constant Matrix: (Units=GPa)
#
#
# Indices 1 2 3 4 5 6 
#
# 1 60.1044 35.2735 45.0759 0.0000 -19.6254 0.0000
# 2 35.2735 138.0229 42.0921 0.0000 -12.4352 0.0000
# 3 45.0759 42.0921 85.2023 0.0000 -26.1457 0.0000
# 4 0.0000 0.0000 0.0000 14.8631 0.0000 5.5045
# 5 -19.6254 -12.4352 -26.1457 0.0000 24.7941 0.0000
# 6 0.0000 0.0000 0.0000 5.5045 0.0000 17.8749
#
#
#
# Elastic Compliance Matrix: (Units=1/GPa)
#
#
# Indices 1 2 3 4 5 6 
#
# 1 0.030510 -0.003428 -0.011183 0.000000 0.010637 0.000000
# 2 -0.003428 0.008917 -0.003033 0.000000 -0.001440 0.000000
# 3 -0.011183 -0.003033 0.023608 0.000000 0.014522 0.000000
# 4 0.000000 0.000000 0.000000 0.075942 0.000000 -0.023386
# 5 0.010637 -0.001440 0.014522 0.000000 0.063343 0.000000
# 6 0.000000 0.000000 0.000000 -0.023386 0.000000 0.063146
#
#
# Mechanical properties :
#
#
# Convention : Reuss Voigt Hill
#
# Bulk Modulus (GPa) = 36.04266 58.69029 47.36648
# Shear Modulus (GPa) = 16.12888 22.23229 19.18058
#
# Velocity S-wave (km/s) = 2.88271 3.38447 3.14361
# Velocity P-wave (km/s) = 5.44519 6.74622 6.13032
#
# Compressibility (1/GPa) = 0.02774490
#
# Stress axis : x y z
#
# Youngs Moduli (GPa) = 32.77609 112.15033 42.35861
#
# Poissons Ratio (x) = 0.38449 0.47371
# Poissons Ratio (y) = 0.11237 0.12848
# Poissons Ratio (z) = 0.36654 0.34018
#
# Static dielectric constant tensor:
#      x y z
#    x 3.410930 0.000000 -0.199240 
#    y 0.000000 3.674290 0.000000 
#    z -0.199240 0.000000 3.520150 
# 
# 
# High freq. dielectric constant tensor:
#      x y z
#    x 1.737900 0.000000 -0.018160 
#    y 0.000000 1.767160 0.000000 
#    z -0.018160 0.000000 1.747860 
# 
# From -- ./inp_files/54045.got.cif
#   From: 2010.06.25/outbox.cif.g09.slc.cpg/sg10_28_cif.got.tgz:54045.got - 2010.06.27 22:07:45.
