data_PCOD8057282
_publ_section_title
;
Structure prediction by ZEFSAII (Michael W. Deem and Ramdas Pophale) SiO2 
 PCOD8057282
Probable space group: P 2/M
;
_chemical_formula_sum "Si O2"
_cell_formula_units_Z 32
_cell_length_a 17.868565
_cell_length_b 15.379445
_cell_length_c 9.027444
_cell_angle_alpha 90.000000
_cell_angle_beta 42.463781
_cell_angle_gamma 90.000000
_cell_volume 1674.860714
_symmetry_space_group_name_H-M "P 2/M"
_symmetry_group_IT_number 10
_symmetry_cell_setting 'monoclinic'
loop_
_space_group_symop_operation_xyz
x,y,z
-x,y,-z
-x,-y,-z
x,-y,z
loop_
_atom_site_type_symbol
_atom_site_label
_atom_site_fract_x
_atom_site_fract_y
_atom_site_fract_z
Si Si1 0.153760 0.324623 0.996112
Si Si2 0.812160 0.741276 0.738805
Si Si3 0.265797 0.096362 0.529998
Si Si4 0.373964 0.253958 0.230044
Si Si5 0.741366 0.599167 0.427565
Si Si6 0.072090 0.596712 0.614818
Si Si7 0.913362 0.144521 0.002657
Si Si8 0.088009 0.096249 0.534510
O O1 0.213513 0.284226 0.054205
O O2 0.094965 0.248237 0.990185
O O3 0.059009 0.394665 0.169766
O O4 0.247285 0.370680 0.759449
O O5 0.698319 0.750513 0.814276
O O6 0.889731 0.666123 0.560978
O O7 0.881486 0.831685 0.632990
O O8 0.356359 0.170339 0.363411
O O9 0.169557 0.110504 0.551824
O O10 0.319836 0.000000 0.439930
O O11 0.208484 0.106936 0.775895
O O12 0.348131 0.341530 0.358056
O O13 0.500000 0.255719 0.000000
O O14 0.698735 0.500000 0.496378
O O15 0.861498 0.610421 0.328872
O O16 0.095755 0.500000 0.518194
O O17 0.961163 0.108011 0.777351
O O18 0.000000 0.115218 0.000000
O O19 0.100018 0.000000 0.446590
#
# Coordination Sequence:
#
# PCOD8057282 Si02
#       8
#     4   4   4   4   4   4   4   4
#     4  12  20  31  52  79 115 145 172 212 260 315
#     4  10  22  35  51  80 112 142 182 220 266 316
#     4   9  17  31  54  83 106 132 181 230 264 310
#     4  10  21  40  61  78 100 136 181 233 280 318
#     4  10  21  37  58  82 107 141 182 218 261 319
#     4  10  20  34  54  80 113 149 179 209 252 313
#     4  10  17  28  50  77 109 147 177 208 253 314
#     4   9  17  31  50  74 111 152 182 212 253 312
#
# _framework density 19.106066999999999
#
# number of rings (size 3 to 8) (size 9 to 14) (size 15 to 20)
#    0.000    2.000    2.500    2.250    0.000    4.500 
#    0.000    2.500    0.000    0.750    0.000    0.875 
#    0.000    0.000    0.000    0.000    0.000    0.000 
#
# Total GULP energy -396685.270207 kJ/mol
# GULP energy per Si atom -12396.414694 kJ/mol
# Density = 1.906258 g / cm^3
# Si number density = 19.106067 Si / 1000 Ang^3
#
#
#
# Elastic Constant Matrix: (Units=GPa)
#
#
# Indices 1 2 3 4 5 6 
#
# 1 46.7812 27.1241 52.5854 0.0000 2.3695 0.0000
# 2 27.1241 164.7433 67.4900 0.0000 -0.6143 0.0000
# 3 52.5854 67.4900 124.2132 0.0000 -8.2560 0.0000
# 4 0.0000 0.0000 0.0000 10.4466 0.0000 -5.7425
# 5 2.3695 -0.6143 -8.2560 0.0000 27.3472 0.0000
# 6 0.0000 0.0000 0.0000 -5.7425 0.0000 7.4187
#
#
#
# Elastic Compliance Matrix: (Units=1/GPa)
#
#
# Indices 1 2 3 4 5 6 
#
# 1 0.043114 0.000776 -0.019308 0.000000 -0.009547 0.000000
# 2 0.000776 0.007856 -0.004684 0.000000 -0.001305 0.000000
# 3 -0.019308 -0.004684 0.019260 0.000000 0.007382 0.000000
# 4 0.000000 0.000000 0.000000 0.166622 0.000000 0.128975
# 5 -0.009547 -0.001305 0.007382 0.000000 0.039593 0.000000
# 6 0.000000 0.000000 0.000000 0.128975 0.000000 0.234628
#
#
# Mechanical properties :
#
#
# Convention : Reuss Voigt Hill
#
# Bulk Modulus (GPa) = 42.02040 70.01519 56.01779
# Shear Modulus (GPa) = 8.84270 21.61172 15.22721
#
# Velocity S-wave (km/s) = 2.15366 3.36690 2.82615
# Velocity P-wave (km/s) = 5.31275 7.19998 6.32713
#
# Compressibility (1/GPa) = 0.02379797
#
# Stress axis : x y z
#
# Youngs Moduli (GPa) = 23.19457 127.28738 51.92025
#
# Poissons Ratio (x) = -0.09876 1.00248
# Poissons Ratio (y) = -0.01800 0.24318
# Poissons Ratio (z) = 0.44784 0.59619
#
# Static dielectric constant tensor:
#      x y z
#    x 3.110860 0.000000 0.245270 
#    y 0.000000 3.703670 0.000000 
#    z 0.245270 0.000000 3.399320 
# 
# 
# High freq. dielectric constant tensor:
#      x y z
#    x 1.696220 0.000000 0.025710 
#    y 0.000000 1.762590 0.000000 
#    z 0.025710 0.000000 1.726460 
# 
# From -- ./inp_files/35101.got.cif
#   From: 2010.06.25/outbox.cif.g09.slc.cpg/sg10_18_cif.got.tgz:35101.got - 2010.06.27 22:07:45.
