data_PCOD8057618
_publ_section_title
;
Structure prediction by ZEFSAII (Michael W. Deem and Ramdas Pophale) SiO2 
 PCOD8057618
Probable space group: P 2/M
;
_chemical_formula_sum "Si O2"
_cell_formula_units_Z 32
_cell_length_a 10.920611
_cell_length_b 17.087267
_cell_length_c 25.679812
_cell_angle_alpha 90.000000
_cell_angle_beta 156.889171
_cell_angle_gamma 90.000000
_cell_volume 1880.889007
_symmetry_space_group_name_H-M "P 2/M"
_symmetry_group_IT_number 10
_symmetry_cell_setting 'monoclinic'
loop_
_space_group_symop_operation_xyz
x,y,z
-x,y,-z
-x,-y,-z
x,-y,z
loop_
_atom_site_type_symbol
_atom_site_label
_atom_site_fract_x
_atom_site_fract_y
_atom_site_fract_z
Si Si1 0.286378 0.411097 0.366658
Si Si2 0.691125 0.691046 0.347747
Si Si3 0.031077 0.781974 0.398612
Si Si4 0.637931 0.591378 0.865222
Si Si5 0.643762 0.274006 0.682944
Si Si6 0.790332 0.190968 0.144734
Si Si7 0.756032 0.324884 0.208179
Si Si8 0.133189 0.909053 0.360611
O O1 0.500000 0.395517 0.500000
O O2 0.308816 0.500000 0.355972
O O3 0.386353 0.357671 0.357307
O O4 0.932521 0.391813 0.244767
O O5 0.566069 0.620266 0.263475
O O6 0.412818 0.714845 0.277699
O O7 0.000000 0.662709 0.500000
O O8 0.780606 0.766449 0.346870
O O9 0.378692 0.782710 0.556853
O O10 0.982117 0.865731 0.351667
O O11 0.000379 0.712371 0.344628
O O12 0.571926 0.500000 0.846162
O O13 0.539129 0.636545 0.879027
O O14 0.000000 0.610113 0.000000
O O15 0.974242 0.233257 0.803086
O O16 0.644422 0.255616 0.126549
O O17 0.966385 0.121338 0.243227
O O18 0.500000 0.154070 0.000000
O O19 0.500000 0.890328 0.500000
O O20 0.064901 0.000000 0.340747
#
# Coordination Sequence:
#
# PCOD8057618 Si02
#       8
#     4   4   4   4   4   4   4   4
#     4  10  18  27  46  73 100 133 169 217 270 298
#     4   9  20  34  53  75  97 132 172 217 260 292
#     4   9  16  33  53  77  97 131 165 211 245 296
#     4  10  21  35  50  68  99 138 174 219 264 306
#     4  10  18  32  51  71 108 129 172 218 249 301
#     4  10  21  32  53  80 104 138 167 209 255 298
#     4   9  18  32  51  68  99 130 180 210 251 307
#     4  10  19  33  58  84 107 134 163 200 249 306
#
# _framework density 17.013231000000001
#
# number of rings (size 3 to 8) (size 9 to 14) (size 15 to 20)
#    0.000    2.375    2.500    0.375    1.750    1.000 
#    0.000    0.000    0.000    6.000    0.000    0.875 
#    0.000    0.000    0.000    0.000    0.000    0.000 
#
# Total GULP energy -396716.967001 kJ/mol
# GULP energy per Si atom -12397.405219 kJ/mol
# Density = 1.697451 g / cm^3
# Si number density = 17.013231 Si / 1000 Ang^3
#
#
#
# Elastic Constant Matrix: (Units=GPa)
#
#
# Indices 1 2 3 4 5 6 
#
# 1 114.5598 51.4410 31.9683 0.0000 5.9269 0.0000
# 2 51.4410 98.3573 37.4808 0.0000 6.1120 0.0000
# 3 31.9683 37.4808 88.4586 0.0000 -1.6755 0.0000
# 4 0.0000 0.0000 0.0000 16.0020 0.0000 2.4467
# 5 5.9269 6.1120 -1.6755 0.0000 18.7185 0.0000
# 6 0.0000 0.0000 0.0000 2.4467 0.0000 17.7421
#
#
#
# Elastic Compliance Matrix: (Units=1/GPa)
#
#
# Indices 1 2 3 4 5 6 
#
# 1 0.011771 -0.005226 -0.002081 0.000000 -0.002207 0.000000
# 2 -0.005226 0.014822 -0.004460 0.000000 -0.003584 0.000000
# 3 -0.002081 -0.004460 0.014010 0.000000 0.003369 0.000000
# 4 0.000000 0.000000 0.000000 0.063838 0.000000 -0.008804
# 5 -0.002207 -0.003584 0.003369 0.000000 0.055594 0.000000
# 6 0.000000 0.000000 0.000000 -0.008804 0.000000 0.057577
#
#
# Mechanical properties :
#
#
# Convention : Reuss Voigt Hill
#
# Bulk Modulus (GPa) = 58.58389 60.35067 59.46728
# Shear Modulus (GPa) = 20.25637 22.52489 21.39063
#
# Velocity S-wave (km/s) = 3.45429 3.64258 3.54968
# Velocity P-wave (km/s) = 7.10060 7.29664 7.19929
#
# Compressibility (1/GPa) = 0.01706954
#
# Stress axis : x y z
#
# Youngs Moduli (GPa) = 84.95743 67.46602 71.37572
#
# Poissons Ratio (x) = 0.35256 0.14856
# Poissons Ratio (y) = 0.44397 0.31831
# Poissons Ratio (z) = 0.17683 0.30088
#
# Static dielectric constant tensor:
#      x y z
#    x 3.326760 0.000000 -0.007730 
#    y 0.000000 2.939530 0.000000 
#    z -0.007730 0.000000 3.027330 
# 
# 
# High freq. dielectric constant tensor:
#      x y z
#    x 1.660540 0.000000 0.000590 
#    y 0.000000 1.632160 0.000000 
#    z 0.000590 0.000000 1.647330 
# 
# From -- ./inp_files/92900.got.cif
#   From: 2010.06.25/outbox.cif.g09.slc.cpg/sg10_47_cif.got.tgz:92900.got - 2010.06.27 22:07:45.
