data_PCOD8057072
_publ_section_title
;
Structure prediction by ZEFSAII (Michael W. Deem and Ramdas Pophale) SiO2 
 PCOD8057072
Probable space group: P 2/M
;
_chemical_formula_sum "Si O2"
_cell_formula_units_Z 32
_cell_length_a 19.956699
_cell_length_b 9.450243
_cell_length_c 14.020949
_cell_angle_alpha 90.000000
_cell_angle_beta 125.218746
_cell_angle_gamma 90.000000
_cell_volume 2160.269313
_symmetry_space_group_name_H-M "P 2/M"
_symmetry_group_IT_number 10
_symmetry_cell_setting 'monoclinic'
loop_
_space_group_symop_operation_xyz
x,y,z
-x,y,-z
-x,-y,-z
x,-y,z
loop_
_atom_site_type_symbol
_atom_site_label
_atom_site_fract_x
_atom_site_fract_y
_atom_site_fract_z
Si Si1 0.740542 0.663789 0.784128
Si Si2 0.554083 0.663388 0.636948
Si Si3 0.188901 0.339175 0.954889
Si Si4 0.529484 0.832560 0.801646
Si Si5 0.048535 0.840423 0.896598
Si Si6 0.583470 0.155627 0.127430
Si Si7 0.880778 0.160091 0.834009
Si Si8 0.656138 0.665040 0.034593
O O1 0.755588 0.500000 0.777490
O O2 0.646967 0.707174 0.687757
O O3 0.799338 0.745208 0.757601
O O4 0.761245 0.706631 0.909718
O O5 0.500000 0.688068 0.500000
O O6 0.551094 0.500000 0.669322
O O7 0.518321 0.765762 0.688561
O O8 0.160713 0.500000 0.940860
O O9 0.104920 0.251437 0.871924
O O10 0.248338 0.316037 0.913412
O O11 0.442962 0.807138 0.785937
O O12 0.549973 0.000000 0.813020
O O13 0.603037 0.752262 0.915252
O O14 0.953703 0.787012 0.822896
O O15 0.050672 0.000000 0.860298
O O16 0.085802 0.830158 0.031973
O O17 0.643847 0.272754 0.131362
O O18 0.625320 0.000000 0.156961
O O19 0.500000 0.152424 0.000000
O O20 0.856765 0.000000 0.788579
O O21 0.630366 0.500000 0.010480
#
# Coordination Sequence:
#
# PCOD8057072 Si02
#       8
#     4   4   4   4   4   4   4   4
#     4   9  16  27  39  53  72  97 129 163 199 235
#     4  10  20  33  46  59  78 103 134 173 210 242
#     4   9  16  24  35  53  78 102 129 161 191 227
#     4  10  19  30  43  57  77 102 131 169 205 241
#     4   8  14  23  34  50  72  97 127 157 187 225
#     4   8  16  28  39  56  78 100 129 163 199 236
#     4   8  14  24  36  51  70  94 126 160 190 226
#     4  10  17  26  40  59  81 105 134 165 195 235
#
# _framework density 14.812968
#
# number of rings (size 3 to 8) (size 9 to 14) (size 15 to 20)
#    0.000    3.000    1.250    2.250    0.000    5.000 
#    0.000    2.500    0.000    0.000    0.000    0.000 
#    0.000    0.000    0.000    1.125    0.000   22.000 
#
# Total GULP energy -396567.856450 kJ/mol
# GULP energy per Si atom -12392.745514 kJ/mol
# Density = 1.477925 g / cm^3
# Si number density = 14.812968 Si / 1000 Ang^3
#
#
#
# Elastic Constant Matrix: (Units=GPa)
#
#
# Indices 1 2 3 4 5 6 
#
# 1 129.9499 71.5612 35.8825 0.0000 -2.9737 0.0000
# 2 71.5612 89.1948 28.4708 0.0000 -7.5888 0.0000
# 3 35.8825 28.4708 32.3178 0.0000 -2.1279 0.0000
# 4 0.0000 0.0000 0.0000 8.8514 0.0000 -4.2085
# 5 -2.9737 -7.5888 -2.1279 0.0000 11.9124 0.0000
# 6 0.0000 0.0000 0.0000 -4.2085 0.0000 31.5707
#
#
#
# Elastic Compliance Matrix: (Units=1/GPa)
#
#
# Indices 1 2 3 4 5 6 
#
# 1 0.015517 -0.010031 -0.008659 0.000000 -0.004064 0.000000
# 2 -0.010031 0.022788 -0.008243 0.000000 0.010540 0.000000
# 3 -0.008659 -0.008243 0.047894 0.000000 0.001142 0.000000
# 4 0.000000 0.000000 0.000000 0.120622 0.000000 0.016080
# 5 -0.004064 0.010540 0.001142 0.000000 0.089850 0.000000
# 6 0.000000 0.000000 0.000000 0.016080 0.000000 0.033818
#
#
# Mechanical properties :
#
#
# Convention : Reuss Voigt Hill
#
# Bulk Modulus (GPa) = 30.92949 58.14351 44.53650
# Shear Modulus (GPa) = 12.65389 18.17009 15.41199
#
# Velocity S-wave (km/s) = 2.92592 3.50613 3.22908
# Velocity P-wave (km/s) = 5.68683 7.46509 6.63580
#
# Compressibility (1/GPa) = 0.03233160
#
# Stress axis : x y z
#
# Youngs Moduli (GPa) = 64.44344 43.88341 20.87927
#
# Poissons Ratio (x) = 0.44021 0.18080
# Poissons Ratio (y) = 0.64646 0.17211
# Poissons Ratio (z) = 0.55804 0.36174
#
# Static dielectric constant tensor:
#      x y z
#    x 3.266350 0.000000 -0.114070 
#    y 0.000000 3.000140 0.000000 
#    z -0.114070 0.000000 2.363070 
# 
# 
# High freq. dielectric constant tensor:
#      x y z
#    x 1.577410 0.000000 -0.007750 
#    y 0.000000 1.574990 0.000000 
#    z -0.007750 0.000000 1.488350 
# 
# From -- ./inp_files/54931.got.cif
#   From: 2010.06.25/outbox.cif.g09.slc.cpg/sg10_28_cif.got.tgz:54931.got - 2010.06.27 22:07:45.
