data_PCOD8057241
_publ_section_title
;
Structure prediction by ZEFSAII (Michael W. Deem and Ramdas Pophale) SiO2 
 PCOD8057241
Probable space group: P 2/M
;
_chemical_formula_sum "Si O2"
_cell_formula_units_Z 32
_cell_length_a 29.443204
_cell_length_b 9.971676
_cell_length_c 18.198737
_cell_angle_alpha 90.000000
_cell_angle_beta 18.835211
_cell_angle_gamma 90.000000
_cell_volume 1725.010580
_symmetry_space_group_name_H-M "P 2/M"
_symmetry_group_IT_number 10
_symmetry_cell_setting 'monoclinic'
loop_
_space_group_symop_operation_xyz
x,y,z
-x,y,-z
-x,-y,-z
x,-y,z
loop_
_atom_site_type_symbol
_atom_site_label
_atom_site_fract_x
_atom_site_fract_y
_atom_site_fract_z
Si Si1 0.821072 0.150250 0.175069
Si Si2 0.113221 0.155627 0.673591
Si Si3 0.593503 0.658603 0.088301
Si Si4 0.909042 0.658033 0.573010
Si Si5 0.284393 0.282611 0.797521
Si Si6 0.022481 0.349923 0.693384
Si Si7 0.350901 0.843451 0.425917
Si Si8 0.561395 0.648350 0.304137
O O1 0.747380 0.156065 0.207098
O O2 0.730612 0.219478 0.378184
O O3 0.831304 0.000000 0.187016
O O4 0.980456 0.206280 0.926154
O O5 0.118465 0.248237 0.593329
O O6 0.255906 0.174434 0.499509
O O7 0.090512 0.000000 0.685277
O O8 0.563059 0.500000 0.123856
O O9 0.486400 0.749732 0.205478
O O10 0.576790 0.702717 0.198673
O O11 0.747242 0.701979 0.826245
O O12 0.919452 0.500000 0.564824
O O13 0.972732 0.704256 0.397545
O O14 0.000000 0.723989 0.500000
O O15 0.353959 0.250225 0.770671
O O16 0.398578 0.368958 0.577181
O O17 0.138110 0.359203 0.033166
O O18 0.086941 0.500000 0.600231
O O19 0.394177 0.000000 0.369987
O O20 0.631204 0.500000 0.203102
#
# Coordination Sequence:
#
# PCOD8057241 Si02
#       8
#     4   4   4   4   4   4   4   4
#     4   9  17  31  50  72 100 136 174 209 248 303
#     4   9  19  34  54  75 101 137 173 208 254 310
#     4  10  20  34  53  77 104 134 173 216 254 296
#     4   9  18  34  56  80 104 136 176 211 247 298
#     4  10  17  28  46  72 104 131 163 201 251 306
#     4  10  19  32  53  78 103 131 169 215 254 293
#     4  10  19  35  54  74 101 136 174 211 255 308
#     4  10  18  28  44  69 103 137 162 196 252 310
#
# _framework density 18.550611
#
# number of rings (size 3 to 8) (size 9 to 14) (size 15 to 20)
#    0.000    2.375    1.250    2.625    0.000    4.000 
#    0.000    3.125    0.000    9.000    0.000    0.000 
#    0.000    0.000    0.000    0.000    0.000    0.000 
#
# Total GULP energy -396490.856717 kJ/mol
# GULP energy per Si atom -12390.339272 kJ/mol
# Density = 1.850839 g / cm^3
# Si number density = 18.550611 Si / 1000 Ang^3
#
#
#
# Elastic Constant Matrix: (Units=GPa)
#
#
# Indices 1 2 3 4 5 6 
#
# 1 100.1337 39.7474 49.5715 0.0000 -6.9642 0.0000
# 2 39.7474 53.0958 32.3452 0.0000 -8.1911 0.0000
# 3 49.5715 32.3452 94.0987 0.0000 -8.1245 0.0000
# 4 0.0000 0.0000 0.0000 20.7233 0.0000 -4.9581
# 5 -6.9642 -8.1911 -8.1245 0.0000 29.2906 0.0000
# 6 0.0000 0.0000 0.0000 -4.9581 0.0000 26.6856
#
#
#
# Elastic Compliance Matrix: (Units=1/GPa)
#
#
# Indices 1 2 3 4 5 6 
#
# 1 0.016199 -0.008780 -0.005527 0.000000 -0.000137 0.000000
# 2 -0.008780 0.029174 -0.004998 0.000000 0.004685 0.000000
# 3 -0.005527 -0.004998 0.015391 0.000000 0.001557 0.000000
# 4 0.000000 0.000000 0.000000 0.050500 0.000000 0.009383
# 5 -0.000137 0.004685 0.001557 0.000000 0.035850 0.000000
# 6 0.000000 0.000000 0.000000 0.009383 0.000000 0.039217
#
#
# Mechanical properties :
#
#
# Convention : Reuss Voigt Hill
#
# Bulk Modulus (GPa) = 45.14108 54.51736 49.82922
# Shear Modulus (GPa) = 21.52138 23.71749 22.61944
#
# Velocity S-wave (km/s) = 3.40978 3.57953 3.49569
# Velocity P-wave (km/s) = 6.31577 6.82175 6.57363
#
# Compressibility (1/GPa) = 0.02215277
#
# Stress axis : x y z
#
# Youngs Moduli (GPa) = 61.73340 34.27655 64.97107
#
# Poissons Ratio (x) = 0.30096 0.35911
# Poissons Ratio (y) = 0.54204 0.32475
# Poissons Ratio (z) = 0.34121 0.17133
#
# Static dielectric constant tensor:
#      x y z
#    x 3.468710 0.000000 0.024210 
#    y 0.000000 3.064510 0.000000 
#    z 0.024210 0.000000 3.443680 
# 
# 
# High freq. dielectric constant tensor:
#      x y z
#    x 1.719780 0.000000 -0.002190 
#    y 0.000000 1.676300 0.000000 
#    z -0.002190 0.000000 1.718690 
# 
# From -- ./inp_files/80547.got.cif
#   From: 2010.06.25/outbox.cif.g09.slc.cpg/sg10_41_cif.got.tgz:80547.got - 2010.06.27 22:07:45.
