data_PCOD8057603
_publ_section_title
;
Structure prediction by ZEFSAII (Michael W. Deem and Ramdas Pophale) SiO2 
 PCOD8057603
Probable space group: P 2/M
;
_chemical_formula_sum "Si O2"
_cell_formula_units_Z 32
_cell_length_a 23.372897
_cell_length_b 9.161903
_cell_length_c 29.494271
_cell_angle_alpha 90.000000
_cell_angle_beta 16.368443
_cell_angle_gamma 90.000000
_cell_volume 1779.905726
_symmetry_space_group_name_H-M "P 2/M"
_symmetry_group_IT_number 10
_symmetry_cell_setting 'monoclinic'
loop_
_space_group_symop_operation_xyz
x,y,z
-x,y,-z
-x,-y,-z
x,-y,z
loop_
_atom_site_type_symbol
_atom_site_label
_atom_site_fract_x
_atom_site_fract_y
_atom_site_fract_z
Si Si1 0.001779 0.830879 0.280367
Si Si2 0.197305 0.168186 0.475033
Si Si3 0.038199 0.669629 0.857825
Si Si4 0.583376 0.166988 0.077556
Si Si5 0.818014 0.671390 0.605428
Si Si6 0.389876 0.834937 0.631730
Si Si7 0.254271 0.329754 0.598970
Si Si8 0.346247 0.166421 0.872418
O O1 0.955329 0.797630 0.368074
O O2 0.861519 0.729617 0.356542
O O3 0.958547 0.000000 0.300829
O O4 0.238423 0.792773 0.093101
O O5 0.133071 0.264112 0.481105
O O6 0.426559 0.204359 0.316919
O O7 0.187945 0.000000 0.466717
O O8 0.041856 0.500000 0.867014
O O9 0.175324 0.752402 0.790629
O O10 0.119483 0.701508 0.745672
O O11 0.809125 0.728875 0.035692
O O12 0.389059 0.266757 0.215518
O O13 0.670286 0.195945 0.061468
O O14 0.513170 0.000000 0.125792
O O15 0.793657 0.500000 0.618838
O O16 0.000000 0.715639 0.500000
O O17 0.500000 0.832206 0.500000
O O18 0.529775 0.751797 0.561733
O O19 0.352547 0.000000 0.676821
O O20 0.297493 0.500000 0.559979
O O21 0.287381 0.000000 0.905898
#
# Coordination Sequence:
#
# PCOD8057603 Si02
#       8
#     4   4   4   4   4   4   4   4
#     4  10  19  34  54  77 106 136 171 212 257 305
#     4   9  20  36  55  79 105 136 172 212 253 301
#     4  10  18  27  43  69  99 130 168 214 260 306
#     4   9  18  32  54  80 104 134 172 213 251 297
#     4  10  21  37  57  80 107 139 172 207 250 301
#     4   9  17  28  43  64  93 131 172 215 261 306
#     4  10  19  29  44  70 103 135 168 208 260 312
#     4   9  16  29  48  72  99 129 168 211 255 301
#
# _framework density 17.978480999999999
#
# number of rings (size 3 to 8) (size 9 to 14) (size 15 to 20)
#    0.000    2.500    1.250    2.250    0.000    6.500 
#    0.000    0.625    0.000    4.500    0.000    5.250 
#    0.000    0.000    0.000    0.000    0.000    0.000 
#
# Total GULP energy -396848.004742 kJ/mol
# GULP energy per Si atom -12401.500148 kJ/mol
# Density = 1.793756 g / cm^3
# Si number density = 17.978481 Si / 1000 Ang^3
#
#
#
# Elastic Constant Matrix: (Units=GPa)
#
#
# Indices 1 2 3 4 5 6 
#
# 1 72.7063 53.4409 58.7540 0.0000 -15.5322 0.0000
# 2 53.4409 102.9743 53.7310 0.0000 -20.3840 0.0000
# 3 58.7540 53.7310 114.5144 0.0000 -5.7053 0.0000
# 4 0.0000 0.0000 0.0000 22.1247 0.0000 -12.7204
# 5 -15.5322 -20.3840 -5.7053 0.0000 31.3981 0.0000
# 6 0.0000 0.0000 0.0000 -12.7204 0.0000 25.4853
#
#
#
# Elastic Compliance Matrix: (Units=1/GPa)
#
#
# Indices 1 2 3 4 5 6 
#
# 1 0.030971 -0.008556 -0.011493 0.000000 0.007678 0.000000
# 2 -0.008556 0.017138 -0.003338 0.000000 0.006287 0.000000
# 3 -0.011493 -0.003338 0.015949 0.000000 -0.004955 0.000000
# 4 0.000000 0.000000 0.000000 0.063389 0.000000 0.031639
# 5 0.007678 0.006287 -0.004955 0.000000 0.038828 0.000000
# 6 0.000000 0.000000 0.000000 0.031639 0.000000 0.055030
#
#
# Mechanical properties :
#
#
# Convention : Reuss Voigt Hill
#
# Bulk Modulus (GPa) = 57.86143 69.11633 63.48888
# Shear Modulus (GPa) = 18.25880 24.08622 21.17251
#
# Velocity S-wave (km/s) = 3.19029 3.66420 3.43543
# Velocity P-wave (km/s) = 6.76936 7.51193 7.15029
#
# Compressibility (1/GPa) = 0.01728267
#
# Stress axis : x y z
#
# Youngs Moduli (GPa) = 32.28865 58.35034 62.70122
#
# Poissons Ratio (x) = 0.49926 0.72063
# Poissons Ratio (y) = 0.27627 0.20930
# Poissons Ratio (z) = 0.37109 0.19478
#
# Static dielectric constant tensor:
#      x y z
#    x 3.028640 0.000000 -0.051710 
#    y 0.000000 3.326600 0.000000 
#    z -0.051710 0.000000 3.389820 
# 
# 
# High freq. dielectric constant tensor:
#      x y z
#    x 1.665280 0.000000 -0.014470 
#    y 0.000000 1.700860 0.000000 
#    z -0.014470 0.000000 1.691120 
# 
# From -- ./inp_files/86095.got.cif
#   From: 2010.06.25/outbox.cif.g09.slc.cpg/sg10_44_cif.got.tgz:86095.got - 2010.06.27 22:07:45.
