data_PCOD8057147
_publ_section_title
;
Structure prediction by ZEFSAII (Michael W. Deem and Ramdas Pophale) SiO2 
 PCOD8057147
Probable space group: P 2/M
;
_chemical_formula_sum "Si O2"
_cell_formula_units_Z 26
_cell_length_a 7.909013
_cell_length_b 19.739733
_cell_length_c 7.967247
_cell_angle_alpha 90.000000
_cell_angle_beta 83.213939
_cell_angle_gamma 90.000000
_cell_volume 1235.146845
_symmetry_space_group_name_H-M "P 2/M"
_symmetry_group_IT_number 10
_symmetry_cell_setting 'monoclinic'
loop_
_space_group_symop_operation_xyz
x,y,z
-x,y,-z
-x,-y,-z
x,-y,z
loop_
_atom_site_type_symbol
_atom_site_label
_atom_site_fract_x
_atom_site_fract_y
_atom_site_fract_z
Si Si1 0.344574 0.923606 0.390716
Si Si2 0.481200 0.189796 0.811365
Si Si3 0.899244 0.791229 0.174002
Si Si4 0.159323 0.422044 0.197731
Si Si5 0.000000 0.146171 0.500000
Si Si6 0.172535 0.633451 0.823844
Si Si7 0.531159 0.336423 0.795467
O O1 0.500000 0.916949 0.500000
O O2 0.392850 0.872319 0.237521
O O3 0.164899 0.902100 0.490608
O O4 0.329851 0.000000 0.322774
O O5 0.285711 0.173222 0.787268
O O6 0.545909 0.260071 0.717816
O O7 0.500000 0.206993 0.000000
O O8 0.003444 0.807251 0.332371
O O9 0.876594 0.711764 0.145846
O O10 0.000000 0.820967 0.000000
O O11 0.197319 0.500000 0.229928
O O12 0.301203 0.377646 0.277816
O O13 0.967724 0.401670 0.281847
O O14 0.168116 0.405733 0.000411
O O15 0.364388 0.628672 0.728863
O O16 0.500000 0.337078 0.000000
#
# Coordination Sequence:
#
# PCOD8057147 Si02
#       7
#     4   4   4   4   2   4   4
#     4  11  24  44  64  89 130 163 202 261 317 383
#     4  10  20  38  64  90 122 168 209 262 318 367
#     4  11  21  38  62  94 129 164 212 268 315 364
#     4  10  17  26  45  77 114 158 199 245 312 367
#     4  12  25  40  68  98 123 168 212 256 323 378
#     4   9  17  29  46  72 113 154 192 251 299 349
#     4   8  17  28  45  75 109 147 195 251 298 351
#
# _framework density 21.050127
#
# number of rings (size 3 to 8) (size 9 to 14) (size 15 to 20)
#    0.000    2.000    3.077    3.000    2.154    3.692 
#    0.000    0.000    0.000    2.308    0.000    2.154 
#    0.000    3.692    0.000    0.000    0.000    0.000 
#
# Total GULP energy -322160.384759 kJ/mol
# GULP energy per Si atom -12390.784029 kJ/mol
# Density = 2.100222 g / cm^3
# Si number density = 21.050127 Si / 1000 Ang^3
#
#
#
# Elastic Constant Matrix: (Units=GPa)
#
#
# Indices 1 2 3 4 5 6 
#
# 1 176.5038 69.4835 24.7880 0.0000 -4.2270 0.0000
# 2 69.4835 115.8199 21.6827 0.0000 -12.6481 0.0000
# 3 24.7880 21.6827 48.1665 0.0000 4.9351 0.0000
# 4 0.0000 0.0000 0.0000 -13.4549 0.0000 0.5040
# 5 -4.2270 -12.6481 4.9351 0.0000 21.5839 0.0000
# 6 0.0000 0.0000 0.0000 0.5040 0.0000 27.7438
#
#
#
# Elastic Compliance Matrix: (Units=1/GPa)
#
#
# Indices 1 2 3 4 5 6 
#
# 1 0.007601 -0.004259 -0.001936 0.000000 -0.000564 0.000000
# 2 -0.004259 0.012850 -0.004382 0.000000 0.007698 0.000000
# 3 -0.001936 -0.004382 0.024609 0.000000 -0.008574 0.000000
# 4 0.000000 0.000000 0.000000 -0.074272 0.000000 0.001349
# 5 -0.000564 0.007698 -0.008574 0.000000 0.052691 0.000000
# 6 0.000000 0.000000 0.000000 0.001349 0.000000 0.036020
#
#
# Mechanical properties :
#
#
# Convention : Reuss Voigt Hill
#
# Bulk Modulus (GPa) = 41.83137 63.59986 52.71562
# Shear Modulus (GPa) = 56.41991 22.14362 39.28177
#
# Velocity S-wave (km/s) = 5.18274 3.24689 4.32453
# Velocity P-wave (km/s) = 7.46524 6.65849 7.07338
#
# Compressibility (1/GPa) = 0.02390550
#
# Stress axis : x y z
#
# Youngs Moduli (GPa) = 131.56784 77.82055 40.63599
#
# Poissons Ratio (x) = 0.33143 0.07869
# Poissons Ratio (y) = 0.56034 0.17805
# Poissons Ratio (z) = 0.25478 0.34097
#
# Static dielectric constant tensor:
#      x y z
#    x 4.541900 0.000000 0.026540 
#    y 0.000000 3.742650 0.000000 
#    z 0.026540 0.000000 3.145780 
# 
# 
# High freq. dielectric constant tensor:
#      x y z
#    x 1.856060 0.000000 0.002590 
#    y 0.000000 1.814000 0.000000 
#    z 0.002590 0.000000 1.765220 
# 
# From -- ./inp_files/19607.got.cif
#   From: 2010.06.25/outbox.cif.g09.slc.cpg/sg10_10_cif.got.tgz:19607.got - 2010.06.27 22:07:45.
