data_PCOD8057720
_publ_section_title
;
Structure prediction by ZEFSAII (Michael W. Deem and Ramdas Pophale) SiO2 
 PCOD8057720
Probable space group: P 2/M
;
_chemical_formula_sum "Si O2"
_cell_formula_units_Z 24
_cell_length_a 21.385264
_cell_length_b 9.002090
_cell_length_c 12.064519
_cell_angle_alpha 90.000000
_cell_angle_beta 38.120086
_cell_angle_gamma 90.000000
_cell_volume 1433.746907
_symmetry_space_group_name_H-M "P 2/M"
_symmetry_group_IT_number 10
_symmetry_cell_setting 'monoclinic'
loop_
_space_group_symop_operation_xyz
x,y,z
-x,y,-z
-x,-y,-z
x,-y,z
loop_
_atom_site_type_symbol
_atom_site_label
_atom_site_fract_x
_atom_site_fract_y
_atom_site_fract_z
Si Si1 0.491807 0.828069 0.831439
Si Si2 0.336341 0.171216 0.230481
Si Si3 0.771100 0.824525 0.268708
Si Si4 0.435129 0.328211 0.481650
Si Si5 0.172483 0.674709 0.581235
Si Si6 0.957501 0.664193 0.935709
O O1 0.585589 0.792393 0.780392
O O2 0.497991 0.725540 0.715386
O O3 0.494353 0.000000 0.792186
O O4 0.387500 0.790794 0.041204
O O5 0.236304 0.271899 0.385596
O O6 0.304010 0.000000 0.279429
O O7 0.667118 0.765761 0.362422
O O8 0.784302 0.759124 0.372423
O O9 0.767460 0.000000 0.282268
O O10 0.863602 0.777226 0.058435
O O11 0.500000 0.300323 0.500000
O O12 0.407130 0.500000 0.504339
O O13 0.185680 0.500000 0.583072
O O14 0.053499 0.713633 0.726079
O O15 0.919009 0.500000 0.955050
O O16 0.000000 0.659886 0.000000
#
# Coordination Sequence:
#
# PCOD8057720 Si02
#       6
#     4   4   4   4   4   4
#     4   9  18  32  48  69  96 126 159 195 237 282
#     4   9  17  29  47  71  99 127 155 192 237 283
#     4  11  20  30  46  67  93 125 160 198 237 281
#     4  11  23  36  50  69  94 126 164 202 238 279
#     4  10  18  28  45  70  98 128 158 189 233 285
#     4   8  16  29  43  63  94 126 155 190 232 281
#
# _framework density 16.739356000000001
#
# number of rings (size 3 to 8) (size 9 to 14) (size 15 to 20)
#    0.000    2.333    1.667    4.500    0.000    5.667 
#    0.000    1.667    0.000    0.000    0.000    1.167 
#    0.000    9.333    0.000    0.000    0.000    0.000 
#
# Total GULP energy -297534.110300 kJ/mol
# GULP energy per Si atom -12397.254596 kJ/mol
# Density = 1.670126 g / cm^3
# Si number density = 16.739356 Si / 1000 Ang^3
#
#
#
# Elastic Constant Matrix: (Units=GPa)
#
#
# Indices 1 2 3 4 5 6 
#
# 1 46.7996 41.4343 39.6906 0.0000 -1.9761 0.0000
# 2 41.4343 110.9321 68.7583 0.0000 -10.9461 0.0000
# 3 39.6906 68.7583 147.5606 0.0000 -19.0244 0.0000
# 4 0.0000 0.0000 0.0000 33.9968 0.0000 -1.1142
# 5 -1.9761 -10.9461 -19.0244 0.0000 20.7330 0.0000
# 6 0.0000 0.0000 0.0000 -1.1142 0.0000 12.6536
#
#
#
# Elastic Compliance Matrix: (Units=1/GPa)
#
#
# Indices 1 2 3 4 5 6 
#
# 1 0.034863 -0.010326 -0.005490 0.000000 -0.007166 0.000000
# 2 -0.010326 0.015772 -0.004111 0.000000 0.003570 0.000000
# 3 -0.005490 -0.004111 0.011140 0.000000 0.007528 0.000000
# 4 0.000000 0.000000 0.000000 0.029500 0.000000 0.002598
# 5 -0.007166 0.003570 0.007528 0.000000 0.056342 0.000000
# 6 0.000000 0.000000 0.000000 0.002598 0.000000 0.079258
#
#
# Mechanical properties :
#
#
# Convention : Reuss Voigt Hill
#
# Bulk Modulus (GPa) = 45.61951 67.22875 56.42413
# Shear Modulus (GPa) = 18.24574 23.83727 21.04151
#
# Velocity S-wave (km/s) = 3.30508 3.77772 3.54928
# Velocity P-wave (km/s) = 6.47123 7.69919 7.11176
#
# Compressibility (1/GPa) = 0.02192044
#
# Stress axis : x y z
#
# Youngs Moduli (GPa) = 28.68333 63.40275 89.76801
#
# Poissons Ratio (x) = 0.65472 0.49280
# Poissons Ratio (y) = 0.29619 0.36908
# Poissons Ratio (z) = 0.15746 0.26068
#
# Static dielectric constant tensor:
#      x y z
#    x 2.655700 0.000000 -0.214960 
#    y 0.000000 3.174580 0.000000 
#    z -0.214960 0.000000 3.631620 
# 
# 
# High freq. dielectric constant tensor:
#      x y z
#    x 1.580470 0.000000 -0.018930 
#    y 0.000000 1.651610 0.000000 
#    z -0.018930 0.000000 1.662660 
# 
# From -- ./inp_files/45144.got.cif
#   From: 2010.06.25/outbox.cif.g09.slc.cpg/sg10_23_cif.got.tgz:45144.got - 2010.06.27 22:07:45.
