data_PCOD8057204
_publ_section_title
;
Structure prediction by ZEFSAII (Michael W. Deem and Ramdas Pophale) SiO2 
 PCOD8057204
Probable space group: P 2/M
;
_chemical_formula_sum "Si O2"
_cell_formula_units_Z 28
_cell_length_a 19.713407
_cell_length_b 8.975083
_cell_length_c 16.805564
_cell_angle_alpha 90.000000
_cell_angle_beta 148.095417
_cell_angle_gamma 90.000000
_cell_volume 1571.460156
_symmetry_space_group_name_H-M "P 2/M"
_symmetry_group_IT_number 10
_symmetry_cell_setting 'monoclinic'
loop_
_space_group_symop_operation_xyz
x,y,z
-x,y,-z
-x,-y,-z
x,-y,z
loop_
_atom_site_type_symbol
_atom_site_label
_atom_site_fract_x
_atom_site_fract_y
_atom_site_fract_z
Si Si1 0.002441 0.677523 0.093015
Si Si2 0.249762 0.675218 0.072802
Si Si3 0.747135 0.323160 0.563753
Si Si4 0.643343 0.176797 0.311558
Si Si5 0.497384 0.322500 0.408510
Si Si6 0.630390 0.325976 0.969609
Si Si7 0.652196 0.164106 0.145911
O O1 0.000175 0.500000 0.089088
O O2 0.129324 0.733515 0.264638
O O3 0.000000 0.738735 0.000000
O O4 0.880839 0.743045 0.020789
O O5 0.247571 0.500000 0.085187
O O6 0.371731 0.743439 0.240512
O O7 0.264732 0.711415 0.994019
O O8 0.749009 0.500000 0.553722
O O9 0.743408 0.245531 0.473839
O O10 0.623416 0.266824 0.488674
O O11 0.501782 0.243966 0.183058
O O12 0.700114 0.218567 0.280491
O O13 0.632523 0.000000 0.310346
O O14 0.500000 0.258367 0.500000
O O15 0.494739 0.500000 0.406280
O O16 0.598811 0.500000 0.941208
O O17 0.692640 0.275531 0.115530
O O18 0.707356 0.000000 0.180836
O O19 0.500000 0.155916 0.000000
#
# Coordination Sequence:
#
# PCOD8057204 Si02
#       7
#     4   4   4   4   4   4   4
#     4   9  17  29  46  71 100 129 160 196 241 289
#     4   9  16  26  41  67 101 126 151 194 242 283
#     4  10  18  29  48  74  97 122 163 203 235 283
#     4  10  19  31  47  68  98 131 160 195 243 288
#     4   9  15  24  41  67  96 121 148 192 242 279
#     4  10  17  27  46  73 101 126 157 198 242 284
#     4   8  16  29  44  66  96 128 159 193 237 290
#
# _framework density 17.817824999999999
#
# number of rings (size 3 to 8) (size 9 to 14) (size 15 to 20)
#    0.000    2.714    1.429    2.571    0.000    6.571 
#    0.000    0.000    0.000    3.429    0.000    6.000 
#    0.000    0.000    0.000    0.000    0.000    0.000 
#
# Total GULP energy -347064.927369 kJ/mol
# GULP energy per Si atom -12395.175977 kJ/mol
# Density = 1.777727 g / cm^3
# Si number density = 17.817825 Si / 1000 Ang^3
#
#
#
# Elastic Constant Matrix: (Units=GPa)
#
#
# Indices 1 2 3 4 5 6 
#
# 1 146.2884 35.2165 85.5012 0.0000 -18.4354 0.0000
# 2 35.2165 40.8953 27.7737 0.0000 -9.2929 0.0000
# 3 85.5012 27.7737 134.0452 0.0000 -14.0175 0.0000
# 4 0.0000 0.0000 0.0000 10.3845 0.0000 -4.0457
# 5 -18.4354 -9.2929 -14.0175 0.0000 37.7687 0.0000
# 6 0.0000 0.0000 0.0000 -4.0457 0.0000 2.3589
#
#
#
# Elastic Compliance Matrix: (Units=1/GPa)
#
#
# Indices 1 2 3 4 5 6 
#
# 1 0.012210 -0.005682 -0.006381 0.000000 0.002193 0.000000
# 2 -0.005682 0.032042 -0.002580 0.000000 0.004153 0.000000
# 3 -0.006381 -0.002580 0.012144 0.000000 0.000758 0.000000
# 4 0.000000 0.000000 0.000000 0.290219 0.000000 0.497758
# 5 0.002193 0.004153 0.000758 0.000000 0.028850 0.000000
# 6 0.000000 0.000000 0.000000 0.497758 0.000000 1.277641
#
#
# Mechanical properties :
#
#
# Convention : Reuss Voigt Hill
#
# Bulk Modulus (GPa) = 36.88898 68.69019 52.78958
# Shear Modulus (GPa) = 2.95608 21.61825 12.28717
#
# Velocity S-wave (km/s) = 1.28944 3.48702 2.62887
# Velocity P-wave (km/s) = 4.79221 7.40591 6.23749
#
# Compressibility (1/GPa) = 0.02710837
#
# Stress axis : x y z
#
# Youngs Moduli (GPa) = 81.90120 31.20923 82.34211
#
# Poissons Ratio (x) = 0.17733 0.52546
# Poissons Ratio (y) = 0.46537 0.21247
# Poissons Ratio (z) = 0.52265 0.08053
#
# Static dielectric constant tensor:
#      x y z
#    x 3.583180 0.000000 -0.281170 
#    y 0.000000 2.889150 0.000000 
#    z -0.281170 0.000000 3.362640 
# 
# 
# High freq. dielectric constant tensor:
#      x y z
#    x 1.695710 0.000000 -0.025220 
#    y 0.000000 1.644450 0.000000 
#    z -0.025220 0.000000 1.672100 
# 
# From -- ./inp_files/37235.got.cif
#   From: 2010.06.25/outbox.cif.g09.slc.cpg/sg10_19_cif.got.tgz:37235.got - 2010.06.27 22:07:45.
