data_PCOD8057891
_publ_section_title
;
Structure prediction by ZEFSAII (Michael W. Deem and Ramdas Pophale) SiO2 
 PCOD8057891
Probable space group: P 2/M
;
_chemical_formula_sum "Si O2"
_cell_formula_units_Z 32
_cell_length_a 26.251491
_cell_length_b 9.537470
_cell_length_c 10.009262
_cell_angle_alpha 90.000000
_cell_angle_beta 40.405831
_cell_angle_gamma 90.000000
_cell_volume 1624.413169
_symmetry_space_group_name_H-M "P 2/M"
_symmetry_group_IT_number 10
_symmetry_cell_setting 'monoclinic'
loop_
_space_group_symop_operation_xyz
x,y,z
-x,y,-z
-x,-y,-z
x,-y,z
loop_
_atom_site_type_symbol
_atom_site_label
_atom_site_fract_x
_atom_site_fract_y
_atom_site_fract_z
Si Si1 0.753410 0.155838 0.446012
Si Si2 0.051955 0.662346 0.716744
Si Si3 0.313191 0.166351 0.147563
Si Si4 0.240756 0.832183 0.010194
Si Si5 0.515674 0.168061 0.118943
Si Si6 0.910666 0.664172 0.647488
Si Si7 0.887944 0.335815 0.124775
Si Si8 0.362698 0.843975 0.551290
O O1 0.737973 0.220832 0.624161
O O2 0.810270 0.251468 0.241275
O O3 0.672302 0.151276 0.527964
O O4 0.789471 0.000000 0.385413
O O5 0.046518 0.500000 0.761771
O O6 0.101452 0.693478 0.486069
O O7 0.092323 0.726941 0.766470
O O8 0.960022 0.707949 0.883527
O O9 0.273394 0.215707 0.089426
O O10 0.316782 0.000000 0.147556
O O11 0.401881 0.224761 0.986639
O O12 0.156832 0.756388 0.147013
O O13 0.227709 0.000000 0.025420
O O14 0.304095 0.772437 0.776106
O O15 0.448366 0.226259 0.356741
O O16 0.512191 0.000000 0.124230
O O17 0.500000 0.225056 0.000000
O O18 0.899952 0.500000 0.706546
O O19 0.000000 0.712164 0.500000
O O20 0.868766 0.500000 0.157868
O O21 0.374748 0.000000 0.584463
#
# Coordination Sequence:
#
# PCOD8057891 Si02
#       8
#     4   4   4   4   4   4   4   4
#     4  10  18  29  46  71  99 128 161 201 244 290
#     4   8  16  32  49  68  92 120 159 208 250 287
#     4   9  17  29  49  74 102 135 169 204 242 295
#     4  10  21  35  49  75 109 132 159 207 261 299
#     4   9  14  26  48  74 102 134 169 201 241 292
#     4  10  21  36  54  72  95 132 176 210 239 294
#     4   9  17  30  50  70  92 122 159 204 252 294
#     4   9  18  30  46  71 105 135 160 201 251 294
#
# _framework density 19.699421999999998
#
# number of rings (size 3 to 8) (size 9 to 14) (size 15 to 20)
#    0.000    2.750    1.250    1.500    1.750    0.750 
#    0.000    4.375    0.000    0.000    0.000    5.250 
#    0.000    0.000    0.000    0.000    0.000    0.000 
#
# Total GULP energy -396433.711613 kJ/mol
# GULP energy per Si atom -12388.553488 kJ/mol
# Density = 1.965458 g / cm^3
# Si number density = 19.699422 Si / 1000 Ang^3
#
#
#
# Elastic Constant Matrix: (Units=GPa)
#
#
# Indices 1 2 3 4 5 6 
#
# 1 50.4913 8.3472 22.8814 0.0000 -0.1283 0.0000
# 2 8.3472 32.5615 33.5763 0.0000 -6.2860 0.0000
# 3 22.8814 33.5763 145.9247 0.0000 -5.1728 0.0000
# 4 0.0000 0.0000 0.0000 2.8951 0.0000 8.7685
# 5 -0.1283 -6.2860 -5.1728 0.0000 35.1929 0.0000
# 6 0.0000 0.0000 0.0000 8.7685 0.0000 4.2342
#
#
#
# Elastic Compliance Matrix: (Units=1/GPa)
#
#
# Indices 1 2 3 4 5 6 
#
# 1 0.021519 -0.002842 -0.002750 0.000000 -0.000833 0.000000
# 2 -0.002842 0.041879 -0.008972 0.000000 0.006151 0.000000
# 3 -0.002750 -0.008972 0.009340 0.000000 -0.000240 0.000000
# 4 0.000000 0.000000 0.000000 -0.065515 0.000000 0.135675
# 5 -0.000833 0.006151 -0.000240 0.000000 0.029475 0.000000
# 6 0.000000 0.000000 0.000000 0.135675 0.000000 -0.044796
#
#
# Mechanical properties :
#
#
# Convention : Reuss Voigt Hill
#
# Bulk Modulus (GPa) = 22.93044 39.84303 31.38673
# Shear Modulus (GPa) = 140.57726 19.40928 79.99327
#
# Velocity S-wave (km/s) = 8.45672 3.14231 6.37927
# Velocity P-wave (km/s) = 10.34505 5.78229 8.38018
#
# Compressibility (1/GPa) = 0.04361016
#
# Stress axis : x y z
#
# Youngs Moduli (GPa) = 46.46993 23.87821 107.06576
#
# Poissons Ratio (x) = 0.06786 0.29443
# Poissons Ratio (y) = 0.13206 0.96064
# Poissons Ratio (z) = 0.12779 0.21425
#
# Static dielectric constant tensor:
#      x y z
#    x 3.619270 0.000000 0.054420 
#    y 0.000000 2.933630 0.000000 
#    z 0.054420 0.000000 3.844150 
# 
# 
# High freq. dielectric constant tensor:
#      x y z
#    x 1.767820 0.000000 0.002640 
#    y 0.000000 1.691350 0.000000 
#    z 0.002640 0.000000 1.787840 
# 
# From -- ./inp_files/57640.got.cif
#   From: 2010.06.25/outbox.cif.g09.slc.cpg/sg10_29_cif.got.tgz:57640.got - 2010.06.27 22:07:45.
