data_PCOD8057648
_publ_section_title
;
Structure prediction by ZEFSAII (Michael W. Deem and Ramdas Pophale) SiO2 
 PCOD8057648
Probable space group: P 2/M
;
_chemical_formula_sum "Si O2"
_cell_formula_units_Z 24
_cell_length_a 19.802915
_cell_length_b 17.882176
_cell_length_c 5.257140
_cell_angle_alpha 90.000000
_cell_angle_beta 58.828682
_cell_angle_gamma 90.000000
_cell_volume 1592.875096
_symmetry_space_group_name_H-M "P 2/M"
_symmetry_group_IT_number 10
_symmetry_cell_setting 'monoclinic'
loop_
_space_group_symop_operation_xyz
x,y,z
-x,y,-z
-x,-y,-z
x,-y,z
loop_
_atom_site_type_symbol
_atom_site_label
_atom_site_fract_x
_atom_site_fract_y
_atom_site_fract_z
Si Si1 0.956346 0.410966 0.333692
Si Si2 0.219784 0.415647 0.258915
Si Si3 0.629988 0.415902 0.754457
Si Si4 0.358045 0.661466 0.773951
Si Si5 0.593720 0.828973 0.317190
Si Si6 0.406412 0.083753 0.182534
O O1 0.958148 0.500000 0.320744
O O2 0.866067 0.382138 0.511231
O O3 0.000000 0.380807 0.500000
O O4 0.000000 0.377991 0.000000
O O5 0.212226 0.500000 0.161310
O O6 0.274030 0.417441 0.408309
O O7 0.265583 0.363626 0.964329
O O8 0.595876 0.500000 0.806809
O O9 0.603059 0.370499 0.558871
O O10 0.595461 0.374032 0.073510
O O11 0.362699 0.750136 0.768652
O O12 0.500000 0.816735 0.500000
O O13 0.622790 0.873583 0.508860
O O14 0.622800 0.873686 0.012370
O O15 0.370893 0.000000 0.251983
O O16 0.500000 0.079275 0.000000
#
# Coordination Sequence:
#
# PCOD8057648 Si02
#       6
#     4   4   4   4   4   4
#     4   9  17  25  36  55  76  97 129 173 211 238
#     4   8  17  28  42  55  76 108 142 174 205 243
#     4   9  17  28  43  56  73 104 145 179 202 240
#     4  10  18  28  43  60  79 105 139 175 211 245
#     4  10  19  30  45  65  86 106 134 173 207 237
#     4   9  17  30  47  65  85 108 131 156 195 251
#
# _framework density 15.067095
#
# number of rings (size 3 to 8) (size 9 to 14) (size 15 to 20)
#    1.000    1.833    0.000    2.500    2.333    2.000 
#    0.000    0.000    0.000    5.500    0.000    0.000 
#    0.000    0.000    0.000    0.000    0.000   16.667 
#
# Total GULP energy -297380.065608 kJ/mol
# GULP energy per Si atom -12390.836067 kJ/mol
# Density = 1.503280 g / cm^3
# Si number density = 15.067095 Si / 1000 Ang^3
#
#
#
# Elastic Constant Matrix: (Units=GPa)
#
#
# Indices 1 2 3 4 5 6 
#
# 1 36.7541 27.5695 39.3658 0.0000 13.5411 0.0000
# 2 27.5695 122.3784 47.3211 0.0000 20.7774 0.0000
# 3 39.3658 47.3211 81.5894 0.0000 35.1343 0.0000
# 4 0.0000 0.0000 0.0000 4.9039 0.0000 26.4968
# 5 13.5411 20.7774 35.1343 0.0000 34.8777 0.0000
# 6 0.0000 0.0000 0.0000 26.4968 0.0000 -8.9241
#
#
#
# Elastic Compliance Matrix: (Units=1/GPa)
#
#
# Indices 1 2 3 4 5 6 
#
# 1 0.059073 -0.002991 -0.031186 0.000000 0.010263 0.000000
# 2 -0.002991 0.010686 -0.004439 0.000000 -0.000733 0.000000
# 3 -0.031186 -0.004439 0.041549 0.000000 -0.027102 0.000000
# 4 0.000000 0.000000 0.000000 0.011965 0.000000 0.035526
# 5 0.010263 -0.000733 -0.027102 0.000000 0.052425 0.000000
# 6 0.000000 0.000000 0.000000 0.035526 0.000000 -0.006575
#
#
# Mechanical properties :
#
#
# Convention : Reuss Voigt Hill
#
# Bulk Modulus (GPa) = 29.34738 52.13717 40.74228
# Shear Modulus (GPa) = 19.40125 14.60252 17.00188
#
# Velocity S-wave (km/s) = 3.59229 3.11652 3.36283
# Velocity P-wave (km/s) = 6.06021 6.90136 6.49441
#
# Compressibility (1/GPa) = 0.03407459
#
# Stress axis : x y z
#
# Youngs Moduli (GPa) = 16.92819 93.57895 24.06801
#
# Poissons Ratio (x) = 0.27992 0.75060
# Poissons Ratio (y) = 0.05064 0.10684
# Poissons Ratio (z) = 0.52793 0.41539
#
# Static dielectric constant tensor:
#      x y z
#    x 2.702480 0.000000 0.214110 
#    y 0.000000 2.708280 0.000000 
#    z 0.214110 0.000000 2.918740 
# 
# 
# High freq. dielectric constant tensor:
#      x y z
#    x 1.548500 0.000000 0.028590 
#    y 0.000000 1.548080 0.000000 
#    z 0.028590 0.000000 1.574040 
# 
# From -- ./inp_files/13348.got.cif
#   From: 2010.06.25/outbox.cif.g09.slc.cpg/sg10_7_cif.got.tgz:13348.got - 2010.06.27 22:07:45.
