data_PCOD8057749
_publ_section_title
;
Structure prediction by ZEFSAII (Michael W. Deem and Ramdas Pophale) SiO2 
 PCOD8057749
Probable space group: P 2/M
;
_chemical_formula_sum "Si O2"
_cell_formula_units_Z 32
_cell_length_a 10.644813
_cell_length_b 13.626021
_cell_length_c 15.866376
_cell_angle_alpha 90.000000
_cell_angle_beta 36.962455
_cell_angle_gamma 90.000000
_cell_volume 1383.789214
_symmetry_space_group_name_H-M "P 2/M"
_symmetry_group_IT_number 10
_symmetry_cell_setting 'monoclinic'
loop_
_space_group_symop_operation_xyz
x,y,z
-x,y,-z
-x,-y,-z
x,-y,z
loop_
_atom_site_type_symbol
_atom_site_label
_atom_site_fract_x
_atom_site_fract_y
_atom_site_fract_z
Si Si1 0.262755 0.247486 0.985519
Si Si2 0.395504 0.608441 0.145685
Si Si3 0.839525 0.883850 0.796216
Si Si4 0.061500 0.611130 0.646014
Si Si5 0.481337 0.299029 0.414453
Si Si6 0.418853 0.110744 0.229948
Si Si7 0.288625 0.889294 0.479778
Si Si8 0.902646 0.612452 0.173234
O O1 0.206807 0.190740 0.102592
O O2 0.073815 0.310181 0.045871
O O3 0.459891 0.320304 0.879813
O O4 0.359630 0.165854 0.871292
O O5 0.384914 0.500000 0.193458
O O6 0.161258 0.654662 0.264178
O O7 0.500000 0.595834 0.000000
O O8 0.685957 0.855340 0.801855
O O9 0.074761 0.861370 0.640783
O O10 0.814454 0.000000 0.833724
O O11 0.077552 0.500000 0.607671
O O12 0.257438 0.665843 0.497163
O O13 0.071869 0.618747 0.740814
O O14 0.500000 0.335405 0.500000
O O15 0.477486 0.180714 0.410488
O O16 0.676818 0.349012 0.261917
O O17 0.261914 0.124222 0.393013
O O18 0.486633 0.000000 0.183820
O O19 0.356397 0.000000 0.465286
O O20 0.939292 0.500000 0.122238
#
# Coordination Sequence:
#
# PCOD8057749 Si02
#       8
#     4   4   4   4   4   4   4   4
#     4  12  21  32  58  90 122 151 192 237 283 336
#     4  10  18  28  46  80 119 151 182 229 290 342
#     4  10  20  35  57  87 120 153 192 238 283 337
#     4   9  17  30  50  80 115 146 184 235 288 338
#     4  10  20  35  59  84 109 147 202 245 285 330
#     4  10  22  38  56  83 120 158 192 229 288 358
#     4  10  22  40  59  81 115 155 193 238 294 351
#     4  10  20  34  53  84 117 148 191 240 287 336
#
# _framework density 23.124908000000001
#
# number of rings (size 3 to 8) (size 9 to 14) (size 15 to 20)
#    0.000    1.875    1.250    4.125    1.750    4.250 
#    0.000    1.875    0.000    5.250    0.000    1.750 
#    0.000    0.000    0.000    0.000    0.000    0.000 
#
# Total GULP energy -396479.059991 kJ/mol
# GULP energy per Si atom -12389.970625 kJ/mol
# Density = 2.307227 g / cm^3
# Si number density = 23.124908 Si / 1000 Ang^3
#
#
#
# Elastic Constant Matrix: (Units=GPa)
#
#
# Indices 1 2 3 4 5 6 
#
# 1 33.0084 29.2585 39.6522 0.0000 -27.7579 0.0000
# 2 29.2585 108.7830 56.2804 0.0000 -31.4419 0.0000
# 3 39.6522 56.2804 117.7215 0.0000 -37.7398 0.0000
# 4 0.0000 0.0000 0.0000 35.7595 0.0000 -19.7950
# 5 -27.7579 -31.4419 -37.7398 0.0000 37.6520 0.0000
# 6 0.0000 0.0000 0.0000 -19.7950 0.0000 23.0243
#
#
#
# Elastic Compliance Matrix: (Units=1/GPa)
#
#
# Indices 1 2 3 4 5 6 
#
# 1 0.093324 -0.003007 -0.012886 0.000000 0.053373 0.000000
# 2 -0.003007 0.013457 -0.003726 0.000000 0.005286 0.000000
# 3 -0.012886 -0.003726 0.015580 0.000000 0.003005 0.000000
# 4 0.000000 0.000000 0.000000 0.053359 0.000000 0.045875
# 5 0.053373 0.005286 0.003005 0.000000 0.073332 0.000000
# 6 0.000000 0.000000 0.000000 0.045875 0.000000 0.082873
#
#
# Mechanical properties :
#
#
# Convention : Reuss Voigt Hill
#
# Bulk Modulus (GPa) = 12.03055 56.65502 34.34278
# Shear Modulus (GPa) = 12.53540 28.24196 20.38868
#
# Velocity S-wave (km/s) = 2.33077 3.49847 2.97252
# Velocity P-wave (km/s) = 3.52946 6.39311 5.16376
#
# Compressibility (1/GPa) = 0.08312171
#
# Stress axis : x y z
#
# Youngs Moduli (GPa) = 10.71541 74.31130 64.18640
#
# Poissons Ratio (x) = 0.22346 0.82711
# Poissons Ratio (y) = 0.03222 0.23916
# Poissons Ratio (z) = 0.13808 0.27689
#
# Static dielectric constant tensor:
#      x y z
#    x 3.755730 0.000000 -0.348200 
#    y 0.000000 4.652020 0.000000 
#    z -0.348200 0.000000 4.363870 
# 
# 
# High freq. dielectric constant tensor:
#      x y z
#    x 1.861750 0.000000 -0.017920 
#    y 0.000000 1.940320 0.000000 
#    z -0.017920 0.000000 1.915800 
# 
# From -- ./inp_files/76986.got.cif
#   From: 2010.06.25/outbox.cif.g09.slc.cpg/sg10_39_cif.got.tgz:76986.got - 2010.06.27 22:07:45.
