data_PCOD8057768
_publ_section_title
;
Structure prediction by ZEFSAII (Michael W. Deem and Ramdas Pophale) SiO2 
 PCOD8057768
Probable space group: P 2/M
;
_chemical_formula_sum "Si O2"
_cell_formula_units_Z 28
_cell_length_a 11.781152
_cell_length_b 9.416866
_cell_length_c 14.519689
_cell_angle_alpha 90.000000
_cell_angle_beta 109.549083
_cell_angle_gamma 90.000000
_cell_volume 1517.980138
_symmetry_space_group_name_H-M "P 2/M"
_symmetry_group_IT_number 10
_symmetry_cell_setting 'monoclinic'
loop_
_space_group_symop_operation_xyz
x,y,z
-x,y,-z
-x,-y,-z
x,-y,z
loop_
_atom_site_type_symbol
_atom_site_label
_atom_site_fract_x
_atom_site_fract_y
_atom_site_fract_z
Si Si1 0.837303 0.835446 0.544338
Si Si2 0.682986 0.331568 0.798709
Si Si3 0.614899 0.668902 0.978090
Si Si4 0.828591 0.665511 0.166381
Si Si5 0.948785 0.332822 0.891973
Si Si6 0.110184 0.836301 0.649191
Si Si7 0.377062 0.668141 0.418525
O O1 0.829191 0.809825 0.432965
O O2 0.737813 0.740384 0.566473
O O3 0.970402 0.788196 0.612839
O O4 0.813990 0.000000 0.561639
O O5 0.689459 0.500000 0.805960
O O6 0.617185 0.273365 0.873218
O O7 0.818455 0.267983 0.832586
O O8 0.614464 0.285549 0.686789
O O9 0.608371 0.500000 0.974730
O O10 0.500000 0.733282 0.000000
O O11 0.733803 0.719302 0.064451
O O12 0.809631 0.500000 0.180514
O O13 0.811009 0.746463 0.257472
O O14 0.961857 0.702131 0.166992
O O15 0.936259 0.500000 0.903851
O O16 0.000000 0.264470 0.000000
O O17 0.118237 0.000000 0.678980
O O18 0.500000 0.719875 0.500000
O O19 0.359577 0.500000 0.424145
#
# Coordination Sequence:
#
# PCOD8057768 Si02
#       7
#     4   4   4   4   4   4   4
#     4   9  19  37  56  73  98 136 177 210 252 314
#     4   9  16  28  44  65  98 134 161 198 249 294
#     4   9  17  28  43  67 100 134 166 198 239 298
#     4  10  18  28  48  77  99 126 169 209 248 302
#     4   9  14  23  42  68  95 121 159 205 240 281
#     4   9  19  35  54  75 102 134 166 212 268 310
#     4  10  21  34  51  78 109 137 168 214 266 301
#
# _framework density 18.445563
#
# number of rings (size 3 to 8) (size 9 to 14) (size 15 to 20)
#    0.000    2.714    1.429    1.714    0.000    3.714 
#    0.000    4.286    0.000    1.714    0.000    0.000 
#    0.000    0.000    0.000    0.000    0.000    0.000 
#
# Total GULP energy -347086.324378 kJ/mol
# GULP energy per Si atom -12395.940156 kJ/mol
# Density = 1.840358 g / cm^3
# Si number density = 18.445563 Si / 1000 Ang^3
#
#
#
# Elastic Constant Matrix: (Units=GPa)
#
#
# Indices 1 2 3 4 5 6 
#
# 1 113.6800 20.5486 60.2215 0.0000 -7.3193 0.0000
# 2 20.5486 26.9143 31.7106 0.0000 -6.0843 0.0000
# 3 60.2215 31.7106 159.4668 0.0000 -5.2363 0.0000
# 4 0.0000 0.0000 0.0000 12.6905 0.0000 -4.6885
# 5 -7.3193 -6.0843 -5.2363 0.0000 23.5178 0.0000
# 6 0.0000 0.0000 0.0000 -4.6885 0.0000 19.1049
#
#
#
# Elastic Compliance Matrix: (Units=1/GPa)
#
#
# Indices 1 2 3 4 5 6 
#
# 1 0.011508 -0.004374 -0.003421 0.000000 0.001688 0.000000
# 2 -0.004374 0.052894 -0.008524 0.000000 0.010425 0.000000
# 3 -0.003421 -0.008524 0.009218 0.000000 -0.001217 0.000000
# 4 0.000000 0.000000 0.000000 0.086656 0.000000 0.021266
# 5 0.001688 0.010425 -0.001217 0.000000 0.045472 0.000000
# 6 0.000000 0.000000 0.000000 0.021266 0.000000 0.057561
#
#
# Mechanical properties :
#
#
# Convention : Reuss Voigt Hill
#
# Bulk Modulus (GPa) = 24.40085 58.33588 41.36836
# Shear Modulus (GPa) = 16.14944 23.56801 19.85873
#
# Velocity S-wave (km/s) = 2.96213 3.57838 3.28474
# Velocity P-wave (km/s) = 4.99562 6.98339 6.07140
#
# Compressibility (1/GPa) = 0.04098218
#
# Stress axis : x y z
#
# Youngs Moduli (GPa) = 86.89531 18.90561 108.48643
#
# Poissons Ratio (x) = 0.08270 0.37110
# Poissons Ratio (y) = 0.38011 0.92474
# Poissons Ratio (z) = 0.29724 0.16115
#
# Static dielectric constant tensor:
#      x y z
#    x 3.434380 0.000000 -0.023680 
#    y 0.000000 2.821180 0.000000 
#    z -0.023680 0.000000 3.635130 
# 
# 
# High freq. dielectric constant tensor:
#      x y z
#    x 1.713670 0.000000 -0.004960 
#    y 0.000000 1.654860 0.000000 
#    z -0.004960 0.000000 1.731560 
# 
# From -- ./inp_files/49357.got.cif
#   From: 2010.06.25/outbox.cif.g09.slc.cpg/sg10_25_cif.got.tgz:49357.got - 2010.06.27 22:07:45.
