data_PCOD8057796
_publ_section_title
;
Structure prediction by ZEFSAII (Michael W. Deem and Ramdas Pophale) SiO2 
 PCOD8057796
Probable space group: P 2/M
;
_chemical_formula_sum "Si O2"
_cell_formula_units_Z 28
_cell_length_a 17.345011
_cell_length_b 9.187495
_cell_length_c 14.414518
_cell_angle_alpha 90.000000
_cell_angle_beta 129.499651
_cell_angle_gamma 90.000000
_cell_volume 1772.474747
_symmetry_space_group_name_H-M "P 2/M"
_symmetry_group_IT_number 10
_symmetry_cell_setting 'monoclinic'
loop_
_space_group_symop_operation_xyz
x,y,z
-x,y,-z
-x,-y,-z
x,-y,z
loop_
_atom_site_type_symbol
_atom_site_label
_atom_site_fract_x
_atom_site_fract_y
_atom_site_fract_z
Si Si1 0.080488 0.328812 0.682283
Si Si2 0.918627 0.166302 0.816909
Si Si3 0.111780 0.667775 0.909852
Si Si4 0.385112 0.171805 0.407299
Si Si5 0.758284 0.163832 0.541584
Si Si6 0.766461 0.668035 0.825803
Si Si7 0.860011 0.671719 0.467977
O O1 0.074779 0.500000 0.666763
O O2 0.131992 0.282251 0.818835
O O3 0.145213 0.273209 0.643481
O O4 0.966216 0.272838 0.590279
O O5 0.862137 0.173852 0.676012
O O6 0.861138 0.262085 0.847893
O O7 0.028403 0.230425 0.890758
O O8 0.925210 0.000000 0.857222
O O9 0.074281 0.500000 0.882580
O O10 0.213315 0.683984 0.047910
O O11 0.500000 0.217619 0.500000
O O12 0.330885 0.223482 0.460654
O O13 0.335494 0.250324 0.280577
O O14 0.369878 0.000000 0.381962
O O15 0.769146 0.257570 0.456367
O O16 0.733366 0.000000 0.492424
O O17 0.757398 0.500000 0.789657
O O18 0.847146 0.500000 0.467256
#
# Coordination Sequence:
#
# PCOD8057796 Si02
#       7
#     4   4   4   4   4   4   4
#     4   8  15  26  41  61  86 119 156 184 209 250
#     4  10  19  29  41  60  89 124 156 183 212 256
#     4  10  18  29  43  61  89 122 152 183 219 256
#     4   9  19  36  53  67  87 115 144 179 226 275
#     4   9  17  28  43  65  89 112 143 182 223 260
#     4  10  20  30  44  66  89 115 146 183 224 263
#     4   9  15  26  44  62  83 118 156 183 212 252
#
# _framework density 15.797122
#
# number of rings (size 3 to 8) (size 9 to 14) (size 15 to 20)
#    0.000    2.714    1.429    3.000    0.000    5.429 
#    0.000    2.143    0.000    0.000    0.000    1.000 
#    0.000    8.000    0.000    0.000    0.000    0.000 
#
# Total GULP energy -347016.071220 kJ/mol
# GULP energy per Si atom -12393.431115 kJ/mol
# Density = 1.576117 g / cm^3
# Si number density = 15.797122 Si / 1000 Ang^3
#
#
#
# Elastic Constant Matrix: (Units=GPa)
#
#
# Indices 1 2 3 4 5 6 
#
# 1 85.6419 32.6572 63.4644 0.0000 -6.3153 0.0000
# 2 32.6572 54.2925 38.6188 0.0000 -2.8348 0.0000
# 3 63.4644 38.6188 98.2211 0.0000 -9.9246 0.0000
# 4 0.0000 0.0000 0.0000 11.3890 0.0000 1.7262
# 5 -6.3153 -2.8348 -9.9246 0.0000 23.9706 0.0000
# 6 0.0000 0.0000 0.0000 1.7262 0.0000 21.2166
#
#
#
# Elastic Compliance Matrix: (Units=1/GPa)
#
#
# Indices 1 2 3 4 5 6 
#
# 1 0.023193 -0.004572 -0.013177 0.000000 0.000114 0.000000
# 2 -0.004572 0.026504 -0.007589 0.000000 -0.001212 0.000000
# 3 -0.013177 -0.007589 0.022165 0.000000 0.004808 0.000000
# 4 0.000000 0.000000 0.000000 0.088900 0.000000 -0.007233
# 5 0.000114 -0.001212 0.004808 0.000000 0.043595 0.000000
# 6 0.000000 0.000000 0.000000 -0.007233 0.000000 0.047721
#
#
# Mechanical properties :
#
#
# Convention : Reuss Voigt Hill
#
# Bulk Modulus (GPa) = 47.20138 56.40401 51.80270
# Shear Modulus (GPa) = 16.13866 18.20959 17.17412
#
# Velocity S-wave (km/s) = 3.19975 3.39885 3.30080
# Velocity P-wave (km/s) = 6.60271 7.15442 6.88409
#
# Compressibility (1/GPa) = 0.02118582
#
# Stress axis : x y z
#
# Youngs Moduli (GPa) = 43.11692 37.73048 45.11673
#
# Poissons Ratio (x) = 0.17250 0.59448
# Poissons Ratio (y) = 0.19713 0.34240
# Poissons Ratio (z) = 0.56813 0.28634
#
# Static dielectric constant tensor:
#      x y z
#    x 2.963260 0.000000 -0.283110 
#    y 0.000000 2.921550 0.000000 
#    z -0.283110 0.000000 3.004660 
# 
# 
# High freq. dielectric constant tensor:
#      x y z
#    x 1.583960 0.000000 -0.025210 
#    y 0.000000 1.599930 0.000000 
#    z -0.025210 0.000000 1.584890 
# 
# From -- ./inp_files/65793.got.cif
#   From: 2010.06.25/outbox.cif.g09.slc.cpg/sg10_33_cif.got.tgz:65793.got - 2010.06.27 22:07:45.
