data_PCOD8057028
_publ_section_title
;
Structure prediction by ZEFSAII (Michael W. Deem and Ramdas Pophale) SiO2 
 PCOD8057028
Probable space group: P 2/M
;
_chemical_formula_sum "Si O2"
_cell_formula_units_Z 28
_cell_length_a 26.740327
_cell_length_b 8.833227
_cell_length_c 20.818647
_cell_angle_alpha 90.000000
_cell_angle_beta 18.619741
_cell_angle_gamma 90.000000
_cell_volume 1570.067285
_symmetry_space_group_name_H-M "P 2/M"
_symmetry_group_IT_number 10
_symmetry_cell_setting 'monoclinic'
loop_
_space_group_symop_operation_xyz
x,y,z
-x,y,-z
-x,-y,-z
x,-y,z
loop_
_atom_site_type_symbol
_atom_site_label
_atom_site_fract_x
_atom_site_fract_y
_atom_site_fract_z
Si Si1 0.688119 0.179407 0.456385
Si Si2 0.162505 0.670805 0.839428
Si Si3 0.046266 0.820414 0.237028
Si Si4 0.920415 0.320859 0.507253
Si Si5 0.782508 0.177797 0.785576
Si Si6 0.629885 0.178098 0.097282
Si Si7 0.000391 0.821894 0.147246
O O1 0.706491 0.243435 0.361983
O O2 0.529146 0.248785 0.680335
O O3 0.831258 0.232245 0.327439
O O4 0.681796 0.000000 0.459466
O O5 0.218541 0.500000 0.781603
O O6 0.000000 0.681561 0.000000
O O7 0.140761 0.747948 0.935272
O O8 0.913636 0.736269 0.441847
O O9 0.016895 0.768190 0.200220
O O10 0.027776 0.000000 0.268206
O O11 0.218476 0.761515 0.048545
O O12 0.943099 0.500000 0.483610
O O13 0.768305 0.269400 0.735033
O O14 0.062532 0.230026 0.366022
O O15 0.790468 0.000000 0.761325
O O16 0.640730 0.216333 0.007571
O O17 0.624276 0.000000 0.113767
O O18 0.019825 0.000000 0.116879
#
# Coordination Sequence:
#
# PCOD8057028 Si02
#       7
#     4   4   4   4   4   4   4
#     4   9  16  29  48  68  86 108 143 183 215 248
#     4   9  17  29  45  65  88 114 144 176 212 256
#     4   9  17  30  45  64  89 116 143 174 217 262
#     4  10  17  25  40  64  89 114 146 182 215 249
#     4   9  15  26  43  62  86 117 148 178 214 255
#     4   8  15  27  45  66  88 112 140 176 217 257
#     4   9  17  29  48  68  85 109 145 183 214 249
#
# _framework density 17.833629999999999
#
# number of rings (size 3 to 8) (size 9 to 14) (size 15 to 20)
#    0.000    3.000    0.000    3.857    0.000    2.286 
#    0.000    4.286    0.000    5.143    0.000    6.000 
#    0.000    0.000    0.000    0.000    0.000    0.000 
#
# Total GULP energy -346969.322738 kJ/mol
# GULP energy per Si atom -12391.761526 kJ/mol
# Density = 1.779304 g / cm^3
# Si number density = 17.833630 Si / 1000 Ang^3
#
#
#
# Elastic Constant Matrix: (Units=GPa)
#
#
# Indices 1 2 3 4 5 6 
#
# 1 114.3507 33.5972 56.2381 0.0000 40.6188 0.0000
# 2 33.5972 44.3363 28.0857 0.0000 16.3880 0.0000
# 3 56.2381 28.0857 77.7506 0.0000 31.7636 0.0000
# 4 0.0000 0.0000 0.0000 8.4988 0.0000 3.7397
# 5 40.6188 16.3880 31.7636 0.0000 33.2392 0.0000
# 6 0.0000 0.0000 0.0000 3.7397 0.0000 14.2145
#
#
#
# Elastic Compliance Matrix: (Units=1/GPa)
#
#
# Indices 1 2 3 4 5 6 
#
# 1 0.017904 -0.004885 -0.005301 0.000000 -0.014405 0.000000
# 2 -0.004885 0.031637 -0.006498 0.000000 -0.003419 0.000000
# 3 -0.005301 -0.006498 0.024750 0.000000 -0.013970 0.000000
# 4 0.000000 0.000000 0.000000 0.133068 0.000000 -0.035009
# 5 -0.014405 -0.003419 -0.013970 0.000000 0.062724 0.000000
# 6 0.000000 0.000000 0.000000 -0.035009 0.000000 0.079561
#
#
# Mechanical properties :
#
#
# Convention : Reuss Voigt Hill
#
# Bulk Modulus (GPa) = 24.43571 52.47551 38.45561
# Shear Modulus (GPa) = 12.60550 19.09163 15.84856
#
# Velocity S-wave (km/s) = 2.66153 3.27546 2.98432
# Velocity P-wave (km/s) = 4.81422 6.61769 5.78665
#
# Compressibility (1/GPa) = 0.04092371
#
# Stress axis : x y z
#
# Youngs Moduli (GPa) = 55.85327 31.60898 40.40366
#
# Poissons Ratio (x) = 0.15441 0.21417
# Poissons Ratio (y) = 0.27284 0.26254
# Poissons Ratio (z) = 0.29606 0.20539
#
# Static dielectric constant tensor:
#      x y z
#    x 3.436180 0.000000 0.600500 
#    y 0.000000 3.088160 0.000000 
#    z 0.600500 0.000000 3.687640 
# 
# 
# High freq. dielectric constant tensor:
#      x y z
#    x 1.669700 0.000000 0.047030 
#    y 0.000000 1.674680 0.000000 
#    z 0.047030 0.000000 1.674940 
# 
# From -- ./inp_files/54529.got.cif
#   From: 2010.06.25/outbox.cif.g09.slc.cpg/sg10_28_cif.got.tgz:54529.got - 2010.06.27 22:07:45.
