data_PCOD8057175
_publ_section_title
;
Structure prediction by ZEFSAII (Michael W. Deem and Ramdas Pophale) SiO2 
 PCOD8057175
Probable space group: P 2/M
;
_chemical_formula_sum "Si O2"
_cell_formula_units_Z 32
_cell_length_a 16.713158
_cell_length_b 9.179841
_cell_length_c 30.309429
_cell_angle_alpha 90.000000
_cell_angle_beta 25.849006
_cell_angle_gamma 90.000000
_cell_volume 2027.490907
_symmetry_space_group_name_H-M "P 2/M"
_symmetry_group_IT_number 10
_symmetry_cell_setting 'monoclinic'
loop_
_space_group_symop_operation_xyz
x,y,z
-x,y,-z
-x,-y,-z
x,-y,z
loop_
_atom_site_type_symbol
_atom_site_label
_atom_site_fract_x
_atom_site_fract_y
_atom_site_fract_z
Si Si1 0.515270 0.666746 0.716755
Si Si2 0.278572 0.827930 0.157279
Si Si3 0.906339 0.674580 0.501652
Si Si4 0.887897 0.673390 0.099372
Si Si5 0.520944 0.663014 0.165128
Si Si6 0.692512 0.828121 0.954564
Si Si7 0.852530 0.666755 0.698412
Si Si8 0.854240 0.828016 0.964577
O O1 0.497700 0.500000 0.711775
O O2 0.695128 0.732532 0.603195
O O3 0.319405 0.737805 0.801265
O O4 0.558190 0.684265 0.746967
O O5 0.224509 0.781320 0.134010
O O6 0.133282 0.754159 0.262694
O O7 0.265641 0.000000 0.170270
O O8 0.485247 0.768449 0.063715
O O9 0.913469 0.500000 0.499422
O O10 0.000000 0.735138 0.500000
O O11 0.011565 0.733275 0.406053
O O12 0.893485 0.500000 0.101498
O O13 0.000000 0.720735 0.000000
O O14 0.971367 0.746161 0.101661
O O15 0.607149 0.500000 0.117823
O O16 0.355419 0.684460 0.214010
O O17 0.673976 0.784017 0.081173
O O18 0.673971 0.000000 0.965149
O O19 0.825500 0.775111 0.928084
O O20 0.904338 0.500000 0.681861
O O21 0.883882 0.000000 0.953488
#
# Coordination Sequence:
#
# PCOD8057175 Si02
#       8
#     4   4   4   4   4   4   4   4
#     4   9  16  28  44  61  87 124 155 177 209 259
#     4   9  16  30  47  61  86 120 150 176 217 276
#     4   9  15  25  43  67  91 117 150 182 213 256
#     4  10  19  31  46  64  89 120 153 183 215 262
#     4  10  17  27  43  64  91 121 150 180 215 257
#     4   8  16  29  45  63  84 117 152 180 213 269
#     4  10  18  26  43  71  95 114 147 189 220 250
#     4  11  20  30  45  66  89 116 152 187 221 257
#
# _framework density 15.783054
#
# number of rings (size 3 to 8) (size 9 to 14) (size 15 to 20)
#    0.000    2.500    3.750    1.125    0.000    0.250 
#    0.000    2.500    0.000    1.875    0.000    0.875 
#    0.000    7.000    0.000    0.000    0.000    0.000 
#
# Total GULP energy -396555.523259 kJ/mol
# GULP energy per Si atom -12392.360102 kJ/mol
# Density = 1.574713 g / cm^3
# Si number density = 15.783054 Si / 1000 Ang^3
#
#
#
# Elastic Constant Matrix: (Units=GPa)
#
#
# Indices 1 2 3 4 5 6 
#
# 1 102.2739 25.3643 53.1200 0.0000 8.6297 0.0000
# 2 25.3643 25.8530 21.9257 0.0000 3.3591 0.0000
# 3 53.1200 21.9257 108.3995 0.0000 11.6011 0.0000
# 4 0.0000 0.0000 0.0000 8.8749 0.0000 4.9616
# 5 8.6297 3.3591 11.6011 0.0000 23.0692 0.0000
# 6 0.0000 0.0000 0.0000 4.9616 0.0000 21.9862
#
#
#
# Elastic Compliance Matrix: (Units=1/GPa)
#
#
# Indices 1 2 3 4 5 6 
#
# 1 0.015144 -0.010263 -0.005178 0.000000 -0.001567 0.000000
# 2 -0.010263 0.053747 -0.005723 0.000000 -0.001109 0.000000
# 3 -0.005178 -0.005723 0.013342 0.000000 -0.003939 0.000000
# 4 0.000000 0.000000 0.000000 0.128945 0.000000 -0.029099
# 5 -0.001567 -0.001109 -0.003939 0.000000 0.046076 0.000000
# 6 0.000000 0.000000 0.000000 -0.029099 0.000000 0.052050
#
#
# Mechanical properties :
#
#
# Convention : Reuss Voigt Hill
#
# Bulk Modulus (GPa) = 25.05963 48.59403 36.82683
# Shear Modulus (GPa) = 13.70108 19.86051 16.78080
#
# Velocity S-wave (km/s) = 2.94953 3.55116 3.26424
# Velocity P-wave (km/s) = 5.24516 6.90434 6.13113
#
# Compressibility (1/GPa) = 0.03990482
#
# Stress axis : x y z
#
# Youngs Moduli (GPa) = 66.03057 18.60553 74.95347
#
# Poissons Ratio (x) = 0.19096 0.38809
# Poissons Ratio (y) = 0.67770 0.42898
# Poissons Ratio (z) = 0.34189 0.10648
#
# Static dielectric constant tensor:
#      x y z
#    x 3.179670 0.000000 0.051910 
#    y 0.000000 2.674840 0.000000 
#    z 0.051910 0.000000 3.040930 
# 
# 
# High freq. dielectric constant tensor:
#      x y z
#    x 1.598810 0.000000 0.008050 
#    y 0.000000 1.569990 0.000000 
#    z 0.008050 0.000000 1.588740 
# 
# From -- ./inp_files/77383.got.cif
#   From: 2010.06.25/outbox.cif.g09.slc.cpg/sg10_39_cif.got.tgz:77383.got - 2010.06.27 22:07:45.
