data_PCOD8057343
_publ_section_title
;
Structure prediction by ZEFSAII (Michael W. Deem and Ramdas Pophale) SiO2 
 PCOD8057343
Probable space group: P 2/M
;
_chemical_formula_sum "Si O2"
_cell_formula_units_Z 32
_cell_length_a 11.636856
_cell_length_b 8.906390
_cell_length_c 27.651974
_cell_angle_alpha 90.000000
_cell_angle_beta 142.440905
_cell_angle_gamma 90.000000
_cell_volume 1747.003481
_symmetry_space_group_name_H-M "P 2/M"
_symmetry_group_IT_number 10
_symmetry_cell_setting 'monoclinic'
loop_
_space_group_symop_operation_xyz
x,y,z
-x,y,-z
-x,-y,-z
x,-y,z
loop_
_atom_site_type_symbol
_atom_site_label
_atom_site_fract_x
_atom_site_fract_y
_atom_site_fract_z
Si Si1 0.310487 0.175784 0.268496
Si Si2 0.819785 0.324633 0.244192
Si Si3 0.200882 0.329851 0.970948
Si Si4 0.059986 0.672521 0.822507
Si Si5 0.569912 0.823627 0.874773
Si Si6 0.496159 0.176249 0.425313
Si Si7 0.228709 0.325739 0.145521
Si Si8 0.193117 0.177823 0.399977
O O1 0.474460 0.221030 0.361681
O O2 0.345244 0.267107 0.230905
O O3 0.113431 0.215772 0.228103
O O4 0.313167 0.000000 0.257309
O O5 0.802062 0.500000 0.247769
O O6 0.838511 0.287389 0.193582
O O7 0.634414 0.245600 0.202568
O O8 0.995240 0.262479 0.333040
O O9 0.257268 0.500000 0.003202
O O10 0.209467 0.304349 0.915976
O O11 0.990908 0.294542 0.919384
O O12 0.349905 0.220411 0.045851
O O13 0.985975 0.500000 0.798791
O O14 0.713430 0.763204 0.882648
O O15 0.554062 0.000000 0.865396
O O16 0.321744 0.240272 0.398758
O O17 0.698988 0.225501 0.514272
O O18 0.478485 0.000000 0.426227
O O19 0.273136 0.500000 0.153100
O O20 0.156656 0.000000 0.385023
#
# Coordination Sequence:
#
# PCOD8057343 Si02
#       8
#     4   4   4   4   4   4   4   4
#     4  10  17  29  53  83 110 138 173 217 261 304
#     4  11  22  36  53  75 108 146 180 216 260 314
#     4   9  19  37  58  78 103 135 170 215 267 316
#     4   9  19  34  52  76 107 143 176 209 261 317
#     4  12  25  38  54  77 102 136 180 223 265 312
#     4   8  15  27  50  80 111 142 172 209 259 309
#     4  10  21  38  58  79 105 138 173 216 267 315
#     4   9  16  31  51  76 109 145 178 210 252 308
#
# _framework density 18.317077999999999
#
# number of rings (size 3 to 8) (size 9 to 14) (size 15 to 20)
#    0.000    2.250    1.250    4.125    0.000    5.000 
#    0.000    5.000    0.000    0.750    0.000    5.250 
#    0.000    0.000    0.000    0.000    0.000    0.000 
#
# Total GULP energy -396769.589188 kJ/mol
# GULP energy per Si atom -12399.049662 kJ/mol
# Density = 1.827539 g / cm^3
# Si number density = 18.317078 Si / 1000 Ang^3
#
#
#
# Elastic Constant Matrix: (Units=GPa)
#
#
# Indices 1 2 3 4 5 6 
#
# 1 23.9481 16.1315 16.8826 0.0000 -2.2998 0.0000
# 2 16.1315 83.9286 41.8668 0.0000 0.7641 0.0000
# 3 16.8826 41.8668 114.3651 0.0000 -8.1732 0.0000
# 4 0.0000 0.0000 0.0000 22.5387 0.0000 -6.9153
# 5 -2.2998 0.7641 -8.1732 0.0000 23.2045 0.0000
# 6 0.0000 0.0000 0.0000 -6.9153 0.0000 21.5408
#
#
#
# Elastic Compliance Matrix: (Units=1/GPa)
#
#
# Indices 1 2 3 4 5 6 
#
# 1 0.050270 -0.007493 -0.004415 0.000000 0.003674 0.000000
# 2 -0.007493 0.015827 -0.004902 0.000000 -0.002990 0.000000
# 3 -0.004415 -0.004902 0.011459 0.000000 0.003760 0.000000
# 4 0.000000 0.000000 0.000000 0.049216 0.000000 0.015800
# 5 0.003674 -0.002990 0.003760 0.000000 0.044882 0.000000
# 6 0.000000 0.000000 0.000000 0.015800 0.000000 0.051496
#
#
# Mechanical properties :
#
#
# Convention : Reuss Voigt Hill
#
# Bulk Modulus (GPa) = 22.76033 41.33372 32.04702
# Shear Modulus (GPa) = 18.42200 23.28088 20.85144
#
# Velocity S-wave (km/s) = 3.17476 3.56897 3.37762
# Velocity P-wave (km/s) = 5.08837 6.29270 5.72231
#
# Compressibility (1/GPa) = 0.04393610
#
# Stress axis : x y z
#
# Youngs Moduli (GPa) = 19.89268 63.18135 87.26905
#
# Poissons Ratio (x) = 0.47342 0.38531
# Poissons Ratio (y) = 0.14906 0.42777
# Poissons Ratio (z) = 0.08783 0.30970
#
# Static dielectric constant tensor:
#      x y z
#    x 3.251820 0.000000 -0.305840 
#    y 0.000000 3.273350 0.000000 
#    z -0.305840 0.000000 3.585100 
# 
# 
# High freq. dielectric constant tensor:
#      x y z
#    x 1.685940 0.000000 -0.019650 
#    y 0.000000 1.702870 0.000000 
#    z -0.019650 0.000000 1.712900 
# 
# From -- ./inp_files/58194.got.cif
#   From: 2010.06.25/outbox.cif.g09.slc.cpg/sg10_30_cif.got.tgz:58194.got - 2010.06.27 22:07:45.
