data_PCOD8057627
_publ_section_title
;
Structure prediction by ZEFSAII (Michael W. Deem and Ramdas Pophale) SiO2 
 PCOD8057627
Probable space group: P 2/M
;
_chemical_formula_sum "Si O2"
_cell_formula_units_Z 32
_cell_length_a 9.039529
_cell_length_b 13.409399
_cell_length_c 16.998920
_cell_angle_alpha 90.000000
_cell_angle_beta 100.057552
_cell_angle_gamma 90.000000
_cell_volume 2028.853828
_symmetry_space_group_name_H-M "P 2/M"
_symmetry_group_IT_number 10
_symmetry_cell_setting 'monoclinic'
loop_
_space_group_symop_operation_xyz
x,y,z
-x,y,-z
-x,-y,-z
x,-y,z
loop_
_atom_site_type_symbol
_atom_site_label
_atom_site_fract_x
_atom_site_fract_y
_atom_site_fract_z
Si Si1 0.708645 0.880987 0.135494
Si Si2 0.944693 0.113983 0.279376
Si Si3 0.664894 0.732249 0.531221
Si Si4 0.606184 0.881882 0.830549
Si Si5 0.051220 0.608458 0.415591
Si Si6 0.281333 0.881466 0.327744
Si Si7 0.877646 0.211112 0.422010
Si Si8 0.168756 0.118648 0.018418
O O1 0.841364 0.836007 0.202676
O O2 0.549828 0.837208 0.150917
O O3 0.705148 0.000000 0.141456
O O4 0.738572 0.845604 0.049452
O O5 0.863471 0.123156 0.357184
O O6 0.111985 0.158808 0.298266
O O7 0.962129 0.000000 0.257917
O O8 0.500000 0.686939 0.500000
O O9 0.775914 0.646005 0.573528
O O10 0.651646 0.823901 0.591110
O O11 0.720962 0.772165 0.451362
O O12 0.625583 0.851290 0.741415
O O13 0.744386 0.840704 0.896395
O O14 0.605223 0.000000 0.838440
O O15 0.038315 0.500000 0.371476
O O16 0.000000 0.594920 0.500000
O O17 0.935689 0.693377 0.374177
O O18 0.287389 0.000000 0.345323
O O19 0.000000 0.183768 0.500000
O O20 0.159455 0.000000 0.019097
O O21 0.000000 0.163120 0.000000
#
# Coordination Sequence:
#
# PCOD8057627 Si02
#       8
#     4   4   4   4   4   4   4   4
#     4   9  17  26  38  57  76 103 139 176 214 246
#     4  10  18  28  42  57  79 110 147 179 203 240
#     4  10  20  30  42  62  85 108 141 176 207 247
#     4   9  17  27  38  54  78 107 139 174 212 246
#     4   8  15  31  50  64  79 100 131 171 217 260
#     4  10  19  30  40  55  82 116 147 176 206 240
#     4   9  17  31  43  61  80 108 141 173 206 247
#     4   9  15  25  40  55  73  99 138 181 212 242
#
# _framework density 15.772451
#
# number of rings (size 3 to 8) (size 9 to 14) (size 15 to 20)
#    0.000    3.000    2.500    1.125    1.750    5.750 
#    0.000    0.000    0.000    0.000    0.000    0.000 
#    0.000    0.000    0.000    2.250    0.000    3.500 
#
# Total GULP energy -396455.179747 kJ/mol
# GULP energy per Si atom -12389.224367 kJ/mol
# Density = 1.573655 g / cm^3
# Si number density = 15.772451 Si / 1000 Ang^3
#
#
#
# Elastic Constant Matrix: (Units=GPa)
#
#
# Indices 1 2 3 4 5 6 
#
# 1 106.8782 13.1569 29.4779 0.0000 -8.2367 0.0000
# 2 13.1569 24.9795 18.3120 0.0000 0.2383 0.0000
# 3 29.4779 18.3120 62.1846 0.0000 -6.6514 0.0000
# 4 0.0000 0.0000 0.0000 1.5655 0.0000 0.4891
# 5 -8.2367 0.2383 -6.6514 0.0000 26.7303 0.0000
# 6 0.0000 0.0000 0.0000 0.4891 0.0000 1.9284
#
#
#
# Elastic Compliance Matrix: (Units=1/GPa)
#
#
# Indices 1 2 3 4 5 6 
#
# 1 0.011029 -0.002789 -0.004151 0.000000 0.002390 0.000000
# 2 -0.002789 0.052248 -0.014594 0.000000 -0.004957 0.000000
# 3 -0.004151 -0.014594 0.022831 0.000000 0.004532 0.000000
# 4 0.000000 0.000000 0.000000 0.693771 0.000000 -0.175981
# 5 0.002390 -0.004957 0.004532 0.000000 0.039319 0.000000
# 6 0.000000 0.000000 0.000000 -0.175981 0.000000 0.563214
#
#
# Mechanical properties :
#
#
# Convention : Reuss Voigt Hill
#
# Bulk Modulus (GPa) = 23.23415 35.10399 29.16907
# Shear Modulus (GPa) = 3.47264 14.91784 9.19524
#
# Velocity S-wave (km/s) = 1.48543 3.07875 2.41715
# Velocity P-wave (km/s) = 4.20771 5.91127 5.13069
#
# Compressibility (1/GPa) = 0.04304009
#
# Stress axis : x y z
#
# Youngs Moduli (GPa) = 90.67085 19.13961 43.79923
#
# Poissons Ratio (x) = 0.05337 0.18182
# Poissons Ratio (y) = 0.25284 0.63921
# Poissons Ratio (z) = 0.37640 0.27933
#
# Static dielectric constant tensor:
#      x y z
#    x 3.226790 0.000000 -0.030040 
#    y 0.000000 2.955080 0.000000 
#    z -0.030040 0.000000 2.983580 
# 
# 
# High freq. dielectric constant tensor:
#      x y z
#    x 1.619740 0.000000 -0.006570 
#    y 0.000000 1.530380 0.000000 
#    z -0.006570 0.000000 1.596060 
# 
# From -- ./inp_files/32575.got.cif
#   From: 2010.06.25/outbox.cif.g09.slc.cpg/sg10_17_cif.got.tgz:32575.got - 2010.06.27 22:07:45.
