data_PCOD8057976
_publ_section_title
;
Structure prediction by ZEFSAII (Michael W. Deem and Ramdas Pophale) SiO2 
 PCOD8057976
Probable space group: P 2/M
;
_chemical_formula_sum "Si O2"
_cell_formula_units_Z 28
_cell_length_a 11.745739
_cell_length_b 9.310947
_cell_length_c 14.501150
_cell_angle_alpha 90.000000
_cell_angle_beta 110.234456
_cell_angle_gamma 90.000000
_cell_volume 1488.029401
_symmetry_space_group_name_H-M "P 2/M"
_symmetry_group_IT_number 10
_symmetry_cell_setting 'monoclinic'
loop_
_space_group_symop_operation_xyz
x,y,z
-x,y,-z
-x,-y,-z
x,-y,z
loop_
_atom_site_type_symbol
_atom_site_label
_atom_site_fract_x
_atom_site_fract_y
_atom_site_fract_z
Si Si1 0.844482 0.830069 0.543392
Si Si2 0.673185 0.329175 0.789383
Si Si3 0.613438 0.670167 0.975623
Si Si4 0.829850 0.666614 0.162755
Si Si5 0.943466 0.332601 0.891747
Si Si6 0.115191 0.830286 0.649236
Si Si7 0.383914 0.830623 0.405932
O O1 0.828811 0.780555 0.432827
O O2 0.735383 0.768926 0.575118
O O3 0.975009 0.778224 0.617174
O O4 0.840403 0.000000 0.543806
O O5 0.666563 0.500000 0.772469
O O6 0.611067 0.281075 0.868332
O O7 0.811729 0.269953 0.829675
O O8 0.602243 0.250451 0.687335
O O9 0.608412 0.500000 0.977375
O O10 0.500000 0.736565 0.000000
O O11 0.737138 0.722737 0.058903
O O12 0.807548 0.500000 0.177380
O O13 0.806959 0.753205 0.250087
O O14 0.966410 0.696584 0.167411
O O15 0.924929 0.500000 0.907337
O O16 0.000000 0.261089 0.000000
O O17 0.124773 0.000000 0.665091
O O18 0.500000 0.793038 0.500000
O O19 0.374483 0.000000 0.384743
#
# Coordination Sequence:
#
# PCOD8057976 Si02
#       7
#     4   4   4   4   4   4   4
#     4   8  16  33  52  69  93 129 166 197 240 297
#     4  10  19  33  54  76  98 128 166 207 244 285
#     4   9  18  32  49  70  99 133 163 191 234 293
#     4  10  18  29  48  74 100 126 159 198 240 288
#     4   9  15  27  49  74  98 127 162 197 238 289
#     4   9  17  31  52  72  94 126 162 200 242 290
#     4  10  21  36  53  72  98 132 167 203 247 296
#
# _framework density 18.816832999999999
#
# number of rings (size 3 to 8) (size 9 to 14) (size 15 to 20)
#    0.000    2.714    1.429    1.714    0.000    1.429 
#    0.000    2.857    0.000    1.714    0.000    0.000 
#    0.000    0.000    0.000    0.000    0.000    0.000 
#
# Total GULP energy -347108.446399 kJ/mol
# GULP energy per Si atom -12396.730229 kJ/mol
# Density = 1.877401 g / cm^3
# Si number density = 18.816833 Si / 1000 Ang^3
#
#
#
# Elastic Constant Matrix: (Units=GPa)
#
#
# Indices 1 2 3 4 5 6 
#
# 1 107.2197 20.6206 53.5974 0.0000 -9.9266 0.0000
# 2 20.6206 29.4478 44.3015 0.0000 -3.6564 0.0000
# 3 53.5974 44.3015 165.7258 0.0000 -11.9428 0.0000
# 4 0.0000 0.0000 0.0000 15.1628 0.0000 -4.3020
# 5 -9.9266 -3.6564 -11.9428 0.0000 25.8842 0.0000
# 6 0.0000 0.0000 0.0000 -4.3020 0.0000 12.2165
#
#
#
# Elastic Compliance Matrix: (Units=1/GPa)
#
#
# Indices 1 2 3 4 5 6 
#
# 1 0.011595 -0.004073 -0.002464 0.000000 0.002734 0.000000
# 2 -0.004073 0.058259 -0.014250 0.000000 0.000093 0.000000
# 3 -0.002464 -0.014250 0.010786 0.000000 0.002018 0.000000
# 4 0.000000 0.000000 0.000000 0.073272 0.000000 0.025802
# 5 0.002734 0.000093 0.002018 0.000000 0.040627 0.000000
# 6 0.000000 0.000000 0.000000 0.025802 0.000000 0.090943
#
#
# Mechanical properties :
#
#
# Convention : Reuss Voigt Hill
#
# Bulk Modulus (GPa) = 25.59730 59.93691 42.76711
# Shear Modulus (GPa) = 14.70256 22.91095 18.80675
#
# Velocity S-wave (km/s) = 2.79830 3.49317 3.16486
# Velocity P-wave (km/s) = 4.90648 6.94201 6.01104
#
# Compressibility (1/GPa) = 0.03906661
#
# Stress axis : x y z
#
# Youngs Moduli (GPa) = 86.24532 17.16461 92.71507
#
# Poissons Ratio (x) = 0.06990 0.22847
# Poissons Ratio (y) = 0.35124 1.32119
# Poissons Ratio (z) = 0.21252 0.24460
#
# Static dielectric constant tensor:
#      x y z
#    x 3.729710 0.000000 -0.073860 
#    y 0.000000 2.871000 0.000000 
#    z -0.073860 0.000000 3.496870 
# 
# 
# High freq. dielectric constant tensor:
#      x y z
#    x 1.731880 0.000000 -0.006290 
#    y 0.000000 1.672650 0.000000 
#    z -0.006290 0.000000 1.742790 
# 
# From -- ./inp_files/49410.got.cif
#   From: 2010.06.25/outbox.cif.g09.slc.cpg/sg10_25_cif.got.tgz:49410.got - 2010.06.27 22:07:45.
