data_PCOD8057944
_publ_section_title
;
Structure prediction by ZEFSAII (Michael W. Deem and Ramdas Pophale) SiO2 
 PCOD8057944
Probable space group: P 2/M
;
_chemical_formula_sum "Si O2"
_cell_formula_units_Z 24
_cell_length_a 10.743361
_cell_length_b 24.595811
_cell_length_c 5.215389
_cell_angle_alpha 90.000000
_cell_angle_beta 67.516492
_cell_angle_gamma 90.000000
_cell_volume 1273.371506
_symmetry_space_group_name_H-M "P 2/M"
_symmetry_group_IT_number 10
_symmetry_cell_setting 'monoclinic'
loop_
_space_group_symop_operation_xyz
x,y,z
-x,y,-z
-x,-y,-z
x,-y,z
loop_
_atom_site_type_symbol
_atom_site_label
_atom_site_fract_x
_atom_site_fract_y
_atom_site_fract_z
Si Si1 0.408841 0.000000 0.820693
Si Si2 0.152165 0.200108 0.835982
Si Si3 0.500000 0.194097 0.000000
Si Si4 0.340464 0.560640 0.629621
Si Si5 0.339967 0.375175 0.131424
Si Si6 0.746042 0.255335 0.724891
Si Si7 0.640374 0.115378 0.243350
O O1 0.500000 0.000000 0.500000
O O2 0.317237 0.054838 0.887495
O O3 0.500000 0.000000 0.000000
O O4 0.155024 0.239537 0.585827
O O5 0.237148 0.144622 0.702913
O O6 0.207287 0.231438 0.039984
O O7 0.000000 0.181169 0.000000
O O8 0.403515 0.233388 0.244421
O O9 0.611186 0.155813 0.036655
O O10 0.500000 0.557016 0.500000
O O11 0.279398 0.500000 0.705601
O O12 0.292963 0.586020 0.399105
O O13 0.291124 0.597576 0.905142
O O14 0.259659 0.319585 0.235613
O O15 0.500000 0.364799 0.000000
O O16 0.500000 0.110455 0.500000
#
# Coordination Sequence:
#
# PCOD8057944 Si02
#       7
#     2   4   2   4   4   4   4
#     4  10  20  32  55  84 113 134 181 236 279 312
#     4  11  24  38  55  78 114 151 184 222 280 341
#     4  10  18  31  54  82 105 142 178 232 270 320
#     4   9  17  28  43  67 108 151 178 211 271 335
#     4  10  18  29  47  75 105 139 183 226 269 322
#     4  11  21  35  55  78 112 140 191 224 278 322
#     4  10  19  35  56  82 110 143 185 228 275 323
#
# _framework density 18.847601999999998
#
# number of rings (size 3 to 8) (size 9 to 14) (size 15 to 20)
#    0.000    1.833    3.333    2.000    0.000    2.000 
#    0.000    0.417    0.000    0.000    0.000    5.833 
#    0.000   46.667    0.000    0.000    0.000    0.000 
#
# Total GULP energy -297364.227218 kJ/mol
# GULP energy per Si atom -12390.176134 kJ/mol
# Density = 1.880470 g / cm^3
# Si number density = 18.847602 Si / 1000 Ang^3
#
#
#
# Elastic Constant Matrix: (Units=GPa)
#
#
# Indices 1 2 3 4 5 6 
#
# 1 36.5625 39.3873 25.9431 0.0000 -3.4005 0.0000
# 2 39.3873 166.8816 50.8703 0.0000 1.4999 0.0000
# 3 25.9431 50.8703 109.7859 0.0000 16.8895 0.0000
# 4 0.0000 0.0000 0.0000 22.4457 0.0000 4.0488
# 5 -3.4005 1.4999 16.8895 0.0000 32.4733 0.0000
# 6 0.0000 0.0000 0.0000 4.0488 0.0000 15.3490
#
#
#
# Elastic Compliance Matrix: (Units=1/GPa)
#
#
# Indices 1 2 3 4 5 6 
#
# 1 0.041816 -0.007600 -0.007704 0.000000 0.008737 0.000000
# 2 -0.007600 0.008425 -0.002093 0.000000 -0.000096 0.000000
# 3 -0.007704 -0.002093 0.013053 0.000000 -0.007499 0.000000
# 4 0.000000 0.000000 0.000000 0.046778 0.000000 -0.012339
# 5 0.008737 -0.000096 -0.007499 0.000000 0.035614 0.000000
# 6 0.000000 0.000000 0.000000 -0.012339 0.000000 0.068406
#
#
# Mechanical properties :
#
#
# Convention : Reuss Voigt Hill
#
# Bulk Modulus (GPa) = 35.08759 60.62569 47.85664
# Shear Modulus (GPa) = 19.35101 27.18891 23.26996
#
# Velocity S-wave (km/s) = 3.20771 3.80223 3.51755
# Velocity P-wave (km/s) = 5.69000 7.17719 6.47642
#
# Compressibility (1/GPa) = 0.02850011
#
# Stress axis : x y z
#
# Youngs Moduli (GPa) = 23.91415 118.69723 76.61281
#
# Poissons Ratio (x) = 0.90204 0.59024
# Poissons Ratio (y) = 0.18174 0.16036
# Poissons Ratio (z) = 0.18424 0.24844
#
# Static dielectric constant tensor:
#      x y z
#    x 2.487530 0.000000 -0.382420 
#    y 0.000000 3.943940 0.000000 
#    z -0.382420 0.000000 3.111860 
# 
# 
# High freq. dielectric constant tensor:
#      x y z
#    x 1.685330 0.000000 0.023110 
#    y 0.000000 1.747950 0.000000 
#    z 0.023110 0.000000 1.727600 
# 
# From -- ./inp_files/7490.got.cif
#   From: 2010.06.25/outbox.cif.g09.slc.cpg/sg10_4_cif.got.tgz:7490.got - 2010.06.27 22:07:45.
