data_PCOD8057920
_publ_section_title
;
Structure prediction by ZEFSAII (Michael W. Deem and Ramdas Pophale) SiO2 
 PCOD8057920
Probable space group: P 2/M
;
_chemical_formula_sum "Si O2"
_cell_formula_units_Z 32
_cell_length_a 26.948041
_cell_length_b 9.417215
_cell_length_c 21.295002
_cell_angle_alpha 90.000000
_cell_angle_beta 18.729978
_cell_angle_gamma 90.000000
_cell_volume 1735.318624
_symmetry_space_group_name_H-M "P 2/M"
_symmetry_group_IT_number 10
_symmetry_cell_setting 'monoclinic'
loop_
_space_group_symop_operation_xyz
x,y,z
-x,y,-z
-x,-y,-z
x,-y,z
loop_
_atom_site_type_symbol
_atom_site_label
_atom_site_fract_x
_atom_site_fract_y
_atom_site_fract_z
Si Si1 0.417335 0.839573 0.502807
Si Si2 0.624908 0.164340 0.030442
Si Si3 0.552427 0.334384 0.236644
Si Si4 0.871409 0.336677 0.925443
Si Si5 0.481067 0.337241 0.095079
Si Si6 0.018683 0.162359 0.407569
Si Si7 0.258531 0.158817 0.815455
Si Si8 0.127105 0.663058 0.524271
O O1 0.421738 0.730253 0.439509
O O2 0.580067 0.836312 0.342411
O O3 0.285522 0.791346 0.710845
O O4 0.384592 0.000000 0.518038
O O5 0.536810 0.252438 0.189684
O O6 0.586609 0.232099 0.008977
O O7 0.572498 0.000000 0.094469
O O8 0.806555 0.177883 0.825267
O O9 0.517649 0.500000 0.267616
O O10 0.721886 0.308329 0.061830
O O11 0.888077 0.500000 0.922872
O O12 0.021481 0.280217 0.708159
O O13 0.863249 0.256945 0.002041
O O14 0.535736 0.500000 0.039292
O O15 0.305210 0.318226 0.328867
O O16 0.500000 0.293330 0.000000
O O17 0.000000 0.223088 0.500000
O O18 0.905460 0.251013 0.499627
O O19 0.962535 0.000000 0.472606
O O20 0.191367 0.000000 0.896221
O O21 0.084332 0.500000 0.561577
#
# Coordination Sequence:
#
# PCOD8057920 Si02
#       8
#     4   4   4   4   4   4   4   4
#     4   8  14  25  40  63  97 133 168 203 244 293
#     4  11  22  35  53  76 103 135 169 211 259 306
#     4  10  18  29  47  71 101 134 169 209 251 299
#     4   9  17  28  44  69 100 131 165 208 251 296
#     4  10  22  39  57  76 100 133 173 215 259 309
#     4  10  21  35  52  76 102 129 165 208 256 309
#     4   8  14  24  40  63  95 134 168 201 243 294
#     4  10  20  35  53  75 102 133 169 211 258 304
#
# _framework density 18.440417
#
# number of rings (size 3 to 8) (size 9 to 14) (size 15 to 20)
#    0.000    2.500    1.250    2.250    0.000    3.000 
#    0.000    2.500    0.000    0.000    0.000    0.875 
#    0.000    7.000    0.000    0.000    0.000    0.000 
#
# Total GULP energy -396773.703697 kJ/mol
# GULP energy per Si atom -12399.178241 kJ/mol
# Density = 1.839845 g / cm^3
# Si number density = 18.440417 Si / 1000 Ang^3
#
#
#
# Elastic Constant Matrix: (Units=GPa)
#
#
# Indices 1 2 3 4 5 6 
#
# 1 51.9821 38.4535 15.9066 0.0000 22.3308 0.0000
# 2 38.4535 87.4489 23.9386 0.0000 17.8961 0.0000
# 3 15.9066 23.9386 59.5466 0.0000 26.7499 0.0000
# 4 0.0000 0.0000 0.0000 22.6231 0.0000 12.1398
# 5 22.3308 17.8961 26.7499 0.0000 35.2251 0.0000
# 6 0.0000 0.0000 0.0000 12.1398 0.0000 31.9742
#
#
#
# Elastic Compliance Matrix: (Units=1/GPa)
#
#
# Indices 1 2 3 4 5 6 
#
# 1 0.035867 -0.012988 0.004387 0.000000 -0.019471 0.000000
# 2 -0.012988 0.017926 -0.005076 0.000000 0.002981 0.000000
# 3 0.004387 -0.005076 0.026945 0.000000 -0.020664 0.000000
# 4 0.000000 0.000000 0.000000 0.055513 0.000000 -0.021077
# 5 -0.019471 0.002981 -0.020664 0.000000 0.054910 0.000000
# 6 0.000000 0.000000 0.000000 -0.021077 0.000000 0.039278
#
#
# Mechanical properties :
#
#
# Convention : Reuss Voigt Hill
#
# Bulk Modulus (GPa) = 18.73231 39.50833 29.12032
# Shear Modulus (GPa) = 18.14305 26.00974 22.07639
#
# Velocity S-wave (km/s) = 3.14008 3.75970 3.46377
# Velocity P-wave (km/s) = 4.82982 6.34969 5.64117
#
# Compressibility (1/GPa) = 0.05338369
#
# Stress axis : x y z
#
# Youngs Moduli (GPa) = 27.88077 55.78535 37.11207
#
# Poissons Ratio (x) = 0.72454 -0.16281
# Poissons Ratio (y) = 0.36211 0.18839
# Poissons Ratio (z) = -0.12231 0.28318
#
# Static dielectric constant tensor:
#      x y z
#    x 3.183490 0.000000 0.410440 
#    y 0.000000 3.425730 0.000000 
#    z 0.410440 0.000000 3.428220 
# 
# 
# High freq. dielectric constant tensor:
#      x y z
#    x 1.690350 0.000000 0.035310 
#    y 0.000000 1.714670 0.000000 
#    z 0.035310 0.000000 1.703440 
# 
# From -- ./inp_files/86854.got.cif
#   From: 2010.06.25/outbox.cif.g09.slc.cpg/sg10_44_cif.got.tgz:86854.got - 2010.06.27 22:07:45.
