data_PCOD8057917
_publ_section_title
;
Structure prediction by ZEFSAII (Michael W. Deem and Ramdas Pophale) SiO2 
 PCOD8057917
Probable space group: P 2/M
;
_chemical_formula_sum "Si O2"
_cell_formula_units_Z 32
_cell_length_a 14.548236
_cell_length_b 9.210565
_cell_length_c 16.971445
_cell_angle_alpha 90.000000
_cell_angle_beta 126.966933
_cell_angle_gamma 90.000000
_cell_volume 1816.991129
_symmetry_space_group_name_H-M "P 2/M"
_symmetry_group_IT_number 10
_symmetry_cell_setting 'monoclinic'
loop_
_space_group_symop_operation_xyz
x,y,z
-x,y,-z
-x,-y,-z
x,-y,z
loop_
_atom_site_type_symbol
_atom_site_label
_atom_site_fract_x
_atom_site_fract_y
_atom_site_fract_z
Si Si1 0.997038 0.664808 0.792272
Si Si2 0.094858 0.170892 0.984352
Si Si3 0.421825 0.171549 0.686086
Si Si4 0.386483 0.164162 0.492608
Si Si5 0.822272 0.828087 0.400530
Si Si6 0.260637 0.336632 0.305948
Si Si7 0.327841 0.829322 0.187946
Si Si8 0.990021 0.172028 0.623859
O O1 0.039894 0.500000 0.801098
O O2 0.875754 0.666136 0.774261
O O3 0.988654 0.744684 0.704970
O O4 0.082651 0.747800 0.895169
O O5 0.222754 0.215929 0.078093
O O6 0.083451 0.000000 0.963385
O O7 0.000000 0.220475 0.000000
O O8 0.414968 0.226798 0.593006
O O9 0.309210 0.234068 0.673887
O O10 0.547617 0.216658 0.786004
O O11 0.412465 0.000000 0.682942
O O12 0.500000 0.172541 0.500000
O O13 0.289095 0.264631 0.404445
O O14 0.338262 0.000000 0.472224
O O15 0.878951 0.783889 0.513878
O O16 0.896881 0.772356 0.365301
O O17 0.823966 0.000000 0.397657
O O18 0.308763 0.500000 0.328323
O O19 0.319070 0.246545 0.267160
O O20 0.324834 0.000000 0.204056
O O21 0.993325 0.000000 0.641665
#
# Coordination Sequence:
#
# PCOD8057917 Si02
#       8
#     4   4   4   4   4   4   4   4
#     4  11  23  35  50  73 103 136 168 208 261 307
#     4  10  20  34  54  75  96 128 173 220 257 294
#     4   9  16  28  48  73 101 129 161 202 249 300
#     4  10  18  29  47  70  97 133 170 200 237 288
#     4   8  15  29  52  81 105 129 162 207 255 296
#     4  11  22  32  44  67 101 136 166 201 244 293
#     4  10  19  33  51  71  96 129 168 206 247 297
#     4   9  17  32  55  79 102 129 168 210 250 298
#
# _framework density 17.611533000000001
#
# number of rings (size 3 to 8) (size 9 to 14) (size 15 to 20)
#    0.000    2.250    2.500    2.250    0.000    3.500 
#    0.000    1.250    0.000    2.250    0.000    5.250 
#    0.000    0.000    0.000    0.000    0.000    0.000 
#
# Total GULP energy -396599.028527 kJ/mol
# GULP energy per Si atom -12393.719641 kJ/mol
# Density = 1.757145 g / cm^3
# Si number density = 17.611533 Si / 1000 Ang^3
#
#
#
# Elastic Constant Matrix: (Units=GPa)
#
#
# Indices 1 2 3 4 5 6 
#
# 1 101.7079 17.7774 42.1651 0.0000 19.3771 0.0000
# 2 17.7774 46.2275 34.6891 0.0000 4.4285 0.0000
# 3 42.1651 34.6891 89.2290 0.0000 15.2432 0.0000
# 4 0.0000 0.0000 0.0000 4.1026 0.0000 4.9540
# 5 19.3771 4.4285 15.2432 0.0000 30.7882 0.0000
# 6 0.0000 0.0000 0.0000 4.9540 0.0000 10.0209
#
#
#
# Elastic Compliance Matrix: (Units=1/GPa)
#
#
# Indices 1 2 3 4 5 6 
#
# 1 0.013089 -0.000814 -0.004896 0.000000 -0.005697 0.000000
# 2 -0.000814 0.030667 -0.011876 0.000000 0.001981 0.000000
# 3 -0.004896 -0.011876 0.018919 0.000000 -0.004578 0.000000
# 4 0.000000 0.000000 0.000000 0.604794 0.000000 -0.298991
# 5 -0.005697 0.001981 -0.004578 0.000000 0.038047 0.000000
# 6 0.000000 0.000000 0.000000 -0.298991 0.000000 0.247602
#
#
# Mechanical properties :
#
#
# Convention : Reuss Voigt Hill
#
# Bulk Modulus (GPa) = 36.35778 47.38084 41.86931
# Shear Modulus (GPa) = 5.01273 18.48452 11.74863
#
# Velocity S-wave (km/s) = 1.68892 3.24322 2.58563
# Velocity P-wave (km/s) = 4.94898 6.40206 5.72183
#
# Compressibility (1/GPa) = 0.02750443
#
# Stress axis : x y z
#
# Youngs Moduli (GPa) = 76.39794 32.60805 52.85553
#
# Poissons Ratio (x) = 0.02655 0.25876
# Poissons Ratio (y) = 0.06221 0.62771
# Poissons Ratio (z) = 0.37401 0.38725
#
# Static dielectric constant tensor:
#      x y z
#    x 3.616520 0.000000 0.268070 
#    y 0.000000 3.043510 0.000000 
#    z 0.268070 0.000000 3.217320 
# 
# 
# High freq. dielectric constant tensor:
#      x y z
#    x 1.679400 0.000000 0.015090 
#    y 0.000000 1.651250 0.000000 
#    z 0.015090 0.000000 1.666850 
# 
# From -- ./inp_files/66050.got.cif
#   From: 2010.06.25/outbox.cif.g09.slc.cpg/sg10_34_cif.got.tgz:66050.got - 2010.06.27 22:07:45.
