data_PCOD8057111
_publ_section_title
;
Structure prediction by ZEFSAII (Michael W. Deem and Ramdas Pophale) SiO2 
 PCOD8057111
Probable space group: P 2/M
;
_chemical_formula_sum "Si O2"
_cell_formula_units_Z 28
_cell_length_a 20.755287
_cell_length_b 8.650042
_cell_length_c 18.211103
_cell_angle_alpha 90.000000
_cell_angle_beta 27.805703
_cell_angle_gamma 90.000000
_cell_volume 1525.145546
_symmetry_space_group_name_H-M "P 2/M"
_symmetry_group_IT_number 10
_symmetry_cell_setting 'monoclinic'
loop_
_space_group_symop_operation_xyz
x,y,z
-x,y,-z
-x,-y,-z
x,-y,z
loop_
_atom_site_type_symbol
_atom_site_label
_atom_site_fract_x
_atom_site_fract_y
_atom_site_fract_z
Si Si1 0.193193 0.817581 0.524057
Si Si2 0.396693 0.181205 0.442929
Si Si3 0.305093 0.317692 0.840071
Si Si4 0.118329 0.182234 0.150737
Si Si5 0.832724 0.179965 0.609497
Si Si6 0.339658 0.329960 0.644718
Si Si7 0.870380 0.319270 0.713672
O O1 0.302491 0.751054 0.472106
O O2 0.242889 0.773455 0.390943
O O3 0.038966 0.754406 0.696178
O O4 0.186807 0.000000 0.539524
O O5 0.540431 0.270352 0.293557
O O6 0.315773 0.213223 0.601192
O O7 0.424768 0.000000 0.406946
O O8 0.289959 0.500000 0.867194
O O9 0.269813 0.271371 0.790996
O O10 0.195723 0.226208 0.998656
O O11 0.194920 0.266164 0.142808
O O12 0.124972 0.000000 0.156580
O O13 0.775273 0.275935 0.738193
O O14 0.992871 0.217497 0.434418
O O15 0.813524 0.000000 0.645467
O O16 0.500000 0.344179 0.500000
O O17 0.282511 0.500000 0.680710
O O18 0.903274 0.500000 0.680450
#
# Coordination Sequence:
#
# PCOD8057111 Si02
#       7
#     4   4   4   4   4   4   4
#     4   8  17  31  48  72 100 125 156 199 239 278
#     4  10  18  31  52  75  96 123 160 198 236 281
#     4  10  20  34  50  71  98 126 158 198 240 283
#     4  10  19  33  51  71  96 128 162 196 238 285
#     4   9  15  27  45  65  92 127 163 196 231 275
#     4   8  16  31  48  67  94 125 158 197 236 276
#     4  10  17  26  42  68  97 123 156 198 239 278
#
# _framework density 18.358903999999999
#
# number of rings (size 3 to 8) (size 9 to 14) (size 15 to 20)
#    0.000    2.714    0.000    5.571    0.000    3.143 
#    0.000    9.286    0.000    5.143    0.000    6.000 
#    0.000    0.000    0.000    0.000    0.000    0.000 
#
# Total GULP energy -346941.281850 kJ/mol
# GULP energy per Si atom -12390.760066 kJ/mol
# Density = 1.831712 g / cm^3
# Si number density = 18.358904 Si / 1000 Ang^3
#
#
#
# Elastic Constant Matrix: (Units=GPa)
#
#
# Indices 1 2 3 4 5 6 
#
# 1 91.4878 20.4398 -2.9687 0.0000 0.9378 0.0000
# 2 20.4398 54.1865 3.5155 0.0000 0.9829 0.0000
# 3 -2.9687 3.5155 17.7964 0.0000 -1.2513 0.0000
# 4 0.0000 0.0000 0.0000 20.1922 0.0000 12.2010
# 5 0.9378 0.9829 -1.2513 0.0000 15.3948 0.0000
# 6 0.0000 0.0000 0.0000 12.2010 0.0000 17.2717
#
#
#
# Elastic Compliance Matrix: (Units=1/GPa)
#
#
# Indices 1 2 3 4 5 6 
#
# 1 0.012088 -0.004747 0.002941 0.000000 -0.000194 0.000000
# 2 -0.004747 0.020593 -0.004960 0.000000 -0.001429 0.000000
# 3 0.002941 -0.004960 0.058003 0.000000 0.004852 0.000000
# 4 0.000000 0.000000 0.000000 0.086407 0.000000 -0.061039
# 5 -0.000194 -0.001429 0.004852 0.000000 0.065454 0.000000
# 6 0.000000 0.000000 0.000000 -0.061039 0.000000 0.101018
#
#
# Mechanical properties :
#
#
# Convention : Reuss Voigt Hill
#
# Bulk Modulus (GPa) = 12.96167 22.82709 17.89438
# Shear Modulus (GPa) = 13.06118 20.07067 16.56593
#
# Velocity S-wave (km/s) = 2.67017 3.31000 3.00715
# Velocity P-wave (km/s) = 4.07209 5.20278 4.67177
#
# Compressibility (1/GPa) = 0.07715056
#
# Stress axis : x y z
#
# Youngs Moduli (GPa) = 82.72379 48.55973 17.24059
#
# Poissons Ratio (x) = 0.23052 -0.05070
# Poissons Ratio (y) = 0.39270 0.08552
# Poissons Ratio (z) = -0.24326 0.24087
#
# Static dielectric constant tensor:
#      x y z
#    x 4.092000 0.000000 0.569720 
#    y 0.000000 3.245580 0.000000 
#    z 0.569720 0.000000 3.233140 
# 
# 
# High freq. dielectric constant tensor:
#      x y z
#    x 1.716790 0.000000 0.040440 
#    y 0.000000 1.708080 0.000000 
#    z 0.040440 0.000000 1.668450 
# 
# From -- ./inp_files/79247.got.cif
#   From: 2010.06.25/outbox.cif.g09.slc.cpg/sg10_40_cif.got.tgz:79247.got - 2010.06.27 22:07:45.
