data_PCOD8057313
_publ_section_title
;
Structure prediction by ZEFSAII (Michael W. Deem and Ramdas Pophale) SiO2 
 PCOD8057313
Probable space group: P 2/M
;
_chemical_formula_sum "Si O2"
_cell_formula_units_Z 32
_cell_length_a 21.684511
_cell_length_b 8.683366
_cell_length_c 30.395661
_cell_angle_alpha 90.000000
_cell_angle_beta 18.119047
_cell_angle_gamma 90.000000
_cell_volume 1779.914336
_symmetry_space_group_name_H-M "P 2/M"
_symmetry_group_IT_number 10
_symmetry_cell_setting 'monoclinic'
loop_
_space_group_symop_operation_xyz
x,y,z
-x,y,-z
-x,-y,-z
x,-y,z
loop_
_atom_site_type_symbol
_atom_site_label
_atom_site_fract_x
_atom_site_fract_y
_atom_site_fract_z
Si Si1 0.559467 0.183262 0.649168
Si Si2 0.191754 0.180396 0.841334
Si Si3 0.051465 0.180070 0.763836
Si Si4 0.382404 0.681892 0.948990
Si Si5 0.628577 0.182713 0.954166
Si Si6 0.044228 0.319179 0.855386
Si Si7 0.608180 0.817513 0.146050
Si Si8 0.074508 0.179932 0.651742
O O1 0.381435 0.243174 0.739149
O O2 0.527129 0.237939 0.721206
O O3 0.767831 0.252044 0.489543
O O4 0.560090 0.000000 0.646337
O O5 0.183283 0.272982 0.801539
O O6 0.205798 0.000000 0.821175
O O7 0.000000 0.219079 0.000000
O O8 0.155998 0.261849 0.734726
O O9 0.159221 0.209194 0.643953
O O10 0.027939 0.000000 0.789481
O O11 0.838357 0.256281 0.904055
O O12 0.392467 0.500000 0.942450
O O13 0.488826 0.744951 0.832468
O O14 0.474042 0.747032 0.932341
O O15 0.852998 0.248791 0.795743
O O16 0.629962 0.000000 0.958482
O O17 0.500000 0.237600 0.000000
O O18 0.009949 0.500000 0.876849
O O19 0.832071 0.236499 0.003323
O O20 0.609221 0.000000 0.141183
O O21 0.057218 0.000000 0.654382
#
# Coordination Sequence:
#
# PCOD8057313 Si02
#       8
#     4   4   4   4   4   4   4   4
#     4   9  17  29  48  70  93 121 156 199 240 279
#     4  10  18  31  47  66  90 121 161 201 241 282
#     4   9  16  29  49  68  91 123 159 198 238 280
#     4  10  18  28  45  72 101 125 155 194 232 274
#     4   9  17  31  53  78 101 124 152 189 231 276
#     4  11  20  29  44  67  94 122 158 203 245 280
#     4  10  17  29  48  69  93 124 161 198 237 276
#     4   8  15  29  49  74  96 117 152 195 235 277
#
# _framework density 17.978393000000001
#
# number of rings (size 3 to 8) (size 9 to 14) (size 15 to 20)
#    0.000    2.500    1.250    5.250    0.000    0.500 
#    0.000    0.625    0.000   15.750    0.000    5.250 
#    0.000    0.000    0.000    0.000    0.000    0.000 
#
# Total GULP energy -396552.994010 kJ/mol
# GULP energy per Si atom -12392.281063 kJ/mol
# Density = 1.793747 g / cm^3
# Si number density = 17.978393 Si / 1000 Ang^3
#
#
#
# Elastic Constant Matrix: (Units=GPa)
#
#
# Indices 1 2 3 4 5 6 
#
# 1 178.1369 48.7266 61.9538 0.0000 22.1058 0.0000
# 2 48.7266 69.0475 17.9223 0.0000 7.7778 0.0000
# 3 61.9538 17.9223 83.5241 0.0000 17.9142 0.0000
# 4 0.0000 0.0000 0.0000 0.3128 0.0000 -1.4414
# 5 22.1058 7.7778 17.9142 0.0000 26.2864 0.0000
# 6 0.0000 0.0000 0.0000 -1.4414 0.0000 14.0455
#
#
#
# Elastic Compliance Matrix: (Units=1/GPa)
#
#
# Indices 1 2 3 4 5 6 
#
# 1 0.009016 -0.004736 -0.005089 0.000000 -0.002712 0.000000
# 2 -0.004736 0.017989 -0.000070 0.000000 -0.001292 0.000000
# 3 -0.005089 -0.000070 0.017381 0.000000 -0.007544 0.000000
# 4 0.000000 0.000000 0.000000 6.065570 0.000000 0.622458
# 5 -0.002712 -0.001292 -0.007544 0.000000 0.045847 0.000000
# 6 0.000000 0.000000 0.000000 0.622458 0.000000 0.135074
#
#
# Mechanical properties :
#
#
# Convention : Reuss Voigt Hill
#
# Bulk Modulus (GPa) = 40.65952 65.32378 52.99165
# Shear Modulus (GPa) = 0.79128 21.60267 11.19698
#
# Velocity S-wave (km/s) = 0.66414 3.47016 2.49831
# Velocity P-wave (km/s) = 4.82213 7.24358 6.15315
#
# Compressibility (1/GPa) = 0.02459449
#
# Stress axis : x y z
#
# Youngs Moduli (GPa) = 110.91792 55.59095 57.53479
#
# Poissons Ratio (x) = 0.26327 0.29282
# Poissons Ratio (y) = 0.52528 0.00403
# Poissons Ratio (z) = 0.56451 0.00389
#
# Static dielectric constant tensor:
#      x y z
#    x 3.985810 0.000000 0.423110 
#    y 0.000000 3.077660 0.000000 
#    z 0.423110 0.000000 3.291520 
# 
# 
# High freq. dielectric constant tensor:
#      x y z
#    x 1.709430 0.000000 0.027400 
#    y 0.000000 1.675230 0.000000 
#    z 0.027400 0.000000 1.652330 
# 
# From -- ./inp_files/95644.got.cif
#   From: 2010.06.25/outbox.cif.g09.slc.cpg/sg10_48_cif.got.tgz:95644.got - 2010.06.27 22:07:45.
