data_PCOD8057662
_publ_section_title
;
Structure prediction by ZEFSAII (Michael W. Deem and Ramdas Pophale) SiO2 
 PCOD8057662
Probable space group: P 2/M
;
_chemical_formula_sum "Si O2"
_cell_formula_units_Z 32
_cell_length_a 8.684561
_cell_length_b 12.082616
_cell_length_c 23.925870
_cell_angle_alpha 90.000000
_cell_angle_beta 47.413725
_cell_angle_gamma 90.000000
_cell_volume 1848.448359
_symmetry_space_group_name_H-M "P 2/M"
_symmetry_group_IT_number 10
_symmetry_cell_setting 'monoclinic'
loop_
_space_group_symop_operation_xyz
x,y,z
-x,y,-z
-x,-y,-z
x,-y,z
loop_
_atom_site_type_symbol
_atom_site_label
_atom_site_fract_x
_atom_site_fract_y
_atom_site_fract_z
Si Si1 0.394744 0.131695 0.375989
Si Si2 0.295237 0.868999 0.520878
Si Si3 0.149585 0.867967 0.326982
Si Si4 0.702543 0.875662 0.070395
Si Si5 0.259960 0.783014 0.186300
Si Si6 0.990850 0.202247 0.090249
Si Si7 0.275003 0.628921 0.082373
Si Si8 0.157278 0.124400 0.759327
O O1 0.288165 0.176876 0.459030
O O2 0.256437 0.169210 0.357978
O O3 0.627591 0.184989 0.311873
O O4 0.404037 0.000000 0.374426
O O5 0.500000 0.818341 0.500000
O O6 0.093657 0.836448 0.606666
O O7 0.311305 0.000000 0.513930
O O8 0.253749 0.785390 0.255330
O O9 0.182755 0.000000 0.305383
O O10 0.459894 0.854088 0.118767
O O11 0.809936 0.786190 0.086736
O O12 0.732887 0.000000 0.086557
O O13 0.816547 0.866711 0.982641
O O14 0.273383 0.668290 0.148045
O O15 0.042497 0.838184 0.225193
O O16 0.087811 0.315695 0.091866
O O17 0.879802 0.133714 0.165813
O O18 0.226698 0.500000 0.094012
O O19 0.500000 0.655906 0.000000
O O20 0.193838 0.000000 0.732920
#
# Coordination Sequence:
#
# PCOD8057662 Si02
#       8
#     4   4   4   4   4   4   4   4
#     4   9  17  28  42  63  97 142 177 202 239 285
#     4   9  16  26  41  62  94 136 179 210 237 284
#     4  10  18  28  43  67 101 136 168 207 250 301
#     4  11  20  32  48  73 109 137 159 196 242 307
#     4  11  21  32  50  74  96 129 171 207 256 307
#     4  10  20  33  49  71  95 130 168 202 251 304
#     4  10  21  41  58  70  92 125 171 227 271 300
#     4  10  18  28  43  65  96 131 167 203 241 294
#
# _framework density 17.311817999999999
#
# number of rings (size 3 to 8) (size 9 to 14) (size 15 to 20)
#    0.000    2.000    1.250    4.500    0.000    4.500 
#    0.000    3.750    0.000    0.000    0.000    0.000 
#    0.000   14.500    0.000    0.000    0.000    3.250 
#
# Total GULP energy -396424.134657 kJ/mol
# GULP energy per Si atom -12388.254208 kJ/mol
# Density = 1.727242 g / cm^3
# Si number density = 17.311818 Si / 1000 Ang^3
#
#
#
# Elastic Constant Matrix: (Units=GPa)
#
#
# Indices 1 2 3 4 5 6 
#
# 1 72.0174 29.5584 22.7968 0.0000 -3.6120 0.0000
# 2 29.5584 56.7763 17.8213 0.0000 3.8311 0.0000
# 3 22.7968 17.8213 86.1028 0.0000 4.1507 0.0000
# 4 0.0000 0.0000 0.0000 10.0625 0.0000 1.5613
# 5 -3.6120 3.8311 4.1507 0.0000 37.7500 0.0000
# 6 0.0000 0.0000 0.0000 1.5613 0.0000 16.7979
#
#
#
# Elastic Compliance Matrix: (Units=1/GPa)
#
#
# Indices 1 2 3 4 5 6 
#
# 1 0.018740 -0.008940 -0.003259 0.000000 0.003059 0.000000
# 2 -0.008940 0.023185 -0.002289 0.000000 -0.002957 0.000000
# 3 -0.003259 -0.002289 0.013024 0.000000 -0.001511 0.000000
# 4 0.000000 0.000000 0.000000 0.100833 0.000000 -0.009372
# 5 0.003059 -0.002957 -0.001511 0.000000 0.027249 0.000000
# 6 0.000000 0.000000 0.000000 -0.009372 0.000000 0.060402
#
#
# Mechanical properties :
#
#
# Convention : Reuss Voigt Hill
#
# Bulk Modulus (GPa) = 38.50168 39.47218 38.98693
# Shear Modulus (GPa) = 17.78947 22.57009 20.17978
#
# Velocity S-wave (km/s) = 3.20908 3.61465 3.41789
# Velocity P-wave (km/s) = 6.00161 6.34595 6.17618
#
# Compressibility (1/GPa) = 0.02597289
#
# Stress axis : x y z
#
# Youngs Moduli (GPa) = 53.36299 43.13108 76.78408
#
# Poissons Ratio (x) = 0.38557 0.25022
# Poissons Ratio (y) = 0.47704 0.17579
# Poissons Ratio (z) = 0.17389 0.09874
#
# Static dielectric constant tensor:
#      x y z
#    x 3.569810 0.000000 -0.090810 
#    y 0.000000 2.635160 0.000000 
#    z -0.090810 0.000000 3.780660 
# 
# 
# High freq. dielectric constant tensor:
#      x y z
#    x 1.687020 0.000000 -0.003480 
#    y 0.000000 1.580350 0.000000 
#    z -0.003480 0.000000 1.691170 
# 
# From -- ./inp_files/36031.got.cif
#   From: 2010.06.25/outbox.cif.g09.slc.cpg/sg10_19_cif.got.tgz:36031.got - 2010.06.27 22:07:45.
