data_PCOD8057535
_publ_section_title
;
Structure prediction by ZEFSAII (Michael W. Deem and Ramdas Pophale) SiO2 
 PCOD8057535
Probable space group: P 2/M
;
_chemical_formula_sum "Si O2"
_cell_formula_units_Z 28
_cell_length_a 17.641760
_cell_length_b 16.522617
_cell_length_c 9.877866
_cell_angle_alpha 90.000000
_cell_angle_beta 147.399168
_cell_angle_gamma 90.000000
_cell_volume 1551.307081
_symmetry_space_group_name_H-M "P 2/M"
_symmetry_group_IT_number 10
_symmetry_cell_setting 'monoclinic'
loop_
_space_group_symop_operation_xyz
x,y,z
-x,y,-z
-x,-y,-z
x,-y,z
loop_
_atom_site_type_symbol
_atom_site_label
_atom_site_fract_x
_atom_site_fract_y
_atom_site_fract_z
Si Si1 0.833121 0.825526 0.235193
Si Si2 0.833427 0.833918 0.753746
Si Si3 0.370615 0.594426 0.396516
Si Si4 0.845376 0.281114 0.005688
Si Si5 0.138911 0.000000 0.117021
Si Si6 0.822476 0.263780 0.485702
Si Si7 0.858771 0.000000 0.202308
Si Si8 0.365092 0.407810 0.703157
O O1 0.786792 0.766547 0.045998
O O2 0.770779 0.780727 0.272301
O O3 0.000000 0.832086 0.500000
O O4 0.775142 0.917235 0.118704
O O5 0.777756 0.804615 0.525959
O O6 0.770487 0.920739 0.705414
O O7 0.787772 0.766644 0.790398
O O8 0.000000 0.842806 0.000000
O O9 0.500000 0.626993 0.500000
O O10 0.351600 0.500000 0.346504
O O11 0.396946 0.615376 0.594646
O O12 0.226485 0.631577 0.118531
O O13 0.013406 0.286877 0.264308
O O14 0.105693 0.000000 0.905562
O O15 0.000000 0.000000 0.000000
O O16 0.749341 0.348866 0.403624
O O17 0.000000 0.000000 0.500000
O O18 0.307738 0.500000 0.623918
O O19 0.500000 0.398227 0.000000
#
# Coordination Sequence:
#
# PCOD8057535 Si02
#       8
#     4   4   4   4   2   4   2   4
#     4   9  19  30  48  74 112 145 174 215 266 314
#     4   9  17  28  47  73 107 136 175 221 258 306
#     4  10  22  38  57  80 106 138 176 219 266 319
#     4  10  18  34  53  79 109 139 175 223 262 312
#     4  10  18  26  44  72 107 148 178 216 264 307
#     4  10  20  34  53  81 108 141 178 220 270 312
#     4  10  18  28  42  70 111 148 177 211 265 320
#     4  10  22  39  57  78 106 139 177 220 265 321
#
# _framework density 18.049295000000001
#
# number of rings (size 3 to 8) (size 9 to 14) (size 15 to 20)
#    0.000    2.286    2.857    0.000    8.000    0.571 
#    0.000    1.429    0.000    2.571    0.000    6.000 
#    0.000    0.000    0.000    0.000    0.000    0.000 
#
# Total GULP energy -346914.903134 kJ/mol
# GULP energy per Si atom -12389.817969 kJ/mol
# Density = 1.800821 g / cm^3
# Si number density = 18.049295 Si / 1000 Ang^3
#
#
#
# Elastic Constant Matrix: (Units=GPa)
#
#
# Indices 1 2 3 4 5 6 
#
# 1 102.7170 63.1810 46.7126 0.0000 -33.5662 0.0000
# 2 63.1810 126.8942 49.4139 0.0000 -11.7458 0.0000
# 3 46.7126 49.4139 67.1713 0.0000 -20.3397 0.0000
# 4 0.0000 0.0000 0.0000 15.7580 0.0000 -12.4154
# 5 -33.5662 -11.7458 -20.3397 0.0000 27.3188 0.0000
# 6 0.0000 0.0000 0.0000 -12.4154 0.0000 21.0929
#
#
#
# Elastic Compliance Matrix: (Units=1/GPa)
#
#
# Indices 1 2 3 4 5 6 
#
# 1 0.024273 -0.008563 -0.003440 0.000000 0.023581 0.000000
# 2 -0.008563 0.014125 -0.007466 0.000000 -0.010007 0.000000
# 3 -0.003440 -0.007466 0.026493 0.000000 0.012288 0.000000
# 4 0.000000 0.000000 0.000000 0.118340 0.000000 0.069655
# 5 0.023581 -0.010007 0.012288 0.000000 0.070424 0.000000
# 6 0.000000 0.000000 0.000000 0.069655 0.000000 0.088409
#
#
# Mechanical properties :
#
#
# Convention : Reuss Voigt Hill
#
# Bulk Modulus (GPa) = 38.53293 68.37749 53.45521
# Shear Modulus (GPa) = 12.83186 21.99893 17.41540
#
# Velocity S-wave (km/s) = 2.66923 3.49495 3.10962
# Velocity P-wave (km/s) = 5.55831 7.36561 6.52484
#
# Compressibility (1/GPa) = 0.02595183
#
# Stress axis : x y z
#
# Youngs Moduli (GPa) = 41.19785 70.79444 37.74572
#
# Poissons Ratio (x) = 0.60623 0.12986
# Poissons Ratio (y) = 0.35279 0.28182
# Poissons Ratio (z) = 0.14173 0.52857
#
# Static dielectric constant tensor:
#      x y z
#    x 3.454170 0.000000 -0.488190 
#    y 0.000000 3.805400 0.000000 
#    z -0.488190 0.000000 3.204210 
# 
# 
# High freq. dielectric constant tensor:
#      x y z
#    x 1.683610 0.000000 -0.043710 
#    y 0.000000 1.717330 0.000000 
#    z -0.043710 0.000000 1.671010 
# 
# From -- ./inp_files/32868.got.cif
#   From: 2010.06.25/outbox.cif.g09.slc.cpg/sg10_17_cif.got.tgz:32868.got - 2010.06.27 22:07:45.
