data_PCOD8057029
_publ_section_title
;
Structure prediction by ZEFSAII (Michael W. Deem and Ramdas Pophale) SiO2 
 PCOD8057029
Probable space group: P 2/M
;
_chemical_formula_sum "Si O2"
_cell_formula_units_Z 24
_cell_length_a 16.527436
_cell_length_b 8.634260
_cell_length_c 16.527827
_cell_angle_alpha 90.000000
_cell_angle_beta 147.364859
_cell_angle_gamma 90.000000
_cell_volume 1271.939995
_symmetry_space_group_name_H-M "P 2/M"
_symmetry_group_IT_number 10
_symmetry_cell_setting 'monoclinic'
loop_
_space_group_symop_operation_xyz
x,y,z
-x,y,-z
-x,-y,-z
x,-y,z
loop_
_atom_site_type_symbol
_atom_site_label
_atom_site_fract_x
_atom_site_fract_y
_atom_site_fract_z
Si Si1 0.290191 0.818816 0.874871
Si Si2 0.048053 0.315471 0.127985
Si Si3 0.796311 0.316084 0.039158
Si Si4 0.525094 0.680545 0.289750
Si Si5 0.393396 0.319304 0.812662
Si Si6 0.628132 0.315160 0.547265
O O1 0.178606 0.751691 0.849329
O O2 0.261292 0.741887 0.761155
O O3 0.265875 0.000000 0.846810
O O4 0.458086 0.776506 0.041859
O O5 0.048830 0.500000 0.126658
O O6 0.212036 0.249964 0.288375
O O7 0.930878 0.255793 0.096335
O O8 0.000000 0.250051 0.000000
O O9 0.793560 0.500000 0.043928
O O10 0.640363 0.252632 0.869627
O O11 0.504648 0.500000 0.288894
O O12 0.639385 0.710337 0.310411
O O13 0.593091 0.754698 0.428548
O O14 0.424493 0.500000 0.854232
O O15 0.500000 0.255331 0.500000
O O16 0.633200 0.500000 0.550053
#
# Coordination Sequence:
#
# PCOD8057029 Si02
#       6
#     4   4   4   4   4   4
#     4  10  17  25  40  64  90 115 149 187 221 257
#     4   9  16  25  40  63  90 118 146 178 219 266
#     4   9  16  27  42  62  90 120 148 179 219 262
#     4   8  14  23  37  58  85 116 145 175 213 257
#     4   9  15  25  41  62  90 120 148 180 222 263
#     4   9  15  23  37  60  90 117 141 175 219 262
#
# _framework density 18.868815000000001
#
# number of rings (size 3 to 8) (size 9 to 14) (size 15 to 20)
#    0.000    3.000    0.000    5.000    0.000    4.000 
#    0.000    0.000    0.000    1.500    0.000   12.833 
#    0.000   22.667    0.000    0.000    0.000    0.000 
#
# Total GULP energy -297370.132555 kJ/mol
# GULP energy per Si atom -12390.422190 kJ/mol
# Density = 1.882587 g / cm^3
# Si number density = 18.868815 Si / 1000 Ang^3
#
#
#
# Elastic Constant Matrix: (Units=GPa)
#
#
# Indices 1 2 3 4 5 6 
#
# 1 217.4927 26.6151 84.0887 0.0000 -20.2116 0.0000
# 2 26.6151 29.3135 13.4844 0.0000 -3.9873 0.0000
# 3 84.0887 13.4844 101.5473 0.0000 -9.5190 0.0000
# 4 0.0000 0.0000 0.0000 0.0308 0.0000 3.2712
# 5 -20.2116 -3.9873 -9.5190 0.0000 30.0691 0.0000
# 6 0.0000 0.0000 0.0000 3.2712 0.0000 6.3656
#
#
#
# Elastic Compliance Matrix: (Units=1/GPa)
#
#
# Indices 1 2 3 4 5 6 
#
# 1 0.007399 -0.003880 -0.005353 0.000000 0.002764 0.000000
# 2 -0.003880 0.038706 -0.001742 0.000000 0.001973 0.000000
# 3 -0.005353 -0.001742 0.014585 0.000000 0.000788 0.000000
# 4 0.000000 0.000000 0.000000 -0.605960 0.000000 0.311396
# 5 0.002764 0.001973 0.000788 0.000000 0.035626 0.000000
# 6 0.000000 0.000000 0.000000 0.311396 0.000000 -0.002928
#
#
# Mechanical properties :
#
#
# Convention : Reuss Voigt Hill
#
# Bulk Modulus (GPa) = 25.81197 66.30330 46.05763
# Shear Modulus (GPa) = -10.46662 22.23743 5.88541
#
# Velocity S-wave (km/s) = -2.35777 3.43669 1.76802
# Velocity P-wave (km/s) = 2.50944 7.13885 5.35072
#
# Compressibility (1/GPa) = 0.03874172
#
# Stress axis : x y z
#
# Youngs Moduli (GPa) = 135.15379 25.83558 68.56256
#
# Poissons Ratio (x) = 0.10023 0.36699
# Poissons Ratio (y) = 0.52435 0.11945
# Poissons Ratio (z) = 0.72342 0.04501
#
# Static dielectric constant tensor:
#      x y z
#    x 4.184210 0.000000 -0.318080 
#    y 0.000000 2.867370 0.000000 
#    z -0.318080 0.000000 3.309620 
# 
# 
# High freq. dielectric constant tensor:
#      x y z
#    x 1.761300 0.000000 -0.021920 
#    y 0.000000 1.676660 0.000000 
#    z -0.021920 0.000000 1.686950 
# 
# From -- ./inp_files/35647.got.cif
#   From: 2010.06.25/outbox.cif.g09.slc.cpg/sg10_18_cif.got.tgz:35647.got - 2010.06.27 22:07:45.
