data_PCOD8057777
_publ_section_title
;
Structure prediction by ZEFSAII (Michael W. Deem and Ramdas Pophale) SiO2 
 PCOD8057777
Probable space group: P 2/M
;
_chemical_formula_sum "Si O2"
_cell_formula_units_Z 28
_cell_length_a 27.644546
_cell_length_b 9.369224
_cell_length_c 13.921670
_cell_angle_alpha 90.000000
_cell_angle_beta 153.621230
_cell_angle_gamma 90.000000
_cell_volume 1602.078959
_symmetry_space_group_name_H-M "P 2/M"
_symmetry_group_IT_number 10
_symmetry_cell_setting 'monoclinic'
loop_
_space_group_symop_operation_xyz
x,y,z
-x,y,-z
-x,-y,-z
x,-y,z
loop_
_atom_site_type_symbol
_atom_site_label
_atom_site_fract_x
_atom_site_fract_y
_atom_site_fract_z
Si Si1 0.386596 0.665249 0.678639
Si Si2 0.266959 0.168667 0.305582
Si Si3 0.821065 0.830709 0.151309
Si Si4 0.061728 0.831397 0.825657
Si Si5 0.824656 0.831154 0.372742
Si Si6 0.632942 0.665439 0.133749
Si Si7 0.614284 0.169105 0.672852
O O1 0.370691 0.500000 0.625565
O O2 0.302388 0.755605 0.466106
O O3 0.356498 0.696363 0.734864
O O4 0.512233 0.709663 0.882956
O O5 0.351870 0.215688 0.374024
O O6 0.268219 0.000000 0.325698
O O7 0.145844 0.222128 0.057526
O O8 0.907131 0.771418 0.225403
O O9 0.840972 0.771860 0.293511
O O10 0.829370 0.000000 0.169319
O O11 0.702007 0.778675 0.906435
O O12 0.936894 0.790447 0.628448
O O13 0.076341 0.000000 0.845344
O O14 0.721792 0.758304 0.237640
O O15 0.803957 0.000000 0.337408
O O16 0.654311 0.500000 0.149894
O O17 0.500000 0.240091 0.500000
O O18 0.606403 0.000000 0.661512
#
# Coordination Sequence:
#
# PCOD8057777 Si02
#       7
#     4   4   4   4   4   4   4
#     4   9  19  37  55  67  89 126 160 194 244 300
#     4   9  17  29  50  73  96 127 158 193 237 279
#     4   8  14  24  41  67  99 133 160 184 225 279
#     4   8  15  29  45  71 106 133 155 188 236 282
#     4  10  18  28  50  77  98 123 164 205 230 266
#     4   9  20  37  52  68  93 124 156 196 250 297
#     4   8  14  23  37  65 102 127 148 186 232 275
#
# _framework density 17.477291000000001
#
# number of rings (size 3 to 8) (size 9 to 14) (size 15 to 20)
#    0.000    3.286    0.000    3.000    2.000    2.857 
#    0.000    2.857    0.000    9.857    0.000    0.000 
#    0.000    0.000    0.000    0.000    0.000    0.000 
#
# Total GULP energy -346948.706395 kJ/mol
# GULP energy per Si atom -12391.025228 kJ/mol
# Density = 1.743751 g / cm^3
# Si number density = 17.477291 Si / 1000 Ang^3
#
#
#
# Elastic Constant Matrix: (Units=GPa)
#
#
# Indices 1 2 3 4 5 6 
#
# 1 68.7540 29.7573 57.9372 0.0000 2.4105 0.0000
# 2 29.7573 31.9631 37.2493 0.0000 -3.6069 0.0000
# 3 57.9372 37.2493 119.8201 0.0000 -4.2543 0.0000
# 4 0.0000 0.0000 0.0000 7.3445 0.0000 12.5040
# 5 2.4105 -3.6069 -4.2543 0.0000 28.9275 0.0000
# 6 0.0000 0.0000 0.0000 12.5040 0.0000 1.8800
#
#
#
# Elastic Compliance Matrix: (Units=1/GPa)
#
#
# Indices 1 2 3 4 5 6 
#
# 1 0.030490 -0.018263 -0.009285 0.000000 -0.006183 0.000000
# 2 -0.018263 0.060440 -0.009687 0.000000 0.007633 0.000000
# 3 -0.009285 -0.009687 0.015915 0.000000 0.001906 0.000000
# 4 0.000000 0.000000 0.000000 -0.013189 0.000000 0.087721
# 5 -0.006183 0.007633 0.001906 0.000000 0.036317 0.000000
# 6 0.000000 0.000000 0.000000 0.087721 0.000000 -0.051525
#
#
# Mechanical properties :
#
#
# Convention : Reuss Voigt Hill
#
# Bulk Modulus (GPa) = 30.88941 52.26942 41.57941
# Shear Modulus (GPa) = 30.54186 14.00328 22.27257
#
# Velocity S-wave (km/s) = 4.18487 2.83367 3.57371
# Velocity P-wave (km/s) = 6.40806 6.37795 6.39302
#
# Compressibility (1/GPa) = 0.03237356
#
# Stress axis : x y z
#
# Youngs Moduli (GPa) = 32.79761 16.54534 62.83486
#
# Poissons Ratio (x) = 0.30217 0.58342
# Poissons Ratio (y) = 0.59899 0.60871
# Poissons Ratio (z) = 0.30452 0.16028
#
# Static dielectric constant tensor:
#      x y z
#    x 3.222790 0.000000 0.072190 
#    y 0.000000 2.719840 0.000000 
#    z 0.072190 0.000000 3.582860 
# 
# 
# High freq. dielectric constant tensor:
#      x y z
#    x 1.666390 0.000000 0.002390 
#    y 0.000000 1.619550 0.000000 
#    z 0.002390 0.000000 1.690710 
# 
# From -- ./inp_files/56863.got.cif
#   From: 2010.06.25/outbox.cif.g09.slc.cpg/sg10_29_cif.got.tgz:56863.got - 2010.06.27 22:07:45.
