data_PCOD8057222
_publ_section_title
;
Structure prediction by ZEFSAII (Michael W. Deem and Ramdas Pophale) SiO2 
 PCOD8057222
Probable space group: P 2/M
;
_chemical_formula_sum "Si O2"
_cell_formula_units_Z 28
_cell_length_a 13.889398
_cell_length_b 8.789708
_cell_length_c 14.461611
_cell_angle_alpha 90.000000
_cell_angle_beta 103.316590
_cell_angle_gamma 90.000000
_cell_volume 1718.056622
_symmetry_space_group_name_H-M "P 2/M"
_symmetry_group_IT_number 10
_symmetry_cell_setting 'monoclinic'
loop_
_space_group_symop_operation_xyz
x,y,z
-x,y,-z
-x,-y,-z
x,-y,z
loop_
_atom_site_type_symbol
_atom_site_label
_atom_site_fract_x
_atom_site_fract_y
_atom_site_fract_z
Si Si1 0.078125 0.320865 0.402302
Si Si2 0.914887 0.171765 0.097128
Si Si3 0.764229 0.325984 0.935322
Si Si4 0.611306 0.818869 0.026786
Si Si5 0.245925 0.171670 0.788709
Si Si6 0.109414 0.325155 0.202437
Si Si7 0.868858 0.182297 0.405465
O O1 0.067842 0.500000 0.416282
O O2 0.125913 0.281813 0.313373
O O3 0.150119 0.249443 0.496520
O O4 0.971080 0.245146 0.387150
O O5 0.857824 0.181660 0.181150
O O6 0.026809 0.220768 0.137683
O O7 0.912890 0.000000 0.057984
O O8 0.863331 0.280594 0.011681
O O9 0.739191 0.500000 0.951000
O O10 0.787950 0.300078 0.831452
O O11 0.669282 0.229083 0.946670
O O12 0.667491 0.749131 0.130359
O O13 0.612844 0.000000 0.030394
O O14 0.500000 0.754554 0.000000
O O15 0.221713 0.239624 0.681443
O O16 0.281197 0.000000 0.782765
O O17 0.074351 0.500000 0.186859
O O18 0.874458 0.000000 0.409033
#
# Coordination Sequence:
#
# PCOD8057222 Si02
#       7
#     4   4   4   4   4   4   4
#     4  10  19  29  41  60  88 122 159 190 221 257
#     4  10  18  29  44  64  90 122 157 189 220 262
#     4  10  20  32  45  64  91 121 152 185 225 274
#     4   9  18  34  53  72  92 114 145 187 232 277
#     4   8  15  27  44  66  90 116 145 180 225 269
#     4  10  20  31  42  60  91 127 156 186 225 265
#     4  10  17  28  43  62  88 119 154 188 224 262
#
# _framework density 16.297484000000001
#
# number of rings (size 3 to 8) (size 9 to 14) (size 15 to 20)
#    0.000    2.429    1.429    3.857    0.000    3.714 
#    0.000    0.714    0.000    0.000    0.000    1.000 
#    0.000    8.000    0.000    0.000    0.000    0.000 
#
# Total GULP energy -346958.656601 kJ/mol
# GULP energy per Si atom -12391.380593 kJ/mol
# Density = 1.626039 g / cm^3
# Si number density = 16.297484 Si / 1000 Ang^3
#
#
#
# Elastic Constant Matrix: (Units=GPa)
#
#
# Indices 1 2 3 4 5 6 
#
# 1 86.5266 20.1137 58.4911 0.0000 2.9056 0.0000
# 2 20.1137 42.3300 24.3113 0.0000 -2.8347 0.0000
# 3 58.4911 24.3113 116.2944 0.0000 -7.9681 0.0000
# 4 0.0000 0.0000 0.0000 19.6563 0.0000 -3.2710
# 5 2.9056 -2.8347 -7.9681 0.0000 16.6724 0.0000
# 6 0.0000 0.0000 0.0000 -3.2710 0.0000 14.4647
#
#
#
# Elastic Compliance Matrix: (Units=1/GPa)
#
#
# Indices 1 2 3 4 5 6 
#
# 1 0.019138 -0.004319 -0.009306 0.000000 -0.008517 0.000000
# 2 -0.004319 0.027883 -0.003391 0.000000 0.003873 0.000000
# 3 -0.009306 -0.003391 0.014536 0.000000 0.007992 0.000000
# 4 0.000000 0.000000 0.000000 0.052864 0.000000 0.011954
# 5 -0.008517 0.003873 0.007992 0.000000 0.065942 0.000000
# 6 0.000000 0.000000 0.000000 0.011954 0.000000 0.071837
#
#
# Mechanical properties :
#
#
# Convention : Reuss Voigt Hill
#
# Bulk Modulus (GPa) = 36.33203 50.10924 43.22064
# Shear Modulus (GPa) = 16.92571 19.64099 18.28335
#
# Velocity S-wave (km/s) = 3.22615 3.47530 3.35304
# Velocity P-wave (km/s) = 6.01820 6.84960 6.44732
#
# Compressibility (1/GPa) = 0.02752392
#
# Stress axis : x y z
#
# Youngs Moduli (GPa) = 52.25152 35.86372 68.79426
#
# Poissons Ratio (x) = 0.15491 0.64022
# Poissons Ratio (y) = 0.22569 0.23330
# Poissons Ratio (z) = 0.48627 0.12162
#
# Static dielectric constant tensor:
#      x y z
#    x 2.854070 0.000000 -0.006640 
#    y 0.000000 3.040730 0.000000 
#    z -0.006640 0.000000 3.469670 
# 
# 
# High freq. dielectric constant tensor:
#      x y z
#    x 1.579070 0.000000 -0.007760 
#    y 0.000000 1.624860 0.000000 
#    z -0.007760 0.000000 1.632300 
# 
# From -- ./inp_files/65783.got.cif
#   From: 2010.06.25/outbox.cif.g09.slc.cpg/sg10_33_cif.got.tgz:65783.got - 2010.06.27 22:07:45.
