data_PCOD8057345
_publ_section_title
;
Structure prediction by ZEFSAII (Michael W. Deem and Ramdas Pophale) SiO2 
 PCOD8057345
Probable space group: P 2/M
;
_chemical_formula_sum "Si O2"
_cell_formula_units_Z 32
_cell_length_a 14.011159
_cell_length_b 13.993321
_cell_length_c 9.239559
_cell_angle_alpha 90.000000
_cell_angle_beta 118.079965
_cell_angle_gamma 90.000000
_cell_volume 1598.299647
_symmetry_space_group_name_H-M "P 2/M"
_symmetry_group_IT_number 10
_symmetry_cell_setting 'monoclinic'
loop_
_space_group_symop_operation_xyz
x,y,z
-x,y,-z
-x,-y,-z
x,-y,z
loop_
_atom_site_type_symbol
_atom_site_label
_atom_site_fract_x
_atom_site_fract_y
_atom_site_fract_z
Si Si1 0.936042 0.110834 0.087646
Si Si2 0.926393 0.795728 0.583864
Si Si3 0.303316 0.113861 0.017989
Si Si4 0.239134 0.392858 0.814108
Si Si5 0.296963 0.795069 0.703250
Si Si6 0.449795 0.392839 0.116047
Si Si7 0.000102 0.397215 0.330305
Si Si8 0.506839 0.784142 0.676446
O O1 0.011824 0.124439 0.280816
O O2 0.921032 0.000000 0.047217
O O3 0.815157 0.153107 0.019085
O O4 0.000000 0.159840 0.000000
O O5 0.809587 0.835604 0.454142
O O6 0.000000 0.772812 0.500000
O O7 0.922073 0.691199 0.662491
O O8 0.393043 0.155036 0.190579
O O9 0.310522 0.000000 0.024636
O O10 0.323283 0.150736 0.870410
O O11 0.240314 0.500000 0.745325
O O12 0.275818 0.317862 0.716180
O O13 0.122989 0.368261 0.799900
O O14 0.320641 0.388676 0.007566
O O15 0.395080 0.819361 0.666679
O O16 0.492479 0.500000 0.177021
O O17 0.481574 0.327066 0.273253
O O18 0.500000 0.354125 0.000000
O O19 0.033506 0.500000 0.281506
O O20 0.000000 0.414088 0.500000
O O21 0.500000 0.796505 0.500000
#
# Coordination Sequence:
#
# PCOD8057345 Si02
#       8
#     4   4   4   4   4   4   4   4
#     4  10  23  42  65  92 123 157 191 240 308 375
#     4  11  20  34  61  95 122 153 198 249 299 351
#     4  11  24  45  68  88 116 157 204 253 306 366
#     4  10  17  29  55  87 118 153 198 248 294 347
#     4  12  22  39  60  92 123 158 209 254 298 362
#     4  10  19  35  61  86 112 155 207 254 297 349
#     4   9  16  27  47  85 124 150 184 235 291 344
#     4  12  27  41  59  87 126 164 205 256 307 364
#
# _framework density 20.021277000000001
#
# number of rings (size 3 to 8) (size 9 to 14) (size 15 to 20)
#    0.000    1.375    6.250    0.375    1.750    2.250 
#    0.000    0.000    0.000    0.375    0.000    0.000 
#    0.000    0.000    0.000    0.000    0.000    0.000 
#
# Total GULP energy -396580.247822 kJ/mol
# GULP energy per Si atom -12393.132744 kJ/mol
# Density = 1.997571 g / cm^3
# Si number density = 20.021277 Si / 1000 Ang^3
#
#
#
# Elastic Constant Matrix: (Units=GPa)
#
#
# Indices 1 2 3 4 5 6 
#
# 1 109.3598 27.1367 75.1606 0.0000 7.1659 0.0000
# 2 27.1367 64.6795 38.1284 0.0000 -3.1837 0.0000
# 3 75.1606 38.1284 130.8373 0.0000 15.9129 0.0000
# 4 0.0000 0.0000 0.0000 19.1100 0.0000 6.7807
# 5 7.1659 -3.1837 15.9129 0.0000 35.4704 0.0000
# 6 0.0000 0.0000 0.0000 6.7807 0.0000 20.2286
#
#
#
# Elastic Compliance Matrix: (Units=1/GPa)
#
#
# Indices 1 2 3 4 5 6 
#
# 1 0.015238 -0.001406 -0.008413 0.000000 0.000570 0.000000
# 2 -0.001406 0.019455 -0.005404 0.000000 0.004455 0.000000
# 3 -0.008413 -0.005404 0.014706 0.000000 -0.005383 0.000000
# 4 0.000000 0.000000 0.000000 0.059393 0.000000 -0.019909
# 5 0.000570 0.004455 -0.005383 0.000000 0.030892 0.000000
# 6 0.000000 0.000000 0.000000 -0.019909 0.000000 0.056108
#
#
# Mechanical properties :
#
#
# Convention : Reuss Voigt Hill
#
# Bulk Modulus (GPa) = 52.76113 65.08090 58.92101
# Shear Modulus (GPa) = 21.50028 25.92519 23.71274
#
# Velocity S-wave (km/s) = 3.28055 3.60235 3.44521
# Velocity P-wave (km/s) = 6.38429 7.06251 6.73194
#
# Compressibility (1/GPa) = 0.01895335
#
# Stress axis : x y z
#
# Youngs Moduli (GPa) = 65.62661 51.39936 68.00133
#
# Poissons Ratio (x) = 0.07224 0.57210
# Poissons Ratio (y) = 0.09224 0.36748
# Poissons Ratio (z) = 0.55213 0.27777
#
# Static dielectric constant tensor:
#      x y z
#    x 3.883280 0.000000 0.407350 
#    y 0.000000 3.778630 0.000000 
#    z 0.407350 0.000000 3.573250 
# 
# 
# High freq. dielectric constant tensor:
#      x y z
#    x 1.765520 0.000000 0.040460 
#    y 0.000000 1.786420 0.000000 
#    z 0.040460 0.000000 1.762720 
# 
# From -- ./inp_files/29568.got.cif
#   From: 2010.06.25/outbox.cif.g09.slc.cpg/sg10_15_cif.got.tgz:29568.got - 2010.06.27 22:07:45.
