data_PCOD8057982
_publ_section_title
;
Structure prediction by ZEFSAII (Michael W. Deem and Ramdas Pophale) SiO2 
 PCOD8057982
Probable space group: P 2/M
;
_chemical_formula_sum "Si O2"
_cell_formula_units_Z 28
_cell_length_a 31.674829
_cell_length_b 8.960130
_cell_length_c 9.652675
_cell_angle_alpha 90.000000
_cell_angle_beta 34.655269
_cell_angle_gamma 90.000000
_cell_volume 1557.800253
_symmetry_space_group_name_H-M "P 2/M"
_symmetry_group_IT_number 10
_symmetry_cell_setting 'monoclinic'
loop_
_space_group_symop_operation_xyz
x,y,z
-x,y,-z
-x,-y,-z
x,-y,z
loop_
_atom_site_type_symbol
_atom_site_label
_atom_site_fract_x
_atom_site_fract_y
_atom_site_fract_z
Si Si1 0.305401 0.828627 0.212449
Si Si2 0.758839 0.675208 0.129042
Si Si3 0.452923 0.174220 0.950666
Si Si4 0.593844 0.322599 0.639029
Si Si5 0.916822 0.176130 0.201457
Si Si6 0.189285 0.323893 0.714520
Si Si7 0.798133 0.172008 0.747903
O O1 0.263145 0.723358 0.433884
O O2 0.278282 0.794003 0.129443
O O3 0.284833 0.000000 0.305183
O O4 0.393813 0.801135 0.985801
O O5 0.762861 0.500000 0.107104
O O6 0.672877 0.726115 0.363644
O O7 0.801606 0.729486 0.151334
O O8 0.800422 0.740101 0.884409
O O9 0.528876 0.263579 0.711165
O O10 0.470813 0.000000 0.922789
O O11 0.416621 0.239613 0.187428
O O12 0.587907 0.500000 0.676747
O O13 0.884334 0.249459 0.149963
O O14 0.867362 0.224157 0.466714
O O15 0.914792 0.000000 0.185239
O O16 0.000000 0.235329 0.000000
O O17 0.181431 0.500000 0.725026
O O18 0.805315 0.000000 0.766728
#
# Coordination Sequence:
#
# PCOD8057982 Si02
#       7
#     4   4   4   4   4   4   4
#     4   9  18  33  51  74 102 132 174 220 260 305
#     4  10  21  35  49  73 107 140 172 210 254 303
#     4  10  18  29  48  74  99 128 173 222 264 301
#     4  10  19  31  46  68 102 137 171 213 259 304
#     4   9  19  38  60  82 107 132 164 207 252 302
#     4  10  19  32  53  79 104 134 174 210 247 299
#     4   9  19  34  54  77 100 133 170 207 254 305
#
# _framework density 17.974063000000001
#
# number of rings (size 3 to 8) (size 9 to 14) (size 15 to 20)
#    0.000    2.429    1.429    3.000    0.000    5.429 
#    0.000    1.429    0.000    8.571    0.000    0.000 
#    0.000    0.000    0.000    0.000    0.000    0.000 
#
# Total GULP energy -347126.678228 kJ/mol
# GULP energy per Si atom -12397.381365 kJ/mol
# Density = 1.793315 g / cm^3
# Si number density = 17.974063 Si / 1000 Ang^3
#
#
#
# Elastic Constant Matrix: (Units=GPa)
#
#
# Indices 1 2 3 4 5 6 
#
# 1 146.8174 41.6127 73.2073 0.0000 -10.8965 0.0000
# 2 41.6127 49.5024 30.9138 0.0000 -2.4026 0.0000
# 3 73.2073 30.9138 85.2179 0.0000 -5.3691 0.0000
# 4 0.0000 0.0000 0.0000 16.5209 0.0000 1.2538
# 5 -10.8965 -2.4026 -5.3691 0.0000 32.8774 0.0000
# 6 0.0000 0.0000 0.0000 1.2538 0.0000 28.2350
#
#
#
# Elastic Compliance Matrix: (Units=1/GPa)
#
#
# Indices 1 2 3 4 5 6 
#
# 1 0.013010 -0.005087 -0.009177 0.000000 0.002441 0.000000
# 2 -0.005087 0.028111 -0.005865 0.000000 -0.000589 0.000000
# 3 -0.009177 -0.005865 0.021751 0.000000 0.000082 0.000000
# 4 0.000000 0.000000 0.000000 0.060734 0.000000 -0.002697
# 5 0.002441 -0.000589 0.000082 0.000000 0.031195 0.000000
# 6 0.000000 0.000000 0.000000 -0.002697 0.000000 0.035537
#
#
# Mechanical properties :
#
#
# Convention : Reuss Voigt Hill
#
# Bulk Modulus (GPa) = 44.21977 63.66727 53.94352
# Shear Modulus (GPa) = 20.99645 24.58027 22.78836
#
# Velocity S-wave (km/s) = 3.42153 3.70204 3.56455
# Velocity P-wave (km/s) = 6.34544 7.33295 6.85699
#
# Compressibility (1/GPa) = 0.02261432
#
# Stress axis : x y z
#
# Youngs Moduli (GPa) = 76.86186 35.57309 45.97434
#
# Poissons Ratio (x) = 0.18096 0.42193
# Poissons Ratio (y) = 0.39100 0.26963
# Poissons Ratio (z) = 0.70540 0.20863
#
# Static dielectric constant tensor:
#      x y z
#    x 3.619860 0.000000 -0.243070 
#    y 0.000000 3.274720 0.000000 
#    z -0.243070 0.000000 3.177570 
# 
# 
# High freq. dielectric constant tensor:
#      x y z
#    x 1.702120 0.000000 -0.013700 
#    y 0.000000 1.697470 0.000000 
#    z -0.013700 0.000000 1.665690 
# 
# From -- ./inp_files/37916.got.cif
#   From: 2010.06.25/outbox.cif.g09.slc.cpg/sg10_19_cif.got.tgz:37916.got - 2010.06.27 22:07:45.
