data_PCOD8057652
_publ_section_title
;
Structure prediction by ZEFSAII (Michael W. Deem and Ramdas Pophale) SiO2 
 PCOD8057652
Probable space group: P 2/M
;
_chemical_formula_sum "Si O2"
_cell_formula_units_Z 26
_cell_length_a 17.541319
_cell_length_b 13.776634
_cell_length_c 11.284245
_cell_angle_alpha 90.000000
_cell_angle_beta 34.811197
_cell_angle_gamma 90.000000
_cell_volume 1556.747441
_symmetry_space_group_name_H-M "P 2/M"
_symmetry_group_IT_number 10
_symmetry_cell_setting 'monoclinic'
loop_
_space_group_symop_operation_xyz
x,y,z
-x,y,-z
-x,-y,-z
x,-y,z
loop_
_atom_site_type_symbol
_atom_site_label
_atom_site_fract_x
_atom_site_fract_y
_atom_site_fract_z
Si Si1 0.797954 0.614148 0.438696
Si Si2 0.701545 0.389229 0.039941
Si Si3 0.569526 0.713198 0.596804
Si Si4 0.000000 0.300909 0.000000
Si Si5 0.229956 0.246738 0.862370
Si Si6 0.578790 0.893794 0.279082
Si Si7 0.868754 0.613214 0.607179
O O1 0.759091 0.500000 0.489862
O O2 0.670149 0.680952 0.571434
O O3 0.843079 0.655024 0.508922
O O4 0.914620 0.629762 0.194155
O O5 0.730380 0.500000 0.033600
O O6 0.547237 0.365892 0.258897
O O7 0.798264 0.329613 0.004404
O O8 0.741007 0.365852 0.853570
O O9 0.645651 0.715021 0.374534
O O10 0.501858 0.819754 0.704920
O O11 0.097617 0.230847 0.951993
O O12 0.274504 0.148919 0.874302
O O13 0.500000 0.908075 0.500000
O O14 0.595593 0.000000 0.196270
O O15 0.895782 0.500000 0.556409
O O16 0.000000 0.661174 0.500000
#
# Coordination Sequence:
#
# PCOD8057652 Si02
#       7
#     4   4   4   2   4   4   4
#     4  10  19  30  44  64  93 124 152 181 216 258
#     4  10  18  28  43  61  87 120 150 185 223 255
#     4   9  18  29  43  68  92 112 146 186 222 267
#     4  10  19  30  43  62  94 124 149 180 217 260
#     4   9  18  29  43  66  91 115 149 185 216 263
#     4   8  14  28  48  66  87 114 141 179 232 273
#     4   9  18  30  42  59  84 119 161 189 207 249
#
# _framework density 16.701488000000001
#
# number of rings (size 3 to 8) (size 9 to 14) (size 15 to 20)
#    0.000    2.769    0.000    3.000    0.000    6.154 
#    0.000    2.692    0.000    0.923    0.000    8.615 
#    0.000   15.385    0.000    0.000    0.000    0.000 
#
# Total GULP energy -322196.068479 kJ/mol
# GULP energy per Si atom -12392.156480 kJ/mol
# Density = 1.666347 g / cm^3
# Si number density = 16.701488 Si / 1000 Ang^3
#
#
#
# Elastic Constant Matrix: (Units=GPa)
#
#
# Indices 1 2 3 4 5 6 
#
# 1 128.2001 52.7845 37.3208 0.0000 -13.3297 0.0000
# 2 52.7845 98.7952 26.8305 0.0000 -5.8911 0.0000
# 3 37.3208 26.8305 52.4702 0.0000 -10.9063 0.0000
# 4 0.0000 0.0000 0.0000 3.5879 0.0000 -4.4222
# 5 -13.3297 -5.8911 -10.9063 0.0000 26.8748 0.0000
# 6 0.0000 0.0000 0.0000 -4.4222 0.0000 16.4430
#
#
#
# Elastic Compliance Matrix: (Units=1/GPa)
#
#
# Indices 1 2 3 4 5 6 
#
# 1 0.011481 -0.004539 -0.005317 0.000000 0.002542 0.000000
# 2 -0.004539 0.013549 -0.003878 0.000000 -0.000855 0.000000
# 3 -0.005317 -0.003878 0.026318 0.000000 0.007193 0.000000
# 4 0.000000 0.000000 0.000000 0.416918 0.000000 0.112126
# 5 0.002542 -0.000855 0.007193 0.000000 0.041202 0.000000
# 6 0.000000 0.000000 0.000000 0.112126 0.000000 0.090971
#
#
# Mechanical properties :
#
#
# Convention : Reuss Voigt Hill
#
# Bulk Modulus (GPa) = 41.87309 57.03746 49.45528
# Shear Modulus (GPa) = 7.86327 20.21643 14.03985
#
# Velocity S-wave (km/s) = 2.17218 3.48294 2.90252
# Velocity P-wave (km/s) = 5.60509 7.09928 6.39597
#
# Compressibility (1/GPa) = 0.02388169
#
# Stress axis : x y z
#
# Youngs Moduli (GPa) = 87.09885 73.80631 37.99621
#
# Poissons Ratio (x) = 0.33498 0.20203
# Poissons Ratio (y) = 0.39531 0.14734
# Poissons Ratio (z) = 0.46312 0.28620
#
# Static dielectric constant tensor:
#      x y z
#    x 3.297620 0.000000 -0.083140 
#    y 0.000000 3.073940 0.000000 
#    z -0.083140 0.000000 3.080220 
# 
# 
# High freq. dielectric constant tensor:
#      x y z
#    x 1.642600 0.000000 -0.010180 
#    y 0.000000 1.605270 0.000000 
#    z -0.010180 0.000000 1.635710 
# 
# From -- ./inp_files/47457.got.cif
#   From: 2010.06.25/outbox.cif.g09.slc.cpg/sg10_24_cif.got.tgz:47457.got - 2010.06.27 22:07:45.
