data_PCOD8057546
_publ_section_title
;
Structure prediction by ZEFSAII (Michael W. Deem and Ramdas Pophale) SiO2 
 PCOD8057546
Probable space group: P 2/M
;
_chemical_formula_sum "Si O2"
_cell_formula_units_Z 32
_cell_length_a 16.558497
_cell_length_b 8.899189
_cell_length_c 13.999098
_cell_angle_alpha 90.000000
_cell_angle_beta 85.340636
_cell_angle_gamma 90.000000
_cell_volume 2056.050542
_symmetry_space_group_name_H-M "P 2/M"
_symmetry_group_IT_number 10
_symmetry_cell_setting 'monoclinic'
loop_
_space_group_symop_operation_xyz
x,y,z
-x,y,-z
-x,-y,-z
x,-y,z
loop_
_atom_site_type_symbol
_atom_site_label
_atom_site_fract_x
_atom_site_fract_y
_atom_site_fract_z
Si Si1 0.066791 0.678101 0.421299
Si Si2 0.090470 0.830992 0.029976
Si Si3 0.146950 0.324321 0.844470
Si Si4 0.559648 0.832623 0.362657
Si Si5 0.030378 0.323862 0.213824
Si Si6 0.269463 0.820077 0.691333
Si Si7 0.390489 0.169702 0.423052
Si Si8 0.764120 0.677129 0.506419
O O1 0.058597 0.500000 0.420312
O O2 0.049838 0.740255 0.316868
O O3 0.155436 0.728498 0.446149
O O4 0.000000 0.746101 0.500000
O O5 0.091126 0.758273 0.134907
O O6 0.124881 0.000000 0.032022
O O7 0.145808 0.732715 0.953727
O O8 0.000000 0.829577 0.000000
O O9 0.166021 0.500000 0.841163
O O10 0.217861 0.235819 0.784966
O O11 0.062936 0.286812 0.799761
O O12 0.637130 0.760432 0.300443
O O13 0.586753 0.836709 0.469101
O O14 0.469759 0.757115 0.360627
O O15 0.546593 0.000000 0.325359
O O16 0.047212 0.500000 0.203011
O O17 0.233756 0.754897 0.596739
O O18 0.268078 0.000000 0.684501
O O19 0.311175 0.272832 0.419156
O O20 0.371902 0.000000 0.388675
O O21 0.760787 0.500000 0.490350
#
# Coordination Sequence:
#
# PCOD8057546 Si02
#       8
#     4   4   4   4   4   4   4   4
#     4   9  17  29  43  58  80 112 146 175 202 235
#     4   9  17  29  44  62  83 105 131 167 210 249
#     4  10  18  28  44  64  83 105 136 170 205 246
#     4   7  12  23  39  55  73 104 138 162 193 244
#     4   9  17  30  46  60  78 109 145 175 202 236
#     4  10  18  28  41  58  83 112 139 167 203 245
#     4   8  13  25  41  54  73 103 137 168 200 240
#     4  10  18  27  40  59  81 107 142 178 208 238
#
# _framework density 15.56382
#
# number of rings (size 3 to 8) (size 9 to 14) (size 15 to 20)
#    0.000    3.000    0.000    3.750    0.000    4.000 
#    0.000    6.875    0.000    2.625    0.000    0.000 
#    0.000    1.000    0.000   11.500    0.000    3.750 
#
# Total GULP energy -396473.885495 kJ/mol
# GULP energy per Si atom -12389.808922 kJ/mol
# Density = 1.552840 g / cm^3
# Si number density = 15.563820 Si / 1000 Ang^3
#
#
#
# Elastic Constant Matrix: (Units=GPa)
#
#
# Indices 1 2 3 4 5 6 
#
# 1 114.5678 36.5492 55.2938 0.0000 -20.4590 0.0000
# 2 36.5492 53.8185 27.8614 0.0000 -9.6709 0.0000
# 3 55.2938 27.8614 99.2475 0.0000 -15.4892 0.0000
# 4 0.0000 0.0000 0.0000 15.5993 0.0000 -7.2188
# 5 -20.4590 -9.6709 -15.4892 0.0000 17.7439 0.0000
# 6 0.0000 0.0000 0.0000 -7.2188 0.0000 20.5099
#
#
#
# Elastic Compliance Matrix: (Units=1/GPa)
#
#
# Indices 1 2 3 4 5 6 
#
# 1 0.014674 -0.005623 -0.005134 0.000000 0.009373 0.000000
# 2 -0.005623 0.024806 -0.003164 0.000000 0.004274 0.000000
# 3 -0.005134 -0.003164 0.014623 0.000000 0.005122 0.000000
# 4 0.000000 0.000000 0.000000 0.076578 0.000000 0.026953
# 5 0.009373 0.004274 0.005122 0.000000 0.073965 0.000000
# 6 0.000000 0.000000 0.000000 0.026953 0.000000 0.058244
#
#
# Mechanical properties :
#
#
# Convention : Reuss Voigt Hill
#
# Bulk Modulus (GPa) = 38.07860 56.33808 47.20834
# Shear Modulus (GPa) = 16.69529 20.63258 18.66394
#
# Velocity S-wave (km/s) = 3.27876 3.64493 3.46669
# Velocity P-wave (km/s) = 6.23321 7.34784 6.81336
#
# Compressibility (1/GPa) = 0.02626147
#
# Stress axis : x y z
#
# Youngs Moduli (GPa) = 68.14807 40.31328 68.38315
#
# Poissons Ratio (x) = 0.22669 0.35107
# Poissons Ratio (y) = 0.38322 0.21634
# Poissons Ratio (z) = 0.34986 0.12754
#
# Static dielectric constant tensor:
#      x y z
#    x 3.302060 0.000000 -0.301210 
#    y 0.000000 2.876930 0.000000 
#    z -0.301210 0.000000 2.857460 
# 
# 
# High freq. dielectric constant tensor:
#      x y z
#    x 1.589960 0.000000 -0.027750 
#    y 0.000000 1.584730 0.000000 
#    z -0.027750 0.000000 1.563580 
# 
# From -- ./inp_files/66125.got.cif
#   From: 2010.06.25/outbox.cif.g09.slc.cpg/sg10_34_cif.got.tgz:66125.got - 2010.06.27 22:07:45.
