data_PCOD8057013
_publ_section_title
;
Structure prediction by ZEFSAII (Michael W. Deem and Ramdas Pophale) SiO2 
 PCOD8057013
Probable space group: P 2/M
;
_chemical_formula_sum "Si O2"
_cell_formula_units_Z 28
_cell_length_a 29.192248
_cell_length_b 9.104204
_cell_length_c 14.571180
_cell_angle_alpha 90.000000
_cell_angle_beta 27.412589
_cell_angle_gamma 90.000000
_cell_volume 1782.931651
_symmetry_space_group_name_H-M "P 2/M"
_symmetry_group_IT_number 10
_symmetry_cell_setting 'monoclinic'
loop_
_space_group_symop_operation_xyz
x,y,z
-x,y,-z
-x,-y,-z
x,-y,z
loop_
_atom_site_type_symbol
_atom_site_label
_atom_site_fract_x
_atom_site_fract_y
_atom_site_fract_z
Si Si1 0.128515 0.827246 0.346703
Si Si2 0.770870 0.332318 0.390398
Si Si3 0.088287 0.826288 0.218467
Si Si4 0.909360 0.666863 0.305415
Si Si5 0.250430 0.172144 0.296733
Si Si6 0.612400 0.325290 0.814833
Si Si7 0.868617 0.327471 0.038817
O O1 0.142562 0.775155 0.216565
O O2 0.225292 0.784615 0.235321
O O3 0.025559 0.765869 0.574281
O O4 0.112470 0.000000 0.374073
O O5 0.741347 0.500000 0.427939
O O6 0.874243 0.318961 0.262434
O O7 0.679349 0.261605 0.611239
O O8 0.789296 0.265310 0.255676
O O9 0.147234 0.752354 0.029717
O O10 0.093537 0.000000 0.195151
O O11 0.888258 0.500000 0.377765
O O12 0.847395 0.783659 0.473658
O O13 0.023843 0.708615 0.110307
O O14 0.347120 0.258762 0.161345
O O15 0.270369 0.000000 0.272119
O O16 0.621232 0.500000 0.806550
O O17 0.500000 0.272554 0.000000
O O18 0.854543 0.500000 0.048587
#
# Coordination Sequence:
#
# PCOD8057013 Si02
#       7
#     4   4   4   4   4   4   4
#     4   8  15  27  42  58  81 117 150 173 205 249
#     4   8  15  27  42  59  82 112 141 169 207 257
#     4   9  16  28  42  56  82 119 152 175 201 245
#     4   9  16  26  39  57  84 118 147 168 197 247
#     4  10  17  27  45  66  86 110 142 178 213 247
#     4   9  18  33  50  66  84 109 140 173 214 263
#     4  10  17  25  39  61  86 113 144 176 208 240
#
# _framework density 15.704471
#
# number of rings (size 3 to 8) (size 9 to 14) (size 15 to 20)
#    0.000    3.000    1.429    2.571    0.000    2.000 
#    0.000    5.714    0.000    4.286    0.000    1.000 
#    0.000    8.000    0.000    0.000    0.000    0.000 
#
# Total GULP energy -346883.326089 kJ/mol
# GULP energy per Si atom -12388.690217 kJ/mol
# Density = 1.566873 g / cm^3
# Si number density = 15.704471 Si / 1000 Ang^3
#
#
#
# Elastic Constant Matrix: (Units=GPa)
#
#
# Indices 1 2 3 4 5 6 
#
# 1 126.8739 31.4251 63.6223 0.0000 8.0474 0.0000
# 2 31.4251 27.6314 19.5332 0.0000 -0.3355 0.0000
# 3 63.6223 19.5332 72.7652 0.0000 4.4488 0.0000
# 4 0.0000 0.0000 0.0000 7.6244 0.0000 5.5634
# 5 8.0474 -0.3355 4.4488 0.0000 22.6572 0.0000
# 6 0.0000 0.0000 0.0000 5.5634 0.0000 22.4866
#
#
#
# Elastic Compliance Matrix: (Units=1/GPa)
#
#
# Indices 1 2 3 4 5 6 
#
# 1 0.016429 -0.010787 -0.011238 0.000000 -0.003788 0.000000
# 2 -0.010787 0.051959 -0.004856 0.000000 0.005554 0.000000
# 3 -0.011238 -0.004856 0.024932 0.000000 -0.000976 0.000000
# 4 0.000000 0.000000 0.000000 0.160053 0.000000 -0.039599
# 5 -0.003788 0.005554 -0.000976 0.000000 0.045756 0.000000
# 6 0.000000 0.000000 0.000000 -0.039599 0.000000 0.054268
#
#
# Mechanical properties :
#
#
# Convention : Reuss Voigt Hill
#
# Bulk Modulus (GPa) = 25.27884 50.71462 37.99673
# Shear Modulus (GPa) = 11.89506 18.06630 14.98068
#
# Velocity S-wave (km/s) = 2.75513 3.39542 3.09190
# Velocity P-wave (km/s) = 5.12372 6.90906 6.08225
#
# Compressibility (1/GPa) = 0.03955877
#
# Stress axis : x y z
#
# Youngs Moduli (GPa) = 60.86776 19.24605 40.10971
#
# Poissons Ratio (x) = 0.20760 0.45073
# Poissons Ratio (y) = 0.65656 0.19478
# Poissons Ratio (z) = 0.68400 0.09346
#
# Static dielectric constant tensor:
#      x y z
#    x 3.246700 0.000000 0.154020 
#    y 0.000000 2.736210 0.000000 
#    z 0.154020 0.000000 2.877090 
# 
# 
# High freq. dielectric constant tensor:
#      x y z
#    x 1.602670 0.000000 0.015670 
#    y 0.000000 1.577220 0.000000 
#    z 0.015670 0.000000 1.565690 
# 
# From -- ./inp_files/65732.got.cif
#   From: 2010.06.25/outbox.cif.g09.slc.cpg/sg10_33_cif.got.tgz:65732.got - 2010.06.27 22:07:45.
