data_PCOD8057856
_publ_section_title
;
Structure prediction by ZEFSAII (Michael W. Deem and Ramdas Pophale) SiO2 
 PCOD8057856
Probable space group: P 2/M
;
_chemical_formula_sum "Si O2"
_cell_formula_units_Z 28
_cell_length_a 21.913558
_cell_length_b 8.951848
_cell_length_c 14.513792
_cell_angle_alpha 90.000000
_cell_angle_beta 142.278958
_cell_angle_gamma 90.000000
_cell_volume 1741.920948
_symmetry_space_group_name_H-M "P 2/M"
_symmetry_group_IT_number 10
_symmetry_cell_setting 'monoclinic'
loop_
_space_group_symop_operation_xyz
x,y,z
-x,y,-z
-x,-y,-z
x,-y,z
loop_
_atom_site_type_symbol
_atom_site_label
_atom_site_fract_x
_atom_site_fract_y
_atom_site_fract_z
Si Si1 0.632082 0.177569 0.733989
Si Si2 0.113698 0.821675 0.641275
Si Si3 0.752464 0.833804 0.040042
Si Si4 0.386141 0.328037 0.672631
Si Si5 0.725785 0.671747 0.283513
Si Si6 0.411212 0.823402 0.518084
Si Si7 0.579564 0.832093 0.977374
O O1 0.648659 0.220871 0.646951
O O2 0.524729 0.234515 0.641889
O O3 0.631126 0.000000 0.743466
O O4 0.722431 0.244304 0.906204
O O5 0.161750 0.756353 0.794439
O O6 0.173485 0.757612 0.625315
O O7 0.000000 0.768417 0.500000
O O8 0.124765 0.000000 0.651533
O O9 0.791324 0.000000 0.065462
O O10 0.650138 0.836058 0.973655
O O11 0.416467 0.500000 0.696990
O O12 0.290428 0.311612 0.625845
O O13 0.358467 0.259370 0.540226
O O14 0.476809 0.240755 0.825948
O O15 0.736732 0.500000 0.267266
O O16 0.628502 0.738320 0.117888
O O17 0.407508 0.000000 0.530906
O O18 0.560065 0.000000 0.989637
#
# Coordination Sequence:
#
# PCOD8057856 Si02
#       7
#     4   4   4   4   4   4   4
#     4   8  13  24  42  64  86 113 151 189 220 258
#     4   9  18  32  50  72  92 111 144 189 228 268
#     4   8  13  24  44  66  88 113 141 177 224 266
#     4  11  21  30  40  60  93 126 153 184 222 263
#     4  10  21  33  44  62  90 122 151 182 224 273
#     4   9  16  26  43  62  84 117 157 190 214 255
#     4  10  18  29  46  65  87 120 157 188 218 258
#
# _framework density 16.074207999999999
#
# number of rings (size 3 to 8) (size 9 to 14) (size 15 to 20)
#    0.000    2.714    1.429    3.429    0.000    4.286 
#    0.000    1.429    0.000    0.000    0.000    1.000 
#    0.000    8.000    0.000    0.000    0.000    0.000 
#
# Total GULP energy -346924.859024 kJ/mol
# GULP energy per Si atom -12390.173537 kJ/mol
# Density = 1.603762 g / cm^3
# Si number density = 16.074208 Si / 1000 Ang^3
#
#
#
# Elastic Constant Matrix: (Units=GPa)
#
#
# Indices 1 2 3 4 5 6 
#
# 1 91.6730 27.9177 62.3909 0.0000 -18.2652 0.0000
# 2 27.9177 47.1192 24.8819 0.0000 0.4181 0.0000
# 3 62.3909 24.8819 103.4701 0.0000 -7.4590 0.0000
# 4 0.0000 0.0000 0.0000 3.3224 0.0000 6.3928
# 5 -18.2652 0.4181 -7.4590 0.0000 18.3926 0.0000
# 6 0.0000 0.0000 0.0000 6.3928 0.0000 15.0461
#
#
#
# Elastic Compliance Matrix: (Units=1/GPa)
#
#
# Indices 1 2 3 4 5 6 
#
# 1 0.026174 -0.009365 -0.011992 0.000000 0.021343 0.000000
# 2 -0.009365 0.027823 -0.001813 0.000000 -0.010668 0.000000
# 3 -0.011992 -0.001813 0.016972 0.000000 -0.004985 0.000000
# 4 0.000000 0.000000 0.000000 1.649703 0.000000 -0.700930
# 5 0.021343 -0.010668 -0.004985 0.000000 0.073785 0.000000
# 6 0.000000 0.000000 0.000000 -0.700930 0.000000 0.364276
#
#
# Mechanical properties :
#
#
# Convention : Reuss Voigt Hill
#
# Bulk Modulus (GPa) = 40.60071 52.51592 46.55832
# Shear Modulus (GPa) = 2.25909 15.82366 9.04137
#
# Velocity S-wave (km/s) = 1.18679 3.14094 2.37423
# Velocity P-wave (km/s) = 5.21451 6.77465 6.04512
#
# Compressibility (1/GPa) = 0.02463011
#
# Stress axis : x y z
#
# Youngs Moduli (GPa) = 38.20559 35.94108 58.91948
#
# Poissons Ratio (x) = 0.33658 0.70657
# Poissons Ratio (y) = 0.35779 0.10682
# Poissons Ratio (z) = 0.45817 0.06516
#
# Static dielectric constant tensor:
#      x y z
#    x 3.099460 0.000000 -0.328770 
#    y 0.000000 2.882560 0.000000 
#    z -0.328770 0.000000 3.102570 
# 
# 
# High freq. dielectric constant tensor:
#      x y z
#    x 1.605140 0.000000 -0.027560 
#    y 0.000000 1.597790 0.000000 
#    z -0.027560 0.000000 1.592790 
# 
# From -- ./inp_files/65736.got.cif
#   From: 2010.06.25/outbox.cif.g09.slc.cpg/sg10_33_cif.got.tgz:65736.got - 2010.06.27 22:07:45.
