data_PCOD8057398
_publ_section_title
;
Structure prediction by ZEFSAII (Michael W. Deem and Ramdas Pophale) SiO2 
 PCOD8057398
Probable space group: P 2/M
;
_chemical_formula_sum "Si O2"
_cell_formula_units_Z 22
_cell_length_a 14.216374
_cell_length_b 9.487372
_cell_length_c 8.894544
_cell_angle_alpha 90.000000
_cell_angle_beta 105.025504
_cell_angle_gamma 90.000000
_cell_volume 1158.644997
_symmetry_space_group_name_H-M "P 2/M"
_symmetry_group_IT_number 10
_symmetry_cell_setting 'monoclinic'
loop_
_space_group_symop_operation_xyz
x,y,z
-x,y,-z
-x,-y,-z
x,-y,z
loop_
_atom_site_type_symbol
_atom_site_label
_atom_site_fract_x
_atom_site_fract_y
_atom_site_fract_z
Si Si1 0.952263 0.165128 0.822538
Si Si2 0.574597 0.000000 0.259107
Si Si3 0.121029 0.155768 0.665374
Si Si4 0.362734 0.000000 0.236041
Si Si5 0.607684 0.233175 0.513496
Si Si6 0.735322 0.000000 0.097519
Si Si7 0.813130 0.659754 0.582669
O O1 0.854978 0.254360 0.744135
O O2 0.023347 0.199181 0.711797
O O3 0.926580 0.000000 0.821876
O O4 0.000000 0.215026 0.000000
O O5 0.460766 0.000000 0.177797
O O6 0.604791 0.861508 0.363922
O O7 0.628410 0.000000 0.123566
O O8 0.148387 0.271400 0.555142
O O9 0.108944 0.000000 0.582026
O O10 0.206112 0.140257 0.826508
O O11 0.360454 0.861445 0.333874
O O12 0.271327 0.000000 0.085251
O O13 0.500000 0.301204 0.500000
O O14 0.694718 0.345276 0.533438
O O15 0.850758 0.500000 0.605514
#
# Coordination Sequence:
#
# PCOD8057398 Si02
#       7
#     4   2   4   2   4   2   4
#     4  10  23  39  62  87 111 140 182 232 285 330
#     4   9  15  33  52  86 113 143 176 241 281 323
#     4   9  20  37  57  83 110 142 187 224 272 327
#     4   9  19  27  58  88 115 136 184 238 292 309
#     4   9  19  35  54  83 115 145 183 230 278 333
#     4  10  17  30  56  88 111 142 177 233 275 342
#     4  12  24  37  58  80 110 157 188 224 275 323
#
# _framework density 18.987698999999999
#
# number of rings (size 3 to 8) (size 9 to 14) (size 15 to 20)
#    0.545    1.636    1.818    2.455    6.364    3.636 
#    0.000    0.000    0.000    0.000    0.000    2.545 
#    0.000    0.000    0.000    0.000    0.000    0.000 
#
# Total GULP energy -272617.247252 kJ/mol
# GULP energy per Si atom -12391.693057 kJ/mol
# Density = 1.894448 g / cm^3
# Si number density = 18.987699 Si / 1000 Ang^3
#
#
#
# Elastic Constant Matrix: (Units=GPa)
#
#
# Indices 1 2 3 4 5 6 
#
# 1 89.5128 32.9657 25.3892 0.0000 1.7086 0.0000
# 2 32.9657 81.5396 36.7172 0.0000 6.8789 0.0000
# 3 25.3892 36.7172 95.0197 0.0000 24.3310 0.0000
# 4 0.0000 0.0000 0.0000 5.7356 0.0000 6.1188
# 5 1.7086 6.8789 24.3310 0.0000 28.3049 0.0000
# 6 0.0000 0.0000 0.0000 6.1188 0.0000 15.2893
#
#
#
# Elastic Compliance Matrix: (Units=1/GPa)
#
#
# Indices 1 2 3 4 5 6 
#
# 1 0.013501 -0.004551 -0.002466 0.000000 0.002411 0.000000
# 2 -0.004551 0.016446 -0.005367 0.000000 0.000891 0.000000
# 3 -0.002466 -0.005367 0.016521 0.000000 -0.012749 0.000000
# 4 0.000000 0.000000 0.000000 0.304248 0.000000 -0.121761
# 5 0.002411 0.000891 -0.012749 0.000000 0.045926 0.000000
# 6 0.000000 0.000000 0.000000 -0.121761 0.000000 0.114135
#
#
# Mechanical properties :
#
#
# Convention : Reuss Voigt Hill
#
# Bulk Modulus (GPa) = 46.08457 50.69071 48.38764
# Shear Modulus (GPa) = 9.21185 21.26594 15.23890
#
# Velocity S-wave (km/s) = 2.20500 3.35025 2.83603
# Velocity P-wave (km/s) = 5.55033 6.45911 6.02189
#
# Compressibility (1/GPa) = 0.02169923
#
# Stress axis : x y z
#
# Youngs Moduli (GPa) = 74.06736 60.80661 60.52733
#
# Poissons Ratio (x) = 0.27675 0.14927
# Poissons Ratio (y) = 0.33710 0.32485
# Poissons Ratio (z) = 0.18267 0.32635
#
# Static dielectric constant tensor:
#      x y z
#    x 3.698370 0.000000 0.102440 
#    y 0.000000 2.931650 0.000000 
#    z 0.102440 0.000000 3.330460 
# 
# 
# High freq. dielectric constant tensor:
#      x y z
#    x 1.758580 0.000000 0.006350 
#    y 0.000000 1.683570 0.000000 
#    z 0.006350 0.000000 1.737220 
# 
# From -- ./inp_files/27369.got.cif
#   From: 2010.06.25/outbox.cif.g09.slc.cpg/sg10_14_cif.got.tgz:27369.got - 2010.06.27 22:07:45.
