data_PCOD8057774
_publ_section_title
;
Structure prediction by ZEFSAII (Michael W. Deem and Ramdas Pophale) SiO2 
 PCOD8057774
Probable space group: P 2/M
;
_chemical_formula_sum "Si O2"
_cell_formula_units_Z 32
_cell_length_a 11.665806
_cell_length_b 8.973981
_cell_length_c 21.489373
_cell_angle_alpha 90.000000
_cell_angle_beta 52.379311
_cell_angle_gamma 90.000000
_cell_volume 1781.914271
_symmetry_space_group_name_H-M "P 2/M"
_symmetry_group_IT_number 10
_symmetry_cell_setting 'monoclinic'
loop_
_space_group_symop_operation_xyz
x,y,z
-x,y,-z
-x,-y,-z
x,-y,z
loop_
_atom_site_type_symbol
_atom_site_label
_atom_site_fract_x
_atom_site_fract_y
_atom_site_fract_z
Si Si1 0.459963 0.826173 0.581637
Si Si2 0.729759 0.169293 0.194697
Si Si3 0.548546 0.325294 0.670859
Si Si4 0.653927 0.830906 0.088547
Si Si5 0.866851 0.168612 0.271469
Si Si6 0.340796 0.324085 0.037570
Si Si7 0.147156 0.675578 0.215558
Si Si8 0.656285 0.175404 0.751596
O O1 0.500000 0.767488 0.500000
O O2 0.562949 0.739638 0.596290
O O3 0.291400 0.792540 0.649928
O O4 0.494076 0.000000 0.577356
O O5 0.612698 0.291580 0.252222
O O6 0.766182 0.190767 0.109416
O O7 0.866283 0.187909 0.195807
O O8 0.664822 0.000000 0.225136
O O9 0.579191 0.500000 0.660131
O O10 0.660325 0.246430 0.681220
O O11 0.493732 0.782829 0.164133
O O12 0.652560 0.000000 0.065542
O O13 0.709529 0.731441 0.013350
O O14 0.979411 0.282013 0.264462
O O15 0.911236 0.000000 0.274305
O O16 0.343280 0.500000 0.035128
O O17 0.230882 0.266176 0.126459
O O18 0.500000 0.259698 0.000000
O O19 0.163632 0.500000 0.218672
O O20 0.210857 0.755739 0.254683
O O21 0.677086 0.000000 0.738836
#
# Coordination Sequence:
#
# PCOD8057774 Si02
#       8
#     4   4   4   4   4   4   4   4
#     4   9  18  35  59  83 107 136 168 202 242 293
#     4   8  16  32  50  70  97 131 170 211 252 301
#     4  10  18  28  48  79 109 133 163 206 252 295
#     4   9  17  29  49  73  93 120 168 222 260 293
#     4   9  18  34  54  75 102 133 167 204 247 301
#     4  10  20  33  46  65  98 134 169 211 259 308
#     4  11  22  34  49  71 101 136 173 212 258 306
#     4  10  19  32  50  72  99 133 174 214 254 300
#
# _framework density 17.958214999999999
#
# number of rings (size 3 to 8) (size 9 to 14) (size 15 to 20)
#    0.000    2.500    1.250    3.375    0.000    5.500 
#    0.000    0.625    0.000    4.500    0.000    5.250 
#    0.000    0.000    0.000    0.000    0.000    0.000 
#
# Total GULP energy -396684.280204 kJ/mol
# GULP energy per Si atom -12396.383756 kJ/mol
# Density = 1.791734 g / cm^3
# Si number density = 17.958215 Si / 1000 Ang^3
#
#
#
# Elastic Constant Matrix: (Units=GPa)
#
#
# Indices 1 2 3 4 5 6 
#
# 1 125.7760 52.2777 52.0509 0.0000 28.3008 0.0000
# 2 52.2777 76.6803 33.0368 0.0000 16.0861 0.0000
# 3 52.0509 33.0368 74.7638 0.0000 28.9511 0.0000
# 4 0.0000 0.0000 0.0000 21.4236 0.0000 4.0404
# 5 28.3008 16.0861 28.9511 0.0000 31.9277 0.0000
# 6 0.0000 0.0000 0.0000 4.0404 0.0000 25.4634
#
#
#
# Elastic Compliance Matrix: (Units=1/GPa)
#
#
# Indices 1 2 3 4 5 6 
#
# 1 0.013584 -0.006175 -0.005041 0.000000 -0.004359 0.000000
# 2 -0.006175 0.019052 -0.003887 0.000000 -0.000601 0.000000
# 3 -0.005041 -0.003887 0.024834 0.000000 -0.016092 0.000000
# 4 0.000000 0.000000 0.000000 0.048118 0.000000 -0.007635
# 5 -0.004359 -0.000601 -0.016092 0.000000 0.050079 0.000000
# 6 0.000000 0.000000 0.000000 -0.007635 0.000000 0.040484
#
#
# Mechanical properties :
#
#
# Convention : Reuss Voigt Hill
#
# Bulk Modulus (GPa) = 36.67788 61.32788 49.00288
# Shear Modulus (GPa) = 21.23654 25.08657 23.16155
#
# Velocity S-wave (km/s) = 3.44256 3.74162 3.59520
# Velocity P-wave (km/s) = 6.02245 7.27260 6.67685
#
# Compressibility (1/GPa) = 0.02726439
#
# Stress axis : x y z
#
# Youngs Moduli (GPa) = 73.61571 52.48891 40.26764
#
# Poissons Ratio (x) = 0.32411 0.20298
# Poissons Ratio (y) = 0.45457 0.15652
# Poissons Ratio (z) = 0.37108 0.20402
#
# Static dielectric constant tensor:
#      x y z
#    x 3.400980 0.000000 0.371670 
#    y 0.000000 3.176030 0.000000 
#    z 0.371670 0.000000 3.144620 
# 
# 
# High freq. dielectric constant tensor:
#      x y z
#    x 1.693610 0.000000 0.034300 
#    y 0.000000 1.692040 0.000000 
#    z 0.034300 0.000000 1.658730 
# 
# From -- ./inp_files/75973.got.cif
#   From: 2010.06.25/outbox.cif.g09.slc.cpg/sg10_38_cif.got.tgz:75973.got - 2010.06.27 22:07:45.
