data_PCOD8057264
_publ_section_title
;
Structure prediction by ZEFSAII (Michael W. Deem and Ramdas Pophale) SiO2 
 PCOD8057264
Probable space group: P 2/M
;
_chemical_formula_sum "Si O2"
_cell_formula_units_Z 20
_cell_length_a 12.637606
_cell_length_b 9.065208
_cell_length_c 18.294338
_cell_angle_alpha 90.000000
_cell_angle_beta 146.423458
_cell_angle_gamma 90.000000
_cell_volume 1159.108429
_symmetry_space_group_name_H-M "P 2/M"
_symmetry_group_IT_number 10
_symmetry_cell_setting 'monoclinic'
loop_
_space_group_symop_operation_xyz
x,y,z
-x,y,-z
-x,-y,-z
x,-y,z
loop_
_atom_site_type_symbol
_atom_site_label
_atom_site_fract_x
_atom_site_fract_y
_atom_site_fract_z
Si Si1 0.634046 0.674651 0.410756
Si Si2 0.781231 0.825962 0.358385
Si Si3 0.672176 0.662872 0.656079
Si Si4 0.906177 0.827393 0.682042
Si Si5 0.691194 0.173549 0.145156
O O1 0.667166 0.500000 0.428584
O O2 0.643311 0.742211 0.335467
O O3 0.422377 0.712621 0.321348
O O4 0.798818 0.745338 0.555072
O O5 0.726375 0.764867 0.246833
O O6 0.000000 0.783789 0.500000
O O7 0.748738 0.000000 0.347934
O O8 0.500000 0.658511 0.500000
O O9 0.764369 0.500000 0.715900
O O10 0.834488 0.774947 0.720878
O O11 0.130238 0.789122 0.804531
O O12 0.866366 0.000000 0.650048
O O13 0.665153 0.000000 0.137341
O O14 0.500000 0.244933 0.000000
#
# Coordination Sequence:
#
# PCOD8057264 Si02
#       5
#     4   4   4   4   4
#     4  10  19  30  46  70 100 129 157 193 243 289
#     4  10  18  31  50  73  97 122 160 203 238 277
#     4   8  16  29  43  65  97 128 156 193 242 286
#     4  10  17  28  48  72  96 124 163 200 234 281
#     4   9  18  32  49  70  99 130 155 191 245 290
#
# _framework density 17.254640999999999
#
# number of rings (size 3 to 8) (size 9 to 14) (size 15 to 20)
#    0.000    2.600    2.000    2.400    0.000    4.800 
#    0.000    0.000    0.000    6.600    0.000    8.400 
#    0.000    0.000    0.000    0.000    0.000    0.000 
#
# Total GULP energy -247910.923783 kJ/mol
# GULP energy per Si atom -12395.546189 kJ/mol
# Density = 1.721537 g / cm^3
# Si number density = 17.254641 Si / 1000 Ang^3
#
#
#
# Elastic Constant Matrix: (Units=GPa)
#
#
# Indices 1 2 3 4 5 6 
#
# 1 168.6925 56.4381 59.3197 0.0000 4.0767 0.0000
# 2 56.4381 61.7470 28.2175 0.0000 4.3561 0.0000
# 3 59.3197 28.2175 90.8729 0.0000 2.3438 0.0000
# 4 0.0000 0.0000 0.0000 2.3048 0.0000 -3.6277
# 5 4.0767 4.3561 2.3438 0.0000 17.6439 0.0000
# 6 0.0000 0.0000 0.0000 -3.6277 0.0000 28.3841
#
#
#
# Elastic Compliance Matrix: (Units=1/GPa)
#
#
# Indices 1 2 3 4 5 6 
#
# 1 0.009738 -0.006989 -0.004187 0.000000 0.000032 0.000000
# 2 -0.006989 0.024161 -0.002837 0.000000 -0.003973 0.000000
# 3 -0.004187 -0.002837 0.014626 0.000000 -0.000275 0.000000
# 4 0.000000 0.000000 0.000000 0.543150 0.000000 0.069419
# 5 0.000032 -0.003973 -0.000275 0.000000 0.057687 0.000000
# 6 0.000000 0.000000 0.000000 0.069419 0.000000 0.044103
#
#
# Mechanical properties :
#
#
# Convention : Reuss Voigt Hill
#
# Bulk Modulus (GPa) = 48.78876 67.69588 58.24232
# Shear Modulus (GPa) = 6.86507 21.48903 14.17705
#
# Velocity S-wave (km/s) = 1.99683 3.53286 2.86953
# Velocity P-wave (km/s) = 5.80117 7.48065 6.69379
#
# Compressibility (1/GPa) = 0.02049653
#
# Stress axis : x y z
#
# Youngs Moduli (GPa) = 102.69054 41.38982 68.37241
#
# Poissons Ratio (x) = 0.28929 0.28629
# Poissons Ratio (y) = 0.71775 0.19399
# Poissons Ratio (z) = 0.42999 0.11743
#
# Static dielectric constant tensor:
#      x y z
#    x 3.721030 0.000000 0.027450 
#    y 0.000000 3.099130 0.000000 
#    z 0.027450 0.000000 2.985920 
# 
# 
# High freq. dielectric constant tensor:
#      x y z
#    x 1.687480 0.000000 0.005510 
#    y 0.000000 1.652300 0.000000 
#    z 0.005510 0.000000 1.614070 
# 
# From -- ./inp_files/31424.got.cif
#   From: 2010.06.25/outbox.cif.g09.slc.cpg/sg10_16_cif.got.tgz:31424.got - 2010.06.27 22:07:45.
