data_PCOD8057206
_publ_section_title
;
Structure prediction by ZEFSAII (Michael W. Deem and Ramdas Pophale) SiO2 
 PCOD8057206
Probable space group: P 2/M
;
_chemical_formula_sum "Si O2"
_cell_formula_units_Z 32
_cell_length_a 26.664860
_cell_length_b 8.542949
_cell_length_c 21.315731
_cell_angle_alpha 90.000000
_cell_angle_beta 20.026040
_cell_angle_gamma 90.000000
_cell_volume 1662.803578
_symmetry_space_group_name_H-M "P 2/M"
_symmetry_group_IT_number 10
_symmetry_cell_setting 'monoclinic'
loop_
_space_group_symop_operation_xyz
x,y,z
-x,y,-z
-x,-y,-z
x,-y,z
loop_
_atom_site_type_symbol
_atom_site_label
_atom_site_fract_x
_atom_site_fract_y
_atom_site_fract_z
Si Si1 0.941900 0.815705 0.884734
Si Si2 0.126422 0.813843 0.895994
Si Si3 0.553494 0.821759 0.507706
Si Si4 0.316656 0.818214 0.262277
Si Si5 0.669862 0.317103 0.136626
Si Si6 0.372358 0.681194 0.075714
Si Si7 0.542974 0.314770 0.155860
Si Si8 0.223849 0.684527 0.491707
O O1 0.092974 0.731390 0.691022
O O2 0.968170 0.000000 0.854283
O O3 0.893294 0.751545 0.010056
O O4 0.816615 0.774488 0.982112
O O5 0.280307 0.758577 0.685942
O O6 0.122449 0.000000 0.902482
O O7 0.000000 0.744900 0.000000
O O8 0.500000 0.813392 0.500000
O O9 0.457551 0.708836 0.663173
O O10 0.540502 0.000000 0.547934
O O11 0.269267 0.778491 0.245689
O O12 0.197697 0.767372 0.454298
O O13 0.354659 0.000000 0.223448
O O14 0.457543 0.711071 0.109360
O O15 0.706531 0.500000 0.089426
O O16 0.614763 0.247522 0.134797
O O17 0.334550 0.500000 0.128396
O O18 0.353174 0.733706 0.025375
O O19 0.533043 0.500000 0.172425
O O20 0.376355 0.252372 0.342647
O O21 0.225953 0.500000 0.479043
#
# Coordination Sequence:
#
# PCOD8057206 Si02
#       8
#     4   4   4   4   4   4   4   4
#     4  11  22  38  56  79 108 141 179 221 268 323
#     4   9  19  35  55  78 106 138 173 216 270 322
#     4  10  19  36  57  77 103 137 178 222 264 315
#     4  10  17  27  46  77 110 140 175 219 265 316
#     4  11  22  37  56  79 108 144 181 220 265 317
#     4   9  15  28  49  73 105 143 178 219 266 313
#     4   8  18  34  53  78 109 141 179 221 264 315
#     4  10  20  36  55  78 108 143 180 221 269 320
#
# _framework density 19.244606000000001
#
# number of rings (size 3 to 8) (size 9 to 14) (size 15 to 20)
#    0.000    2.250    1.250    4.125    1.750    0.250 
#    0.000    6.875    0.000    2.625    0.000    5.250 
#    0.000    0.000    0.000    0.000    0.000    0.000 
#
# Total GULP energy -396662.978289 kJ/mol
# GULP energy per Si atom -12395.718072 kJ/mol
# Density = 1.920080 g / cm^3
# Si number density = 19.244606 Si / 1000 Ang^3
#
#
#
# Elastic Constant Matrix: (Units=GPa)
#
#
# Indices 1 2 3 4 5 6 
#
# 1 117.1175 22.2969 40.3593 0.0000 5.7488 0.0000
# 2 22.2969 47.4769 13.4687 0.0000 4.5733 0.0000
# 3 40.3593 13.4687 50.3943 0.0000 -3.9583 0.0000
# 4 0.0000 0.0000 0.0000 28.8430 0.0000 4.2623
# 5 5.7488 4.5733 -3.9583 0.0000 31.4098 0.0000
# 6 0.0000 0.0000 0.0000 4.2623 0.0000 16.0810
#
#
#
# Elastic Compliance Matrix: (Units=1/GPa)
#
#
# Indices 1 2 3 4 5 6 
#
# 1 0.012507 -0.002888 -0.009486 0.000000 -0.003064 0.000000
# 2 -0.002888 0.024000 -0.004378 0.000000 -0.003518 0.000000
# 3 -0.009486 -0.004378 0.029085 0.000000 0.006039 0.000000
# 4 0.000000 0.000000 0.000000 0.036084 0.000000 -0.009564
# 5 -0.003064 -0.003518 0.006039 0.000000 0.033671 0.000000
# 6 0.000000 0.000000 0.000000 -0.009564 0.000000 0.064720
#
#
# Mechanical properties :
#
#
# Convention : Reuss Voigt Hill
#
# Bulk Modulus (GPa) = 31.16307 40.80426 35.98367
# Shear Modulus (GPa) = 20.46945 24.52435 22.49690
#
# Velocity S-wave (km/s) = 3.26490 3.57368 3.42277
# Velocity P-wave (km/s) = 5.51734 6.18686 5.86166
#
# Compressibility (1/GPa) = 0.03208926
#
# Stress axis : x y z
#
# Youngs Moduli (GPa) = 79.95244 41.66681 34.38235
#
# Poissons Ratio (x) = 0.12033 0.32614
# Poissons Ratio (y) = 0.23089 0.15052
# Poissons Ratio (z) = 0.75840 0.18241
#
# Static dielectric constant tensor:
#      x y z
#    x 3.972280 0.000000 0.348300 
#    y 0.000000 3.248950 0.000000 
#    z 0.348300 0.000000 3.613200 
# 
# 
# High freq. dielectric constant tensor:
#      x y z
#    x 1.748420 0.000000 0.026760 
#    y 0.000000 1.730440 0.000000 
#    z 0.026760 0.000000 1.733440 
# 
# From -- ./inp_files/86783.got.cif
#   From: 2010.06.25/outbox.cif.g09.slc.cpg/sg10_44_cif.got.tgz:86783.got - 2010.06.27 22:07:45.
