data_PCOD8057865
_publ_section_title
;
Structure prediction by ZEFSAII (Michael W. Deem and Ramdas Pophale) SiO2 
 PCOD8057865
Probable space group: P 2/M
;
_chemical_formula_sum "Si O2"
_cell_formula_units_Z 24
_cell_length_a 21.738685
_cell_length_b 9.005286
_cell_length_c 12.151089
_cell_angle_alpha 90.000000
_cell_angle_beta 37.653839
_cell_angle_gamma 90.000000
_cell_volume 1453.143686
_symmetry_space_group_name_H-M "P 2/M"
_symmetry_group_IT_number 10
_symmetry_cell_setting 'monoclinic'
loop_
_space_group_symop_operation_xyz
x,y,z
-x,y,-z
-x,-y,-z
x,-y,z
loop_
_atom_site_type_symbol
_atom_site_label
_atom_site_fract_x
_atom_site_fract_y
_atom_site_fract_z
Si Si1 0.658267 0.828672 0.602142
Si Si2 0.725412 0.825509 0.748455
Si Si3 0.991263 0.674384 0.852722
Si Si4 0.466997 0.332174 0.920898
Si Si5 0.855158 0.825649 0.202557
Si Si6 0.932826 0.672317 0.492480
O O1 0.710133 0.778491 0.643056
O O2 0.556715 0.737554 0.720685
O O3 0.736935 0.798397 0.392239
O O4 0.627518 0.000000 0.653779
O O5 0.831240 0.765502 0.640552
O O6 0.723158 0.000000 0.767710
O O7 0.636770 0.756432 0.949048
O O8 0.992063 0.500000 0.878014
O O9 0.082497 0.752776 0.786730
O O10 0.002310 0.706898 0.708224
O O11 0.886359 0.747039 0.043698
O O12 0.449817 0.500000 0.906708
O O13 0.500000 0.320454 0.000000
O O14 0.879851 0.000000 0.163527
O O15 0.903050 0.500000 0.540461
O O16 0.000000 0.721948 0.500000
#
# Coordination Sequence:
#
# PCOD8057865 Si02
#       6
#     4   4   4   4   4   4
#     4   9  17  28  43  66  94 124 152 183 228 278
#     4  10  18  30  46  65  92 123 156 193 231 275
#     4  10  19  30  45  66  91 121 158 194 231 275
#     4   9  17  27  42  65  92 122 153 186 227 276
#     4  10  18  29  46  67  95 125 152 186 233 280
#     4  10  21  35  49  66  92 126 162 199 235 272
#
# _framework density 16.515917000000002
#
# number of rings (size 3 to 8) (size 9 to 14) (size 15 to 20)
#    0.000    2.333    1.667    3.000    0.000    5.000 
#    0.000    0.000    0.000    0.000    0.000    1.167 
#    0.000    9.333    0.000    0.000    0.000    0.000 
#
# Total GULP energy -297579.358332 kJ/mol
# GULP energy per Si atom -12399.139931 kJ/mol
# Density = 1.647833 g / cm^3
# Si number density = 16.515917 Si / 1000 Ang^3
#
#
#
# Elastic Constant Matrix: (Units=GPa)
#
#
# Indices 1 2 3 4 5 6 
#
# 1 62.2008 40.9316 52.1644 0.0000 -3.2682 0.0000
# 2 40.9316 99.7731 67.4531 0.0000 -12.6044 0.0000
# 3 52.1644 67.4531 143.7578 0.0000 -17.9179 0.0000
# 4 0.0000 0.0000 0.0000 29.6383 0.0000 -8.7936
# 5 -3.2682 -12.6044 -17.9179 0.0000 22.8136 0.0000
# 6 0.0000 0.0000 0.0000 -8.7936 0.0000 16.6645
#
#
#
# Elastic Compliance Matrix: (Units=1/GPa)
#
#
# Indices 1 2 3 4 5 6 
#
# 1 0.026035 -0.006624 -0.007017 0.000000 -0.005441 0.000000
# 2 -0.006624 0.016551 -0.004812 0.000000 0.004416 0.000000
# 3 -0.007017 -0.004812 0.012530 0.000000 0.006177 0.000000
# 4 0.000000 0.000000 0.000000 0.040003 0.000000 0.021109
# 5 -0.005441 0.004416 0.006177 0.000000 0.050346 0.000000
# 6 0.000000 0.000000 0.000000 0.021109 0.000000 0.071147
#
#
# Mechanical properties :
#
#
# Convention : Reuss Voigt Hill
#
# Bulk Modulus (GPa) = 54.91516 69.64775 62.28146
# Shear Modulus (GPa) = 19.26121 23.50213 21.38167
#
# Velocity S-wave (km/s) = 3.41870 3.77636 3.60197
# Velocity P-wave (km/s) = 6.99324 7.82791 7.42232
#
# Compressibility (1/GPa) = 0.01820991
#
# Stress axis : x y z
#
# Youngs Moduli (GPa) = 38.40974 60.41774 79.80657
#
# Poissons Ratio (x) = 0.40021 0.56002
# Poissons Ratio (y) = 0.25443 0.38404
# Poissons Ratio (z) = 0.26953 0.29074
#
# Static dielectric constant tensor:
#      x y z
#    x 2.655300 0.000000 -0.077610 
#    y 0.000000 3.202480 0.000000 
#    z -0.077610 0.000000 3.359380 
# 
# 
# High freq. dielectric constant tensor:
#      x y z
#    x 1.573390 0.000000 -0.016810 
#    y 0.000000 1.650270 0.000000 
#    z -0.016810 0.000000 1.648590 
# 
# From -- ./inp_files/48669.got.cif
#   From: 2010.06.25/outbox.cif.g09.slc.cpg/sg10_25_cif.got.tgz:48669.got - 2010.06.27 22:07:45.
