data_PCOD8057422
_publ_section_title
;
Structure prediction by ZEFSAII (Michael W. Deem and Ramdas Pophale) SiO2 
 PCOD8057422
Probable space group: P 2/M
;
_chemical_formula_sum "Si O2"
_cell_formula_units_Z 28
_cell_length_a 14.074100
_cell_length_b 14.649302
_cell_length_c 9.013041
_cell_angle_alpha 90.000000
_cell_angle_beta 48.854160
_cell_angle_gamma 90.000000
_cell_volume 1399.346769
_symmetry_space_group_name_H-M "P 2/M"
_symmetry_group_IT_number 10
_symmetry_cell_setting 'monoclinic'
loop_
_space_group_symop_operation_xyz
x,y,z
-x,y,-z
-x,-y,-z
x,-y,z
loop_
_atom_site_type_symbol
_atom_site_label
_atom_site_fract_x
_atom_site_fract_y
_atom_site_fract_z
Si Si1 0.628586 0.155294 0.788438
Si Si2 0.741781 0.396269 0.348638
Si Si3 0.462511 0.747580 0.378327
Si Si4 0.038406 0.268205 0.794056
Si Si5 0.615370 0.334864 0.969206
Si Si6 0.170113 0.400543 0.071670
Si Si7 0.900780 0.898316 0.474615
O O1 0.607028 0.167827 0.633155
O O2 0.659823 0.257175 0.810403
O O3 0.755619 0.097221 0.684944
O O4 0.500000 0.115327 0.000000
O O5 0.735353 0.500000 0.414012
O O6 0.615031 0.345335 0.522113
O O7 0.855886 0.345549 0.312357
O O8 0.754827 0.393357 0.158755
O O9 0.500000 0.787219 0.500000
O O10 0.580258 0.717600 0.157215
O O11 0.085368 0.175698 0.669271
O O12 0.925101 0.315474 0.818447
O O13 0.000000 0.241018 0.000000
O O14 0.731913 0.399626 0.890624
O O15 0.500000 0.386593 0.000000
O O16 0.101580 0.500000 0.148475
O O17 0.000000 0.871858 0.500000
O O18 0.932580 0.000000 0.381822
#
# Coordination Sequence:
#
# PCOD8057422 Si02
#       7
#     4   4   4   4   4   4   4
#     4   9  20  38  59  85 117 152 191 238 287 351
#     4  10  19  31  53  83 112 150 195 235 272 329
#     4  10  17  31  55  81 110 151 193 229 281 329
#     4  10  21  38  60  83 114 149 187 238 291 340
#     4   9  19  32  51  75 111 156 188 234 279 328
#     4  10  19  32  52  80 114 153 193 233 276 331
#     4  11  23  40  66  91 113 147 191 240 299 358
#
# _framework density 20.009336000000001
#
# number of rings (size 3 to 8) (size 9 to 14) (size 15 to 20)
#    0.000    2.429    2.857    1.286    0.000    3.429 
#    0.000    2.143    0.000    2.571    0.000    0.000 
#    0.000    0.000    0.000    0.000    0.000    0.000 
#
# Total GULP energy -346922.057281 kJ/mol
# GULP energy per Si atom -12390.073474 kJ/mol
# Density = 1.996379 g / cm^3
# Si number density = 20.009336 Si / 1000 Ang^3
#
#
#
# Elastic Constant Matrix: (Units=GPa)
#
#
# Indices 1 2 3 4 5 6 
#
# 1 141.6837 41.0342 39.2847 0.0000 4.4064 0.0000
# 2 41.0342 81.7493 25.8330 0.0000 -1.1000 0.0000
# 3 39.2847 25.8330 62.3632 0.0000 2.6986 0.0000
# 4 0.0000 0.0000 0.0000 12.3222 0.0000 -2.5667
# 5 4.4064 -1.1000 2.6986 0.0000 28.5715 0.0000
# 6 0.0000 0.0000 0.0000 -2.5667 0.0000 5.0165
#
#
#
# Elastic Compliance Matrix: (Units=1/GPa)
#
#
# Indices 1 2 3 4 5 6 
#
# 1 0.009269 -0.003266 -0.004437 0.000000 -0.001136 0.000000
# 2 -0.003266 0.015260 -0.004329 0.000000 0.001500 0.000000
# 3 -0.004437 -0.004329 0.020685 0.000000 -0.001436 0.000000
# 4 0.000000 0.000000 0.000000 0.090836 0.000000 0.046477
# 5 -0.001136 0.001500 -0.001436 0.000000 0.035369 0.000000
# 6 0.000000 0.000000 0.000000 0.046477 0.000000 0.223120
#
#
# Mechanical properties :
#
#
# Convention : Reuss Voigt Hill
#
# Bulk Modulus (GPa) = 47.27868 55.34444 51.31156
# Shear Modulus (GPa) = 11.74665 21.15834 16.45249
#
# Velocity S-wave (km/s) = 2.42556 3.25533 2.87059
# Velocity P-wave (km/s) = 5.61463 6.46908 6.05694
#
# Compressibility (1/GPa) = 0.02115118
#
# Stress axis : x y z
#
# Youngs Moduli (GPa) = 107.88099 65.53097 48.34316
#
# Poissons Ratio (x) = 0.21402 0.21450
# Poissons Ratio (y) = 0.35234 0.20927
# Poissons Ratio (z) = 0.47868 0.28367
#
# Static dielectric constant tensor:
#      x y z
#    x 3.958940 0.000000 0.029560 
#    y 0.000000 3.381060 0.000000 
#    z 0.029560 0.000000 3.572410 
# 
# 
# High freq. dielectric constant tensor:
#      x y z
#    x 1.791450 0.000000 -0.001830 
#    y 0.000000 1.753180 0.000000 
#    z -0.001830 0.000000 1.767790 
# 
# From -- ./inp_files/29415.got.cif
#   From: 2010.06.25/outbox.cif.g09.slc.cpg/sg10_15_cif.got.tgz:29415.got - 2010.06.27 22:07:45.
