data_PCOD8057494
_publ_section_title
;
Structure prediction by ZEFSAII (Michael W. Deem and Ramdas Pophale) SiO2 
 PCOD8057494
Probable space group: P 2/M
;
_chemical_formula_sum "Si O2"
_cell_formula_units_Z 28
_cell_length_a 5.339415
_cell_length_b 23.092274
_cell_length_c 13.693354
_cell_angle_alpha 90.000000
_cell_angle_beta 101.242612
_cell_angle_gamma 90.000000
_cell_volume 1655.980771
_symmetry_space_group_name_H-M "P 2/M"
_symmetry_group_IT_number 10
_symmetry_cell_setting 'monoclinic'
loop_
_space_group_symop_operation_xyz
x,y,z
-x,y,-z
-x,-y,-z
x,-y,z
loop_
_atom_site_type_symbol
_atom_site_label
_atom_site_fract_x
_atom_site_fract_y
_atom_site_fract_z
Si Si1 0.811697 0.745212 0.623394
Si Si2 0.642434 0.783886 0.284869
Si Si3 0.441121 0.131353 0.882242
Si Si4 0.058897 0.064685 0.117794
Si Si5 0.691337 0.432816 0.382675
Si Si6 0.264455 0.853374 0.528910
Si Si7 0.199200 0.614641 0.398400
O O1 0.600178 0.748586 0.693059
O O2 0.767680 0.792853 0.535360
O O3 0.786316 0.682347 0.572633
O O4 0.092881 0.748586 0.693059
O O5 0.585640 0.806168 0.171279
O O6 0.677275 0.841027 0.354549
O O7 0.671866 0.097155 0.846781
O O8 0.174915 0.097155 0.846781
O O9 0.500000 0.142321 0.000000
O O10 0.081768 0.000000 0.163536
O O11 0.000000 0.060599 0.000000
O O12 0.678045 0.500000 0.356089
O O13 0.750558 0.422794 0.501115
O O14 0.418118 0.402919 0.336566
O O15 0.918448 0.402919 0.336566
O O16 0.500000 0.889151 0.500000
O O17 0.000000 0.889151 0.500000
#
# Coordination Sequence:
#
# PCOD8057494 Si02
#       7
#     4   4   4   4   4   4   4
#     4  10  19  28  42  62  83 112 152 191 213 243
#     4  10  19  29  41  61  91 112 146 181 209 256
#     4  10  19  31  47  67  94 124 143 166 215 263
#     4   9  17  30  49  70  90 112 143 178 211 255
#     4  10  19  27  37  55  79 109 154 181 206 266
#     4   8  16  25  39  54  82 102 138 179 215 229
#     4  10  18  25  41  52  76 109 146 185 215 244
#
# _framework density 16.908408000000001
#
# number of rings (size 3 to 8) (size 9 to 14) (size 15 to 20)
#    0.000    2.429    0.000    4.286   12.000    1.714 
#    0.000    0.000    0.000    0.000    0.000    0.000 
#    0.000  102.857    0.000    0.000    0.000   82.857 
#
# Total GULP energy -346921.423455 kJ/mol
# GULP energy per Si atom -12390.050838 kJ/mol
# Density = 1.686992 g / cm^3
# Si number density = 16.908408 Si / 1000 Ang^3
#
#
#
# Elastic Constant Matrix: (Units=GPa)
#
#
# Indices 1 2 3 4 5 6 
#
# 1 185.2076 20.3851 16.9178 0.0000 6.1089 0.0000
# 2 20.3851 47.5975 16.9635 0.0000 0.1435 0.0000
# 3 16.9178 16.9635 33.1101 0.0000 0.2717 0.0000
# 4 0.0000 0.0000 0.0000 8.2355 0.0000 0.6524
# 5 6.1089 0.1435 0.2717 0.0000 11.5799 0.0000
# 6 0.0000 0.0000 0.0000 0.6524 0.0000 23.7877
#
#
#
# Elastic Compliance Matrix: (Units=1/GPa)
#
#
# Indices 1 2 3 4 5 6 
#
# 1 0.005884 -0.001772 -0.002074 0.000000 -0.003033 0.000000
# 2 -0.001772 0.026236 -0.012544 0.000000 0.000904 0.000000
# 3 -0.002074 -0.012544 0.037686 0.000000 0.000365 0.000000
# 4 0.000000 0.000000 0.000000 0.121690 0.000000 -0.003338
# 5 -0.003033 0.000904 0.000365 0.000000 0.087937 0.000000
# 6 0.000000 0.000000 0.000000 -0.003338 0.000000 0.042130
#
#
# Mechanical properties :
#
#
# Convention : Reuss Voigt Hill
#
# Bulk Modulus (GPa) = 27.00746 41.60534 34.30640
# Shear Modulus (GPa) = 13.63572 22.83054 18.23313
#
# Velocity S-wave (km/s) = 2.84288 3.67856 3.28738
# Velocity P-wave (km/s) = 5.17527 6.53469 5.89430
#
# Compressibility (1/GPa) = 0.03702681
#
# Stress axis : x y z
#
# Youngs Moduli (GPa) = 169.95727 38.11535 26.53536
#
# Poissons Ratio (x) = 0.06753 0.05503
# Poissons Ratio (y) = 0.30111 0.33286
# Poissons Ratio (z) = 0.35245 0.47811
#
# Static dielectric constant tensor:
#      x y z
#    x 4.845440 0.000000 0.093920 
#    y 0.000000 2.861280 0.000000 
#    z 0.093920 0.000000 2.606620 
# 
# 
# High freq. dielectric constant tensor:
#      x y z
#    x 1.700660 0.000000 0.005220 
#    y 0.000000 1.618080 0.000000 
#    z 0.005220 0.000000 1.576310 
# 
# From -- ./inp_files/9957.got.cif
#   From: 2010.06.25/outbox.cif.g09.slc.cpg/sg10_5_cif.got.tgz:9957.got - 2010.06.27 22:07:45.
