data_PCOD8057005
_publ_section_title
;
Structure prediction by ZEFSAII (Michael W. Deem and Ramdas Pophale) SiO2 
 PCOD8057005
Probable space group: P 2/M
;
_chemical_formula_sum "Si O2"
_cell_formula_units_Z 32
_cell_length_a 16.077833
_cell_length_b 9.129597
_cell_length_c 30.599415
_cell_angle_alpha 90.000000
_cell_angle_beta 150.615075
_cell_angle_gamma 90.000000
_cell_volume 2203.868839
_symmetry_space_group_name_H-M "P 2/M"
_symmetry_group_IT_number 10
_symmetry_cell_setting 'monoclinic'
loop_
_space_group_symop_operation_xyz
x,y,z
-x,y,-z
-x,-y,-z
x,-y,z
loop_
_atom_site_type_symbol
_atom_site_label
_atom_site_fract_x
_atom_site_fract_y
_atom_site_fract_z
Si Si1 0.109236 0.327966 0.316091
Si Si2 0.791114 0.826692 0.987414
Si Si3 0.856315 0.672119 0.838986
Si Si4 0.331676 0.329478 0.334484
Si Si5 0.413769 0.827373 0.024130
Si Si6 0.239726 0.173612 0.857160
Si Si7 0.612541 0.165128 0.508470
Si Si8 0.201873 0.338424 0.093676
O O1 0.099436 0.500000 0.319917
O O2 0.192854 0.290671 0.307657
O O3 0.217118 0.256543 0.404744
O O4 0.924007 0.259921 0.233314
O O5 0.653408 0.771845 0.959846
O O6 0.970378 0.761411 0.083614
O O7 0.807560 0.000000 0.993515
O O8 0.728092 0.772109 0.910928
O O9 0.902046 0.500000 0.858832
O O10 0.742067 0.718928 0.745893
O O11 0.750731 0.710102 0.835063
O O12 0.377730 0.500000 0.357173
O O13 0.505181 0.240214 0.420659
O O14 0.292541 0.770028 0.929648
O O15 0.404548 0.000000 0.016868
O O16 0.608614 0.780189 0.106402
O O17 0.203848 0.000000 0.839637
O O18 0.500000 0.167037 0.500000
O O19 0.660151 0.000000 0.516492
O O20 0.274836 0.500000 0.116806
O O21 0.000000 0.341415 0.000000
#
# Coordination Sequence:
#
# PCOD8057005 Si02
#       8
#     4   4   4   4   4   4   4   4
#     4  10  18  27  40  59  81 103 130 163 198 229
#     4  10  17  25  39  58  78 101 133 168 198 226
#     4   9  17  28  40  55  78 107 134 158 192 236
#     4   9  17  28  41  57  79 105 130 161 197 228
#     4   8  16  28  41  57  77 103 133 166 200 231
#     4   9  16  29  44  55  74 105 137 164 194 232
#     4   9  17  28  41  57  77 103 133 160 188 228
#     4   8  15  27  39  52  74 104 133 158 189 233
#
# _framework density 14.519920000000001
#
# number of rings (size 3 to 8) (size 9 to 14) (size 15 to 20)
#    0.000    3.000    0.000    3.375    0.000    4.750 
#    0.000    3.125    0.000    0.000    0.000    0.000 
#    0.000    1.000    0.000   11.500    0.000    3.500 
#
# Total GULP energy -396649.184515 kJ/mol
# GULP energy per Si atom -12395.287016 kJ/mol
# Density = 1.448687 g / cm^3
# Si number density = 14.519920 Si / 1000 Ang^3
#
#
#
# Elastic Constant Matrix: (Units=GPa)
#
#
# Indices 1 2 3 4 5 6 
#
# 1 98.5265 41.1853 53.3380 0.0000 -9.0887 0.0000
# 2 41.1853 68.7011 49.1784 0.0000 -0.9180 0.0000
# 3 53.3380 49.1784 107.7362 0.0000 -4.7668 0.0000
# 4 0.0000 0.0000 0.0000 22.7959 0.0000 -4.3551
# 5 -9.0887 -0.9180 -4.7668 0.0000 21.0318 0.0000
# 6 0.0000 0.0000 0.0000 -4.3551 0.0000 14.2244
#
#
#
# Elastic Compliance Matrix: (Units=1/GPa)
#
#
# Indices 1 2 3 4 5 6 
#
# 1 0.015747 -0.005881 -0.004871 0.000000 0.005444 0.000000
# 2 -0.005881 0.023852 -0.008124 0.000000 -0.003341 0.000000
# 3 -0.004871 -0.008124 0.015448 0.000000 0.001042 0.000000
# 4 0.000000 0.000000 0.000000 0.046593 0.000000 0.014265
# 5 0.005444 -0.003341 0.001042 0.000000 0.049990 0.000000
# 6 0.000000 0.000000 0.000000 0.014265 0.000000 0.074669
#
#
# Mechanical properties :
#
#
# Convention : Reuss Voigt Hill
#
# Bulk Modulus (GPa) = 57.81809 62.48525 60.15167
# Shear Modulus (GPa) = 18.53121 20.36122 19.44622
#
# Velocity S-wave (km/s) = 3.57636 3.74879 3.66359
# Velocity P-wave (km/s) = 7.54719 7.86546 7.70797
#
# Compressibility (1/GPa) = 0.01729562
#
# Stress axis : x y z
#
# Youngs Moduli (GPa) = 63.50541 41.92507 64.73375
#
# Poissons Ratio (x) = 0.24654 0.31530
# Poissons Ratio (y) = 0.37345 0.52591
# Poissons Ratio (z) = 0.30931 0.34061
#
# Static dielectric constant tensor:
#      x y z
#    x 3.028090 0.000000 -0.171840 
#    y 0.000000 2.801590 0.000000 
#    z -0.171840 0.000000 2.770260 
# 
# 
# High freq. dielectric constant tensor:
#      x y z
#    x 1.532080 0.000000 -0.013280 
#    y 0.000000 1.554450 0.000000 
#    z -0.013280 0.000000 1.536240 
# 
# From -- ./inp_files/72533.got.cif
#   From: 2010.06.25/outbox.cif.g09.slc.cpg/sg10_37_cif.got.tgz:72533.got - 2010.06.27 22:07:45.
