data_PCOD8057556
_publ_section_title
;
Structure prediction by ZEFSAII (Michael W. Deem and Ramdas Pophale) SiO2 
 PCOD8057556
Probable space group: P 2/M
;
_chemical_formula_sum "Si O2"
_cell_formula_units_Z 32
_cell_length_a 16.165850
_cell_length_b 9.412200
_cell_length_c 13.868488
_cell_angle_alpha 90.000000
_cell_angle_beta 85.238196
_cell_angle_gamma 90.000000
_cell_volume 2102.893179
_symmetry_space_group_name_H-M "P 2/M"
_symmetry_group_IT_number 10
_symmetry_cell_setting 'monoclinic'
loop_
_space_group_symop_operation_xyz
x,y,z
-x,y,-z
-x,-y,-z
x,-y,z
loop_
_atom_site_type_symbol
_atom_site_label
_atom_site_fract_x
_atom_site_fract_y
_atom_site_fract_z
Si Si1 0.595255 0.343641 0.020966
Si Si2 0.521380 0.665810 0.220270
Si Si3 0.420725 0.663535 0.573393
Si Si4 0.633517 0.832918 0.842913
Si Si5 0.215412 0.836391 0.307771
Si Si6 0.263831 0.167297 0.518464
Si Si7 0.888009 0.339439 0.424066
Si Si8 0.065472 0.659229 0.357785
O O1 0.635744 0.500000 0.002505
O O2 0.642851 0.229049 0.950506
O O3 0.500000 0.348997 0.000000
O O4 0.593879 0.300792 0.134398
O O5 0.495316 0.500000 0.217450
O O6 0.557502 0.706612 0.319952
O O7 0.440109 0.759223 0.208910
O O8 0.500000 0.691337 0.500000
O O9 0.391473 0.500000 0.569008
O O10 0.349203 0.766414 0.544860
O O11 0.718862 0.798246 0.780754
O O12 0.615403 0.000000 0.850296
O O13 0.253568 0.792662 0.407202
O O14 0.129459 0.756080 0.292091
O O15 0.191898 0.000000 0.310368
O O16 0.188428 0.233624 0.588567
O O17 0.265410 0.000000 0.536208
O O18 0.862496 0.500000 0.397482
O O19 0.911208 0.334144 0.533155
O O20 0.969409 0.290426 0.355137
O O21 0.074455 0.500000 0.317173
#
# Coordination Sequence:
#
# PCOD8057556 Si02
#       8
#     4   4   4   4   4   4   4   4
#     4   8  15  28  43  58  77 101 130 166 206 245
#     4   9  18  31  44  58  78 105 137 172 208 241
#     4  10  20  32  45  60  79 107 142 175 205 236
#     4  10  18  27  41  61  83 107 135 166 202 243
#     4   9  18  28  37  56  87 114 134 162 201 242
#     4  10  19  29  41  58  81 111 142 169 201 238
#     4   8  14  26  41  57  78 103 135 172 202 231
#     4   8  14  24  40  59  77 103 137 168 198 234
#
# _framework density 15.217129999999999
#
# number of rings (size 3 to 8) (size 9 to 14) (size 15 to 20)
#    0.000    3.000    0.000    3.000    0.000    5.000 
#    0.000    2.500    0.000    0.000    0.000    0.000 
#    0.000    1.000    0.000   11.250    0.000    6.125 
#
# Total GULP energy -396623.969180 kJ/mol
# GULP energy per Si atom -12394.499037 kJ/mol
# Density = 1.518250 g / cm^3
# Si number density = 15.217130 Si / 1000 Ang^3
#
#
#
# Elastic Constant Matrix: (Units=GPa)
#
#
# Indices 1 2 3 4 5 6 
#
# 1 83.6794 56.8412 42.0950 0.0000 -19.4257 0.0000
# 2 56.8412 83.9671 43.5942 0.0000 -16.3223 0.0000
# 3 42.0950 43.5942 89.7252 0.0000 -13.3744 0.0000
# 4 0.0000 0.0000 0.0000 20.3517 0.0000 -4.5275
# 5 -19.4257 -16.3223 -13.3744 0.0000 17.5177 0.0000
# 6 0.0000 0.0000 0.0000 -4.5275 0.0000 26.8899
#
#
#
# Elastic Compliance Matrix: (Units=1/GPa)
#
#
# Indices 1 2 3 4 5 6 
#
# 1 0.025730 -0.012766 -0.003824 0.000000 0.013718 0.000000
# 2 -0.012766 0.024011 -0.005024 0.000000 0.004381 0.000000
# 3 -0.003824 -0.005024 0.015855 0.000000 0.003183 0.000000
# 4 0.000000 0.000000 0.000000 0.051048 0.000000 0.008595
# 5 0.013718 0.004381 0.003183 0.000000 0.078809 0.000000
# 6 0.000000 0.000000 0.000000 0.008595 0.000000 0.038636
#
#
# Mechanical properties :
#
#
# Convention : Reuss Voigt Hill
#
# Bulk Modulus (GPa) = 44.70664 60.27027 52.48845
# Shear Modulus (GPa) = 17.55782 20.60795 19.08288
#
# Velocity S-wave (km/s) = 3.40048 3.68402 3.54508
# Velocity P-wave (km/s) = 6.69780 7.60190 7.16413
#
# Compressibility (1/GPa) = 0.02236804
#
# Stress axis : x y z
#
# Youngs Moduli (GPa) = 38.86481 41.64739 63.07295
#
# Poissons Ratio (x) = 0.53166 0.24120
# Poissons Ratio (y) = 0.49614 0.31688
# Poissons Ratio (z) = 0.14862 0.20924
#
# Static dielectric constant tensor:
#      x y z
#    x 2.894970 0.000000 -0.241540 
#    y 0.000000 2.997020 0.000000 
#    z -0.241540 0.000000 3.040520 
# 
# 
# High freq. dielectric constant tensor:
#      x y z
#    x 1.561560 0.000000 -0.023870 
#    y 0.000000 1.588240 0.000000 
#    z -0.023870 0.000000 1.557160 
# 
# From -- ./inp_files/66025.got.cif
#   From: 2010.06.25/outbox.cif.g09.slc.cpg/sg10_34_cif.got.tgz:66025.got - 2010.06.27 22:07:45.
