data_PCOD8057773
_publ_section_title
;
Structure prediction by ZEFSAII (Michael W. Deem and Ramdas Pophale) SiO2 
 PCOD8057773
Probable space group: P 2/M
;
_chemical_formula_sum "Si O2"
_cell_formula_units_Z 28
_cell_length_a 16.684317
_cell_length_b 8.922757
_cell_length_c 19.412693
_cell_angle_alpha 90.000000
_cell_angle_beta 148.117122
_cell_angle_gamma 90.000000
_cell_volume 1526.437499
_symmetry_space_group_name_H-M "P 2/M"
_symmetry_group_IT_number 10
_symmetry_cell_setting 'monoclinic'
loop_
_space_group_symop_operation_xyz
x,y,z
-x,y,-z
-x,-y,-z
x,-y,z
loop_
_atom_site_type_symbol
_atom_site_label
_atom_site_fract_x
_atom_site_fract_y
_atom_site_fract_z
Si Si1 0.088539 0.172327 0.257300
Si Si2 0.101249 0.822754 0.011729
Si Si3 0.145956 0.334362 0.654800
Si Si4 0.556737 0.177645 0.737147
Si Si5 0.682723 0.677612 0.349352
Si Si6 0.038394 0.171295 0.375625
Si Si7 0.597574 0.327305 0.503698
O O1 0.007973 0.191078 0.272401
O O2 0.232606 0.278524 0.355321
O O3 0.138811 0.000000 0.281906
O O4 0.969028 0.225104 0.112595
O O5 0.271980 0.759092 0.141158
O O6 0.107888 0.000000 0.024155
O O7 0.000000 0.754751 0.000000
O O8 0.181917 0.500000 0.710262
O O9 0.282778 0.277240 0.705260
O O10 0.000000 0.341296 0.500000
O O11 0.113701 0.225025 0.695445
O O12 0.475999 0.248052 0.745273
O O13 0.467938 0.224798 0.604227
O O14 0.551806 0.000000 0.740493
O O15 0.674131 0.500000 0.350913
O O16 0.814727 0.733205 0.496850
O O17 0.071041 0.000000 0.419348
O O18 0.500000 0.299926 0.500000
O O19 0.594836 0.500000 0.478100
#
# Coordination Sequence:
#
# PCOD8057773 Si02
#       7
#     4   4   4   4   4   4   4
#     4  10  20  35  55  79 106 137 176 220 266 317
#     4   9  19  36  56  77 103 138 179 221 266 318
#     4   8  16  29  46  70 103 143 174 207 259 313
#     4  11  21  34  56  81 104 137 179 221 267 316
#     4  10  19  32  50  74 108 142 174 214 262 316
#     4  10  18  28  48  79 108 135 173 219 263 313
#     4  11  23  36  52  77 107 138 172 216 269 319
#
# _framework density 18.343364999999999
#
# number of rings (size 3 to 8) (size 9 to 14) (size 15 to 20)
#    0.000    2.143    1.429    3.429    0.000    6.000 
#    0.000    1.429    0.000    4.714    0.000    6.000 
#    0.000    0.000    0.000    0.000    0.000    0.000 
#
# Total GULP energy -347183.647977 kJ/mol
# GULP energy per Si atom -12399.415999 kJ/mol
# Density = 1.830161 g / cm^3
# Si number density = 18.343365 Si / 1000 Ang^3
#
#
#
# Elastic Constant Matrix: (Units=GPa)
#
#
# Indices 1 2 3 4 5 6 
#
# 1 150.8029 51.3182 46.4041 0.0000 13.7561 0.0000
# 2 51.3182 70.3051 20.1708 0.0000 4.8795 0.0000
# 3 46.4041 20.1708 73.2777 0.0000 8.1505 0.0000
# 4 0.0000 0.0000 0.0000 5.2295 0.0000 5.8127
# 5 13.7561 4.8795 8.1505 0.0000 27.7469 0.0000
# 6 0.0000 0.0000 0.0000 5.8127 0.0000 30.7042
#
#
#
# Elastic Compliance Matrix: (Units=1/GPa)
#
#
# Indices 1 2 3 4 5 6 
#
# 1 0.010349 -0.006050 -0.004586 0.000000 -0.002720 0.000000
# 2 -0.006050 0.019042 -0.001418 0.000000 0.000067 0.000000
# 3 -0.004586 -0.001418 0.017223 0.000000 -0.002536 0.000000
# 4 0.000000 0.000000 0.000000 0.242182 0.000000 -0.045848
# 5 -0.002720 0.000067 -0.002536 0.000000 0.038122 0.000000
# 6 0.000000 0.000000 0.000000 -0.045848 0.000000 0.041248
#
#
# Mechanical properties :
#
#
# Convention : Reuss Voigt Hill
#
# Bulk Modulus (GPa) = 44.43071 58.90801 51.66936
# Shear Modulus (GPa) = 12.50702 24.50231 18.50467
#
# Velocity S-wave (km/s) = 2.61402 3.65877 3.17960
# Velocity P-wave (km/s) = 5.77798 7.07337 6.45824
#
# Compressibility (1/GPa) = 0.02250696
#
# Stress axis : x y z
#
# Youngs Moduli (GPa) = 96.62635 52.51616 58.06104
#
# Poissons Ratio (x) = 0.31771 0.26626
# Poissons Ratio (y) = 0.58456 0.08233
# Poissons Ratio (z) = 0.44312 0.07447
#
# Static dielectric constant tensor:
#      x y z
#    x 3.921540 0.000000 0.139120 
#    y 0.000000 3.326290 0.000000 
#    z 0.139120 0.000000 3.110870 
# 
# 
# High freq. dielectric constant tensor:
#      x y z
#    x 1.734020 0.000000 0.004370 
#    y 0.000000 1.704330 0.000000 
#    z 0.004370 0.000000 1.670120 
# 
# From -- ./inp_files/85658.got.cif
#   From: 2010.06.25/outbox.cif.g09.slc.cpg/sg10_43_cif.got.tgz:85658.got - 2010.06.27 22:07:45.
