data_PCOD8057766
_publ_section_title
;
Structure prediction by ZEFSAII (Michael W. Deem and Ramdas Pophale) SiO2 
 PCOD8057766
Probable space group: P 2/M
;
_chemical_formula_sum "Si O2"
_cell_formula_units_Z 22
_cell_length_a 17.278159
_cell_length_b 7.964785
_cell_length_c 6.894558
_cell_angle_alpha 90.000000
_cell_angle_beta 103.371762
_cell_angle_gamma 90.000000
_cell_volume 923.084974
_symmetry_space_group_name_H-M "P 2/M"
_symmetry_group_IT_number 10
_symmetry_cell_setting 'monoclinic'
loop_
_space_group_symop_operation_xyz
x,y,z
-x,y,-z
-x,-y,-z
x,-y,z
loop_
_atom_site_type_symbol
_atom_site_label
_atom_site_fract_x
_atom_site_fract_y
_atom_site_fract_z
Si Si1 0.112641 0.500000 0.953014
Si Si2 0.611230 0.186498 0.897162
Si Si3 0.077169 0.180704 0.425775
Si Si4 0.706770 0.500000 0.020738
Si Si5 0.561904 0.813961 0.313693
Si Si6 0.343962 0.500000 0.567462
Si Si7 0.000000 0.240611 0.000000
Si Si8 0.832740 0.500000 0.589351
O O1 0.197982 0.500000 0.898886
O O2 0.058110 0.338961 0.881120
O O3 0.117873 0.500000 0.188011
O O4 0.675526 0.333367 0.889296
O O5 0.533444 0.210320 0.714638
O O6 0.648307 0.000000 0.882852
O O7 0.582513 0.201626 0.100428
O O8 0.055747 0.144509 0.185393
O O9 0.142120 0.327848 0.506182
O O10 0.000000 0.232043 0.500000
O O11 0.111775 0.000000 0.519352
O O12 0.672623 0.500000 0.214574
O O13 0.607696 0.668964 0.460167
O O14 0.587013 0.000000 0.404305
O O15 0.260126 0.500000 0.407683
#
# Coordination Sequence:
#
# PCOD8057766 Si02
#       8
#     2   4   4   2   4   2   2   2
#     4   9  20  36  54  76 100 143 175 210 265 322
#     4   8  14  26  44  69 100 130 164 213 259 300
#     4  10  21  37  60  84 104 138 181 220 267 321
#     4  10  18  28  48  75 100 123 172 217 257 307
#     4   8  14  26  44  68 100 133 167 206 254 309
#     4  10  19  27  48  76  99 133 167 207 263 305
#     4   9  19  38  60  77 109 142 181 219 266 319
#     4  10  22  37  51  73 111 140 167 213 266 316
#
# _framework density 23.833126
#
# number of rings (size 3 to 8) (size 9 to 14) (size 15 to 20)
#    0.000    2.909    0.000    2.727    2.545    2.909 
#    0.000    4.545    0.000    2.182    0.000    2.545 
#    0.000    0.000    0.000    0.000    0.000    0.000 
#
# Total GULP energy -272538.755550 kJ/mol
# GULP energy per Si atom -12388.125252 kJ/mol
# Density = 2.377888 g / cm^3
# Si number density = 23.833126 Si / 1000 Ang^3
#
#
#
# Elastic Constant Matrix: (Units=GPa)
#
#
# Indices 1 2 3 4 5 6 
#
# 1 113.6241 85.5685 2.4683 0.0000 16.4625 0.0000
# 2 85.5685 214.9390 3.1815 0.0000 23.5877 0.0000
# 3 2.4683 3.1815 20.9699 0.0000 10.2733 0.0000
# 4 0.0000 0.0000 0.0000 10.8072 0.0000 18.5586
# 5 16.4625 23.5877 10.2733 0.0000 30.9500 0.0000
# 6 0.0000 0.0000 0.0000 18.5586 0.0000 38.4053
#
#
#
# Elastic Compliance Matrix: (Units=1/GPa)
#
#
# Indices 1 2 3 4 5 6 
#
# 1 0.012870 -0.004749 0.000939 0.000000 -0.003538 0.000000
# 2 -0.004749 0.006862 0.001006 0.000000 -0.003037 0.000000
# 3 0.000939 0.001006 0.057375 0.000000 -0.020310 0.000000
# 4 0.000000 0.000000 0.000000 0.543718 0.000000 -0.262741
# 5 -0.003538 -0.003037 -0.020310 0.000000 0.043248 0.000000
# 6 0.000000 0.000000 0.000000 -0.262741 0.000000 0.153002
#
#
# Mechanical properties :
#
#
# Convention : Reuss Voigt Hill
#
# Bulk Modulus (GPa) = 13.98663 59.10775 36.54719
# Shear Modulus (GPa) = 5.90656 33.25348 19.58002
#
# Velocity S-wave (km/s) = 1.57597 3.73937 2.86937
# Velocity P-wave (km/s) = 3.03198 6.59533 5.13280
#
# Compressibility (1/GPa) = 0.07149684
#
# Stress axis : x y z
#
# Youngs Moduli (GPa) = 77.70240 145.73948 17.42933
#
# Poissons Ratio (x) = 0.69214 -0.01636
# Poissons Ratio (y) = 0.36902 -0.01753
# Poissons Ratio (z) = -0.07295 -0.14660
#
# Static dielectric constant tensor:
#      x y z
#    x 4.128550 0.000000 0.181890 
#    y 0.000000 4.582630 0.000000 
#    z 0.181890 0.000000 4.075110 
# 
# 
# High freq. dielectric constant tensor:
#      x y z
#    x 1.916220 0.000000 -0.010460 
#    y 0.000000 1.953590 0.000000 
#    z -0.010460 0.000000 1.942190 
# 
# From -- ./inp_files/31279.got.cif
#   From: 2010.06.25/outbox.cif.g09.slc.cpg/sg10_16_cif.got.tgz:31279.got - 2010.06.27 22:07:45.
