data_PCOD8057048
_publ_section_title
;
Structure prediction by ZEFSAII (Michael W. Deem and Ramdas Pophale) SiO2 
 PCOD8057048
Probable space group: P 2/M
;
_chemical_formula_sum "Si O2"
_cell_formula_units_Z 32
_cell_length_a 12.662211
_cell_length_b 9.235876
_cell_length_c 23.637011
_cell_angle_alpha 90.000000
_cell_angle_beta 45.972293
_cell_angle_gamma 90.000000
_cell_volume 1987.519413
_symmetry_space_group_name_H-M "P 2/M"
_symmetry_group_IT_number 10
_symmetry_cell_setting 'monoclinic'
loop_
_space_group_symop_operation_xyz
x,y,z
-x,y,-z
-x,-y,-z
x,-y,z
loop_
_atom_site_type_symbol
_atom_site_label
_atom_site_fract_x
_atom_site_fract_y
_atom_site_fract_z
Si Si1 0.112709 0.330667 0.688132
Si Si2 0.374105 0.839836 0.999839
Si Si3 0.815171 0.668904 0.851549
Si Si4 0.666726 0.667835 0.587408
Si Si5 0.037685 0.668118 0.592325
Si Si6 0.626056 0.831751 0.831327
Si Si7 0.435205 0.327582 0.582816
Si Si8 0.249324 0.830447 0.335401
O O1 0.133898 0.500000 0.669975
O O2 0.065708 0.266925 0.644600
O O3 0.268520 0.267424 0.651498
O O4 0.989009 0.298285 0.781370
O O5 0.456281 0.792482 0.911042
O O6 0.305838 0.000000 0.019364
O O7 0.500000 0.836837 0.000000
O O8 0.242914 0.733147 0.067247
O O9 0.780805 0.500000 0.863948
O O10 0.738414 0.737235 0.825652
O O11 0.645393 0.500000 0.611388
O O12 0.817577 0.690973 0.498145
O O13 0.533312 0.727213 0.598500
O O14 0.662975 0.762670 0.645158
O O15 0.990636 0.500000 0.611773
O O16 0.909145 0.757458 0.610723
O O17 0.650724 0.798278 0.756609
O O18 0.655710 0.000000 0.835121
O O19 0.500000 0.266377 0.500000
O O20 0.441099 0.500000 0.579583
O O21 0.226031 0.000000 0.353757
#
# Coordination Sequence:
#
# PCOD8057048 Si02
#       8
#     4   4   4   4   4   4   4   4
#     4   9  16  26  44  70  96 119 146 188 231 266
#     4   8  15  28  43  59  86 120 152 181 215 268
#     4  10  17  25  42  69  96 117 142 182 230 271
#     4  10  20  32  50  70  89 119 160 198 227 264
#     4  10  18  31  48  68  93 121 155 191 226 267
#     4   9  18  31  44  60  86 125 158 180 216 269
#     4   9  15  28  49  70  89 115 155 194 228 267
#     4  11  22  33  46  65  94 127 157 188 228 275
#
# _framework density 16.100470999999999
#
# number of rings (size 3 to 8) (size 9 to 14) (size 15 to 20)
#    0.000    2.500    2.500    1.875    0.000    4.750 
#    0.000    0.000    0.000    2.625    0.000    0.875 
#    0.000    7.000    0.000    0.000    0.000    0.000 
#
# Total GULP energy -396677.281185 kJ/mol
# GULP energy per Si atom -12396.165037 kJ/mol
# Density = 1.606383 g / cm^3
# Si number density = 16.100471 Si / 1000 Ang^3
#
#
#
# Elastic Constant Matrix: (Units=GPa)
#
#
# Indices 1 2 3 4 5 6 
#
# 1 107.6792 38.5419 55.3995 0.0000 -4.8070 0.0000
# 2 38.5419 61.3953 49.7053 0.0000 -1.8595 0.0000
# 3 55.3995 49.7053 114.0831 0.0000 -9.4043 0.0000
# 4 0.0000 0.0000 0.0000 24.5241 0.0000 6.1872
# 5 -4.8070 -1.8595 -9.4043 0.0000 15.3984 0.0000
# 6 0.0000 0.0000 0.0000 6.1872 0.0000 1.3785
#
#
#
# Elastic Compliance Matrix: (Units=1/GPa)
#
#
# Indices 1 2 3 4 5 6 
#
# 1 0.013249 -0.004857 -0.004238 0.000000 0.000961 0.000000
# 2 -0.004857 0.027163 -0.009826 0.000000 -0.004237 0.000000
# 3 -0.004238 -0.009826 0.015688 0.000000 0.007071 0.000000
# 4 0.000000 0.000000 0.000000 -0.308006 0.000000 1.382464
# 5 0.000961 -0.004237 0.007071 0.000000 0.069049 0.000000
# 6 0.000000 0.000000 0.000000 1.382464 0.000000 -5.479661
#
#
# Mechanical properties :
#
#
# Convention : Reuss Voigt Hill
#
# Bulk Modulus (GPa) = 54.77017 63.38345 59.07681
# Shear Modulus (GPa) = -0.88990 17.56093 8.33551
#
# Velocity S-wave (km/s) = -0.74426 3.30617 2.27781
# Velocity P-wave (km/s) = 5.77521 7.35032 6.60985
#
# Compressibility (1/GPa) = 0.01825812
#
# Stress axis : x y z
#
# Youngs Moduli (GPa) = 75.47918 36.81448 63.74418
#
# Poissons Ratio (x) = 0.17879 0.27018
# Poissons Ratio (y) = 0.36657 0.62633
# Poissons Ratio (z) = 0.31992 0.36173
#
# Static dielectric constant tensor:
#      x y z
#    x 2.939960 0.000000 -0.047810 
#    y 0.000000 2.888280 0.000000 
#    z -0.047810 0.000000 3.378550 
# 
# 
# High freq. dielectric constant tensor:
#      x y z
#    x 1.583870 0.000000 -0.003700 
#    y 0.000000 1.598490 0.000000 
#    z -0.003700 0.000000 1.629540 
# 
# From -- ./inp_files/54868.got.cif
#   From: 2010.06.25/outbox.cif.g09.slc.cpg/sg10_28_cif.got.tgz:54868.got - 2010.06.27 22:07:45.
