data_PCOD8057955
_publ_section_title
;
Structure prediction by ZEFSAII (Michael W. Deem and Ramdas Pophale) SiO2 
 PCOD8057955
Probable space group: P 2/M
;
_chemical_formula_sum "Si O2"
_cell_formula_units_Z 32
_cell_length_a 20.050839
_cell_length_b 9.200949
_cell_length_c 11.689085
_cell_angle_alpha 90.000000
_cell_angle_beta 120.647787
_cell_angle_gamma 90.000000
_cell_volume 1855.257854
_symmetry_space_group_name_H-M "P 2/M"
_symmetry_group_IT_number 10
_symmetry_cell_setting 'monoclinic'
loop_
_space_group_symop_operation_xyz
x,y,z
-x,y,-z
-x,-y,-z
x,-y,z
loop_
_atom_site_type_symbol
_atom_site_label
_atom_site_fract_x
_atom_site_fract_y
_atom_site_fract_z
Si Si1 0.169799 0.170290 0.874585
Si Si2 0.918406 0.329698 0.377995
Si Si3 0.537279 0.828346 0.416871
Si Si4 0.596987 0.828498 0.864956
Si Si5 0.226773 0.334740 0.593760
Si Si6 0.739214 0.830732 0.836268
Si Si7 0.687277 0.668295 0.111986
Si Si8 0.711844 0.172514 0.563006
O O1 0.094335 0.248499 0.755198
O O2 0.244789 0.236438 0.881461
O O3 0.165065 0.000000 0.844194
O O4 0.181723 0.199192 0.021737
O O5 0.917349 0.500000 0.351083
O O6 0.850846 0.285817 0.407276
O O7 0.000000 0.277736 0.500000
O O8 0.500000 0.761108 0.500000
O O9 0.485828 0.786891 0.261491
O O10 0.623891 0.768567 0.473659
O O11 0.540842 0.000000 0.435739
O O12 0.663205 0.771025 0.835344
O O13 0.604015 0.000000 0.895964
O O14 0.607563 0.739714 0.994081
O O15 0.217697 0.500000 0.544892
O O16 0.302708 0.318329 0.742024
O O17 0.235015 0.235667 0.490278
O O18 0.745535 0.767215 0.713578
O O19 0.723591 0.000000 0.808993
O O20 0.694232 0.500000 0.080673
O O21 0.715900 0.000000 0.557208
#
# Coordination Sequence:
#
# PCOD8057955 Si02
#       8
#     4   4   4   4   4   4   4   4
#     4   9  16  27  47  75 100 119 149 194 235 272
#     4   9  18  34  55  75  96 124 155 188 230 279
#     4   9  15  26  46  69  93 122 159 201 243 281
#     4   9  15  26  46  69  90 115 156 208 247 273
#     4   9  19  34  48  66  94 123 153 191 234 279
#     4   8  14  25  43  68  94 121 153 191 233 273
#     4   9  17  30  46  63  89 126 161 195 238 284
#     4  10  18  29  48  70  93 126 162 192 232 287
#
# _framework density 17.248277000000002
#
# number of rings (size 3 to 8) (size 9 to 14) (size 15 to 20)
#    0.000    3.000    1.250    2.250    0.000    2.750 
#    0.000    4.375    0.000    5.250    0.000    5.250 
#    0.000    0.000    0.000    0.000    0.000    0.000 
#
# Total GULP energy -396488.780811 kJ/mol
# GULP energy per Si atom -12390.274400 kJ/mol
# Density = 1.720902 g / cm^3
# Si number density = 17.248277 Si / 1000 Ang^3
#
#
#
# Elastic Constant Matrix: (Units=GPa)
#
#
# Indices 1 2 3 4 5 6 
#
# 1 52.1573 23.1094 51.1860 0.0000 1.7090 0.0000
# 2 23.1094 47.0336 54.3560 0.0000 2.2320 0.0000
# 3 51.1860 54.3560 157.7828 0.0000 10.9350 0.0000
# 4 0.0000 0.0000 0.0000 7.9107 0.0000 2.4215
# 5 1.7090 2.2320 10.9350 0.0000 24.2076 0.0000
# 6 0.0000 0.0000 0.0000 2.4215 0.0000 17.0985
#
#
#
# Elastic Compliance Matrix: (Units=1/GPa)
#
#
# Indices 1 2 3 4 5 6 
#
# 1 0.029077 -0.005521 -0.007664 0.000000 0.001918 0.000000
# 2 -0.005521 0.036500 -0.010919 0.000000 0.001957 0.000000
# 3 -0.007664 -0.010919 0.012882 0.000000 -0.004271 0.000000
# 4 0.000000 0.000000 0.000000 0.132140 0.000000 -0.018714
# 5 0.001918 0.001957 -0.004271 0.000000 0.042923 0.000000
# 6 0.000000 0.000000 0.000000 -0.018714 0.000000 0.061135
#
#
# Mechanical properties :
#
#
# Convention : Reuss Voigt Hill
#
# Bulk Modulus (GPa) = 33.05594 57.14183 45.09888
# Shear Modulus (GPa) = 13.40674 18.39817 15.90246
#
# Velocity S-wave (km/s) = 2.79100 3.26953 3.03970
# Velocity P-wave (km/s) = 5.43991 6.88869 6.20672
#
# Compressibility (1/GPa) = 0.03025175
#
# Stress axis : x y z
#
# Youngs Moduli (GPa) = 34.39118 27.39754 77.63023
#
# Poissons Ratio (x) = 0.15125 0.59496
# Poissons Ratio (y) = 0.18986 0.84762
# Poissons Ratio (z) = 0.26357 0.29915
#
# Static dielectric constant tensor:
#      x y z
#    x 2.847160 0.000000 0.101670 
#    y 0.000000 3.044340 0.000000 
#    z 0.101670 0.000000 3.863610 
# 
# 
# High freq. dielectric constant tensor:
#      x y z
#    x 1.613130 0.000000 0.004320 
#    y 0.000000 1.642250 0.000000 
#    z 0.004320 0.000000 1.686520 
# 
# From -- ./inp_files/54913.got.cif
#   From: 2010.06.25/outbox.cif.g09.slc.cpg/sg10_28_cif.got.tgz:54913.got - 2010.06.27 22:07:45.
