data_PCOD8057044
_publ_section_title
;
Structure prediction by ZEFSAII (Michael W. Deem and Ramdas Pophale) SiO2 
 PCOD8057044
Probable space group: P 2/M
;
_chemical_formula_sum "Si O2"
_cell_formula_units_Z 32
_cell_length_a 17.717604
_cell_length_b 9.382247
_cell_length_c 23.990400
_cell_angle_alpha 90.000000
_cell_angle_beta 31.050074
_cell_angle_gamma 90.000000
_cell_volume 2056.931068
_symmetry_space_group_name_H-M "P 2/M"
_symmetry_group_IT_number 10
_symmetry_cell_setting 'monoclinic'
loop_
_space_group_symop_operation_xyz
x,y,z
-x,y,-z
-x,-y,-z
x,-y,z
loop_
_atom_site_type_symbol
_atom_site_label
_atom_site_fract_x
_atom_site_fract_y
_atom_site_fract_z
Si Si1 0.949972 0.669073 0.141060
Si Si2 0.677397 0.669520 0.244531
Si Si3 0.151713 0.165506 0.184256
Si Si4 0.274241 0.330965 0.910031
Si Si5 0.561748 0.330694 0.519198
Si Si6 0.608538 0.165501 0.062523
Si Si7 0.389213 0.831807 0.113908
Si Si8 0.891085 0.668689 0.303092
O O1 0.943672 0.500000 0.143890
O O2 0.825432 0.731216 0.178922
O O3 0.920431 0.724015 0.222054
O O4 0.107521 0.723551 0.021033
O O5 0.683395 0.500000 0.243324
O O6 0.666547 0.719883 0.187509
O O7 0.536896 0.727458 0.367387
O O8 0.225139 0.210523 0.197814
O O9 0.005560 0.257794 0.271964
O O10 0.108405 0.000000 0.211328
O O11 0.263811 0.198860 0.062896
O O12 0.283677 0.500000 0.911671
O O13 0.374016 0.259265 0.893609
O O14 0.500000 0.268374 0.500000
O O15 0.553052 0.500000 0.521807
O O16 0.728481 0.282197 0.423521
O O17 0.447961 0.209350 0.138476
O O18 0.611936 0.000000 0.077129
O O19 0.403471 0.000000 0.098596
O O20 0.500000 0.759525 0.000000
O O21 0.911037 0.500000 0.294984
#
# Coordination Sequence:
#
# PCOD8057044 Si02
#       8
#     4   4   4   4   4   4   4   4
#     4   9  15  24  38  59  85 110 137 170 205 239
#     4   9  16  26  40  59  82 113 148 175 201 239
#     4   9  16  27  43  62  85 111 138 166 202 252
#     4  10  18  26  40  63  89 111 136 172 210 246
#     4   9  15  25  41  61  82 107 144 182 207 233
#     4   9  16  27  43  61  84 113 140 164 198 248
#     4   7  12  24  41  59  79 108 141 165 190 241
#     4  10  17  25  42  65  86 107 136 177 213 238
#
# _framework density 15.557157999999999
#
# number of rings (size 3 to 8) (size 9 to 14) (size 15 to 20)
#    0.000    3.000    2.500    1.875    0.000    1.500 
#    0.000    0.625    0.000    5.625    0.000    0.875 
#    0.000    7.000    0.000    0.000    0.000    0.000 
#
# Total GULP energy -396481.996421 kJ/mol
# GULP energy per Si atom -12390.062388 kJ/mol
# Density = 1.552175 g / cm^3
# Si number density = 15.557158 Si / 1000 Ang^3
#
#
#
# Elastic Constant Matrix: (Units=GPa)
#
#
# Indices 1 2 3 4 5 6 
#
# 1 154.8095 35.0438 74.0689 0.0000 -17.0332 0.0000
# 2 35.0438 21.9862 20.8866 0.0000 -5.1073 0.0000
# 3 74.0689 20.8866 101.0358 0.0000 0.3289 0.0000
# 4 0.0000 0.0000 0.0000 7.7974 0.0000 3.8713
# 5 -17.0332 -5.1073 0.3289 0.0000 21.8347 0.0000
# 6 0.0000 0.0000 0.0000 3.8713 0.0000 0.3863
#
#
#
# Elastic Compliance Matrix: (Units=1/GPa)
#
#
# Indices 1 2 3 4 5 6 
#
# 1 0.013895 -0.013215 -0.007480 0.000000 0.007861 0.000000
# 2 -0.013215 0.073389 -0.005506 0.000000 0.006940 0.000000
# 3 -0.007480 -0.005506 0.016543 0.000000 -0.007372 0.000000
# 4 0.000000 0.000000 0.000000 -0.032258 0.000000 0.323281
# 5 0.007861 0.006940 -0.007372 0.000000 0.053665 0.000000
# 6 0.000000 0.000000 0.000000 0.323281 0.000000 -0.651136
#
#
# Mechanical properties :
#
#
# Convention : Reuss Voigt Hill
#
# Bulk Modulus (GPa) = 19.44568 59.75891 39.60230
# Shear Modulus (GPa) = -10.95631 15.85917 2.45143
#
# Velocity S-wave (km/s) = -2.65667 3.19629 1.25665
# Velocity P-wave (km/s) = 1.76525 7.21925 5.25517
#
# Compressibility (1/GPa) = 0.05142531
#
# Stress axis : x y z
#
# Youngs Moduli (GPa) = 71.97053 13.62595 60.44790
#
# Poissons Ratio (x) = 0.18007 0.45214
# Poissons Ratio (y) = 0.95108 0.33284
# Poissons Ratio (z) = 0.53833 0.07503
#
# Static dielectric constant tensor:
#      x y z
#    x 3.222080 0.000000 -0.112570 
#    y 0.000000 2.488370 0.000000 
#    z -0.112570 0.000000 2.934200 
# 
# 
# High freq. dielectric constant tensor:
#      x y z
#    x 1.606060 0.000000 -0.012890 
#    y 0.000000 1.546410 0.000000 
#    z -0.012890 0.000000 1.569820 
# 
# From -- ./inp_files/53357.got.cif
#   From: 2010.06.25/outbox.cif.g09.slc.cpg/sg10_27_cif.got.tgz:53357.got - 2010.06.27 22:07:45.
