data_PCOD8057514
_publ_section_title
;
Structure prediction by ZEFSAII (Michael W. Deem and Ramdas Pophale) SiO2 
 PCOD8057514
Probable space group: P 2/M
;
_chemical_formula_sum "Si O2"
_cell_formula_units_Z 28
_cell_length_a 20.118795
_cell_length_b 14.645749
_cell_length_c 23.793855
_cell_angle_alpha 90.000000
_cell_angle_beta 16.680341
_cell_angle_gamma 90.000000
_cell_volume 2012.372940
_symmetry_space_group_name_H-M "P 2/M"
_symmetry_group_IT_number 10
_symmetry_cell_setting 'monoclinic'
loop_
_space_group_symop_operation_xyz
x,y,z
-x,y,-z
-x,-y,-z
x,-y,z
loop_
_atom_site_type_symbol
_atom_site_label
_atom_site_fract_x
_atom_site_fract_y
_atom_site_fract_z
Si Si1 0.627818 0.600410 0.787405
Si Si2 0.175008 0.107912 0.014809
Si Si3 0.669552 0.740224 0.915222
Si Si4 0.584253 0.107912 0.605562
Si Si5 0.966933 0.399590 0.617843
Si Si6 0.660214 0.109048 0.419894
Si Si7 0.890761 0.106672 0.804620
O O1 0.507785 0.500000 0.880792
O O2 0.793542 0.600183 0.706458
O O3 0.772654 0.619359 0.613676
O O4 0.446480 0.681961 0.940813
O O5 0.383284 0.150959 0.808359
O O6 0.180265 0.000000 0.004276
O O7 0.202982 0.133689 0.057663
O O8 0.924059 0.143933 0.196815
O O9 0.897318 0.681961 0.715389
O O10 0.742739 0.838669 0.878630
O O11 0.500000 0.756141 0.000000
O O12 0.559416 0.143927 0.561454
O O13 0.839596 0.133692 0.421044
O O14 0.557906 0.000000 0.626642
O O15 0.953489 0.500000 0.657935
O O16 0.500000 0.149000 0.500000
O O17 0.659019 0.000000 0.420488
O O18 0.852104 0.000000 0.823946
#
# Coordination Sequence:
#
# PCOD8057514 Si02
#       7
#     4   4   4   4   4   4   4
#     4   8  14  25  40  57  75  90 105 134 182 240
#     4   8  14  25  38  48  63  93 126 151 180 217
#     4  10  18  26  39  56  71  91 122 160 200 233
#     4   8  14  25  38  48  63  93 126 151 180 217
#     4   8  14  25  40  57  75  90 105 134 182 240
#     4   8  13  20  32  54  76  86 104 145 188 223
#     4   9  18  29  37  48  68  96 133 169 191 213
#
# _framework density 13.913921999999999
#
# number of rings (size 3 to 8) (size 9 to 14) (size 15 to 20)
#    0.000    3.571    0.000    3.000    0.000    3.714 
#    0.000    2.857    0.000    0.000    0.000    8.000 
#    0.000    0.000    0.000    0.000    0.000   45.714 
#
# Total GULP energy -346885.859631 kJ/mol
# GULP energy per Si atom -12388.780701 kJ/mol
# Density = 1.388225 g / cm^3
# Si number density = 13.913922 Si / 1000 Ang^3
#
#
#
# Elastic Constant Matrix: (Units=GPa)
#
#
# Indices 1 2 3 4 5 6 
#
# 1 63.8800 35.3894 46.2760 0.0000 1.1671 0.0000
# 2 35.3894 52.3356 32.9078 0.0000 -0.9373 0.0000
# 3 46.2760 32.9078 108.1461 0.0000 15.5702 0.0000
# 4 0.0000 0.0000 0.0000 -153.4896 0.0000 -51.9907
# 5 1.1671 -0.9373 15.5702 0.0000 15.7865 0.0000
# 6 0.0000 0.0000 0.0000 -51.9907 0.0000 -15.6874
#
#
#
# Elastic Compliance Matrix: (Units=1/GPa)
#
#
# Indices 1 2 3 4 5 6 
#
# 1 0.030482 -0.014504 -0.009536 0.000000 0.006290 0.000000
# 2 -0.014504 0.031936 -0.004591 0.000000 0.007496 0.000000
# 3 -0.009536 -0.004591 0.017088 0.000000 -0.016422 0.000000
# 4 0.000000 0.000000 0.000000 0.053145 0.000000 -0.176131
# 5 0.006290 0.007496 -0.016422 0.000000 0.079522 0.000000
# 6 0.000000 0.000000 0.000000 -0.176131 0.000000 0.519983
#
#
# Mechanical properties :
#
#
# Convention : Reuss Voigt Hill
#
# Bulk Modulus (GPa) = 44.95212 50.38980 47.67096
# Shear Modulus (GPa) = 6.27485 -23.35886 -8.54201
#
# Velocity S-wave (km/s) = 2.12592 -4.10178 -2.48042
# Velocity P-wave (km/s) = 6.19706 3.72307 5.11198
#
# Compressibility (1/GPa) = 0.02224589
#
# Stress axis : x y z
#
# Youngs Moduli (GPa) = 32.80599 31.31292 58.51921
#
# Poissons Ratio (x) = 0.45415 0.55803
# Poissons Ratio (y) = 0.47580 0.26866
# Poissons Ratio (z) = 0.31283 0.14376
#
# Static dielectric constant tensor:
#      x y z
#    x 2.584470 0.000000 0.238040 
#    y 0.000000 2.397400 0.000000 
#    z 0.238040 0.000000 3.214230 
# 
# 
# High freq. dielectric constant tensor:
#      x y z
#    x 1.501000 0.000000 0.016000 
#    y 0.000000 1.481690 0.000000 
#    z 0.016000 0.000000 1.543330 
# 
# From -- ./inp_files/79639.got.cif
#   From: 2010.06.25/outbox.cif.g09.slc.cpg/sg10_40_cif.got.tgz:79639.got - 2010.06.27 22:07:45.
