data_PCOD8057166
_publ_section_title
;
Structure prediction by ZEFSAII (Michael W. Deem and Ramdas Pophale) SiO2 
 PCOD8057166
Probable space group: P 2/M
;
_chemical_formula_sum "Si O2"
_cell_formula_units_Z 28
_cell_length_a 15.028259
_cell_length_b 11.828250
_cell_length_c 23.238616
_cell_angle_alpha 90.000000
_cell_angle_beta 26.019595
_cell_angle_gamma 90.000000
_cell_volume 1812.115111
_symmetry_space_group_name_H-M "P 2/M"
_symmetry_group_IT_number 10
_symmetry_cell_setting 'monoclinic'
loop_
_space_group_symop_operation_xyz
x,y,z
-x,y,-z
-x,-y,-z
x,-y,z
loop_
_atom_site_type_symbol
_atom_site_label
_atom_site_fract_x
_atom_site_fract_y
_atom_site_fract_z
Si Si1 0.420282 0.000000 0.447411
Si Si2 0.522088 0.759137 0.618707
Si Si3 0.764192 0.629472 0.129781
Si Si4 0.310839 0.367439 0.076293
Si Si5 0.184307 0.370419 0.027091
Si Si6 0.137475 0.367086 0.635259
Si Si7 0.815135 0.755961 0.275481
Si Si8 0.793443 0.000000 0.316793
O O1 0.425706 0.108534 0.401908
O O2 0.592239 0.000000 0.395646
O O3 0.224486 0.000000 0.602999
O O4 0.383931 0.713043 0.750430
O O5 0.731677 0.688263 0.492431
O O6 0.403051 0.753148 0.627682
O O7 0.734046 0.500000 0.168406
O O8 0.695494 0.641716 0.102683
O O9 0.000000 0.663901 0.000000
O O10 0.348339 0.500000 0.052019
O O11 0.102580 0.339712 0.231484
O O12 0.500000 0.309666 0.000000
O O13 0.303244 0.322638 0.014273
O O14 0.125312 0.500000 0.073503
O O15 0.974566 0.303641 0.140684
O O16 0.178010 0.500000 0.611779
O O17 0.215522 0.314399 0.648972
O O18 0.903472 0.882465 0.236295
#
# Coordination Sequence:
#
# PCOD8057166 Si02
#       8
#     2   4   4   4   4   4   4   2
#     4   9  18  30  40  57  84 125 158 182 220 260
#     4  11  19  29  43  61  90 123 154 187 215 256
#     4  10  19  30  43  61  93 131 154 175 215 261
#     4   8  15  29  47  66  90 115 140 181 231 273
#     4   9  17  29  45  67  91 120 153 177 216 272
#     4  10  19  26  41  69  90 110 146 185 226 273
#     4  10  17  27  42  62  89 119 151 182 219 260
#     4   9  16  28  41  56  85 123 152 181 224 260
#
# _framework density 15.451558
#
# number of rings (size 3 to 8) (size 9 to 14) (size 15 to 20)
#    0.000    2.429    2.857    2.143    0.000    2.286 
#    0.000    1.071    0.000    0.857    0.000   17.500 
#    0.000    1.143    0.000    0.000    0.000    0.000 
#
# Total GULP energy -346915.391399 kJ/mol
# GULP energy per Si atom -12389.835407 kJ/mol
# Density = 1.541639 g / cm^3
# Si number density = 15.451558 Si / 1000 Ang^3
#
#
#
# Elastic Constant Matrix: (Units=GPa)
#
#
# Indices 1 2 3 4 5 6 
#
# 1 54.5926 26.4365 36.6479 0.0000 -1.3392 0.0000
# 2 26.4365 97.7999 47.8548 0.0000 8.9395 0.0000
# 3 36.6479 47.8548 82.1976 0.0000 9.4390 0.0000
# 4 0.0000 0.0000 0.0000 12.1194 0.0000 8.2775
# 5 -1.3392 8.9395 9.4390 0.0000 23.0267 0.0000
# 6 0.0000 0.0000 0.0000 8.2775 0.0000 11.2954
#
#
#
# Elastic Compliance Matrix: (Units=1/GPa)
#
#
# Indices 1 2 3 4 5 6 
#
# 1 0.027520 -0.002368 -0.011733 0.000000 0.007329 0.000000
# 2 -0.002368 0.014613 -0.007120 0.000000 -0.002892 0.000000
# 3 -0.011733 -0.007120 0.022355 0.000000 -0.007082 0.000000
# 4 0.000000 0.000000 0.000000 0.165195 0.000000 -0.121058
# 5 0.007329 -0.002892 -0.007082 0.000000 0.047880 0.000000
# 6 0.000000 0.000000 0.000000 -0.121058 0.000000 0.177245
#
#
# Mechanical properties :
#
#
# Convention : Reuss Voigt Hill
#
# Bulk Modulus (GPa) = 45.35688 50.71872 48.03780
# Shear Modulus (GPa) = 9.90885 17.53168 13.72027
#
# Velocity S-wave (km/s) = 2.53511 3.37207 2.98309
# Velocity P-wave (km/s) = 6.16336 6.93230 6.55911
#
# Compressibility (1/GPa) = 0.02204737
#
# Stress axis : x y z
#
# Youngs Moduli (GPa) = 36.33671 68.43113 44.73189
#
# Poissons Ratio (x) = 0.16204 0.52484
# Poissons Ratio (y) = 0.08604 0.31848
# Poissons Ratio (z) = 0.42634 0.48722
#
# Static dielectric constant tensor:
#      x y z
#    x 2.879890 0.000000 0.032900 
#    y 0.000000 3.063600 0.000000 
#    z 0.032900 0.000000 2.928230 
# 
# 
# High freq. dielectric constant tensor:
#      x y z
#    x 1.556860 0.000000 0.016030 
#    y 0.000000 1.585990 0.000000 
#    z 0.016030 0.000000 1.576900 
# 
# From -- ./inp_files/55524.got.cif
#   From: 2010.06.25/outbox.cif.g09.slc.cpg/sg10_28_cif.got.tgz:55524.got - 2010.06.27 22:07:45.
