data_PCOD8057844
_publ_section_title
;
Structure prediction by ZEFSAII (Michael W. Deem and Ramdas Pophale) SiO2 
 PCOD8057844
Probable space group: P 2/M
;
_chemical_formula_sum "Si O2"
_cell_formula_units_Z 28
_cell_length_a 19.027545
_cell_length_b 9.155239
_cell_length_c 15.110812
_cell_angle_alpha 90.000000
_cell_angle_beta 38.346724
_cell_angle_gamma 90.000000
_cell_volume 1633.146695
_symmetry_space_group_name_H-M "P 2/M"
_symmetry_group_IT_number 10
_symmetry_cell_setting 'monoclinic'
loop_
_space_group_symop_operation_xyz
x,y,z
-x,y,-z
-x,-y,-z
x,-y,z
loop_
_atom_site_type_symbol
_atom_site_label
_atom_site_fract_x
_atom_site_fract_y
_atom_site_fract_z
Si Si1 0.362379 0.172497 0.959481
Si Si2 0.723849 0.328795 0.114671
Si Si3 0.869054 0.671074 0.138340
Si Si4 0.624650 0.169510 0.704642
Si Si5 0.519704 0.655864 0.579948
Si Si6 0.727254 0.831653 0.419184
Si Si7 0.633977 0.663686 0.868055
O O1 0.268433 0.238228 0.984188
O O2 0.494730 0.214969 0.807052
O O3 0.347180 0.000000 0.977347
O O4 0.325106 0.239112 0.090304
O O5 0.745673 0.500000 0.075735
O O6 0.806503 0.270758 0.111160
O O7 0.596789 0.289888 0.265413
O O8 0.845673 0.500000 0.170882
O O9 0.826059 0.743030 0.272147
O O10 0.000000 0.709894 0.000000
O O11 0.713617 0.201053 0.537332
O O12 0.673950 0.261589 0.737488
O O13 0.623977 0.000000 0.731939
O O14 0.500000 0.614769 0.500000
O O15 0.559882 0.500000 0.585096
O O16 0.607760 0.786801 0.496379
O O17 0.750408 0.000000 0.377557
O O18 0.684926 0.500000 0.824269
O O19 0.500000 0.657177 0.000000
#
# Coordination Sequence:
#
# PCOD8057844 Si02
#       7
#     4   4   4   4   4   4   4
#     4  10  18  29  45  68 101 136 164 195 241 296
#     4  10  19  31  49  72  97 128 167 209 245 289
#     4  10  22  40  56  70  94 131 173 213 254 297
#     4   9  18  30  43  66 100 135 164 194 239 292
#     4  10  18  30  47  69  98 130 164 202 247 294
#     4  11  21  32  49  74 103 131 165 205 248 299
#     4   9  17  28  43  66  96 132 169 201 233 279
#
# _framework density 17.144815000000001
#
# number of rings (size 3 to 8) (size 9 to 14) (size 15 to 20)
#    0.000    2.143    2.857    1.286    0.000    4.571 
#    0.000    0.000    0.000    0.000    0.000    1.000 
#    0.000    8.000    0.000    0.000    0.000    0.000 
#
# Total GULP energy -346942.559734 kJ/mol
# GULP energy per Si atom -12390.805705 kJ/mol
# Density = 1.710579 g / cm^3
# Si number density = 17.144815 Si / 1000 Ang^3
#
#
#
# Elastic Constant Matrix: (Units=GPa)
#
#
# Indices 1 2 3 4 5 6 
#
# 1 78.5205 49.4155 55.8436 0.0000 24.0211 0.0000
# 2 49.4155 77.6630 49.6678 0.0000 14.4246 0.0000
# 3 55.8436 49.6678 81.5158 0.0000 13.0058 0.0000
# 4 0.0000 0.0000 0.0000 24.0916 0.0000 10.5840
# 5 24.0211 14.4246 13.0058 0.0000 21.9206 0.0000
# 6 0.0000 0.0000 0.0000 10.5840 0.0000 22.3862
#
#
#
# Elastic Compliance Matrix: (Units=1/GPa)
#
#
# Indices 1 2 3 4 5 6 
#
# 1 0.037951 -0.008752 -0.016513 0.000000 -0.026031 0.000000
# 2 -0.008752 0.024107 -0.008496 0.000000 -0.001232 0.000000
# 3 -0.016513 -0.008496 0.027589 0.000000 0.007317 0.000000
# 4 0.000000 0.000000 0.000000 0.052390 0.000000 -0.024770
# 5 -0.026031 -0.001232 0.007317 0.000000 0.070614 0.000000
# 6 0.000000 0.000000 0.000000 -0.024770 0.000000 0.056381
#
#
# Mechanical properties :
#
#
# Convention : Reuss Voigt Hill
#
# Bulk Modulus (GPa) = 45.19810 60.83924 53.01867
# Shear Modulus (GPa) = 14.53782 19.19784 16.86783
#
# Velocity S-wave (km/s) = 2.91510 3.34989 3.14003
# Velocity P-wave (km/s) = 6.14412 7.10809 6.64361
#
# Compressibility (1/GPa) = 0.02212483
#
# Stress axis : x y z
#
# Youngs Moduli (GPa) = 26.34990 41.48092 36.24568
#
# Poissons Ratio (x) = 0.36305 0.59852
# Poissons Ratio (y) = 0.23062 0.30796
# Poissons Ratio (z) = 0.43511 0.35244
#
# Static dielectric constant tensor:
#      x y z
#    x 3.160800 0.000000 0.307950 
#    y 0.000000 3.273140 0.000000 
#    z 0.307950 0.000000 3.029490 
# 
# 
# High freq. dielectric constant tensor:
#      x y z
#    x 1.641720 0.000000 0.036450 
#    y 0.000000 1.669110 0.000000 
#    z 0.036450 0.000000 1.629400 
# 
# From -- ./inp_files/54647.got.cif
#   From: 2010.06.25/outbox.cif.g09.slc.cpg/sg10_28_cif.got.tgz:54647.got - 2010.06.27 22:07:45.
