data_PCOD8057669
_publ_section_title
;
Structure prediction by ZEFSAII (Michael W. Deem and Ramdas Pophale) SiO2 
 PCOD8057669
Probable space group: P 2/M
;
_chemical_formula_sum "Si O2"
_cell_formula_units_Z 32
_cell_length_a 12.627044
_cell_length_b 9.072633
_cell_length_c 20.582251
_cell_angle_alpha 90.000000
_cell_angle_beta 115.655632
_cell_angle_gamma 90.000000
_cell_volume 2125.453039
_symmetry_space_group_name_H-M "P 2/M"
_symmetry_group_IT_number 10
_symmetry_cell_setting 'monoclinic'
loop_
_space_group_symop_operation_xyz
x,y,z
-x,y,-z
-x,-y,-z
x,-y,z
loop_
_atom_site_type_symbol
_atom_site_label
_atom_site_fract_x
_atom_site_fract_y
_atom_site_fract_z
Si Si1 0.003514 0.828893 0.321007
Si Si2 0.974038 0.167941 0.922402
Si Si3 0.008679 0.325565 0.198019
Si Si4 0.105866 0.829118 0.571585
Si Si5 0.416288 0.327491 0.332746
Si Si6 0.677235 0.670474 0.430193
Si Si7 0.246141 0.670094 0.404725
Si Si8 0.227670 0.168332 0.218466
O O1 0.919051 0.801180 0.359459
O O2 0.944420 0.740709 0.244443
O O3 0.132636 0.772217 0.372489
O O4 0.011200 0.000000 0.304668
O O5 0.041851 0.259785 0.883677
O O6 0.832940 0.174465 0.869601
O O7 0.020467 0.000000 0.932731
O O8 0.000000 0.237928 0.000000
O O9 0.000122 0.500000 0.194217
O O10 0.143951 0.268565 0.243201
O O11 0.227913 0.753531 0.587681
O O12 0.000000 0.761431 0.500000
O O13 0.118356 0.000000 0.557925
O O14 0.412221 0.500000 0.316926
O O15 0.548701 0.270762 0.375748
O O16 0.343453 0.285213 0.377678
O O17 0.356884 0.240476 0.255830
O O18 0.689303 0.500000 0.416450
O O19 0.692163 0.698715 0.510193
O O20 0.206803 0.500000 0.386014
O O21 0.230845 0.000000 0.244297
#
# Coordination Sequence:
#
# PCOD8057669 Si02
#       8
#     4   4   4   4   4   4   4   4
#     4  11  20  31  48  65  88 118 156 197 238 284
#     4   8  15  28  45  67  98 129 155 181 213 262
#     4  10  18  28  43  67  94 121 152 185 223 269
#     4  10  21  36  49  63  85 115 154 204 250 284
#     4  10  19  31  45  64  92 121 151 190 231 273
#     4  10  21  33  46  65  87 115 154 195 239 286
#     4  10  18  29  46  65  86 114 147 189 238 282
#     4   9  17  28  43  64  90 123 154 176 214 263
#
# _framework density 15.055612999999999
#
# number of rings (size 3 to 8) (size 9 to 14) (size 15 to 20)
#    0.750    1.500    2.500    1.875    0.000    3.500 
#    0.000    0.000    0.000    2.250    0.000    0.000 
#    0.000    1.000    0.000   11.250    0.000    5.625 
#
# Total GULP energy -396548.890176 kJ/mol
# GULP energy per Si atom -12392.152818 kJ/mol
# Density = 1.502135 g / cm^3
# Si number density = 15.055613 Si / 1000 Ang^3
#
#
#
# Elastic Constant Matrix: (Units=GPa)
#
#
# Indices 1 2 3 4 5 6 
#
# 1 77.8230 35.4238 37.6290 0.0000 3.0053 0.0000
# 2 35.4238 75.8648 40.8221 0.0000 -6.4130 0.0000
# 3 37.6290 40.8221 89.9893 0.0000 -8.3819 0.0000
# 4 0.0000 0.0000 0.0000 20.9166 0.0000 0.9685
# 5 3.0053 -6.4130 -8.3819 0.0000 14.2289 0.0000
# 6 0.0000 0.0000 0.0000 0.9685 0.0000 18.8536
#
#
#
# Elastic Compliance Matrix: (Units=1/GPa)
#
#
# Indices 1 2 3 4 5 6 
#
# 1 0.019170 -0.006616 -0.005998 0.000000 -0.010564 0.000000
# 2 -0.006616 0.019877 -0.005592 0.000000 0.007062 0.000000
# 3 -0.005998 -0.005592 0.016972 0.000000 0.008744 0.000000
# 4 0.000000 0.000000 0.000000 0.047923 0.000000 -0.002462
# 5 -0.010564 0.007062 0.008744 0.000000 0.080845 0.000000
# 6 0.000000 0.000000 0.000000 -0.002462 0.000000 0.053167
#
#
# Mechanical properties :
#
#
# Convention : Reuss Voigt Hill
#
# Bulk Modulus (GPa) = 51.00934 52.38076 51.69505
# Shear Modulus (GPa) = 17.79981 19.45329 18.62655
#
# Velocity S-wave (km/s) = 3.44215 3.59847 3.52118
# Velocity P-wave (km/s) = 7.05351 7.22028 7.13738
#
# Compressibility (1/GPa) = 0.01960425
#
# Stress axis : x y z
#
# Youngs Moduli (GPa) = 52.16585 50.30967 58.92038
#
# Poissons Ratio (x) = 0.33286 0.35343
# Poissons Ratio (y) = 0.34514 0.32951
# Poissons Ratio (z) = 0.31291 0.28136
#
# Static dielectric constant tensor:
#      x y z
#    x 2.688490 0.000000 -0.056450 
#    y 0.000000 2.887260 0.000000 
#    z -0.056450 0.000000 2.934310 
# 
# 
# High freq. dielectric constant tensor:
#      x y z
#    x 1.539890 0.000000 -0.008570 
#    y 0.000000 1.582440 0.000000 
#    z -0.008570 0.000000 1.566420 
# 
# From -- ./inp_files/88447.got.cif
#   From: 2010.06.25/outbox.cif.g09.slc.cpg/sg10_45_cif.got.tgz:88447.got - 2010.06.27 22:07:45.
