data_PCOD8057824
_publ_section_title
;
Structure prediction by ZEFSAII (Michael W. Deem and Ramdas Pophale) SiO2 
 PCOD8057824
Probable space group: P 2/M
;
_chemical_formula_sum "Si O2"
_cell_formula_units_Z 32
_cell_length_a 17.561483
_cell_length_b 9.299523
_cell_length_c 23.914022
_cell_angle_alpha 90.000000
_cell_angle_beta 149.613133
_cell_angle_gamma 90.000000
_cell_volume 1975.532883
_symmetry_space_group_name_H-M "P 2/M"
_symmetry_group_IT_number 10
_symmetry_cell_setting 'monoclinic'
loop_
_space_group_symop_operation_xyz
x,y,z
-x,y,-z
-x,-y,-z
x,-y,z
loop_
_atom_site_type_symbol
_atom_site_label
_atom_site_fract_x
_atom_site_fract_y
_atom_site_fract_z
Si Si1 0.631736 0.665369 0.812944
Si Si2 0.072111 0.168133 0.987755
Si Si3 0.192495 0.834884 0.261132
Si Si4 0.749802 0.163743 0.577406
Si Si5 0.549541 0.670578 0.636448
Si Si6 0.863342 0.840625 0.370054
Si Si7 0.110293 0.833177 0.448108
Si Si8 0.684061 0.666295 0.337459
O O1 0.680147 0.500000 0.840214
O O2 0.585295 0.720897 0.722069
O O3 0.494160 0.688045 0.768551
O O4 0.771006 0.754436 0.924816
O O5 0.961221 0.208804 0.866994
O O6 0.105197 0.000000 0.012319
O O7 0.000000 0.224145 0.000000
O O8 0.167398 0.811487 0.311198
O O9 0.326480 0.733347 0.326413
O O10 0.234743 0.000000 0.273772
O O11 0.611073 0.270455 0.483805
O O12 0.873047 0.195685 0.607354
O O13 0.689723 0.000000 0.534549
O O14 0.546236 0.500000 0.628742
O O15 0.733618 0.733023 0.309060
O O16 0.000000 0.839151 0.500000
O O17 0.939521 0.791591 0.359310
O O18 0.792560 0.000000 0.320285
O O19 0.234748 0.740870 0.559048
O O20 0.139213 0.000000 0.481964
O O21 0.729387 0.500000 0.366912
#
# Coordination Sequence:
#
# PCOD8057824 Si02
#       8
#     4   4   4   4   4   4   4   4
#     4  10  21  33  47  69  96 125 156 193 234 277
#     4  10  20  34  52  70  89 118 158 202 240 278
#     4  10  21  36  50  69  93 121 162 202 236 277
#     4  10  20  33  50  69  95 129 159 192 233 278
#     4  11  21  33  48  69  97 127 159 194 232 277
#     4   8  15  27  42  64  93 122 153 185 222 276
#     4   9  17  29  45  66  93 126 156 183 225 278
#     4  10  18  29  44  67  96 123 153 189 229 273
#
# _framework density 16.198162
#
# number of rings (size 3 to 8) (size 9 to 14) (size 15 to 20)
#    0.000    2.250    2.500    1.875    0.000    6.500 
#    0.000    0.000    0.000    0.000    0.000    0.875 
#    0.000    7.000    0.000    0.000    0.000    0.000 
#
# Total GULP energy -396774.773977 kJ/mol
# GULP energy per Si atom -12399.211687 kJ/mol
# Density = 1.616129 g / cm^3
# Si number density = 16.198162 Si / 1000 Ang^3
#
#
#
# Elastic Constant Matrix: (Units=GPa)
#
#
# Indices 1 2 3 4 5 6 
#
# 1 130.7767 56.2776 60.7826 0.0000 5.8566 0.0000
# 2 56.2776 65.1429 35.2144 0.0000 2.8381 0.0000
# 3 60.7826 35.2144 78.3678 0.0000 -6.3920 0.0000
# 4 0.0000 0.0000 0.0000 14.5139 0.0000 1.8631
# 5 5.8566 2.8381 -6.3920 0.0000 17.5946 0.0000
# 6 0.0000 0.0000 0.0000 1.8631 0.0000 21.2755
#
#
#
# Elastic Compliance Matrix: (Units=1/GPa)
#
#
# Indices 1 2 3 4 5 6 
#
# 1 0.015815 -0.008456 -0.009053 0.000000 -0.007189 0.000000
# 2 -0.008456 0.025614 -0.005213 0.000000 -0.003211 0.000000
# 3 -0.009053 -0.005213 0.023124 0.000000 0.012255 0.000000
# 4 0.000000 0.000000 0.000000 0.069683 0.000000 -0.006102
# 5 -0.007189 -0.003211 0.012255 0.000000 0.064199 0.000000
# 6 0.000000 0.000000 0.000000 -0.006102 0.000000 0.047537
#
#
# Mechanical properties :
#
#
# Convention : Reuss Voigt Hill
#
# Bulk Modulus (GPa) = 52.33111 64.31518 58.32314
# Shear Modulus (GPa) = 16.79065 18.81099 17.80082
#
# Velocity S-wave (km/s) = 3.22309 3.41149 3.31862
# Velocity P-wave (km/s) = 6.79912 7.43701 7.12520
#
# Compressibility (1/GPa) = 0.01910909
#
# Stress axis : x y z
#
# Youngs Moduli (GPa) = 63.23085 39.04152 43.24506
#
# Poissons Ratio (x) = 0.33012 0.39150
# Poissons Ratio (y) = 0.53466 0.22544
# Poissons Ratio (z) = 0.57243 0.20353
#
# Static dielectric constant tensor:
#      x y z
#    x 3.431540 0.000000 0.031440 
#    y 0.000000 3.088780 0.000000 
#    z 0.031440 0.000000 2.775220 
# 
# 
# High freq. dielectric constant tensor:
#      x y z
#    x 1.630410 0.000000 0.007370 
#    y 0.000000 1.626400 0.000000 
#    z 0.007370 0.000000 1.582540 
# 
# From -- ./inp_files/54797.got.cif
#   From: 2010.06.25/outbox.cif.g09.slc.cpg/sg10_28_cif.got.tgz:54797.got - 2010.06.27 22:07:45.
