data_PCOD8057693
_publ_section_title
;
Structure prediction by ZEFSAII (Michael W. Deem and Ramdas Pophale) SiO2 
 PCOD8057693
Probable space group: P 2/M
;
_chemical_formula_sum "Si O2"
_cell_formula_units_Z 22
_cell_length_a 11.716435
_cell_length_b 10.015403
_cell_length_c 16.708279
_cell_angle_alpha 90.000000
_cell_angle_beta 43.689217
_cell_angle_gamma 90.000000
_cell_volume 1354.297965
_symmetry_space_group_name_H-M "P 2/M"
_symmetry_group_IT_number 10
_symmetry_cell_setting 'monoclinic'
loop_
_space_group_symop_operation_xyz
x,y,z
-x,y,-z
-x,-y,-z
x,-y,z
loop_
_atom_site_type_symbol
_atom_site_label
_atom_site_fract_x
_atom_site_fract_y
_atom_site_fract_z
Si Si1 0.861392 0.847535 0.786649
Si Si2 0.500000 0.243627 0.000000
Si Si3 0.732939 0.157396 0.134339
Si Si4 0.111994 0.650553 0.369435
Si Si5 0.491385 0.352500 0.179555
Si Si6 0.990116 0.843375 0.126562
O O1 0.666200 0.844105 0.907244
O O2 0.917680 0.753517 0.686690
O O3 0.974975 0.792068 0.801883
O O4 0.905074 0.000000 0.742827
O O5 0.517823 0.331307 0.071088
O O6 0.570776 0.241912 0.197245
O O7 0.806371 0.190794 0.185993
O O8 0.692047 0.000000 0.146362
O O9 0.868859 0.212164 0.003371
O O10 0.064726 0.500000 0.365734
O O11 0.301025 0.655656 0.300202
O O12 0.000000 0.696964 0.500000
O O13 0.561690 0.500000 0.163574
O O14 0.015200 0.000000 0.111633
#
# Coordination Sequence:
#
# PCOD8057693 Si02
#       6
#     4   2   4   4   4   4
#     4  10  18  29  49  74  96 120 155 196 229 273
#     4  10  18  28  44  68 102 128 148 178 240 292
#     4   9  16  29  47  66  95 131 158 181 225 281
#     4   9  20  37  51  65  91 128 160 191 240 286
#     4  10  19  30  47  69  94 122 156 198 232 273
#     4   8  15  28  45  67  97 130 155 180 224 281
#
# _framework density 16.244578000000001
#
# number of rings (size 3 to 8) (size 9 to 14) (size 15 to 20)
#    0.000    2.727    1.818    1.636    0.000    4.000 
#    0.000    2.727    0.000    1.091    0.000    7.636 
#    0.000    0.000    0.000    0.000    0.000    0.000 
#
# Total GULP energy -272596.764043 kJ/mol
# GULP energy per Si atom -12390.762002 kJ/mol
# Density = 1.620760 g / cm^3
# Si number density = 16.244578 Si / 1000 Ang^3
#
#
#
# Elastic Constant Matrix: (Units=GPa)
#
#
# Indices 1 2 3 4 5 6 
#
# 1 129.1462 63.4517 41.8930 0.0000 10.0843 0.0000
# 2 63.4517 89.1627 36.5464 0.0000 7.8136 0.0000
# 3 41.8930 36.5464 84.6340 0.0000 12.1545 0.0000
# 4 0.0000 0.0000 0.0000 17.1261 0.0000 -0.4806
# 5 10.0843 7.8136 12.1545 0.0000 13.0302 0.0000
# 6 0.0000 0.0000 0.0000 -0.4806 0.0000 15.4522
#
#
#
# Elastic Compliance Matrix: (Units=1/GPa)
#
#
# Indices 1 2 3 4 5 6 
#
# 1 0.012528 -0.007648 -0.002500 0.000000 -0.002778 0.000000
# 2 -0.007648 0.018405 -0.003957 0.000000 -0.001427 0.000000
# 3 -0.002500 -0.003957 0.016331 0.000000 -0.010926 0.000000
# 4 0.000000 0.000000 0.000000 0.058441 0.000000 0.001818
# 5 -0.002778 -0.001427 -0.010926 0.000000 0.089941 0.000000
# 6 0.000000 0.000000 0.000000 0.001818 0.000000 0.064772
#
#
# Mechanical properties :
#
#
# Convention : Reuss Voigt Hill
#
# Bulk Modulus (GPa) = 52.48113 65.19166 58.83639
# Shear Modulus (GPa) = 16.95029 19.85851 18.40440
#
# Velocity S-wave (km/s) = 3.23374 3.50018 3.36959
# Velocity P-wave (km/s) = 6.80586 7.52020 7.17193
#
# Compressibility (1/GPa) = 0.01905447
#
# Stress axis : x y z
#
# Youngs Moduli (GPa) = 79.81837 54.33396 61.23342
#
# Poissons Ratio (x) = 0.41552 0.15309
# Poissons Ratio (y) = 0.61041 0.24231
# Poissons Ratio (z) = 0.19956 0.21501
#
# Static dielectric constant tensor:
#      x y z
#    x 3.480590 0.000000 0.083890 
#    y 0.000000 2.952830 0.000000 
#    z 0.083890 0.000000 2.829720 
# 
# 
# High freq. dielectric constant tensor:
#      x y z
#    x 1.630550 0.000000 -0.000230 
#    y 0.000000 1.614980 0.000000 
#    z -0.000230 0.000000 1.588930 
# 
# From -- ./inp_files/75876.got.cif
#   From: 2010.06.25/outbox.cif.g09.slc.cpg/sg10_38_cif.got.tgz:75876.got - 2010.06.27 22:07:45.
