data_PCOD8057030
_publ_section_title
;
Structure prediction by ZEFSAII (Michael W. Deem and Ramdas Pophale) SiO2 
 PCOD8057030
Probable space group: P 2/M
;
_chemical_formula_sum "Si O2"
_cell_formula_units_Z 20
_cell_length_a 9.409930
_cell_length_b 8.658548
_cell_length_c 16.412925
_cell_angle_alpha 90.000000
_cell_angle_beta 126.401035
_cell_angle_gamma 90.000000
_cell_volume 1076.341891
_symmetry_space_group_name_H-M "P 2/M"
_symmetry_group_IT_number 10
_symmetry_cell_setting 'monoclinic'
loop_
_space_group_symop_operation_xyz
x,y,z
-x,y,-z
-x,-y,-z
x,-y,z
loop_
_atom_site_type_symbol
_atom_site_label
_atom_site_fract_x
_atom_site_fract_y
_atom_site_fract_z
Si Si1 0.869887 0.183169 0.697289
Si Si2 0.243550 0.179998 0.101036
Si Si3 0.928794 0.319198 0.096273
Si Si4 0.844631 0.184160 0.503991
Si Si5 0.470380 0.179822 0.322457
O O1 0.878968 0.239956 0.607577
O O2 0.687196 0.246722 0.674619
O O3 0.039786 0.253174 0.802239
O O4 0.880199 0.000000 0.708687
O O5 0.428329 0.208131 0.211749
O O6 0.098144 0.276080 0.100537
O O7 0.193181 0.000000 0.086317
O O8 0.242995 0.242053 0.007367
O O9 0.898022 0.500000 0.090487
O O10 0.658409 0.255368 0.409176
O O11 0.000000 0.250712 0.500000
O O12 0.841013 0.000000 0.498141
O O13 0.483537 0.000000 0.346589
#
# Coordination Sequence:
#
# PCOD8057030 Si02
#       5
#     4   4   4   4   4
#     4   9  16  27  44  65  90 118 145 174 214 262
#     4   9  15  25  42  64  91 118 143 173 217 265
#     4  10  17  25  40  64  92 116 144 181 217 252
#     4   9  16  26  43  67  90 111 142 185 224 255
#     4   8  14  24  41  65  90 115 141 173 215 262
#
# _framework density 18.581457
#
# number of rings (size 3 to 8) (size 9 to 14) (size 15 to 20)
#    0.000    3.000    0.000    5.400    0.000    2.400 
#    0.000    0.000    0.000   12.600    0.000    8.400 
#    0.000    0.000    0.000    0.000    0.000    0.000 
#
# Total GULP energy -247781.297437 kJ/mol
# GULP energy per Si atom -12389.064872 kJ/mol
# Density = 1.853916 g / cm^3
# Si number density = 18.581457 Si / 1000 Ang^3
#
#
#
# Elastic Constant Matrix: (Units=GPa)
#
#
# Indices 1 2 3 4 5 6 
#
# 1 75.9362 14.2215 70.9288 0.0000 -10.1356 0.0000
# 2 14.2215 37.6304 34.4493 0.0000 -4.1671 0.0000
# 3 70.9288 34.4493 203.0882 0.0000 -30.6013 0.0000
# 4 0.0000 0.0000 0.0000 5.1926 0.0000 -5.3904
# 5 -10.1356 -4.1671 -30.6013 0.0000 10.0256 0.0000
# 6 0.0000 0.0000 0.0000 -5.3904 0.0000 4.3380
#
#
#
# Elastic Compliance Matrix: (Units=1/GPa)
#
#
# Indices 1 2 3 4 5 6 
#
# 1 0.019619 -0.001295 -0.006897 0.000000 -0.001755 0.000000
# 2 -0.001295 0.031738 -0.005816 0.000000 -0.005869 0.000000
# 3 -0.006897 -0.005816 0.012784 0.000000 0.029631 0.000000
# 4 0.000000 0.000000 0.000000 -0.664179 0.000000 -0.825316
# 5 -0.001755 -0.005869 0.029631 0.000000 0.185974 0.000000
# 6 0.000000 0.000000 0.000000 -0.825316 0.000000 -0.795024
#
#
# Mechanical properties :
#
#
# Convention : Reuss Voigt Hill
#
# Bulk Modulus (GPa) = 27.68098 61.76157 44.72127
# Shear Modulus (GPa) = -4.27704 17.04824 6.38560
#
# Velocity S-wave (km/s) = -1.51881 3.03229 1.85580
# Velocity P-wave (km/s) = 3.44293 6.75057 5.35835
#
# Compressibility (1/GPa) = 0.03612589
#
# Stress axis : x y z
#
# Youngs Moduli (GPa) = 50.97025 31.50820 78.22312
#
# Poissons Ratio (x) = 0.04081 0.53949
# Poissons Ratio (y) = 0.06602 0.45491
# Poissons Ratio (z) = 0.35153 0.18324
#
# Static dielectric constant tensor:
#      x y z
#    x 3.057350 0.000000 -0.108580 
#    y 0.000000 2.947110 0.000000 
#    z -0.108580 0.000000 4.332340 
# 
# 
# High freq. dielectric constant tensor:
#      x y z
#    x 1.655610 0.000000 -0.013360 
#    y 0.000000 1.677730 0.000000 
#    z -0.013360 0.000000 1.755220 
# 
# From -- ./inp_files/26920.got.cif
#   From: 2010.06.25/outbox.cif.g09.slc.cpg/sg10_14_cif.got.tgz:26920.got - 2010.06.27 22:07:45.
