data_PCOD8057122
_publ_section_title
;
Structure prediction by ZEFSAII (Michael W. Deem and Ramdas Pophale) SiO2 
 PCOD8057122
Probable space group: P 2/M
;
_chemical_formula_sum "Si O2"
_cell_formula_units_Z 32
_cell_length_a 21.584381
_cell_length_b 8.619790
_cell_length_c 26.795582
_cell_angle_alpha 90.000000
_cell_angle_beta 160.022310
_cell_angle_gamma 90.000000
_cell_volume 1703.280851
_symmetry_space_group_name_H-M "P 2/M"
_symmetry_group_IT_number 10
_symmetry_cell_setting 'monoclinic'
loop_
_space_group_symop_operation_xyz
x,y,z
-x,y,-z
-x,-y,-z
x,-y,z
loop_
_atom_site_type_symbol
_atom_site_label
_atom_site_fract_x
_atom_site_fract_y
_atom_site_fract_z
Si Si1 0.999104 0.684480 0.788953
Si Si2 0.608290 0.321415 0.132509
Si Si3 0.598227 0.684363 0.925875
Si Si4 0.323058 0.316887 0.635326
Si Si5 0.221966 0.181388 0.295604
Si Si6 0.984799 0.819640 0.431524
Si Si7 0.677307 0.680927 0.475338
Si Si8 0.545668 0.680927 0.603058
O O1 0.992772 0.500000 0.786878
O O2 0.954542 0.748483 0.810711
O O3 0.852867 0.748408 0.637807
O O4 0.196982 0.747923 0.923472
O O5 0.664527 0.500000 0.184188
O O6 0.486798 0.258568 0.086329
O O7 0.785064 0.216551 0.260682
O O8 0.500000 0.301169 0.000000
O O9 0.601371 0.500000 0.926610
O O10 0.476936 0.752344 0.788611
O O11 0.346056 0.500000 0.650757
O O12 0.345161 0.243471 0.596483
O O13 0.124551 0.277492 0.504682
O O14 0.257868 0.258620 0.267680
O O15 0.394573 0.221015 0.459944
O O16 0.195902 0.000000 0.268810
O O17 0.000000 0.764226 0.500000
O O18 0.029457 0.000000 0.459534
O O19 0.713511 0.500000 0.495735
O O20 0.491280 0.710511 0.365987
O O21 0.520696 0.500000 0.571543
#
# Coordination Sequence:
#
# PCOD8057122 Si02
#       8
#     4   4   4   4   4   4   4   4
#     4   9  17  31  48  70 101 133 164 202 252 307
#     4  10  21  36  58  84 105 131 172 221 267 308
#     4   9  18  32  52  77 101 129 168 211 257 303
#     4  10  19  34  56  78 100 131 172 218 259 302
#     4  10  17  26  43  71 100 129 165 205 246 291
#     4  11  23  38  54  75 106 142 177 212 255 313
#     4   8  16  28  49  76  99 125 162 208 254 298
#     4   9  15  27  46  69  98 131 163 200 251 301
#
# _framework density 18.787271
#
# number of rings (size 3 to 8) (size 9 to 14) (size 15 to 20)
#    0.000    2.500    1.250    3.375    1.750    0.750 
#    0.000    4.375    0.000    0.750    0.000    5.250 
#    0.000    0.000    0.000    0.000    0.000    0.000 
#
# Total GULP energy -396623.946861 kJ/mol
# GULP energy per Si atom -12394.498339 kJ/mol
# Density = 1.874451 g / cm^3
# Si number density = 18.787271 Si / 1000 Ang^3
#
#
#
# Elastic Constant Matrix: (Units=GPa)
#
#
# Indices 1 2 3 4 5 6 
#
# 1 175.4177 21.3821 64.5597 0.0000 7.4707 0.0000
# 2 21.3821 27.3691 13.0495 0.0000 -1.6923 0.0000
# 3 64.5597 13.0495 84.5483 0.0000 3.7708 0.0000
# 4 0.0000 0.0000 0.0000 11.0498 0.0000 2.6402
# 5 7.4707 -1.6923 3.7708 0.0000 21.6959 0.0000
# 6 0.0000 0.0000 0.0000 2.6402 0.0000 7.5506
#
#
#
# Elastic Compliance Matrix: (Units=1/GPa)
#
#
# Indices 1 2 3 4 5 6 
#
# 1 0.008368 -0.003966 -0.005679 0.000000 -0.002204 0.000000
# 2 -0.003966 0.041697 -0.003641 0.000000 0.005251 0.000000
# 3 -0.005679 -0.003641 0.016782 0.000000 -0.001245 0.000000
# 4 0.000000 0.000000 0.000000 0.098749 0.000000 -0.034528
# 5 -0.002204 0.005251 -0.001245 0.000000 0.047477 0.000000
# 6 0.000000 0.000000 0.000000 -0.034528 0.000000 0.144512
#
#
# Mechanical properties :
#
#
# Convention : Reuss Voigt Hill
#
# Bulk Modulus (GPa) = 24.83045 53.92422 39.37733
# Shear Modulus (GPa) = 12.57600 20.61552 16.59576
#
# Velocity S-wave (km/s) = 2.59006 3.31617 2.97535
# Velocity P-wave (km/s) = 4.71062 6.58995 5.72789
#
# Compressibility (1/GPa) = 0.04027313
#
# Stress axis : x y z
#
# Youngs Moduli (GPa) = 119.50054 23.98263 59.58830
#
# Poissons Ratio (x) = 0.09511 0.33843
# Poissons Ratio (y) = 0.47394 0.21699
# Poissons Ratio (z) = 0.67869 0.08733
#
# Static dielectric constant tensor:
#      x y z
#    x 4.044770 0.000000 0.162130 
#    y 0.000000 3.090440 0.000000 
#    z 0.162130 0.000000 3.373590 
# 
# 
# High freq. dielectric constant tensor:
#      x y z
#    x 1.748190 0.000000 0.017960 
#    y 0.000000 1.697800 0.000000 
#    z 0.017960 0.000000 1.698520 
# 
# From -- ./inp_files/93797.got.cif
#   From: 2010.06.25/outbox.cif.g09.slc.cpg/sg10_47_cif.got.tgz:93797.got - 2010.06.27 22:07:45.
