data_PCOD8057853
_publ_section_title
;
Structure prediction by ZEFSAII (Michael W. Deem and Ramdas Pophale) SiO2 
 PCOD8057853
Probable space group: P 2/M
;
_chemical_formula_sum "Si O2"
_cell_formula_units_Z 32
_cell_length_a 16.070440
_cell_length_b 17.718856
_cell_length_c 18.364442
_cell_angle_alpha 90.000000
_cell_angle_beta 21.628252
_cell_angle_gamma 90.000000
_cell_volume 1927.420397
_symmetry_space_group_name_H-M "P 2/M"
_symmetry_group_IT_number 10
_symmetry_cell_setting 'monoclinic'
loop_
_space_group_symop_operation_xyz
x,y,z
-x,y,-z
-x,-y,-z
x,-y,z
loop_
_atom_site_type_symbol
_atom_site_label
_atom_site_fract_x
_atom_site_fract_y
_atom_site_fract_z
Si Si1 0.147190 0.670833 0.163523
Si Si2 0.234007 0.583599 0.230325
Si Si3 0.274556 0.584545 0.505970
Si Si4 0.484291 0.694069 0.433562
Si Si5 0.047497 0.793770 0.771558
Si Si6 0.409256 0.088595 0.492904
Si Si7 0.414846 0.414331 0.230366
Si Si8 0.210486 0.181059 0.874598
O O1 0.137892 0.651694 0.258067
O O2 0.964570 0.617158 0.272754
O O3 0.078841 0.757909 0.197917
O O4 0.389210 0.647936 0.934621
O O5 0.126273 0.500000 0.299253
O O6 0.216601 0.600968 0.331450
O O7 0.500000 0.577965 0.000000
O O8 0.296847 0.500000 0.514212
O O9 0.477987 0.629050 0.378438
O O10 0.288901 0.595629 0.408192
O O11 0.500000 0.656198 0.500000
O O12 0.257007 0.742229 0.621979
O O13 0.699594 0.744747 0.239465
O O14 0.164305 0.876374 0.669309
O O15 0.856389 0.798088 0.988864
O O16 0.500000 0.112229 0.500000
O O17 0.595585 0.116968 0.283043
O O18 0.378443 0.000000 0.511504
O O19 0.512128 0.500000 0.141965
O O20 0.000000 0.149093 0.000000
#
# Coordination Sequence:
#
# PCOD8057853 Si02
#       8
#     4   4   4   4   4   4   4   4
#     4  10  18  29  46  64  88 119 151 181 222 275
#     4   8  14  26  45  66  91 120 148 184 231 277
#     4  10  20  30  43  62  85 119 159 198 237 269
#     4  10  19  31  44  61  86 118 160 201 226 260
#     4  10  19  31  46  67  91 119 149 182 221 267
#     4  10  20  32  47  71  97 116 145 186 220 264
#     4   9  17  30  45  65  93 120 150 192 236 278
#     4  11  17  30  50  65  83 118 154 178 221 271
#
# _framework density 16.602502000000001
#
# number of rings (size 3 to 8) (size 9 to 14) (size 15 to 20)
#    0.000    2.250    2.500    3.375    0.000    1.500 
#    0.000    1.875    0.000    0.375    0.000    0.000 
#    0.000    4.500    0.000   37.500    0.000    3.250 
#
# Total GULP energy -396461.351144 kJ/mol
# GULP energy per Si atom -12389.417223 kJ/mol
# Density = 1.656471 g / cm^3
# Si number density = 16.602502 Si / 1000 Ang^3
#
#
#
# Elastic Constant Matrix: (Units=GPa)
#
#
# Indices 1 2 3 4 5 6 
#
# 1 83.9775 42.9625 20.3279 0.0000 6.3630 0.0000
# 2 42.9625 88.2100 29.8264 0.0000 -1.9602 0.0000
# 3 20.3279 29.8264 65.1611 0.0000 -0.2308 0.0000
# 4 0.0000 0.0000 0.0000 12.6062 0.0000 -7.5381
# 5 6.3630 -1.9602 -0.2308 0.0000 23.0307 0.0000
# 6 0.0000 0.0000 0.0000 -7.5381 0.0000 24.3962
#
#
#
# Elastic Compliance Matrix: (Units=1/GPa)
#
#
# Indices 1 2 3 4 5 6 
#
# 1 0.016628 -0.007637 -0.001710 0.000000 -0.005261 0.000000
# 2 -0.007637 0.016947 -0.005362 0.000000 0.003499 0.000000
# 3 -0.001710 -0.005362 0.018335 0.000000 0.000200 0.000000
# 4 0.000000 0.000000 0.000000 0.097305 0.000000 0.030066
# 5 -0.005261 0.003499 0.000200 0.000000 0.045174 0.000000
# 6 0.000000 0.000000 0.000000 0.030066 0.000000 0.050280
#
#
# Mechanical properties :
#
#
# Convention : Reuss Voigt Hill
#
# Bulk Modulus (GPa) = 44.46237 47.06468 45.76353
# Shear Modulus (GPa) = 17.75663 21.62205 19.68934
#
# Velocity S-wave (km/s) = 3.27389 3.61271 3.44746
# Velocity P-wave (km/s) = 6.41325 6.76843 6.59324
#
# Compressibility (1/GPa) = 0.02249093
#
# Stress axis : x y z
#
# Youngs Moduli (GPa) = 60.14076 59.00690 54.53954
#
# Poissons Ratio (x) = 0.45064 0.09327
# Poissons Ratio (y) = 0.45930 0.29246
# Poissons Ratio (z) = 0.10284 0.31642
#
# Static dielectric constant tensor:
#      x y z
#    x 3.362930 0.000000 0.019530 
#    y 0.000000 3.020830 0.000000 
#    z 0.019530 0.000000 3.227100 
# 
# 
# High freq. dielectric constant tensor:
#      x y z
#    x 1.622500 0.000000 0.004430 
#    y 0.000000 1.602620 0.000000 
#    z 0.004430 0.000000 1.654010 
# 
# From -- ./inp_files/85993.got.cif
#   From: 2010.06.25/outbox.cif.g09.slc.cpg/sg10_43_cif.got.tgz:85993.got - 2010.06.27 22:07:45.
