data_PCOD8057154
_publ_section_title
;
Structure prediction by ZEFSAII (Michael W. Deem and Ramdas Pophale) SiO2 
 PCOD8057154
Probable space group: P 2/M
;
_chemical_formula_sum "Si O2"
_cell_formula_units_Z 32
_cell_length_a 19.349396
_cell_length_b 9.260379
_cell_length_c 28.960026
_cell_angle_alpha 90.000000
_cell_angle_beta 156.332332
_cell_angle_gamma 90.000000
_cell_volume 2083.080406
_symmetry_space_group_name_H-M "P 2/M"
_symmetry_group_IT_number 10
_symmetry_cell_setting 'monoclinic'
loop_
_space_group_symop_operation_xyz
x,y,z
-x,y,-z
-x,-y,-z
x,-y,z
loop_
_atom_site_type_symbol
_atom_site_label
_atom_site_fract_x
_atom_site_fract_y
_atom_site_fract_z
Si Si1 0.337033 0.331048 0.496440
Si Si2 0.410497 0.165662 0.842164
Si Si3 0.941423 0.172151 0.414699
Si Si4 0.730886 0.668870 0.057278
Si Si5 0.883628 0.332903 0.728419
Si Si6 0.122958 0.834959 0.435266
Si Si7 0.385486 0.163157 0.384445
Si Si8 0.240827 0.839452 0.834797
O O1 0.371605 0.500000 0.523383
O O2 0.197828 0.298142 0.371364
O O3 0.268487 0.267233 0.502719
O O4 0.517710 0.253445 0.595880
O O5 0.582668 0.255457 0.935919
O O6 0.372297 0.181935 0.873162
O O7 0.249922 0.229733 0.714573
O O8 0.442943 0.000000 0.848526
O O9 0.080096 0.220398 0.460890
O O10 0.000000 0.234218 0.500000
O O11 0.933093 0.000000 0.409047
O O12 0.698183 0.500000 0.036701
O O13 0.719955 0.720411 0.103226
O O14 0.915986 0.708980 0.149289
O O15 0.853788 0.500000 0.722284
O O16 0.796209 0.238136 0.715045
O O17 0.952346 0.821804 0.300725
O O18 0.189789 0.000000 0.476486
O O19 0.500000 0.164777 0.500000
O O20 0.352966 0.000000 0.347285
O O21 0.265706 0.000000 0.871313
#
# Coordination Sequence:
#
# PCOD8057154 Si02
#       8
#     4   4   4   4   4   4   4   4
#     4  10  17  27  41  57  83 115 144 175 210 250
#     4   9  18  30  43  61  81 107 142 177 215 254
#     4   8  15  30  50  67  84 108 140 180 223 261
#     4  11  20  28  39  58  84 114 146 176 205 245
#     4   9  18  29  38  53  80 115 148 174 207 247
#     4   9  16  26  43  65  84 107 143 182 215 250
#     4   9  17  27  40  58  78 106 145 182 212 242
#     4   9  17  28  40  55  81 112 142 177 212 244
#
# _framework density 15.361865
#
# number of rings (size 3 to 8) (size 9 to 14) (size 15 to 20)
#    0.000    2.750    1.250    3.000    0.000    5.000 
#    0.000    1.875    0.000    1.500    0.000    0.000 
#    0.000    1.000    0.000   11.500    0.000    2.875 
#
# Total GULP energy -396727.909222 kJ/mol
# GULP energy per Si atom -12397.747163 kJ/mol
# Density = 1.532690 g / cm^3
# Si number density = 15.361865 Si / 1000 Ang^3
#
#
#
# Elastic Constant Matrix: (Units=GPa)
#
#
# Indices 1 2 3 4 5 6 
#
# 1 93.7872 51.5850 55.2490 0.0000 14.6952 0.0000
# 2 51.5850 79.8442 42.2480 0.0000 15.3871 0.0000
# 3 55.2490 42.2480 65.9755 0.0000 14.4744 0.0000
# 4 0.0000 0.0000 0.0000 17.6602 0.0000 11.0293
# 5 14.6952 15.3871 14.4744 0.0000 20.5823 0.0000
# 6 0.0000 0.0000 0.0000 11.0293 0.0000 18.2188
#
#
#
# Elastic Compliance Matrix: (Units=1/GPa)
#
#
# Indices 1 2 3 4 5 6 
#
# 1 0.023520 -0.007107 -0.014930 0.000000 -0.000980 0.000000
# 2 -0.007107 0.021895 -0.006611 0.000000 -0.006645 0.000000
# 3 -0.014930 -0.006611 0.033665 0.000000 -0.008072 0.000000
# 4 0.000000 0.000000 0.000000 0.091048 0.000000 -0.055119
# 5 -0.000980 -0.006645 -0.008072 0.000000 0.059929 0.000000
# 6 0.000000 0.000000 0.000000 -0.055119 0.000000 0.088256
#
#
# Mechanical properties :
#
#
# Convention : Reuss Voigt Hill
#
# Bulk Modulus (GPa) = 45.90798 59.75231 52.83015
# Shear Modulus (GPa) = 13.05926 17.32726 15.19326
#
# Velocity S-wave (km/s) = 2.91883 3.36213 3.14829
# Velocity P-wave (km/s) = 6.42718 7.35206 6.90512
#
# Compressibility (1/GPa) = 0.02178270
#
# Stress axis : x y z
#
# Youngs Moduli (GPa) = 42.51681 45.67335 29.70482
#
# Poissons Ratio (x) = 0.32459 0.44350
# Poissons Ratio (y) = 0.30215 0.19639
# Poissons Ratio (z) = 0.63479 0.30196
#
# Static dielectric constant tensor:
#      x y z
#    x 2.888430 0.000000 0.192470 
#    y 0.000000 2.887460 0.000000 
#    z 0.192470 0.000000 2.816880 
# 
# 
# High freq. dielectric constant tensor:
#      x y z
#    x 1.567310 0.000000 0.031080 
#    y 0.000000 1.584330 0.000000 
#    z 0.031080 0.000000 1.557500 
# 
# From -- ./inp_files/72244.got.cif
#   From: 2010.06.25/outbox.cif.g09.slc.cpg/sg10_37_cif.got.tgz:72244.got - 2010.06.27 22:07:45.
