data_PCOD8057951
_publ_section_title
;
Structure prediction by ZEFSAII (Michael W. Deem and Ramdas Pophale) SiO2 
 PCOD8057951
Probable space group: P 2/M
;
_chemical_formula_sum "Si O2"
_cell_formula_units_Z 32
_cell_length_a 30.007330
_cell_length_b 9.164494
_cell_length_c 19.407881
_cell_angle_alpha 90.000000
_cell_angle_beta 159.985390
_cell_angle_gamma 90.000000
_cell_volume 1826.710777
_symmetry_space_group_name_H-M "P 2/M"
_symmetry_group_IT_number 10
_symmetry_cell_setting 'monoclinic'
loop_
_space_group_symop_operation_xyz
x,y,z
-x,y,-z
-x,-y,-z
x,-y,z
loop_
_atom_site_type_symbol
_atom_site_label
_atom_site_fract_x
_atom_site_fract_y
_atom_site_fract_z
Si Si1 0.639458 0.838080 0.451728
Si Si2 0.156196 0.167061 0.915282
Si Si3 0.942705 0.166885 0.084531
Si Si4 0.114271 0.327768 0.716065
Si Si5 0.342589 0.162621 0.361052
Si Si6 0.600786 0.338162 0.889124
Si Si7 0.412518 0.663666 0.294169
Si Si8 0.899835 0.327458 0.794889
O O1 0.624488 0.847932 0.511259
O O2 0.504503 0.767710 0.227826
O O3 0.758964 0.737574 0.604246
O O4 0.656423 0.000000 0.444577
O O5 0.049093 0.177692 0.820558
O O6 0.096981 0.250166 0.764240
O O7 0.184921 0.000000 0.936717
O O8 0.290880 0.235894 0.140445
O O9 0.051536 0.267692 0.207993
O O10 0.962048 0.000000 0.087630
O O11 0.801874 0.227022 0.856335
O O12 0.108442 0.500000 0.721640
O O13 0.000000 0.274095 0.500000
O O14 0.251924 0.284705 0.880637
O O15 0.448432 0.268792 0.477947
O O16 0.348942 0.000000 0.336942
O O17 0.577884 0.500000 0.885916
O O18 0.585704 0.341108 0.785378
O O19 0.397288 0.500000 0.301716
O O20 0.887444 0.500000 0.773445
O O21 0.000000 0.277319 0.000000
#
# Coordination Sequence:
#
# PCOD8057951 Si02
#       8
#     4   4   4   4   4   4   4   4
#     4  10  18  29  48  68  93 129 167 207 248 289
#     4  10  20  33  49  70  98 129 162 201 242 289
#     4  10  21  35  48  65  93 130 169 207 248 292
#     4   9  18  34  56  80 105 132 159 192 240 297
#     4   9  17  29  45  64  88 125 169 207 243 284
#     4   8  15  28  46  70  99 126 157 197 238 285
#     4   9  17  29  45  64  92 128 164 202 242 285
#     4  11  22  33  48  70  94 125 169 218 257 289
#
# _framework density 17.517825999999999
#
# number of rings (size 3 to 8) (size 9 to 14) (size 15 to 20)
#    0.000    2.500    1.250    2.250    0.000    6.250 
#    0.000    2.500    0.000    0.000    0.000    0.875 
#    0.000    7.000    0.000    0.000    0.000    0.000 
#
# Total GULP energy -396771.674822 kJ/mol
# GULP energy per Si atom -12399.114838 kJ/mol
# Density = 1.747795 g / cm^3
# Si number density = 17.517826 Si / 1000 Ang^3
#
#
#
# Elastic Constant Matrix: (Units=GPa)
#
#
# Indices 1 2 3 4 5 6 
#
# 1 49.5086 36.4467 32.5301 0.0000 15.1939 0.0000
# 2 36.4467 96.1087 44.5877 0.0000 16.3671 0.0000
# 3 32.5301 44.5877 108.7905 0.0000 9.2967 0.0000
# 4 0.0000 0.0000 0.0000 26.4562 0.0000 8.7959
# 5 15.1939 16.3671 9.2967 0.0000 25.0387 0.0000
# 6 0.0000 0.0000 0.0000 8.7959 0.0000 24.3457
#
#
#
# Elastic Compliance Matrix: (Units=1/GPa)
#
#
# Indices 1 2 3 4 5 6 
#
# 1 0.033873 -0.007923 -0.005750 0.000000 -0.013241 0.000000
# 2 -0.007923 0.015872 -0.003780 0.000000 -0.004164 0.000000
# 3 -0.005750 -0.003780 0.012343 0.000000 0.001377 0.000000
# 4 0.000000 0.000000 0.000000 0.042958 0.000000 -0.015521
# 5 -0.013241 -0.004164 0.001377 0.000000 0.050183 0.000000
# 6 0.000000 0.000000 0.000000 -0.015521 0.000000 0.046682
#
#
# Mechanical properties :
#
#
# Convention : Reuss Voigt Hill
#
# Bulk Modulus (GPa) = 36.78939 53.50409 45.14674
# Shear Modulus (GPa) = 20.33525 24.55769 22.44647
#
# Velocity S-wave (km/s) = 3.41079 3.74822 3.58348
# Velocity P-wave (km/s) = 6.04633 7.02432 6.55359
#
# Compressibility (1/GPa) = 0.02718175
#
# Stress axis : x y z
#
# Youngs Moduli (GPa) = 29.52246 63.00253 81.01810
#
# Poissons Ratio (x) = 0.49916 0.46583
# Poissons Ratio (y) = 0.23390 0.30628
# Poissons Ratio (z) = 0.16975 0.23817
#
# Static dielectric constant tensor:
#      x y z
#    x 2.986330 0.000000 0.127800 
#    y 0.000000 3.451080 0.000000 
#    z 0.127800 0.000000 3.269710 
# 
# 
# High freq. dielectric constant tensor:
#      x y z
#    x 1.646660 0.000000 0.019180 
#    y 0.000000 1.686620 0.000000 
#    z 0.019180 0.000000 1.658080 
# 
# From -- ./inp_files/52710.got.cif
#   From: 2010.06.25/outbox.cif.g09.slc.cpg/sg10_27_cif.got.tgz:52710.got - 2010.06.27 22:07:45.
