data_PCOD8057736
_publ_section_title
;
Structure prediction by ZEFSAII (Michael W. Deem and Ramdas Pophale) SiO2 
 PCOD8057736
Probable space group: P 2/M
;
_chemical_formula_sum "Si O2"
_cell_formula_units_Z 24
_cell_length_a 16.568943
_cell_length_b 9.304368
_cell_length_c 15.111487
_cell_angle_alpha 90.000000
_cell_angle_beta 143.300883
_cell_angle_gamma 90.000000
_cell_volume 1392.222886
_symmetry_space_group_name_H-M "P 2/M"
_symmetry_group_IT_number 10
_symmetry_cell_setting 'monoclinic'
loop_
_space_group_symop_operation_xyz
x,y,z
-x,y,-z
-x,-y,-z
x,-y,z
loop_
_atom_site_type_symbol
_atom_site_label
_atom_site_fract_x
_atom_site_fract_y
_atom_site_fract_z
Si Si1 0.404410 0.669475 0.636119
Si Si2 0.844180 0.664976 0.880495
Si Si3 0.357352 0.830606 0.418490
Si Si4 0.318689 0.160984 0.919287
Si Si5 0.710494 0.335505 0.943255
Si Si6 0.635400 0.836980 0.232148
O O1 0.379593 0.500000 0.606507
O O2 0.341238 0.748374 0.496570
O O3 0.562316 0.710678 0.779133
O O4 0.327111 0.729331 0.655203
O O5 0.802570 0.500000 0.822185
O O6 0.760350 0.775008 0.748142
O O7 0.816677 0.698479 0.959366
O O8 0.000000 0.693107 0.000000
O O9 0.500000 0.792002 0.500000
O O10 0.341205 0.000000 0.419809
O O11 0.290386 0.214084 0.793511
O O12 0.264249 0.000000 0.881506
O O13 0.242386 0.254254 0.926308
O O14 0.476799 0.168383 0.076258
O O15 0.708330 0.500000 0.968782
O O16 0.678656 0.000000 0.294377
#
# Coordination Sequence:
#
# PCOD8057736 Si02
#       6
#     4   4   4   4   4   4
#     4  10  18  28  46  70  97 128 162 202 246 291
#     4  10  21  37  54  72  99 134 169 207 250 294
#     4  11  22  34  51  74  99 131 168 207 250 295
#     4   8  14  24  40  61  90 128 160 192 238 290
#     4   9  17  28  44  68  95 125 162 203 242 286
#     4   8  14  25  39  61  94 126 158 195 238 289
#
# _framework density 17.238617999999999
#
# number of rings (size 3 to 8) (size 9 to 14) (size 15 to 20)
#    0.000    2.667    1.667    2.000    0.000    3.000 
#    0.000    3.333    0.000    0.000    0.000    1.167 
#    0.000    9.333    0.000    0.000    0.000    0.000 
#
# Total GULP energy -297511.964075 kJ/mol
# GULP energy per Si atom -12396.331836 kJ/mol
# Density = 1.719938 g / cm^3
# Si number density = 17.238618 Si / 1000 Ang^3
#
#
#
# Elastic Constant Matrix: (Units=GPa)
#
#
# Indices 1 2 3 4 5 6 
#
# 1 123.5320 57.9880 47.3493 0.0000 -26.5551 0.0000
# 2 57.9880 85.8563 40.8172 0.0000 -18.5279 0.0000
# 3 47.3493 40.8172 47.3015 0.0000 -12.4853 0.0000
# 4 0.0000 0.0000 0.0000 20.8905 0.0000 -13.8919
# 5 -26.5551 -18.5279 -12.4853 0.0000 24.6477 0.0000
# 6 0.0000 0.0000 0.0000 -13.8919 0.0000 28.4122
#
#
#
# Elastic Compliance Matrix: (Units=1/GPa)
#
#
# Indices 1 2 3 4 5 6 
#
# 1 0.015660 -0.003938 -0.009934 0.000000 0.008880 0.000000
# 2 -0.003938 0.021903 -0.013543 0.000000 0.005361 0.000000
# 3 -0.009934 -0.013543 0.043010 0.000000 0.000904 0.000000
# 4 0.000000 0.000000 0.000000 0.070931 0.000000 0.034681
# 5 0.008880 0.005361 0.000904 0.000000 0.054627 0.000000
# 6 0.000000 0.000000 0.000000 0.034681 0.000000 0.052153
#
#
# Mechanical properties :
#
#
# Convention : Reuss Voigt Hill
#
# Bulk Modulus (GPa) = 38.84578 60.99987 49.92283
# Shear Modulus (GPa) = 15.54267 22.15909 18.85088
#
# Velocity S-wave (km/s) = 3.00596 3.58918 3.31044
# Velocity P-wave (km/s) = 5.88479 7.25526 6.60566
#
# Compressibility (1/GPa) = 0.02574282
#
# Stress axis : x y z
#
# Youngs Moduli (GPa) = 63.85659 45.65660 23.25044
#
# Poissons Ratio (x) = 0.17979 0.23097
# Poissons Ratio (y) = 0.25146 0.31488
# Poissons Ratio (z) = 0.63435 0.61833
#
# Static dielectric constant tensor:
#      x y z
#    x 3.630470 0.000000 -0.314260 
#    y 0.000000 3.283000 0.000000 
#    z -0.314260 0.000000 2.819850 
# 
# 
# High freq. dielectric constant tensor:
#      x y z
#    x 1.668880 0.000000 -0.035280 
#    y 0.000000 1.668120 0.000000 
#    z -0.035280 0.000000 1.615370 
# 
# From -- ./inp_files/48877.got.cif
#   From: 2010.06.25/outbox.cif.g09.slc.cpg/sg10_25_cif.got.tgz:48877.got - 2010.06.27 22:07:45.
