data_PCOD8057726
_publ_section_title
;
Structure prediction by ZEFSAII (Michael W. Deem and Ramdas Pophale) SiO2 
 PCOD8057726
Probable space group: P 2/M
;
_chemical_formula_sum "Si O2"
_cell_formula_units_Z 32
_cell_length_a 16.109941
_cell_length_b 9.211041
_cell_length_c 25.849609
_cell_angle_alpha 90.000000
_cell_angle_beta 150.291389
_cell_angle_gamma 90.000000
_cell_volume 1900.984106
_symmetry_space_group_name_H-M "P 2/M"
_symmetry_group_IT_number 10
_symmetry_cell_setting 'monoclinic'
loop_
_space_group_symop_operation_xyz
x,y,z
-x,y,-z
-x,-y,-z
x,-y,z
loop_
_atom_site_type_symbol
_atom_site_label
_atom_site_fract_x
_atom_site_fract_y
_atom_site_fract_z
Si Si1 0.630238 0.668760 0.851297
Si Si2 0.957708 0.666949 0.082659
Si Si3 0.227520 0.833431 0.169337
Si Si4 0.952170 0.672284 0.554159
Si Si5 0.552970 0.833432 0.611159
Si Si6 0.741857 0.672284 0.343851
Si Si7 0.832551 0.333051 0.707605
Si Si8 0.793414 0.331240 0.572354
O O1 0.618363 0.500000 0.829507
O O2 0.696582 0.754288 0.838388
O O3 0.446868 0.729923 0.767726
O O4 0.758172 0.692589 0.968550
O O5 0.004005 0.500000 0.096627
O O6 0.051621 0.762213 0.090440
O O7 0.014497 0.711638 0.171500
O O8 0.359377 0.815364 0.286456
O O9 0.192580 0.000000 0.136713
O O10 0.958684 0.500000 0.557779
O O11 0.809443 0.725106 0.436482
O O12 0.909461 0.729914 0.588596
O O13 0.133781 0.732448 0.633778
O O14 0.668071 0.762213 0.629258
O O15 0.378000 0.754293 0.519816
O O16 0.524979 0.000000 0.580851
O O17 0.744014 0.500000 0.343117
O O18 0.781864 0.500000 0.689246
O O19 0.889291 0.307409 0.678920
O O20 0.751788 0.500000 0.540647
#
# Coordination Sequence:
#
# PCOD8057726 Si02
#       8
#     4   4   4   4   4   4   4   4
#     4  10  18  28  46  67  85 112 149 182 212 251
#     4   9  18  31  44  60  86 118 149 180 213 250
#     4  10  20  31  43  63  91 118 143 175 216 259
#     4   8  14  25  42  65  89 109 134 173 217 258
#     4  10  20  31  43  63  91 118 143 175 216 259
#     4   8  14  25  42  65  89 109 134 173 217 258
#     4   9  18  31  44  60  86 118 149 180 213 250
#     4  10  18  28  46  67  85 112 149 182 212 251
#
# _framework density 16.833386999999998
#
# number of rings (size 3 to 8) (size 9 to 14) (size 15 to 20)
#    0.000    2.750    0.000    3.000    0.000    6.500 
#    0.000    0.000    0.000    1.500    0.000    8.750 
#    0.000    0.000    0.000    8.500    0.000    9.250 
#
# Total GULP energy -396651.931316 kJ/mol
# GULP energy per Si atom -12395.372854 kJ/mol
# Density = 1.679507 g / cm^3
# Si number density = 16.833387 Si / 1000 Ang^3
#
#
#
# Elastic Constant Matrix: (Units=GPa)
#
#
# Indices 1 2 3 4 5 6 
#
# 1 141.6669 33.4232 76.1823 0.0000 2.9965 0.0000
# 2 33.4232 46.2010 32.2461 0.0000 1.1985 0.0000
# 3 76.1823 32.2461 116.7670 0.0000 22.3187 0.0000
# 4 0.0000 0.0000 0.0000 10.3726 0.0000 -8.3622
# 5 2.9965 1.1985 22.3187 0.0000 11.6309 0.0000
# 6 0.0000 0.0000 0.0000 -8.3622 0.0000 2.1404
#
#
#
# Elastic Compliance Matrix: (Units=1/GPa)
#
#
# Indices 1 2 3 4 5 6 
#
# 1 0.013664 -0.001847 -0.012268 0.000000 0.020211 0.000000
# 2 -0.001847 0.029706 -0.010272 0.000000 0.017126 0.000000
# 3 -0.012268 -0.010272 0.029371 0.000000 -0.052141 0.000000
# 4 0.000000 0.000000 0.000000 -0.044850 0.000000 -0.175218
# 5 0.020211 0.017126 -0.052141 0.000000 0.179061 0.000000
# 6 0.000000 0.000000 0.000000 -0.175218 0.000000 -0.217343
#
#
# Mechanical properties :
#
#
# Convention : Reuss Voigt Hill
#
# Bulk Modulus (GPa) = 41.72364 65.37090 53.54727
# Shear Modulus (GPa) = 107.82497 15.68101 61.75299
#
# Velocity S-wave (km/s) = 8.01207 3.05543 6.06337
# Velocity P-wave (km/s) = 10.50862 7.16700 8.99436
#
# Compressibility (1/GPa) = 0.02396723
#
# Stress axis : x y z
#
# Youngs Moduli (GPa) = 73.18340 33.66364 34.04719
#
# Poissons Ratio (x) = 0.06217 0.41770
# Poissons Ratio (y) = 0.13516 0.34973
# Poissons Ratio (z) = 0.89782 0.34579
#
# Static dielectric constant tensor:
#      x y z
#    x 3.384140 0.000000 -0.025380 
#    y 0.000000 2.980060 0.000000 
#    z -0.025380 0.000000 3.409170 
# 
# 
# High freq. dielectric constant tensor:
#      x y z
#    x 1.637650 0.000000 -0.009160 
#    y 0.000000 1.623450 0.000000 
#    z -0.009160 0.000000 1.646660 
# 
# From -- ./inp_files/66627.got.cif
#   From: 2010.06.25/outbox.cif.g09.slc.cpg/sg10_34_cif.got.tgz:66627.got - 2010.06.27 22:07:45.
