data_PCOD8057530
_publ_section_title
;
Structure prediction by ZEFSAII (Michael W. Deem and Ramdas Pophale) SiO2 
 PCOD8057530
Probable space group: P 2/M
;
_chemical_formula_sum "Si O2"
_cell_formula_units_Z 28
_cell_length_a 8.377886
_cell_length_b 10.313978
_cell_length_c 27.194855
_cell_angle_alpha 90.000000
_cell_angle_beta 39.767063
_cell_angle_gamma 90.000000
_cell_volume 1503.148814
_symmetry_space_group_name_H-M "P 2/M"
_symmetry_group_IT_number 10
_symmetry_cell_setting 'monoclinic'
loop_
_space_group_symop_operation_xyz
x,y,z
-x,y,-z
-x,-y,-z
x,-y,z
loop_
_atom_site_type_symbol
_atom_site_label
_atom_site_fract_x
_atom_site_fract_y
_atom_site_fract_z
Si Si1 0.263709 0.852502 0.529422
Si Si2 0.268946 0.357678 0.224439
Si Si3 0.262772 0.220919 0.321051
Si Si4 0.837909 0.646917 0.085148
Si Si5 0.929415 0.854335 0.253793
Si Si6 0.201498 0.142862 0.825886
Si Si7 0.634122 0.850635 0.599934
O O1 0.500000 0.781818 0.500000
O O2 0.223934 0.800135 0.482773
O O3 0.011338 0.842483 0.621116
O O4 0.343303 0.000000 0.502779
O O5 0.162593 0.500000 0.236303
O O6 0.266188 0.346840 0.284983
O O7 0.549393 0.343495 0.138151
O O8 0.110819 0.246307 0.236633
O O9 0.495810 0.133636 0.248062
O O10 0.297590 0.246287 0.371204
O O11 0.902348 0.500000 0.087273
O O12 0.902074 0.747714 0.113162
O O13 0.000000 0.687414 0.000000
O O14 0.909733 0.821552 0.200818
O O15 0.659028 0.843449 0.342729
O O16 0.035169 0.000000 0.236244
O O17 0.110064 0.000000 0.864442
O O18 0.708377 0.000000 0.597289
#
# Coordination Sequence:
#
# PCOD8057530 Si02
#       7
#     4   4   4   4   4   4   4
#     4  10  18  26  42  71 103 132 165 207 251 292
#     4  10  21  35  53  76 100 128 165 205 246 296
#     4  10  18  30  48  67  98 133 167 205 247 291
#     4   9  19  36  55  75 100 131 167 203 240 290
#     4   9  18  33  52  75 103 132 166 206 247 293
#     4   9  18  32  52  78 103 130 165 204 248 297
#     4   9  17  29  47  73 101 131 169 209 247 291
#
# _framework density 18.627564
#
# number of rings (size 3 to 8) (size 9 to 14) (size 15 to 20)
#    0.000    2.571    0.000    3.429    0.000    6.571 
#    0.000    2.857    0.000    9.857    0.000    0.000 
#    0.000    0.000    0.000    0.000    0.000    0.000 
#
# Total GULP energy -346916.390177 kJ/mol
# GULP energy per Si atom -12389.871078 kJ/mol
# Density = 1.858517 g / cm^3
# Si number density = 18.627564 Si / 1000 Ang^3
#
#
#
# Elastic Constant Matrix: (Units=GPa)
#
#
# Indices 1 2 3 4 5 6 
#
# 1 86.0375 48.6339 40.9314 0.0000 3.0225 0.0000
# 2 48.6339 97.6567 44.0691 0.0000 11.3446 0.0000
# 3 40.9314 44.0691 112.4585 0.0000 14.8001 0.0000
# 4 0.0000 0.0000 0.0000 15.6410 0.0000 1.7142
# 5 3.0225 11.3446 14.8001 0.0000 21.8543 0.0000
# 6 0.0000 0.0000 0.0000 1.7142 0.0000 21.1494
#
#
#
# Elastic Compliance Matrix: (Units=1/GPa)
#
#
# Indices 1 2 3 4 5 6 
#
# 1 0.017595 -0.007421 -0.004043 0.000000 0.004157 0.000000
# 2 -0.007421 0.015813 -0.002800 0.000000 -0.005286 0.000000
# 3 -0.004043 -0.002800 0.012292 0.000000 -0.006311 0.000000
# 4 0.000000 0.000000 0.000000 0.064507 0.000000 -0.005228
# 5 0.004157 -0.005286 -0.006311 0.000000 0.052201 0.000000
# 6 0.000000 0.000000 0.000000 -0.005228 0.000000 0.047706
#
#
# Mechanical properties :
#
#
# Convention : Reuss Voigt Hill
#
# Bulk Modulus (GPa) = 58.23500 62.60238 60.41869
# Shear Modulus (GPa) = 20.46109 22.56352 21.51230
#
# Velocity S-wave (km/s) = 3.31785 3.48415 3.40202
# Velocity P-wave (km/s) = 6.78294 7.06159 6.92366
#
# Compressibility (1/GPa) = 0.01717180
#
# Stress axis : x y z
#
# Youngs Moduli (GPa) = 56.83442 63.23815 81.35630
#
# Poissons Ratio (x) = 0.46928 0.32893
# Poissons Ratio (y) = 0.42176 0.22781
# Poissons Ratio (z) = 0.22979 0.17707
#
# Static dielectric constant tensor:
#      x y z
#    x 3.448820 0.000000 0.087710 
#    y 0.000000 3.178150 0.000000 
#    z 0.087710 0.000000 3.450000 
# 
# 
# High freq. dielectric constant tensor:
#      x y z
#    x 1.723690 0.000000 0.004120 
#    y 0.000000 1.681460 0.000000 
#    z 0.004120 0.000000 1.721970 
# 
# From -- ./inp_files/94496.got.cif
#   From: 2010.06.25/outbox.cif.g09.slc.cpg/sg10_48_cif.got.tgz:94496.got - 2010.06.27 22:07:45.
