data_PCOD8057845
_publ_section_title
;
Structure prediction by ZEFSAII (Michael W. Deem and Ramdas Pophale) SiO2 
 PCOD8057845
Probable space group: P 2/M
;
_chemical_formula_sum "Si O2"
_cell_formula_units_Z 24
_cell_length_a 25.535690
_cell_length_b 10.415159
_cell_length_c 5.246615
_cell_angle_alpha 90.000000
_cell_angle_beta 69.699328
_cell_angle_gamma 90.000000
_cell_volume 1308.706400
_symmetry_space_group_name_H-M "P 2/M"
_symmetry_group_IT_number 10
_symmetry_cell_setting 'monoclinic'
loop_
_space_group_symop_operation_xyz
x,y,z
-x,y,-z
-x,-y,-z
x,-y,z
loop_
_atom_site_type_symbol
_atom_site_label
_atom_site_fract_x
_atom_site_fract_y
_atom_site_fract_z
Si Si1 0.031344 0.846993 0.697065
Si Si2 0.658177 0.255267 0.312641
Si Si3 0.555711 0.855544 0.258649
Si Si4 0.781075 0.151202 0.118356
Si Si5 0.385811 0.357306 0.101533
Si Si6 0.157854 0.846657 0.484801
O O1 0.094563 0.795373 0.590243
O O2 0.000000 0.793884 0.500000
O O3 0.030817 0.000000 0.697934
O O4 0.000000 0.793908 0.000000
O O5 0.608146 0.151019 0.365669
O O6 0.716186 0.182707 0.231912
O O7 0.648888 0.336501 0.583308
O O8 0.656795 0.348063 0.067037
O O9 0.500000 0.815724 0.500000
O O10 0.551131 0.000000 0.153647
O O11 0.565545 0.751299 0.014708
O O12 0.811143 0.208572 0.317647
O O13 0.788519 0.000000 0.105523
O O14 0.810570 0.208496 0.817051
O O15 0.412498 0.500000 0.061982
O O16 0.159080 0.000000 0.482895
#
# Coordination Sequence:
#
# PCOD8057845 Si02
#       6
#     4   4   4   4   4   4
#     4   9  15  23  35  52  80 122 171 214 249 293
#     4  10  21  36  56  77 103 137 178 217 274 317
#     4   9  21  39  59  84 112 140 177 226 273 321
#     4  10  18  29  45  68  96 127 168 217 266 312
#     4  10  22  39  59  80 107 140 179 220 268 329
#     4   9  17  26  39  61  91 126 169 218 260 304
#
# _framework density 18.338718
#
# number of rings (size 3 to 8) (size 9 to 14) (size 15 to 20)
#    1.000    1.500    0.000    3.000    0.000    6.333 
#    0.000    2.500    0.000    0.000    0.000    0.000 
#    0.000    0.000    0.000    0.000    0.000  210.000 
#
# Total GULP energy -297416.966164 kJ/mol
# GULP energy per Si atom -12392.373590 kJ/mol
# Density = 1.829698 g / cm^3
# Si number density = 18.338718 Si / 1000 Ang^3
#
#
#
# Elastic Constant Matrix: (Units=GPa)
#
#
# Indices 1 2 3 4 5 6 
#
# 1 119.0047 6.9578 65.8432 0.0000 -17.6435 0.0000
# 2 6.9578 44.1198 27.7939 0.0000 1.5048 0.0000
# 3 65.8432 27.7939 155.5473 0.0000 7.8688 0.0000
# 4 0.0000 0.0000 0.0000 7.7789 0.0000 1.7662
# 5 -17.6435 1.5048 7.8688 0.0000 34.7182 0.0000
# 6 0.0000 0.0000 0.0000 1.7662 0.0000 2.0036
#
#
#
# Elastic Compliance Matrix: (Units=1/GPa)
#
#
# Indices 1 2 3 4 5 6 
#
# 1 0.012863 0.001560 -0.006121 0.000000 0.007857 0.000000
# 2 0.001560 0.025730 -0.005302 0.000000 0.000879 0.000000
# 3 -0.006121 -0.005302 0.010230 0.000000 -0.005200 0.000000
# 4 0.000000 0.000000 0.000000 0.160724 0.000000 -0.141684
# 5 0.007857 0.000879 -0.005200 0.000000 0.033937 0.000000
# 6 0.000000 0.000000 0.000000 -0.141684 0.000000 0.624004
#
#
# Mechanical properties :
#
#
# Convention : Reuss Voigt Hill
#
# Bulk Modulus (GPa) = 34.36883 57.76242 46.06562
# Shear Modulus (GPa) = 5.57467 23.43859 14.50663
#
# Velocity S-wave (km/s) = 1.74540 3.57892 2.81559
# Velocity P-wave (km/s) = 4.77951 6.97453 5.97862
#
# Compressibility (1/GPa) = 0.02909613
#
# Stress axis : x y z
#
# Youngs Moduli (GPa) = 77.73944 38.86540 97.74699
#
# Poissons Ratio (x) = -0.06061 0.59833
# Poissons Ratio (y) = -0.12124 0.51827
# Poissons Ratio (z) = 0.47586 0.20607
#
# Static dielectric constant tensor:
#      x y z
#    x 3.378450 0.000000 0.087430 
#    y 0.000000 2.787530 0.000000 
#    z 0.087430 0.000000 3.574400 
# 
# 
# High freq. dielectric constant tensor:
#      x y z
#    x 1.712630 0.000000 0.003810 
#    y 0.000000 1.643430 0.000000 
#    z 0.003810 0.000000 1.726550 
# 
# From -- ./inp_files/13441.got.cif
#   From: 2010.06.25/outbox.cif.g09.slc.cpg/sg10_7_cif.got.tgz:13441.got - 2010.06.27 22:07:45.
