data_PCOD8057685
_publ_section_title
;
Structure prediction by ZEFSAII (Michael W. Deem and Ramdas Pophale) SiO2 
 PCOD8057685
Probable space group: P 2/M
;
_chemical_formula_sum "Si O2"
_cell_formula_units_Z 28
_cell_length_a 11.854257
_cell_length_b 12.463380
_cell_length_c 12.241603
_cell_angle_alpha 90.000000
_cell_angle_beta 89.999946
_cell_angle_gamma 90.000000
_cell_volume 1808.624735
_symmetry_space_group_name_H-M "P 2/M"
_symmetry_group_IT_number 10
_symmetry_cell_setting 'monoclinic'
loop_
_space_group_symop_operation_xyz
x,y,z
-x,y,-z
-x,-y,-z
x,-y,z
loop_
_atom_site_type_symbol
_atom_site_label
_atom_site_fract_x
_atom_site_fract_y
_atom_site_fract_z
Si Si1 0.761749 0.872919 0.789949
Si Si2 0.632865 0.500000 0.381253
Si Si3 0.632865 0.500000 0.618746
Si Si4 0.629235 0.267916 0.369851
Si Si5 0.000000 0.872947 0.122930
Si Si6 0.625903 0.872558 1.000000
Si Si7 0.370765 0.732084 0.369852
Si Si8 0.238252 0.872919 0.789950
O O1 0.890331 0.835628 0.809732
O O2 0.689583 0.831329 0.892744
O O3 0.713549 0.818462 0.681338
O O4 0.752523 0.000000 0.774476
O O5 0.691837 0.500000 0.500000
O O6 0.500000 0.500000 0.399336
O O7 0.664238 0.386928 0.322810
O O8 0.664237 0.613072 0.677189
O O9 0.643366 0.264961 0.499999
O O10 0.500000 0.240060 0.337926
O O11 0.713548 0.181537 0.318661
O O12 0.890332 0.835628 0.190269
O O13 0.000001 0.000000 0.110589
O O14 0.000000 0.823939 0.000000
O O15 0.624794 0.000000 0.000001
O O16 0.500000 0.824907 0.000000
O O17 0.689586 0.831329 0.107254
O O18 0.247478 0.000000 0.774479
#
# Coordination Sequence:
#
# PCOD8057685 Si02
#       8
#     4   2   2   4   4   4   4   4
#     4  10  18  28  44  66  90 118 151 183 221 263
#     4   7  12  26  46  64  83 114 154 182 206 255
#     4   7  12  26  46  64  83 114 154 182 206 255
#     4   9  17  29  46  68  93 119 145 178 222 269
#     4   9  16  30  47  62  83 118 161 193 213 248
#     4   9  16  25  39  62  90 114 140 177 217 261
#     4   9  17  29  46  68  93 119 145 178 222 269
#     4  10  18  28  44  66  90 118 151 183 221 263
#
# _framework density 15.481375
#
# number of rings (size 3 to 8) (size 9 to 14) (size 15 to 20)
#    0.000    3.000    1.429    2.571    0.000    2.286 
#    0.000    2.143    0.000    4.286    0.000    8.000 
#    0.000    0.000    0.000    0.000    0.000    0.000 
#
# Total GULP energy -346916.684930 kJ/mol
# GULP energy per Si atom -12389.881605 kJ/mol
# Density = 1.544614 g / cm^3
# Si number density = 15.481375 Si / 1000 Ang^3
#
#
#
# Elastic Constant Matrix: (Units=GPa)
#
#
# Indices 1 2 3 4 5 6 
#
# 1 121.1151 40.2242 45.2167 0.0000 0.0014 0.0000
# 2 40.2242 59.4555 33.7656 0.0000 -0.0003 0.0000
# 3 45.2167 33.7656 58.8888 0.0000 -0.0001 0.0000
# 4 0.0000 0.0000 0.0000 3.5652 0.0000 -0.0001
# 5 0.0014 -0.0003 -0.0001 0.0000 21.0508 0.0000
# 6 0.0000 0.0000 0.0000 -0.0001 0.0000 9.6126
#
#
#
# Elastic Compliance Matrix: (Units=1/GPa)
#
#
# Indices 1 2 3 4 5 6 
#
# 1 0.012300 -0.004386 -0.006930 0.000000 -0.000001 0.000000
# 2 -0.004386 0.026505 -0.011829 0.000000 0.000001 0.000000
# 3 -0.006930 -0.011829 0.029085 0.000000 0.000000 0.000000
# 4 0.000000 0.000000 0.000000 0.280488 0.000000 0.000004
# 5 -0.000001 0.000001 0.000000 0.000000 0.047504 0.000000
# 6 0.000000 0.000000 0.000000 0.000004 0.000000 0.104031
#
#
# Mechanical properties :
#
#
# Convention : Reuss Voigt Hill
#
# Bulk Modulus (GPa) = 46.29776 53.09692 49.69734
# Shear Modulus (GPa) = 9.03500 14.86258 11.94879
#
# Velocity S-wave (km/s) = 2.41841 3.10180 2.78117
# Velocity P-wave (km/s) = 6.14562 6.87022 6.51800
#
# Compressibility (1/GPa) = 0.02159932
#
# Stress axis : x y z
#
# Youngs Moduli (GPa) = 81.29760 37.72882 34.38238
#
# Poissons Ratio (x) = 0.16549 0.23826
# Poissons Ratio (y) = 0.35660 0.40672
# Poissons Ratio (z) = 0.56336 0.44631
#
# Static dielectric constant tensor:
#      x y z
#    x 3.004570 0.000000 0.000000 
#    y 0.000000 2.896740 0.000000 
#    z 0.000000 0.000000 2.766870 
# 
# 
# High freq. dielectric constant tensor:
#      x y z
#    x 1.583590 0.000000 0.000000 
#    y 0.000000 1.565640 0.000000 
#    z 0.000000 0.000000 1.577500 
# 
# From -- ./inp_files/46052.got.cif
#   From: 2010.06.25/outbox.cif.g09.slc.cpg/sg10_24_cif.got.tgz:46052.got - 2010.06.27 22:07:45.
