data_PCOD8057378
_publ_section_title
;
Structure prediction by ZEFSAII (Michael W. Deem and Ramdas Pophale) SiO2 
 PCOD8057378
Probable space group: P 2/M
;
_chemical_formula_sum "Si O2"
_cell_formula_units_Z 32
_cell_length_a 17.835868
_cell_length_b 19.471569
_cell_length_c 18.457325
_cell_angle_alpha 90.000000
_cell_angle_beta 15.852317
_cell_angle_gamma 90.000000
_cell_volume 1750.971411
_symmetry_space_group_name_H-M "P 2/M"
_symmetry_group_IT_number 10
_symmetry_cell_setting 'monoclinic'
loop_
_space_group_symop_operation_xyz
x,y,z
-x,y,-z
-x,-y,-z
x,-y,z
loop_
_atom_site_type_symbol
_atom_site_label
_atom_site_fract_x
_atom_site_fract_y
_atom_site_fract_z
Si Si1 0.010035 0.860125 0.780372
Si Si2 0.288261 0.858912 0.259770
Si Si3 0.833997 0.426620 0.888110
Si Si4 0.943654 0.281836 0.779379
Si Si5 0.758902 0.426719 0.617451
Si Si6 0.348170 0.717795 0.272734
Si Si7 0.435673 0.920411 0.275144
Si Si8 0.210407 0.078541 0.739819
O O1 0.943758 0.779173 0.837671
O O2 0.234771 0.876636 0.511360
O O3 0.122387 0.873919 0.755551
O O4 0.745050 0.906125 0.011648
O O5 0.252027 0.778009 0.309287
O O6 0.393189 0.899617 0.231875
O O7 0.000000 0.888692 0.500000
O O8 0.500000 0.872902 0.000000
O O9 0.922300 0.500000 0.843649
O O10 0.939941 0.355472 0.826606
O O11 0.961993 0.424911 0.688220
O O12 0.504624 0.424890 0.190933
O O13 0.207442 0.276122 0.482371
O O14 0.674683 0.275812 0.978978
O O15 0.753502 0.500000 0.666836
O O16 0.736076 0.356305 0.685696
O O17 0.370591 0.000000 0.346612
O O18 0.500000 0.105116 0.500000
O O19 0.231433 0.000000 0.692664
O O20 0.000000 0.086257 0.000000
#
# Coordination Sequence:
#
# PCOD8057378 Si02
#       8
#     4   4   4   4   4   4   4   4
#     4  12  21  38  60  83 108 136 174 216 255 307
#     4  12  24  38  55  72  99 133 175 220 272 319
#     4   8  14  23  39  68 100 127 155 196 250 297
#     4  10  17  30  52  74 101 130 166 212 253 295
#     4   8  14  24  43  66  91 123 157 198 250 303
#     4  10  18  33  49  71  98 127 168 212 259 311
#     4  12  25  40  58  79 101 133 176 223 271 314
#     4  10  21  36  54  79 110 141 169 201 250 308
#
# _framework density 18.275569999999998
#
# number of rings (size 3 to 8) (size 9 to 14) (size 15 to 20)
#    0.000    1.750    2.500    3.375    0.000    1.500 
#    0.000    0.000    0.000    0.750    0.000    0.000 
#    0.000    1.000    0.000    0.000    0.000    1.250 
#
# Total GULP energy -396543.826047 kJ/mol
# GULP energy per Si atom -12391.994564 kJ/mol
# Density = 1.823397 g / cm^3
# Si number density = 18.275570 Si / 1000 Ang^3
#
#
#
# Elastic Constant Matrix: (Units=GPa)
#
#
# Indices 1 2 3 4 5 6 
#
# 1 84.2954 23.9131 22.1556 0.0000 -7.2735 0.0000
# 2 23.9131 116.6928 4.7901 0.0000 -2.6348 0.0000
# 3 22.1556 4.7901 81.7109 0.0000 -12.4208 0.0000
# 4 0.0000 0.0000 0.0000 23.6280 0.0000 1.0790
# 5 -7.2735 -2.6348 -12.4208 0.0000 21.3233 0.0000
# 6 0.0000 0.0000 0.0000 1.0790 0.0000 13.0840
#
#
#
# Elastic Compliance Matrix: (Units=1/GPa)
#
#
# Indices 1 2 3 4 5 6 
#
# 1 0.013652 -0.002611 -0.003170 0.000000 0.002487 0.000000
# 2 -0.002611 0.009103 0.000230 0.000000 0.000368 0.000000
# 3 -0.003170 0.000230 0.014180 0.000000 0.007207 0.000000
# 4 0.000000 0.000000 0.000000 0.042483 0.000000 -0.003504
# 5 0.002487 0.000368 0.007207 0.000000 0.051989 0.000000
# 6 0.000000 0.000000 0.000000 -0.003504 0.000000 0.076718
#
#
# Mechanical properties :
#
#
# Convention : Reuss Voigt Hill
#
# Bulk Modulus (GPa) = 38.71110 42.71299 40.71205
# Shear Modulus (GPa) = 21.94540 27.06309 24.50424
#
# Velocity S-wave (km/s) = 3.46902 3.85234 3.66569
# Velocity P-wave (km/s) = 6.10519 6.57341 6.34362
#
# Compressibility (1/GPa) = 0.02583238
#
# Stress axis : x y z
#
# Youngs Moduli (GPa) = 73.25083 109.84811 70.52228
#
# Poissons Ratio (x) = 0.28684 0.22359
# Poissons Ratio (y) = 0.19128 -0.01624
# Poissons Ratio (z) = 0.23224 -0.02530
#
# Static dielectric constant tensor:
#      x y z
#    x 2.804150 0.000000 -0.123790 
#    y 0.000000 3.957270 0.000000 
#    z -0.123790 0.000000 3.570120 
# 
# 
# High freq. dielectric constant tensor:
#      x y z
#    x 1.634460 0.000000 -0.014220 
#    y 0.000000 1.731110 0.000000 
#    z -0.014220 0.000000 1.735600 
# 
# From -- ./inp_files/67945.got.cif
#   From: 2010.06.25/outbox.cif.g09.slc.cpg/sg10_34_cif.got.tgz:67945.got - 2010.06.27 22:07:45.
