data_PCOD8057757
_publ_section_title
;
Structure prediction by ZEFSAII (Michael W. Deem and Ramdas Pophale) SiO2 
 PCOD8057757
Probable space group: P 2/M
;
_chemical_formula_sum "Si O2"
_cell_formula_units_Z 32
_cell_length_a 20.257947
_cell_length_b 9.206395
_cell_length_c 31.532379
_cell_angle_alpha 90.000000
_cell_angle_beta 161.869071
_cell_angle_gamma 90.000000
_cell_volume 1830.065722
_symmetry_space_group_name_H-M "P 2/M"
_symmetry_group_IT_number 10
_symmetry_cell_setting 'monoclinic'
loop_
_space_group_symop_operation_xyz
x,y,z
-x,y,-z
-x,-y,-z
x,-y,z
loop_
_atom_site_type_symbol
_atom_site_label
_atom_site_fract_x
_atom_site_fract_y
_atom_site_fract_z
Si Si1 0.644494 0.835514 0.890215
Si Si2 0.830115 0.839793 0.820145
Si Si3 0.262774 0.166676 0.145939
Si Si4 0.694427 0.672921 0.424779
Si Si5 0.025929 0.333071 0.866764
Si Si6 0.330065 0.836679 0.508898
Si Si7 0.184702 0.170877 0.580549
Si Si8 0.704585 0.331204 0.598182
O O1 0.802589 0.814539 0.944659
O O2 0.409180 0.778687 0.737441
O O3 0.630874 0.000000 0.896638
O O4 0.747660 0.748160 0.992183
O O5 0.903111 0.809969 0.914870
O O6 0.879693 0.716946 0.816413
O O7 0.577830 0.840385 0.669512
O O8 0.909859 0.000000 0.853737
O O9 0.453793 0.279104 0.268191
O O10 0.347772 0.000000 0.201510
O O11 0.708750 0.500000 0.434749
O O12 0.776419 0.738933 0.519340
O O13 0.849299 0.737699 0.483099
O O14 0.071522 0.500000 0.901016
O O15 0.913721 0.300910 0.753760
O O16 0.273348 0.766266 0.429467
O O17 0.236641 0.000000 0.452536
O O18 0.000000 0.213293 0.500000
O O19 0.185831 0.000000 0.570563
O O20 0.500000 0.281917 0.500000
O O21 0.683739 0.500000 0.572739
#
# Coordination Sequence:
#
# PCOD8057757 Si02
#       8
#     4   4   4   4   4   4   4   4
#     4   9  18  33  50  68  95 126 158 197 239 286
#     4   9  17  29  45  64  87 121 166 208 244 281
#     4   8  16  31  47  64  89 126 167 203 238 280
#     4  10  18  28  47  75 105 131 156 194 244 294
#     4  11  22  32  44  64  94 129 165 205 249 293
#     4  10  19  31  49  70  94 127 170 214 250 288
#     4   9  18  35  58  80 102 129 160 194 235 288
#     4  10  20  34  48  65  93 129 171 217 258 291
#
# _framework density 17.485711999999999
#
# number of rings (size 3 to 8) (size 9 to 14) (size 15 to 20)
#    0.000    2.500    1.250    3.375    0.000    6.000 
#    0.000    2.500    0.000    0.000    0.000    0.875 
#    0.000    7.000    0.000    0.000    0.000    0.000 
#
# Total GULP energy -396653.944280 kJ/mol
# GULP energy per Si atom -12395.435759 kJ/mol
# Density = 1.744591 g / cm^3
# Si number density = 17.485712 Si / 1000 Ang^3
#
#
#
# Elastic Constant Matrix: (Units=GPa)
#
#
# Indices 1 2 3 4 5 6 
#
# 1 73.2504 54.3118 27.1449 0.0000 -16.3246 0.0000
# 2 54.3118 104.2743 40.4220 0.0000 -23.3083 0.0000
# 3 27.1449 40.4220 52.4709 0.0000 -16.8197 0.0000
# 4 0.0000 0.0000 0.0000 26.1133 0.0000 -6.6117
# 5 -16.3246 -23.3083 -16.8197 0.0000 28.4457 0.0000
# 6 0.0000 0.0000 0.0000 -6.6117 0.0000 23.5060
#
#
#
# Elastic Compliance Matrix: (Units=1/GPa)
#
#
# Indices 1 2 3 4 5 6 
#
# 1 0.022954 -0.010047 -0.003148 0.000000 0.003079 0.000000
# 2 -0.010047 0.018999 -0.007769 0.000000 0.005208 0.000000
# 3 -0.003148 -0.007769 0.029677 0.000000 0.009375 0.000000
# 4 0.000000 0.000000 0.000000 0.041231 0.000000 0.011597
# 5 0.003079 0.005208 0.009375 0.000000 0.046733 0.000000
# 6 0.000000 0.000000 0.000000 0.011597 0.000000 0.045804
#
#
# Mechanical properties :
#
#
# Convention : Reuss Voigt Hill
#
# Bulk Modulus (GPa) = 33.66793 52.63924 43.15358
# Shear Modulus (GPa) = 19.43805 22.82077 21.12941
#
# Velocity S-wave (km/s) = 3.33776 3.61655 3.47995
# Velocity P-wave (km/s) = 5.84385 6.89991 6.39372
#
# Compressibility (1/GPa) = 0.02970186
#
# Stress axis : x y z
#
# Youngs Moduli (GPa) = 43.56529 52.63411 33.69607
#
# Poissons Ratio (x) = 0.52883 0.10607
# Poissons Ratio (y) = 0.43771 0.26179
# Poissons Ratio (z) = 0.13714 0.40892
#
# Static dielectric constant tensor:
#      x y z
#    x 3.250450 0.000000 -0.205190 
#    y 0.000000 3.199330 0.000000 
#    z -0.205190 0.000000 3.209750 
# 
# 
# High freq. dielectric constant tensor:
#      x y z
#    x 1.657710 0.000000 -0.022140 
#    y 0.000000 1.672770 0.000000 
#    z -0.022140 0.000000 1.662940 
# 
# From -- ./inp_files/95681.got.cif
#   From: 2010.06.25/outbox.cif.g09.slc.cpg/sg10_48_cif.got.tgz:95681.got - 2010.06.27 22:07:45.
