data_PCOD8057366
_publ_section_title
;
Structure prediction by ZEFSAII (Michael W. Deem and Ramdas Pophale) SiO2 
 PCOD8057366
Probable space group: P 2/M
;
_chemical_formula_sum "Si O2"
_cell_formula_units_Z 28
_cell_length_a 19.306643
_cell_length_b 8.636308
_cell_length_c 24.582790
_cell_angle_alpha 90.000000
_cell_angle_beta 21.664421
_cell_angle_gamma 90.000000
_cell_volume 1513.185371
_symmetry_space_group_name_H-M "P 2/M"
_symmetry_group_IT_number 10
_symmetry_cell_setting 'monoclinic'
loop_
_space_group_symop_operation_xyz
x,y,z
-x,y,-z
-x,-y,-z
x,-y,z
loop_
_atom_site_type_symbol
_atom_site_label
_atom_site_fract_x
_atom_site_fract_y
_atom_site_fract_z
Si Si1 0.377807 0.682168 0.539414
Si Si2 0.974379 0.181022 0.826336
Si Si3 0.594680 0.818551 0.157700
Si Si4 0.890007 0.817992 0.654154
Si Si5 0.003550 0.818070 0.309643
Si Si6 0.587953 0.181915 0.598577
Si Si7 0.261897 0.680620 0.336053
O O1 0.500000 0.749441 0.500000
O O2 0.387205 0.500000 0.531424
O O3 0.470813 0.743073 0.415695
O O4 0.162804 0.731571 0.705133
O O5 0.908128 0.226962 0.813224
O O6 0.020477 0.000000 0.794774
O O7 0.808948 0.227187 0.988270
O O8 0.558602 0.774087 0.246954
O O9 0.462931 0.721304 0.213958
O O10 0.557728 0.000000 0.174197
O O11 0.872683 0.757846 0.729620
O O12 0.741627 0.723432 0.725732
O O13 0.103294 0.784294 0.480286
O O14 0.848605 0.000000 0.678514
O O15 0.791525 0.751394 0.467308
O O16 0.988584 0.000000 0.328266
O O17 0.596873 0.000000 0.582361
O O18 0.217960 0.500000 0.375997
#
# Coordination Sequence:
#
# PCOD8057366 Si02
#       7
#     4   4   4   4   4   4   4
#     4  10  21  37  56  80 109 139 169 202 250 311
#     4   9  19  35  57  81 104 133 172 216 259 306
#     4  10  19  35  55  77 105 137 173 215 263 311
#     4  10  17  30  50  70  98 136 179 224 267 304
#     4   8  14  28  50  75  98 125 170 220 258 299
#     4   9  17  32  55  80 102 131 175 217 251 300
#     4  11  21  30  44  72 106 136 174 220 266 313
#
# _framework density 18.504010999999998
#
# number of rings (size 3 to 8) (size 9 to 14) (size 15 to 20)
#    0.000    2.429    1.429    3.857    0.000    2.286 
#    0.000    2.143    0.000    8.571    0.000    0.000 
#    0.000    0.000    0.000    0.000    0.000    0.000 
#
# Total GULP energy -347067.363720 kJ/mol
# GULP energy per Si atom -12395.262990 kJ/mol
# Density = 1.846190 g / cm^3
# Si number density = 18.504011 Si / 1000 Ang^3
#
#
#
# Elastic Constant Matrix: (Units=GPa)
#
#
# Indices 1 2 3 4 5 6 
#
# 1 163.3710 34.7228 59.4406 0.0000 7.0136 0.0000
# 2 34.7228 46.7800 19.0789 0.0000 0.3144 0.0000
# 3 59.4406 19.0789 89.5316 0.0000 19.8357 0.0000
# 4 0.0000 0.0000 0.0000 11.4851 0.0000 -8.0362
# 5 7.0136 0.3144 19.8357 0.0000 25.4368 0.0000
# 6 0.0000 0.0000 0.0000 -8.0362 0.0000 17.7466
#
#
#
# Elastic Compliance Matrix: (Units=1/GPa)
#
#
# Indices 1 2 3 4 5 6 
#
# 1 0.008953 -0.004459 -0.005390 0.000000 0.001790 0.000000
# 2 -0.004459 0.026038 -0.003372 0.000000 0.003537 0.000000
# 3 -0.005390 -0.003372 0.018287 0.000000 -0.012733 0.000000
# 4 0.000000 0.000000 0.000000 0.127452 0.000000 0.057714
# 5 0.001790 0.003537 -0.012733 0.000000 0.048705 0.000000
# 6 0.000000 0.000000 0.000000 0.057714 0.000000 0.082483
#
#
# Mechanical properties :
#
#
# Convention : Reuss Voigt Hill
#
# Bulk Modulus (GPa) = 37.26361 58.46301 47.86331
# Shear Modulus (GPa) = 14.39650 23.36305 18.87978
#
# Velocity S-wave (km/s) = 2.79233 3.55715 3.19769
# Velocity P-wave (km/s) = 5.52974 6.96667 6.28937
#
# Compressibility (1/GPa) = 0.02683583
#
# Stress axis : x y z
#
# Youngs Moduli (GPa) = 111.69222 38.40567 54.68257
#
# Poissons Ratio (x) = 0.17126 0.29476
# Poissons Ratio (y) = 0.49805 0.18437
# Poissons Ratio (z) = 0.60207 0.12949
#
# Static dielectric constant tensor:
#      x y z
#    x 3.786310 0.000000 0.145440 
#    y 0.000000 3.163780 0.000000 
#    z 0.145440 0.000000 3.181810 
# 
# 
# High freq. dielectric constant tensor:
#      x y z
#    x 1.726340 0.000000 0.011940 
#    y 0.000000 1.700490 0.000000 
#    z 0.011940 0.000000 1.686720 
# 
# From -- ./inp_files/93518.got.cif
#   From: 2010.06.25/outbox.cif.g09.slc.cpg/sg10_47_cif.got.tgz:93518.got - 2010.06.27 22:07:45.
