data_PCOD8057335
_publ_section_title
;
Structure prediction by ZEFSAII (Michael W. Deem and Ramdas Pophale) SiO2 
 PCOD8057335
Probable space group: P 2/M
;
_chemical_formula_sum "Si O2"
_cell_formula_units_Z 32
_cell_length_a 23.936248
_cell_length_b 8.585605
_cell_length_c 17.854483
_cell_angle_alpha 90.000000
_cell_angle_beta 149.313265
_cell_angle_gamma 90.000000
_cell_volume 1872.565984
_symmetry_space_group_name_H-M "P 2/M"
_symmetry_group_IT_number 10
_symmetry_cell_setting 'monoclinic'
loop_
_space_group_symop_operation_xyz
x,y,z
-x,y,-z
-x,-y,-z
x,-y,z
loop_
_atom_site_type_symbol
_atom_site_label
_atom_site_fract_x
_atom_site_fract_y
_atom_site_fract_z
Si Si1 0.144670 0.682638 0.553960
Si Si2 0.311501 0.815564 0.630087
Si Si3 0.470879 0.814906 0.048268
Si Si4 0.905392 0.318181 0.225850
Si Si5 0.927834 0.816526 0.095111
Si Si6 0.825621 0.815704 0.662898
Si Si7 0.772220 0.183185 0.202102
Si Si8 0.118816 0.184750 0.117624
O O1 0.159604 0.500000 0.560816
O O2 0.238559 0.769627 0.616745
O O3 0.153978 0.728986 0.651532
O O4 0.026871 0.737672 0.388145
O O5 0.435624 0.755544 0.785918
O O6 0.263151 0.742549 0.496996
O O7 0.309431 0.000000 0.623062
O O8 0.471254 0.000000 0.045748
O O9 0.500000 0.747228 0.000000
O O10 0.352585 0.754052 0.937930
O O11 0.889187 0.500000 0.222128
O O12 0.882124 0.278920 0.112484
O O13 0.817812 0.222967 0.173090
O O14 0.053409 0.767736 0.224908
O O15 0.918338 0.000000 0.100401
O O16 0.853445 0.766827 0.936251
O O17 0.803041 0.757070 0.723312
O O18 0.815555 0.000000 0.649368
O O19 0.777901 0.000000 0.223939
O O20 0.113371 0.000000 0.113842
O O21 0.000000 0.252696 0.000000
#
# Coordination Sequence:
#
# PCOD8057335 Si02
#       8
#     4   4   4   4   4   4   4   4
#     4  11  22  34  47  67  97 126 152 190 237 273
#     4  10  17  29  51  73  94 124 159 189 226 279
#     4   9  17  31  50  72  94 114 148 202 243 263
#     4  11  23  35  46  66  99 127 153 194 236 272
#     4   9  15  26  46  69  93 124 159 185 220 278
#     4   8  13  22  42  71  97 121 152 187 225 272
#     4  11  22  36  53  68  87 121 163 198 231 277
#     4   7  11  20  37  66  98 120 145 188 226 261
#
# _framework density 17.088850000000001
#
# number of rings (size 3 to 8) (size 9 to 14) (size 15 to 20)
#    0.000    2.500    2.500    3.000    0.000    3.000 
#    0.000    1.875    0.000    4.125    0.000    0.875 
#    0.000    7.000    0.000    0.000    0.000    0.000 
#
# Total GULP energy -396510.940500 kJ/mol
# GULP energy per Si atom -12390.966891 kJ/mol
# Density = 1.704996 g / cm^3
# Si number density = 17.088850 Si / 1000 Ang^3
#
#
#
# Elastic Constant Matrix: (Units=GPa)
#
#
# Indices 1 2 3 4 5 6 
#
# 1 98.4023 6.5911 63.5163 0.0000 -18.7613 0.0000
# 2 6.5911 10.8605 18.8624 0.0000 1.6484 0.0000
# 3 63.5163 18.8624 91.0642 0.0000 -21.4786 0.0000
# 4 0.0000 0.0000 0.0000 11.5050 0.0000 -0.8346
# 5 -18.7613 1.6484 -21.4786 0.0000 34.7687 0.0000
# 6 0.0000 0.0000 0.0000 -0.8346 0.0000 8.4665
#
#
#
# Elastic Compliance Matrix: (Units=1/GPa)
#
#
# Indices 1 2 3 4 5 6 
#
# 1 0.020946 0.021267 -0.019416 0.000000 -0.001700 0.000000
# 2 0.021267 0.196977 -0.064533 0.000000 -0.037729 0.000000
# 3 -0.019416 -0.064533 0.042305 0.000000 0.018717 0.000000
# 4 0.000000 0.000000 0.000000 0.087544 0.000000 0.008630
# 5 -0.001700 -0.037729 0.018717 0.000000 0.041195 0.000000
# 6 0.000000 0.000000 0.000000 0.008630 0.000000 0.118964
#
#
# Mechanical properties :
#
#
# Convention : Reuss Voigt Hill
#
# Bulk Modulus (GPa) = 7.41481 42.02963 24.72222
# Shear Modulus (GPa) = 7.37191 18.37186 12.87189
#
# Velocity S-wave (km/s) = 2.07924 3.28240 2.74749
# Velocity P-wave (km/s) = 3.18005 6.24609 4.95613
#
# Compressibility (1/GPa) = 0.13486530
#
# Stress axis : x y z
#
# Youngs Moduli (GPa) = 47.74131 5.07674 23.63775
#
# Poissons Ratio (x) = -0.10797 0.45895
# Poissons Ratio (y) = -1.01533 1.52542
# Poissons Ratio (z) = 0.92694 0.32762
#
# Static dielectric constant tensor:
#      x y z
#    x 3.213420 0.000000 -0.379720 
#    y 0.000000 2.811630 0.000000 
#    z -0.379720 0.000000 3.633380 
# 
# 
# High freq. dielectric constant tensor:
#      x y z
#    x 1.644610 0.000000 -0.029860 
#    y 0.000000 1.626740 0.000000 
#    z -0.029860 0.000000 1.649900 
# 
# From -- ./inp_files/56414.got.cif
#   From: 2010.06.25/outbox.cif.g09.slc.cpg/sg10_29_cif.got.tgz:56414.got - 2010.06.27 22:07:45.
