data_PCOD8057288
_publ_section_title
;
Structure prediction by ZEFSAII (Michael W. Deem and Ramdas Pophale) SiO2 
 PCOD8057288
Probable space group: P 2/M
;
_chemical_formula_sum "Si O2"
_cell_formula_units_Z 28
_cell_length_a 11.073755
_cell_length_b 9.690264
_cell_length_c 14.924497
_cell_angle_alpha 90.000000
_cell_angle_beta 116.718892
_cell_angle_gamma 90.000000
_cell_volume 1430.507737
_symmetry_space_group_name_H-M "P 2/M"
_symmetry_group_IT_number 10
_symmetry_cell_setting 'monoclinic'
loop_
_space_group_symop_operation_xyz
x,y,z
-x,y,-z
-x,-y,-z
x,-y,z
loop_
_atom_site_type_symbol
_atom_site_label
_atom_site_fract_x
_atom_site_fract_y
_atom_site_fract_z
Si Si1 0.353459 0.839890 0.469840
Si Si2 0.821520 0.163111 0.225925
Si Si3 0.421677 0.346413 0.164855
Si Si4 0.889952 0.160735 0.725301
Si Si5 0.684825 0.154034 0.002553
Si Si6 0.138598 0.255442 0.084729
Si Si7 0.631774 0.840085 0.322244
O O1 0.500000 0.770485 0.500000
O O2 0.238724 0.770424 0.368434
O O3 0.311687 0.819206 0.559222
O O4 0.364888 0.000000 0.447807
O O5 0.733105 0.217620 0.112981
O O6 0.751107 0.206713 0.295095
O O7 0.972576 0.226531 0.270431
O O8 0.831975 0.000000 0.219199
O O9 0.483145 0.500000 0.173982
O O10 0.262895 0.363053 0.139849
O O11 0.502432 0.258828 0.266271
O O12 0.430846 0.257290 0.075150
O O13 0.887899 0.181183 0.830527
O O14 0.888131 0.000000 0.702504
O O15 0.624054 0.000000 0.992723
O O16 0.810622 0.146540 0.974071
O O17 0.000000 0.324559 0.000000
O O18 0.588520 0.000000 0.291626
#
# Coordination Sequence:
#
# PCOD8057288 Si02
#       7
#     4   4   4   4   4   4   4
#     4   9  18  30  48  77 107 137 174 216 263 309
#     4   9  18  31  50  79 109 138 174 214 260 312
#     4  10  22  36  53  76 104 141 180 217 263 312
#     4  10  17  28  50  81 113 138 170 215 261 313
#     4   9  18  32  51  78 107 136 173 212 258 310
#     4  10  19  31  53  77 108 139 170 212 260 312
#     4  10  20  36  55  75 105 139 176 222 265 306
#
# _framework density 19.57347
#
# number of rings (size 3 to 8) (size 9 to 14) (size 15 to 20)
#    0.857    1.571    1.429    1.714    0.000    3.143 
#    0.000    6.429    0.000    4.714    0.000    1.000 
#    0.000    0.000    0.000    0.000    0.000    0.000 
#
# Total GULP energy -346869.400673 kJ/mol
# GULP energy per Si atom -12388.192881 kJ/mol
# Density = 1.952892 g / cm^3
# Si number density = 19.573470 Si / 1000 Ang^3
#
#
#
# Elastic Constant Matrix: (Units=GPa)
#
#
# Indices 1 2 3 4 5 6 
#
# 1 99.0294 7.9963 48.3372 0.0000 -4.8981 0.0000
# 2 7.9963 57.7829 20.0191 0.0000 7.1040 0.0000
# 3 48.3372 20.0191 123.1429 0.0000 2.7840 0.0000
# 4 0.0000 0.0000 0.0000 3.0384 0.0000 3.4771
# 5 -4.8981 7.1040 2.7840 0.0000 35.7315 0.0000
# 6 0.0000 0.0000 0.0000 3.4771 0.0000 4.1036
#
#
#
# Elastic Compliance Matrix: (Units=1/GPa)
#
#
# Indices 1 2 3 4 5 6 
#
# 1 0.012655 -0.000298 -0.004968 0.000000 0.002181 0.000000
# 2 -0.000298 0.018773 -0.002855 0.000000 -0.003551 0.000000
# 3 -0.004968 -0.002855 0.010556 0.000000 -0.000936 0.000000
# 4 0.000000 0.000000 0.000000 10.851483 0.000000 -9.194805
# 5 0.002181 -0.003551 -0.000936 0.000000 0.029064 0.000000
# 6 0.000000 0.000000 0.000000 -9.194805 0.000000 8.034738
#
#
# Mechanical properties :
#
#
# Convention : Reuss Voigt Hill
#
# Bulk Modulus (GPa) = 38.84700 48.07337 43.46019
# Shear Modulus (GPa) = 0.26341 22.14820 11.20581
#
# Velocity S-wave (km/s) = 0.36724 3.36749 2.39529
# Velocity P-wave (km/s) = 4.47992 6.30347 5.46825
#
# Compressibility (1/GPa) = 0.02574201
#
# Stress axis : x y z
#
# Youngs Moduli (GPa) = 79.01982 53.26808 94.73208
#
# Poissons Ratio (x) = 0.01588 0.47066
# Poissons Ratio (y) = 0.02356 0.27042
# Poissons Ratio (z) = 0.39260 0.15206
#
# Static dielectric constant tensor:
#      x y z
#    x 3.679430 0.000000 0.168100 
#    y 0.000000 2.882120 0.000000 
#    z 0.168100 0.000000 3.643540 
# 
# 
# High freq. dielectric constant tensor:
#      x y z
#    x 1.765480 0.000000 0.002960 
#    y 0.000000 1.688490 0.000000 
#    z 0.002960 0.000000 1.769210 
# 
# From -- ./inp_files/63928.got.cif
#   From: 2010.06.25/outbox.cif.g09.slc.cpg/sg10_32_cif.got.tgz:63928.got - 2010.06.27 22:07:45.
