data_PCOD8057146
_publ_section_title
;
Structure prediction by ZEFSAII (Michael W. Deem and Ramdas Pophale) SiO2 
 PCOD8057146
Probable space group: P 2/M
;
_chemical_formula_sum "Si O2"
_cell_formula_units_Z 20
_cell_length_a 8.923416
_cell_length_b 8.752858
_cell_length_c 20.288264
_cell_angle_alpha 90.000000
_cell_angle_beta 141.387435
_cell_angle_gamma 90.000000
_cell_volume 988.885417
_symmetry_space_group_name_H-M "P 2/M"
_symmetry_group_IT_number 10
_symmetry_cell_setting 'monoclinic'
loop_
_space_group_symop_operation_xyz
x,y,z
-x,y,-z
-x,-y,-z
x,-y,z
loop_
_atom_site_type_symbol
_atom_site_label
_atom_site_fract_x
_atom_site_fract_y
_atom_site_fract_z
Si Si1 0.726515 0.321786 0.035250
Si Si2 0.330353 0.679107 0.571545
Si Si3 0.892748 0.822900 0.376700
Si Si4 0.776079 0.178181 0.777872
Si Si5 0.574373 0.825362 0.851713
O O1 0.775865 0.500000 0.059911
O O2 0.954119 0.232251 0.141889
O O3 0.500000 0.267103 0.000000
O O4 0.680431 0.284949 0.943098
O O5 0.328324 0.500000 0.558270
O O6 0.217101 0.722237 0.602614
O O7 0.603903 0.739191 0.665259
O O8 0.164133 0.760349 0.457613
O O9 0.715664 0.802623 0.253231
O O10 0.896816 0.000000 0.399534
O O11 0.699533 0.219671 0.826047
O O12 0.753044 0.000000 0.756871
O O13 0.636610 0.000000 0.891893
#
# Coordination Sequence:
#
# PCOD8057146 Si02
#       5
#     4   4   4   4   4
#     4  11  24  38  52  74 104 136 171 213 261 310
#     4  10  17  26  45  75 107 136 167 204 253 304
#     4   9  16  28  46  72 106 137 168 207 250 298
#     4  10  20  35  55  78 104 135 173 214 255 302
#     4   9  19  34  54  79 104 134 173 213 252 300
#
# _framework density 20.224789000000001
#
# number of rings (size 3 to 8) (size 9 to 14) (size 15 to 20)
#    0.000    2.200    0.000    6.600    0.000    8.800 
#    0.000    0.000    0.000    1.200    0.000    8.400 
#    0.000    0.000    0.000    0.000    0.000    0.000 
#
# Total GULP energy -247924.050794 kJ/mol
# GULP energy per Si atom -12396.202540 kJ/mol
# Density = 2.017876 g / cm^3
# Si number density = 20.224789 Si / 1000 Ang^3
#
#
#
# Elastic Constant Matrix: (Units=GPa)
#
#
# Indices 1 2 3 4 5 6 
#
# 1 44.4594 23.3529 27.0342 0.0000 23.7518 0.0000
# 2 23.3529 85.8357 37.1584 0.0000 18.1993 0.0000
# 3 27.0342 37.1584 121.3059 0.0000 45.7958 0.0000
# 4 0.0000 0.0000 0.0000 33.5294 0.0000 9.9853
# 5 23.7518 18.1993 45.7958 0.0000 25.3915 0.0000
# 6 0.0000 0.0000 0.0000 9.9853 0.0000 19.4056
#
#
#
# Elastic Compliance Matrix: (Units=1/GPa)
#
#
# Indices 1 2 3 4 5 6 
#
# 1 0.067196 -0.007526 0.028278 0.000000 -0.108463 0.000000
# 2 -0.007526 0.014673 -0.004716 0.000000 0.005029 0.000000
# 3 0.028278 -0.004716 0.037907 0.000000 -0.091440 0.000000
# 4 0.000000 0.000000 0.000000 0.035222 0.000000 -0.018124
# 5 -0.108463 0.005029 -0.091440 0.000000 0.302158 0.000000
# 6 0.000000 0.000000 0.000000 -0.018124 0.000000 0.060857
#
#
# Mechanical properties :
#
#
# Convention : Reuss Voigt Hill
#
# Bulk Modulus (GPa) = 6.58557 47.41023 26.99790
# Shear Modulus (GPa) = 9.31866 26.60234 17.96050
#
# Velocity S-wave (km/s) = 2.14885 3.63069 2.98324
# Velocity P-wave (km/s) = 3.06920 6.40846 5.02436
#
# Compressibility (1/GPa) = 0.15184719
#
# Stress axis : x y z
#
# Youngs Moduli (GPa) = 14.88185 68.15219 26.38038
#
# Poissons Ratio (x) = 0.51292 -0.74597
# Poissons Ratio (y) = 0.11200 0.12440
# Poissons Ratio (z) = -0.42082 0.32139
#
# Static dielectric constant tensor:
#      x y z
#    x 3.214040 0.000000 0.428780 
#    y 0.000000 3.575530 0.000000 
#    z 0.428780 0.000000 4.405500 
# 
# 
# High freq. dielectric constant tensor:
#      x y z
#    x 1.726650 0.000000 0.030280 
#    y 0.000000 1.794840 0.000000 
#    z 0.030280 0.000000 1.815210 
# 
# From -- ./inp_files/26773.got.cif
#   From: 2010.06.25/outbox.cif.g09.slc.cpg/sg10_14_cif.got.tgz:26773.got - 2010.06.27 22:07:45.
