data_PCOD8057425
_publ_section_title
;
Structure prediction by ZEFSAII (Michael W. Deem and Ramdas Pophale) SiO2 
 PCOD8057425
Probable space group: P 2/M
;
_chemical_formula_sum "Si O2"
_cell_formula_units_Z 28
_cell_length_a 9.374063
_cell_length_b 21.655187
_cell_length_c 15.730207
_cell_angle_alpha 90.000000
_cell_angle_beta 28.536010
_cell_angle_gamma 90.000000
_cell_volume 1525.420163
_symmetry_space_group_name_H-M "P 2/M"
_symmetry_group_IT_number 10
_symmetry_cell_setting 'monoclinic'
loop_
_space_group_symop_operation_xyz
x,y,z
-x,y,-z
-x,-y,-z
x,-y,z
loop_
_atom_site_type_symbol
_atom_site_label
_atom_site_fract_x
_atom_site_fract_y
_atom_site_fract_z
Si Si1 0.811865 0.873445 0.184716
Si Si2 0.324035 0.429803 0.174843
Si Si3 0.675158 0.000000 0.317267
Si Si4 0.830512 0.654245 0.501288
Si Si5 0.853645 0.133395 0.813800
Si Si6 0.155322 0.000000 0.184561
Si Si7 0.337933 0.570463 0.829451
Si Si8 0.343755 0.218507 0.491595
O O1 0.565332 0.819294 0.313837
O O2 0.033537 0.865555 0.148205
O O3 0.621956 0.937821 0.290865
O O4 0.000000 0.870467 0.000000
O O5 0.202889 0.500000 0.232631
O O6 0.554729 0.423078 0.130619
O O7 0.046648 0.383951 0.326715
O O8 0.500000 0.409397 0.000000
O O9 0.500000 0.000000 0.500000
O O10 0.027093 0.000000 0.155782
O O11 0.537091 0.613082 0.665592
O O12 0.728090 0.716824 0.512419
O O13 0.000000 0.668529 0.500000
O O14 0.936105 0.066243 0.726378
O O15 0.027145 0.183746 0.667702
O O16 0.500000 0.147260 0.000000
O O17 0.500000 0.000000 0.000000
O O18 0.365123 0.500000 0.783027
O O19 0.000000 0.594215 0.000000
O O20 0.500000 0.228355 0.500000
#
# Coordination Sequence:
#
# PCOD8057425 Si02
#       8
#     4   4   2   4   4   2   4   4
#     4  10  20  34  53  79 106 133 170 218 264 305
#     4   9  18  34  56  81 106 132 167 212 259 308
#     4  10  17  31  56  79 101 132 170 212 261 315
#     4  10  21  36  54  75 103 140 176 210 252 304
#     4   9  18  34  55  76 100 135 173 212 260 313
#     4   8  14  27  50  75  94 118 159 206 250 295
#     4   9  18  34  56  80 104 131 166 210 260 306
#     4  10  22  37  51  72 104 142 178 210 252 306
#
# _framework density 18.355599999999999
#
# number of rings (size 3 to 8) (size 9 to 14) (size 15 to 20)
#    0.000    2.571    0.000    2.786    0.000    5.143 
#    0.000    5.714    0.000    4.286    0.000   14.000 
#    0.000    0.000    0.000    0.000    0.000    0.000 
#
# Total GULP energy -346968.456958 kJ/mol
# GULP energy per Si atom -12391.730606 kJ/mol
# Density = 1.831382 g / cm^3
# Si number density = 18.355600 Si / 1000 Ang^3
#
#
#
# Elastic Constant Matrix: (Units=GPa)
#
#
# Indices 1 2 3 4 5 6 
#
# 1 42.6660 51.2283 58.1795 0.0000 -4.0476 0.0000
# 2 51.2283 158.8511 100.3916 0.0000 -0.0949 0.0000
# 3 58.1795 100.3916 159.9766 0.0000 3.1690 0.0000
# 4 0.0000 0.0000 0.0000 55.8230 0.0000 -0.1731
# 5 -4.0476 -0.0949 3.1690 0.0000 36.2947 0.0000
# 6 0.0000 0.0000 0.0000 -0.1731 0.0000 32.3692
#
#
#
# Elastic Compliance Matrix: (Units=1/GPa)
#
#
# Indices 1 2 3 4 5 6 
#
# 1 0.053794 -0.008103 -0.014623 0.000000 0.007255 0.000000
# 2 -0.008103 0.011666 -0.004365 0.000000 -0.000492 0.000000
# 3 -0.014623 -0.004365 0.014365 0.000000 -0.002896 0.000000
# 4 0.000000 0.000000 0.000000 0.017914 0.000000 0.000096
# 5 0.007255 -0.000492 -0.002896 0.000000 0.028613 0.000000
# 6 0.000000 0.000000 0.000000 0.000096 0.000000 0.030894
#
#
# Mechanical properties :
#
#
# Convention : Reuss Voigt Hill
#
# Bulk Modulus (GPa) = 38.99245 86.78806 62.89026
# Shear Modulus (GPa) = 22.72986 35.01033 28.87009
#
# Velocity S-wave (km/s) = 3.52278 4.37205 3.97018
# Velocity P-wave (km/s) = 6.15106 8.53642 7.43996
#
# Compressibility (1/GPa) = 0.02564599
#
# Stress axis : x y z
#
# Youngs Moduli (GPa) = 18.58936 85.71684 69.61314
#
# Poissons Ratio (x) = 0.69453 1.01792
# Poissons Ratio (y) = 0.15062 0.30383
# Poissons Ratio (z) = 0.27182 0.37412
#
# Static dielectric constant tensor:
#      x y z
#    x 3.236430 0.000000 -0.196600 
#    y 0.000000 -5.074600 0.000000 
#    z -0.196600 0.000000 3.417350 
# 
# 
# High freq. dielectric constant tensor:
#      x y z
#    x 1.690880 0.000000 -0.015480 
#    y 0.000000 1.722250 0.000000 
#    z -0.015480 0.000000 1.714500 
# 
# From -- ./inp_files/30446.got.cif
#   From: 2010.06.25/outbox.cif.g09.slc.cpg/sg10_16_cif.got.tgz:30446.got - 2010.06.27 22:07:45.
