data_PCOD8057385
_publ_section_title
;
Structure prediction by ZEFSAII (Michael W. Deem and Ramdas Pophale) SiO2 
 PCOD8057385
Probable space group: P 2/M
;
_chemical_formula_sum "Si O2"
_cell_formula_units_Z 28
_cell_length_a 9.632272
_cell_length_b 7.901811
_cell_length_c 31.291836
_cell_angle_alpha 90.000000
_cell_angle_beta 38.940167
_cell_angle_gamma 90.000000
_cell_volume 1496.916475
_symmetry_space_group_name_H-M "P 2/M"
_symmetry_group_IT_number 10
_symmetry_cell_setting 'monoclinic'
loop_
_space_group_symop_operation_xyz
x,y,z
-x,y,-z
-x,-y,-z
x,-y,z
loop_
_atom_site_type_symbol
_atom_site_label
_atom_site_fract_x
_atom_site_fract_y
_atom_site_fract_z
Si Si1 0.654969 0.691580 0.191113
Si Si2 0.342985 0.192744 0.195916
Si Si3 0.680047 0.311200 0.660950
Si Si4 0.092254 0.000000 0.430552
Si Si5 0.462459 0.200589 0.075413
Si Si6 0.241667 0.000000 0.569000
Si Si7 0.147722 0.200019 0.075891
Si Si8 0.984578 0.314940 0.341524
O O1 0.584816 0.500000 0.197520
O O2 0.546310 0.805597 0.180403
O O3 0.557723 0.738376 0.261476
O O4 0.916074 0.707393 0.128274
O O5 0.420653 0.276381 0.132540
O O6 0.126289 0.289145 0.264576
O O7 0.272272 0.000000 0.205465
O O8 0.674123 0.500000 0.640947
O O9 0.849949 0.310500 0.658884
O O10 0.754386 0.167570 0.609778
O O11 0.000000 0.000000 0.500000
O O12 0.895565 0.000000 0.442595
O O13 0.264327 0.257870 0.091859
O O14 0.471953 0.000000 0.074423
O O15 0.698537 0.262213 0.000310
O O16 0.500000 0.000000 0.500000
O O17 0.192218 0.166300 0.609278
O O18 0.109220 0.000000 0.084051
O O19 0.867230 0.500000 0.366914
#
# Coordination Sequence:
#
# PCOD8057385 Si02
#       8
#     4   4   4   2   4   2   4   4
#     4  10  20  32  48  75 102 129 170 218 258 303
#     4  10  17  30  53  77  99 130 172 220 263 305
#     4   8  17  32  51  74 105 134 166 208 251 299
#     4  10  20  34  56  80 101 132 171 201 246 305
#     4   8  17  32  50  72  98 132 176 214 258 314
#     4  10  20  36  56  78 107 138 169 205 248 303
#     4   9  17  33  52  69  96 137 174 211 259 313
#     4   9  17  32  53  79 105 136 171 209 255 305
#
# _framework density 18.705120000000001
#
# number of rings (size 3 to 8) (size 9 to 14) (size 15 to 20)
#    0.000    2.857    0.714    2.571    4.000    1.143 
#    0.000    8.571    0.000    1.714    0.000    0.000 
#    0.000    0.000    0.000    0.000    0.000    0.000 
#
# Total GULP energy -347030.242457 kJ/mol
# GULP energy per Si atom -12393.937231 kJ/mol
# Density = 1.866255 g / cm^3
# Si number density = 18.705120 Si / 1000 Ang^3
#
#
#
# Elastic Constant Matrix: (Units=GPa)
#
#
# Indices 1 2 3 4 5 6 
#
# 1 46.9736 21.4622 55.4727 0.0000 -0.6183 0.0000
# 2 21.4622 100.1906 63.0255 0.0000 4.7382 0.0000
# 3 55.4727 63.0255 163.7425 0.0000 5.9783 0.0000
# 4 0.0000 0.0000 0.0000 19.0144 0.0000 -4.6525
# 5 -0.6183 4.7382 5.9783 0.0000 34.3703 0.0000
# 6 0.0000 0.0000 0.0000 -4.6525 0.0000 6.2847
#
#
#
# Elastic Compliance Matrix: (Units=1/GPa)
#
#
# Indices 1 2 3 4 5 6 
#
# 1 0.035747 -0.000141 -0.012157 0.000000 0.002777 0.000000
# 2 -0.000141 0.013201 -0.004998 0.000000 -0.000953 0.000000
# 3 -0.012157 -0.004998 0.012210 0.000000 -0.001653 0.000000
# 4 0.000000 0.000000 0.000000 0.064225 0.000000 0.047546
# 5 0.002777 -0.000953 -0.001653 0.000000 0.029564 0.000000
# 6 0.000000 0.000000 0.000000 0.047546 0.000000 0.194315
#
#
# Mechanical properties :
#
#
# Convention : Reuss Voigt Hill
#
# Bulk Modulus (GPa) = 37.64554 65.64749 51.64652
# Shear Modulus (GPa) = 12.73205 23.33030 18.03117
#
# Velocity S-wave (km/s) = 2.61180 3.53550 3.10815
# Velocity P-wave (km/s) = 5.40970 7.19990 6.36802
#
# Compressibility (1/GPa) = 0.02656357
#
# Stress axis : x y z
#
# Youngs Moduli (GPa) = 27.97476 75.75464 81.89974
#
# Poissons Ratio (x) = 0.01069 0.99568
# Poissons Ratio (y) = 0.00395 0.40936
# Poissons Ratio (z) = 0.34010 0.37865
#
# Static dielectric constant tensor:
#      x y z
#    x 3.078980 0.000000 0.121320 
#    y 0.000000 3.605280 0.000000 
#    z 0.121320 0.000000 3.713680 
# 
# 
# High freq. dielectric constant tensor:
#      x y z
#    x 1.681350 0.000000 -0.000140 
#    y 0.000000 1.728920 0.000000 
#    z -0.000140 0.000000 1.730560 
# 
# From -- ./inp_files/92039.got.cif
#   From: 2010.06.25/outbox.cif.g09.slc.cpg/sg10_47_cif.got.tgz:92039.got - 2010.06.27 22:07:45.
