data_PCOD8057113
_publ_section_title
;
Structure prediction by ZEFSAII (Michael W. Deem and Ramdas Pophale) SiO2 
 PCOD8057113
Probable space group: P 2/M
;
_chemical_formula_sum "Si O2"
_cell_formula_units_Z 30
_cell_length_a 27.277631
_cell_length_b 12.927211
_cell_length_c 5.135752
_cell_angle_alpha 90.000000
_cell_angle_beta 74.595955
_cell_angle_gamma 90.000000
_cell_volume 1745.931086
_symmetry_space_group_name_H-M "P 2/M"
_symmetry_group_IT_number 10
_symmetry_cell_setting 'monoclinic'
loop_
_space_group_symop_operation_xyz
x,y,z
-x,y,-z
-x,-y,-z
x,-y,z
loop_
_atom_site_type_symbol
_atom_site_label
_atom_site_fract_x
_atom_site_fract_y
_atom_site_fract_z
Si Si1 0.644636 0.720108 0.530955
Si Si2 0.691351 0.622179 0.974339
Si Si3 0.227676 0.795801 0.110931
Si Si4 0.466283 0.500000 0.297463
Si Si5 0.727832 0.882267 0.444754
Si Si6 0.056386 0.121705 0.921205
Si Si7 0.534842 0.275340 0.701096
Si Si8 0.880091 0.123386 0.669385
O O1 0.654353 0.645755 0.269757
O O2 0.677688 0.821115 0.443155
O O3 0.589142 0.779788 0.621393
O O4 0.659721 0.656968 0.766800
O O5 0.702994 0.500000 0.944774
O O6 0.746064 0.681570 0.917224
O O7 0.256709 0.867074 0.278351
O O8 0.168623 0.800738 0.271412
O O9 0.229286 0.843501 0.818408
O O10 0.500000 0.500000 0.500000
O O11 0.437859 0.390772 0.335364
O O12 0.500000 0.500000 0.000000
O O13 0.715796 0.000000 0.408832
O O14 0.086890 0.155751 0.624353
O O15 0.049949 0.000000 0.935252
O O16 0.087235 0.157356 0.129276
O O17 0.000000 0.172458 0.000000
O O18 0.500000 0.253363 0.500000
O O19 0.500000 0.251575 0.000000
O O20 0.865684 0.000000 0.690333
#
# Coordination Sequence:
#
# PCOD8057113 Si02
#       8
#     4   4   4   2   4   4   4   4
#     4  10  21  34  51  73  92 127 159 182 233 287
#     4  10  21  35  51  70  98 127 153 192 233 287
#     4  10  20  32  48  74  96 122 163 195 238 280
#     4   8  16  26  38  58  80 106 136 166 214 254
#     4  10  19  33  51  70  96 122 155 200 236 275
#     4   9  17  27  39  60  92 128 159 186 225 274
#     4  10  19  32  46  66  93 118 146 189 227 270
#     4  10  17  26  43  64  91 124 155 192 229 267
#
# _framework density 17.182808999999999
#
# number of rings (size 3 to 8) (size 9 to 14) (size 15 to 20)
#    0.000    2.267    0.000    3.600    1.867    2.667 
#    2.400    0.000    0.000    0.800    0.000    0.000 
#    0.000    3.200    0.000    0.000    0.000    0.000 
#
# Total GULP energy -371647.735412 kJ/mol
# GULP energy per Si atom -12388.257847 kJ/mol
# Density = 1.714370 g / cm^3
# Si number density = 17.182809 Si / 1000 Ang^3
#
#
#
# Elastic Constant Matrix: (Units=GPa)
#
#
# Indices 1 2 3 4 5 6 
#
# 1 97.1005 27.7914 56.7050 0.0000 -13.7213 0.0000
# 2 27.7914 65.0481 24.5931 0.0000 -2.1037 0.0000
# 3 56.7050 24.5931 128.6136 0.0000 3.8474 0.0000
# 4 0.0000 0.0000 0.0000 8.5992 0.0000 -0.4407
# 5 -13.7213 -2.1037 3.8474 0.0000 36.2856 0.0000
# 6 0.0000 0.0000 0.0000 -0.4407 0.0000 11.2963
#
#
#
# Elastic Compliance Matrix: (Units=1/GPa)
#
#
# Indices 1 2 3 4 5 6 
#
# 1 0.016284 -0.004263 -0.006562 0.000000 0.006607 0.000000
# 2 -0.004263 0.017749 -0.001502 0.000000 -0.000424 0.000000
# 3 -0.006562 -0.001502 0.011068 0.000000 -0.003742 0.000000
# 4 0.000000 0.000000 0.000000 0.116523 0.000000 0.004546
# 5 0.006607 -0.000424 -0.003742 0.000000 0.030430 0.000000
# 6 0.000000 0.000000 0.000000 0.004546 0.000000 0.088702
#
#
# Mechanical properties :
#
#
# Convention : Reuss Voigt Hill
#
# Bulk Modulus (GPa) = 48.90662 56.54902 52.72782
# Shear Modulus (GPa) = 16.01415 23.34774 19.68094
#
# Velocity S-wave (km/s) = 3.05616 3.69017 3.38803
# Velocity P-wave (km/s) = 6.40139 7.15109 6.78660
#
# Compressibility (1/GPa) = 0.02044713
#
# Stress axis : x y z
#
# Youngs Moduli (GPa) = 61.40815 56.34272 90.35394
#
# Poissons Ratio (x) = 0.24018 0.59293
# Poissons Ratio (y) = 0.26177 0.13569
# Poissons Ratio (z) = 0.40298 0.08461
#
# Static dielectric constant tensor:
#      x y z
#    x 3.311430 0.000000 0.029870 
#    y 0.000000 3.033460 0.000000 
#    z 0.029870 0.000000 3.551430 
# 
# 
# High freq. dielectric constant tensor:
#      x y z
#    x 1.667300 0.000000 0.007590 
#    y 0.000000 1.610840 0.000000 
#    z 0.007590 0.000000 1.689000 
# 
# From -- ./inp_files/13482.got.cif
#   From: 2010.06.25/outbox.cif.g09.slc.cpg/sg10_7_cif.got.tgz:13482.got - 2010.06.27 22:07:45.
