data_PCOD8057706
_publ_section_title
;
Structure prediction by ZEFSAII (Michael W. Deem and Ramdas Pophale) SiO2 
 PCOD8057706
Probable space group: P 2/M
;
_chemical_formula_sum "Si O2"
_cell_formula_units_Z 24
_cell_length_a 20.371886
_cell_length_b 9.412971
_cell_length_c 11.855024
_cell_angle_alpha 90.000000
_cell_angle_beta 140.769150
_cell_angle_gamma 90.000000
_cell_volume 1437.752617
_symmetry_space_group_name_H-M "P 2/M"
_symmetry_group_IT_number 10
_symmetry_cell_setting 'monoclinic'
loop_
_space_group_symop_operation_xyz
x,y,z
-x,y,-z
-x,-y,-z
x,-y,z
loop_
_atom_site_type_symbol
_atom_site_label
_atom_site_fract_x
_atom_site_fract_y
_atom_site_fract_z
Si Si1 0.223537 0.666246 0.312904
Si Si2 0.849709 0.837118 0.590303
Si Si3 0.617465 0.665861 0.667352
Si Si4 0.237884 0.161371 0.985346
Si Si5 0.110693 0.831100 0.606625
Si Si6 0.081696 0.157962 0.973010
O O1 0.210303 0.500000 0.316018
O O2 0.232191 0.744835 0.445524
O O3 0.325115 0.702008 0.373703
O O4 0.123220 0.723622 0.113188
O O5 0.857581 0.773404 0.474550
O O6 0.959997 0.821682 0.797901
O O7 0.811909 0.000000 0.537335
O O8 0.500000 0.720134 0.500000
O O9 0.622707 0.500000 0.701264
O O10 0.669810 0.743089 0.843279
O O11 0.278749 0.000000 0.036769
O O12 0.203091 0.213589 0.814938
O O13 0.134073 0.174572 0.921126
O O14 0.000000 0.766594 0.500000
O O15 0.099109 0.000000 0.585822
O O16 0.106189 0.000000 0.054551
#
# Coordination Sequence:
#
# PCOD8057706 Si02
#       6
#     4   4   4   4   4   4
#     4  10  20  31  44  65  92 119 152 195 239 277
#     4  10  18  28  45  67  95 130 159 181 214 271
#     4   9  19  36  54  68  87 119 156 197 246 290
#     4   9  16  28  49  75  97 118 154 198 230 264
#     4   9  15  27  47  70  97 130 162 186 215 264
#     4   9  16  27  44  66  93 125 157 185 217 268
#
# _framework density 16.692719
#
# number of rings (size 3 to 8) (size 9 to 14) (size 15 to 20)
#    0.000    2.667    1.667    1.000    0.000    3.667 
#    0.000    0.833    0.000    2.000    0.000    7.000 
#    0.000    0.000    0.000    0.000    0.000    0.000 
#
# Total GULP energy -297534.164187 kJ/mol
# GULP energy per Si atom -12397.256841 kJ/mol
# Density = 1.665473 g / cm^3
# Si number density = 16.692719 Si / 1000 Ang^3
#
#
#
# Elastic Constant Matrix: (Units=GPa)
#
#
# Indices 1 2 3 4 5 6 
#
# 1 103.3260 45.7356 63.6633 0.0000 -19.0350 0.0000
# 2 45.7356 59.3511 41.3423 0.0000 -6.4996 0.0000
# 3 63.6633 41.3423 83.9725 0.0000 -4.7559 0.0000
# 4 0.0000 0.0000 0.0000 6.6591 0.0000 5.7455
# 5 -19.0350 -6.4996 -4.7559 0.0000 26.2495 0.0000
# 6 0.0000 0.0000 0.0000 5.7455 0.0000 20.0066
#
#
#
# Elastic Compliance Matrix: (Units=1/GPa)
#
#
# Indices 1 2 3 4 5 6 
#
# 1 0.023703 -0.007373 -0.013610 0.000000 0.012897 0.000000
# 2 -0.007373 0.028381 -0.008374 0.000000 0.000164 0.000000
# 3 -0.013610 -0.008374 0.025940 0.000000 -0.007243 0.000000
# 4 0.000000 0.000000 0.000000 0.199636 0.000000 -0.057331
# 5 0.012897 0.000164 -0.007243 0.000000 0.046177 0.000000
# 6 0.000000 0.000000 0.000000 -0.057331 0.000000 0.066448
#
#
# Mechanical properties :
#
#
# Convention : Reuss Voigt Hill
#
# Bulk Modulus (GPa) = 51.78605 60.90356 56.34480
# Shear Modulus (GPa) = 10.97848 16.97692 13.97770
#
# Velocity S-wave (km/s) = 2.56731 3.19254 2.89685
# Velocity P-wave (km/s) = 6.31495 7.08196 6.70942
#
# Compressibility (1/GPa) = 0.01931022
#
# Stress axis : x y z
#
# Youngs Moduli (GPa) = 42.18813 35.23435 38.55060
#
# Poissons Ratio (x) = 0.25977 0.52469
# Poissons Ratio (y) = 0.31104 0.32283
# Poissons Ratio (z) = 0.57419 0.29506
#
# Static dielectric constant tensor:
#      x y z
#    x 3.279940 0.000000 -0.195200 
#    y 0.000000 2.974490 0.000000 
#    z -0.195200 0.000000 2.984350 
# 
# 
# High freq. dielectric constant tensor:
#      x y z
#    x 1.641960 0.000000 -0.018810 
#    y 0.000000 1.622620 0.000000 
#    z -0.018810 0.000000 1.619310 
# 
# From -- ./inp_files/48649.got.cif
#   From: 2010.06.25/outbox.cif.g09.slc.cpg/sg10_25_cif.got.tgz:48649.got - 2010.06.27 22:07:45.
