data_PCOD8057363
_publ_section_title
;
Structure prediction by ZEFSAII (Michael W. Deem and Ramdas Pophale) SiO2 
 PCOD8057363
Probable space group: P 2/M
;
_chemical_formula_sum "Si O2"
_cell_formula_units_Z 28
_cell_length_a 33.629081
_cell_length_b 7.969223
_cell_length_c 10.325959
_cell_angle_alpha 90.000000
_cell_angle_beta 34.394427
_cell_angle_gamma 90.000000
_cell_volume 1563.229561
_symmetry_space_group_name_H-M "P 2/M"
_symmetry_group_IT_number 10
_symmetry_cell_setting 'monoclinic'
loop_
_space_group_symop_operation_xyz
x,y,z
-x,y,-z
-x,-y,-z
x,-y,z
loop_
_atom_site_type_symbol
_atom_site_label
_atom_site_fract_x
_atom_site_fract_y
_atom_site_fract_z
Si Si1 0.836406 0.185672 0.608298
Si Si2 0.687788 0.695921 0.013914
Si Si3 0.682037 0.691521 0.737589
Si Si4 0.083636 0.500000 0.922614
Si Si5 0.461325 0.192229 0.978000
Si Si6 0.459520 0.303278 0.481388
Si Si7 0.828578 0.814739 0.321842
Si Si8 0.075423 0.500000 0.635783
O O1 0.757594 0.209698 0.876521
O O2 0.832019 0.200769 0.466446
O O3 0.888281 0.331802 0.520289
O O4 0.863985 0.000000 0.575483
O O5 0.705047 0.500000 0.967744
O O6 0.666589 0.753652 0.925602
O O7 0.623160 0.738562 0.282270
O O8 0.706635 0.500000 0.673149
O O9 0.746936 0.793125 0.499746
O O10 0.611559 0.709675 0.843908
O O11 0.122661 0.668321 0.869637
O O12 0.081197 0.500000 0.774559
O O13 0.005453 0.500000 0.191757
O O14 0.512544 0.206375 0.717891
O O15 0.441838 0.000000 0.054267
O O16 0.500000 0.268480 0.000000
O O17 0.500000 0.239384 0.500000
O O18 0.473858 0.500000 0.423559
O O19 0.854525 0.000000 0.206443
#
# Coordination Sequence:
#
# PCOD8057363 Si02
#       8
#     4   4   4   2   4   4   4   2
#     4   9  16  25  39  59  84 121 157 190 243 292
#     4   9  16  28  47  67  92 116 152 211 253 286
#     4  10  17  30  50  67  88 121 162 206 250 294
#     4   9  16  26  38  58  82 121 156 191 243 285
#     4  11  24  37  47  67 101 135 167 208 258 306
#     4  10  19  34  52  73  94 121 164 215 259 296
#     4   9  16  26  40  61  86 114 157 202 236 284
#     4   9  16  26  38  54  88 118 154 198 233 287
#
# _framework density 17.911636000000001
#
# number of rings (size 3 to 8) (size 9 to 14) (size 15 to 20)
#    0.000    2.429    2.857    0.857    0.000    3.143 
#    0.000    2.857    0.000    0.000    0.000    0.000 
#    0.000    0.000    0.000    2.571    0.000   11.429 
#
# Total GULP energy -347104.963796 kJ/mol
# GULP energy per Si atom -12396.605850 kJ/mol
# Density = 1.787087 g / cm^3
# Si number density = 17.911636 Si / 1000 Ang^3
#
#
#
# Elastic Constant Matrix: (Units=GPa)
#
#
# Indices 1 2 3 4 5 6 
#
# 1 54.4711 24.3222 41.7655 0.0000 -10.8278 0.0000
# 2 24.3222 107.8343 49.1636 0.0000 -23.0436 0.0000
# 3 41.7655 49.1636 82.5316 0.0000 -28.9619 0.0000
# 4 0.0000 0.0000 0.0000 17.9985 0.0000 -4.4688
# 5 -10.8278 -23.0436 -28.9619 0.0000 26.7149 0.0000
# 6 0.0000 0.0000 0.0000 -4.4688 0.0000 14.8307
#
#
#
# Elastic Compliance Matrix: (Units=1/GPa)
#
#
# Indices 1 2 3 4 5 6 
#
# 1 0.030824 -0.000315 -0.017952 0.000000 -0.007240 0.000000
# 2 -0.000315 0.013071 -0.005997 0.000000 0.004646 0.000000
# 3 -0.017952 -0.005997 0.032934 0.000000 0.023256 0.000000
# 4 0.000000 0.000000 0.000000 0.060053 0.000000 0.018095
# 5 -0.007240 0.004646 0.023256 0.000000 0.063717 0.000000
# 6 0.000000 0.000000 0.000000 0.018095 0.000000 0.072880
#
#
# Mechanical properties :
#
#
# Convention : Reuss Voigt Hill
#
# Bulk Modulus (GPa) = 35.33203 52.81550 44.07377
# Shear Modulus (GPa) = 15.08562 20.54787 17.81674
#
# Velocity S-wave (km/s) = 2.90526 3.39068 3.15731
# Velocity P-wave (km/s) = 5.56979 6.69923 6.16045
#
# Compressibility (1/GPa) = 0.02830293
#
# Stress axis : x y z
#
# Youngs Moduli (GPa) = 32.44198 76.50268 30.36370
#
# Poissons Ratio (x) = 0.02411 0.54508
# Poissons Ratio (y) = 0.01022 0.18208
# Poissons Ratio (z) = 0.58239 0.45876
#
# Static dielectric constant tensor:
#      x y z
#    x 2.872430 0.000000 -0.309670 
#    y 0.000000 3.427550 0.000000 
#    z -0.309670 0.000000 3.212250 
# 
# 
# High freq. dielectric constant tensor:
#      x y z
#    x 1.629880 0.000000 -0.040340 
#    y 0.000000 1.704170 0.000000 
#    z -0.040340 0.000000 1.675690 
# 
# From -- ./inp_files/37216.got.cif
#   From: 2010.06.25/outbox.cif.g09.slc.cpg/sg10_19_cif.got.tgz:37216.got - 2010.06.27 22:07:45.
