data_PCOD8057211
_publ_section_title
;
Structure prediction by ZEFSAII (Michael W. Deem and Ramdas Pophale) SiO2 
 PCOD8057211
Probable space group: P 2/M
;
_chemical_formula_sum "Si O2"
_cell_formula_units_Z 20
_cell_length_a 21.738324
_cell_length_b 9.033615
_cell_length_c 10.441827
_cell_angle_alpha 90.000000
_cell_angle_beta 145.673036
_cell_angle_gamma 90.000000
_cell_volume 1156.318805
_symmetry_space_group_name_H-M "P 2/M"
_symmetry_group_IT_number 10
_symmetry_cell_setting 'monoclinic'
loop_
_space_group_symop_operation_xyz
x,y,z
-x,y,-z
-x,-y,-z
x,-y,z
loop_
_atom_site_type_symbol
_atom_site_label
_atom_site_fract_x
_atom_site_fract_y
_atom_site_fract_z
Si Si1 0.065877 0.326746 0.493945
Si Si2 0.736275 0.824398 0.775975
Si Si3 0.497787 0.836719 0.343823
Si Si4 0.287451 0.327489 0.994724
Si Si5 0.055901 0.675350 0.964495
O O1 0.042654 0.500000 0.454097
O O2 0.194636 0.293595 0.729446
O O3 0.000000 0.254879 0.500000
O O4 0.020765 0.263640 0.282336
O O5 0.618820 0.784795 0.509196
O O6 0.827310 0.754818 0.841195
O O7 0.750142 0.000000 0.811977
O O8 0.745800 0.756464 0.933634
O O9 0.500000 0.842102 0.500000
O O10 0.471303 0.000000 0.243523
O O11 0.403003 0.725768 0.134284
O O12 0.294837 0.500000 0.040241
O O13 0.074200 0.500000 0.989366
O O14 0.000000 0.723687 0.000000
#
# Coordination Sequence:
#
# PCOD8057211 Si02
#       5
#     4   4   4   4   4
#     4   9  16  29  48  71 100 125 150 197 248 278
#     4  10  19  31  47  68  99 131 158 195 241 283
#     4   8  16  29  43  65  98 128 154 195 244 280
#     4  10  17  27  48  73  97 125 159 197 239 285
#     4  10  20  34  52  72  95 127 164 198 236 285
#
# _framework density 17.29627
#
# number of rings (size 3 to 8) (size 9 to 14) (size 15 to 20)
#    0.000    2.600    2.000    2.400    0.000    4.800 
#    0.000    3.000    0.000    1.200    0.000    8.400 
#    0.000    0.000    0.000    0.000    0.000    0.000 
#
# Total GULP energy -247896.451768 kJ/mol
# GULP energy per Si atom -12394.822588 kJ/mol
# Density = 1.725690 g / cm^3
# Si number density = 17.296270 Si / 1000 Ang^3
#
#
#
# Elastic Constant Matrix: (Units=GPa)
#
#
# Indices 1 2 3 4 5 6 
#
# 1 121.3819 46.2208 77.5169 0.0000 21.4043 0.0000
# 2 46.2208 61.4888 37.9894 0.0000 14.9539 0.0000
# 3 77.5169 37.9894 108.9792 0.0000 20.1534 0.0000
# 4 0.0000 0.0000 0.0000 9.3856 0.0000 12.0382
# 5 21.4043 14.9539 20.1534 0.0000 32.3195 0.0000
# 6 0.0000 0.0000 0.0000 12.0382 0.0000 21.4428
#
#
#
# Elastic Compliance Matrix: (Units=1/GPa)
#
#
# Indices 1 2 3 4 5 6 
#
# 1 0.017229 -0.006450 -0.009549 0.000000 -0.002471 0.000000
# 2 -0.006450 0.024131 -0.002882 0.000000 -0.005097 0.000000
# 3 -0.009549 -0.002882 0.017585 0.000000 -0.003308 0.000000
# 4 0.000000 0.000000 0.000000 0.380633 0.000000 -0.213692
# 5 -0.002471 -0.005097 -0.003308 0.000000 0.036998 0.000000
# 6 0.000000 0.000000 0.000000 -0.213692 0.000000 0.166604
#
#
# Mechanical properties :
#
#
# Convention : Reuss Voigt Hill
#
# Bulk Modulus (GPa) = 47.20789 68.36712 57.78751
# Shear Modulus (GPa) = 7.26740 21.30441 14.28591
#
# Velocity S-wave (km/s) = 2.05203 3.51342 2.87706
# Velocity P-wave (km/s) = 5.74172 7.48810 6.67230
#
# Compressibility (1/GPa) = 0.02118290
#
# Stress axis : x y z
#
# Youngs Moduli (GPa) = 58.04274 41.43982 56.86735
#
# Poissons Ratio (x) = 0.26728 0.54305
# Poissons Ratio (y) = 0.37437 0.16387
# Poissons Ratio (z) = 0.55427 0.11942
#
# Static dielectric constant tensor:
#      x y z
#    x 3.206510 0.000000 0.386170 
#    y 0.000000 3.106100 0.000000 
#    z 0.386170 0.000000 3.393980 
# 
# 
# High freq. dielectric constant tensor:
#      x y z
#    x 1.642450 0.000000 0.035890 
#    y 0.000000 1.653970 0.000000 
#    z 0.035890 0.000000 1.661350 
# 
# From -- ./inp_files/31422.got.cif
#   From: 2010.06.25/outbox.cif.g09.slc.cpg/sg10_16_cif.got.tgz:31422.got - 2010.06.27 22:07:45.
