data_PCOD8057094
_publ_section_title
;
Structure prediction by ZEFSAII (Michael W. Deem and Ramdas Pophale) SiO2 
 PCOD8057094
Probable space group: P 2/M
;
_chemical_formula_sum "Si O2"
_cell_formula_units_Z 28
_cell_length_a 17.497235
_cell_length_b 9.029598
_cell_length_c 14.197531
_cell_angle_alpha 90.000000
_cell_angle_beta 128.602847
_cell_angle_gamma 90.000000
_cell_volume 1752.967230
_symmetry_space_group_name_H-M "P 2/M"
_symmetry_group_IT_number 10
_symmetry_cell_setting 'monoclinic'
loop_
_space_group_symop_operation_xyz
x,y,z
-x,y,-z
-x,-y,-z
x,-y,z
loop_
_atom_site_type_symbol
_atom_site_label
_atom_site_fract_x
_atom_site_fract_y
_atom_site_fract_z
Si Si1 0.576131 0.171166 0.140485
Si Si2 0.778066 0.326627 0.299080
Si Si3 0.595936 0.332784 0.637153
Si Si4 0.292618 0.826448 0.430007
Si Si5 0.043385 0.167276 0.637213
Si Si6 0.518616 0.171191 0.303320
Si Si7 0.137761 0.674099 0.432832
O O1 0.669691 0.271838 0.193833
O O2 0.524466 0.214904 0.198609
O O3 0.609398 0.000000 0.168690
O O4 0.500000 0.204004 0.000000
O O5 0.785946 0.500000 0.286368
O O6 0.851195 0.245790 0.282849
O O7 0.805252 0.286881 0.427257
O O8 0.500000 0.326010 0.500000
O O9 0.633154 0.500000 0.679505
O O10 0.680674 0.237673 0.652232
O O11 0.569727 0.264122 0.718587
O O12 0.378159 0.789199 0.569653
O O13 0.194799 0.746856 0.389968
O O14 0.273193 0.000000 0.406333
O O15 0.000000 0.169514 0.500000
O O16 0.970870 0.257323 0.649661
O O17 0.054862 0.000000 0.683617
O O18 0.493500 0.000000 0.299634
O O19 0.129381 0.500000 0.410440
#
# Coordination Sequence:
#
# PCOD8057094 Si02
#       7
#     4   4   4   4   4   4   4
#     4  10  20  33  48  65  86 116 155 193 225 260
#     4  10  19  30  44  61  86 116 147 185 226 263
#     4   9  17  27  40  59  83 111 143 178 218 264
#     4  10  17  26  42  62  86 116 148 179 214 261
#     4   9  17  28  43  61  83 113 148 180 215 263
#     4   9  17  29  43  59  82 113 148 184 221 260
#     4  10  18  27  41  63  90 117 146 179 218 263
#
# _framework density 15.972917000000001
#
# number of rings (size 3 to 8) (size 9 to 14) (size 15 to 20)
#    0.000    2.429    1.429    2.143    0.000    6.000 
#    0.000    0.000    0.000    0.000    0.000    0.000 
#    0.000    1.143    0.000   12.286    0.000    5.429 
#
# Total GULP energy -347242.345914 kJ/mol
# GULP energy per Si atom -12401.512354 kJ/mol
# Density = 1.593656 g / cm^3
# Si number density = 15.972917 Si / 1000 Ang^3
#
#
#
# Elastic Constant Matrix: (Units=GPa)
#
#
# Indices 1 2 3 4 5 6 
#
# 1 148.1210 71.3435 34.5210 0.0000 6.5273 0.0000
# 2 71.3435 100.6789 23.3580 0.0000 8.4591 0.0000
# 3 34.5210 23.3580 37.4498 0.0000 -0.7704 0.0000
# 4 0.0000 0.0000 0.0000 14.0735 0.0000 5.3228
# 5 6.5273 8.4591 -0.7704 0.0000 15.2349 0.0000
# 6 0.0000 0.0000 0.0000 5.3228 0.0000 34.8120
#
#
#
# Elastic Compliance Matrix: (Units=1/GPa)
#
#
# Indices 1 2 3 4 5 6 
#
# 1 0.011470 -0.006463 -0.006576 0.000000 -0.001658 0.000000
# 2 -0.006463 0.016009 -0.004158 0.000000 -0.006330 0.000000
# 3 -0.006576 -0.004158 0.035500 0.000000 0.006921 0.000000
# 4 0.000000 0.000000 0.000000 0.075417 0.000000 -0.011531
# 5 -0.001658 -0.006330 0.006921 0.000000 0.070214 0.000000
# 6 0.000000 0.000000 0.000000 -0.011531 0.000000 0.030489
#
#
# Mechanical properties :
#
#
# Convention : Reuss Voigt Hill
#
# Bulk Modulus (GPa) = 34.98308 60.52164 47.75236
# Shear Modulus (GPa) = 17.66666 23.29257 20.47962
#
# Velocity S-wave (km/s) = 3.32932 3.82285 3.58459
# Velocity P-wave (km/s) = 6.06038 7.58011 6.86244
#
# Compressibility (1/GPa) = 0.02858525
#
# Stress axis : x y z
#
# Youngs Moduli (GPa) = 87.18613 62.46602 28.16928
#
# Poissons Ratio (x) = 0.40370 0.18524
# Poissons Ratio (y) = 0.56346 0.11712
# Poissons Ratio (z) = 0.57333 0.25972
#
# Static dielectric constant tensor:
#      x y z
#    x 3.180290 0.000000 0.033510 
#    y 0.000000 3.134350 0.000000 
#    z 0.033510 0.000000 2.491130 
# 
# 
# High freq. dielectric constant tensor:
#      x y z
#    x 1.626100 0.000000 0.008570 
#    y 0.000000 1.628880 0.000000 
#    z 0.008570 0.000000 1.540120 
# 
# From -- ./inp_files/49364.got.cif
#   From: 2010.06.25/outbox.cif.g09.slc.cpg/sg10_25_cif.got.tgz:49364.got - 2010.06.27 22:07:45.
