data_PCOD8057473
_publ_section_title
;
Structure prediction by ZEFSAII (Michael W. Deem and Ramdas Pophale) SiO2 
 PCOD8057473
Probable space group: P 2/M
;
_chemical_formula_sum "Si O2"
_cell_formula_units_Z 28
_cell_length_a 11.499232
_cell_length_b 15.001319
_cell_length_c 9.239665
_cell_angle_alpha 90.000000
_cell_angle_beta 123.997237
_cell_angle_gamma 90.000000
_cell_volume 1321.425998
_symmetry_space_group_name_H-M "P 2/M"
_symmetry_group_IT_number 10
_symmetry_cell_setting 'monoclinic'
loop_
_space_group_symop_operation_xyz
x,y,z
-x,y,-z
-x,-y,-z
x,-y,z
loop_
_atom_site_type_symbol
_atom_site_label
_atom_site_fract_x
_atom_site_fract_y
_atom_site_fract_z
Si Si1 0.411162 0.252593 0.796431
Si Si2 0.987838 0.097250 0.746371
Si Si3 0.898486 0.274438 0.310625
Si Si4 0.191873 0.140840 0.135111
Si Si5 0.499584 0.898899 0.663980
Si Si6 0.141997 0.657995 0.030489
Si Si7 0.447928 0.600702 0.304625
O O1 0.253208 0.272102 0.725652
O O2 0.403293 0.164609 0.692656
O O3 0.480927 0.335498 0.763006
O O4 0.500000 0.230836 0.000000
O O5 0.833771 0.112586 0.713894
O O6 0.037117 0.175770 0.674354
O O7 0.989703 0.000000 0.668965
O O8 0.087572 0.092914 0.954108
O O9 0.000000 0.320329 0.500000
O O10 0.886848 0.335612 0.161041
O O11 0.340551 0.111930 0.174943
O O12 0.170331 0.246117 0.117974
O O13 0.500000 0.865814 0.500000
O O14 0.446356 0.000000 0.645282
O O15 0.278880 0.600704 0.167054
O O16 0.000000 0.615871 0.000000
O O17 0.500000 0.631354 0.500000
O O18 0.499701 0.500000 0.311761
#
# Coordination Sequence:
#
# PCOD8057473 Si02
#       7
#     4   4   4   4   4   4   4
#     4  12  24  44  68  93 135 180 219 271 340 398
#     4  10  19  33  55  83 121 167 220 270 313 372
#     4  11  25  39  59  98 130 176 220 263 335 398
#     4  10  17  34  59  86 115 166 218 265 317 375
#     4  11  24  37  59  94 129 173 229 278 326 387
#     4  11  21  42  71  96 130 169 216 268 326 395
#     4  11  26  47  75 104 128 167 222 276 336 408
#
# _framework density 21.189230999999999
#
# number of rings (size 3 to 8) (size 9 to 14) (size 15 to 20)
#    0.000    1.143    5.714    3.000    4.000    1.714 
#    0.000    0.000    0.000    0.857    0.000    0.000 
#    0.000    0.000    0.000    0.000    0.000    0.000 
#
# Total GULP energy -347095.963557 kJ/mol
# GULP energy per Si atom -12396.284413 kJ/mol
# Density = 2.114100 g / cm^3
# Si number density = 21.189231 Si / 1000 Ang^3
#
#
#
# Elastic Constant Matrix: (Units=GPa)
#
#
# Indices 1 2 3 4 5 6 
#
# 1 140.6195 15.0049 41.3162 0.0000 -5.2115 0.0000
# 2 15.0049 71.4082 23.0908 0.0000 -16.6273 0.0000
# 3 41.3162 23.0908 126.8529 0.0000 -7.7248 0.0000
# 4 0.0000 0.0000 0.0000 21.8595 0.0000 2.1368
# 5 -5.2115 -16.6273 -7.7248 0.0000 28.3843 0.0000
# 6 0.0000 0.0000 0.0000 2.1368 0.0000 8.1407
#
#
#
# Elastic Compliance Matrix: (Units=1/GPa)
#
#
# Indices 1 2 3 4 5 6 
#
# 1 0.007918 -0.000808 -0.002412 0.000000 0.000324 0.000000
# 2 -0.000808 0.017059 -0.002280 0.000000 0.009224 0.000000
# 3 -0.002412 -0.002280 0.009127 0.000000 0.000705 0.000000
# 4 0.000000 0.000000 0.000000 0.046951 0.000000 -0.012324
# 5 0.000324 0.009224 0.000705 0.000000 0.040886 0.000000
# 6 0.000000 0.000000 0.000000 -0.012324 0.000000 0.126075
#
#
# Mechanical properties :
#
#
# Convention : Reuss Voigt Hill
#
# Bulk Modulus (GPa) = 43.28528 55.30052 49.29290
# Shear Modulus (GPa) = 18.74637 28.97479 23.86058
#
# Velocity S-wave (km/s) = 2.97764 3.70189 3.35934
# Velocity P-wave (km/s) = 5.68279 6.66536 6.19359
#
# Compressibility (1/GPa) = 0.02310254
#
# Stress axis : x y z
#
# Youngs Moduli (GPa) = 126.28835 58.61999 109.56750
#
# Poissons Ratio (x) = 0.04739 0.26429
# Poissons Ratio (y) = 0.10210 0.24983
# Poissons Ratio (z) = 0.30463 0.13366
#
# Static dielectric constant tensor:
#      x y z
#    x 4.181180 0.000000 -0.028780 
#    y 0.000000 3.608730 0.000000 
#    z -0.028780 0.000000 4.092650 
# 
# 
# High freq. dielectric constant tensor:
#      x y z
#    x 1.838880 0.000000 0.006450 
#    y 0.000000 1.809530 0.000000 
#    z 0.006450 0.000000 1.833460 
# 
# From -- ./inp_files/25406.got.cif
#   From: 2010.06.25/outbox.cif.g09.slc.cpg/sg10_13_cif.got.tgz:25406.got - 2010.06.27 22:07:45.
