data_PCOD8057349
_publ_section_title
;
Structure prediction by ZEFSAII (Michael W. Deem and Ramdas Pophale) SiO2 
 PCOD8057349
Probable space group: P 2/M
;
_chemical_formula_sum "Si O2"
_cell_formula_units_Z 32
_cell_length_a 18.480406
_cell_length_b 8.995245
_cell_length_c 12.242021
_cell_angle_alpha 90.000000
_cell_angle_beta 120.144794
_cell_angle_gamma 90.000000
_cell_volume 1759.838249
_symmetry_space_group_name_H-M "P 2/M"
_symmetry_group_IT_number 10
_symmetry_cell_setting 'monoclinic'
loop_
_space_group_symop_operation_xyz
x,y,z
-x,y,-z
-x,-y,-z
x,-y,z
loop_
_atom_site_type_symbol
_atom_site_label
_atom_site_fract_x
_atom_site_fract_y
_atom_site_fract_z
Si Si1 0.727805 0.671889 0.837586
Si Si2 0.974168 0.328280 0.199594
Si Si3 0.283750 0.825569 0.508575
Si Si4 0.594133 0.325507 0.559819
Si Si5 0.221486 0.825771 0.684626
Si Si6 0.940520 0.838783 0.550503
Si Si7 0.200362 0.823789 0.911262
Si Si8 0.848942 0.327389 0.738873
O O1 0.729376 0.500000 0.871975
O O2 0.643310 0.712960 0.708459
O O3 0.807419 0.713743 0.822851
O O4 0.730787 0.768147 0.950080
O O5 0.947693 0.500000 0.175824
O O6 0.890507 0.233485 0.117744
O O7 0.014656 0.286357 0.344915
O O8 0.051200 0.294772 0.173635
O O9 0.362933 0.751033 0.511207
O O10 0.293220 0.792344 0.647451
O O11 0.195016 0.765437 0.392337
O O12 0.286234 0.000000 0.487684
O O13 0.500000 0.265129 0.500000
O O14 0.596049 0.500000 0.538133
O O15 0.140118 0.760980 0.563568
O O16 0.229802 0.759682 0.814028
O O17 0.209714 0.000000 0.692088
O O18 0.000000 0.885651 0.500000
O O19 0.920642 0.000000 0.595391
O O20 0.197444 0.000000 0.909079
O O21 0.832237 0.500000 0.699091
#
# Coordination Sequence:
#
# PCOD8057349 Si02
#       8
#     4   4   4   4   4   4   4   4
#     4   9  19  37  55  74 100 130 168 209 251 302
#     4  11  21  31  46  71  99 134 182 229 266 298
#     4  10  18  30  53  82 107 130 166 214 255 295
#     4   9  19  38  63  86 109 134 155 189 253 320
#     4   9  18  31  48  70 101 140 173 210 259 303
#     4  10  17  30  47  64  94 137 179 221 265 300
#     4  11  22  36  50  68 100 144 184 212 255 308
#     4   9  19  34  50  69 101 139 172 216 271 312
#
# _framework density 18.183489999999999
#
# number of rings (size 3 to 8) (size 9 to 14) (size 15 to 20)
#    0.000    2.250    2.500    1.875    0.000    3.500 
#    0.000    5.000    0.000    0.750    0.000    5.250 
#    0.000    0.000    0.000    0.000    0.000    0.000 
#
# Total GULP energy -396426.760417 kJ/mol
# GULP energy per Si atom -12388.336263 kJ/mol
# Density = 1.814210 g / cm^3
# Si number density = 18.183490 Si / 1000 Ang^3
#
#
#
# Elastic Constant Matrix: (Units=GPa)
#
#
# Indices 1 2 3 4 5 6 
#
# 1 103.4152 34.0472 57.1139 0.0000 2.6599 0.0000
# 2 34.0472 55.8163 37.2281 0.0000 -3.3268 0.0000
# 3 57.1139 37.2281 106.2598 0.0000 -8.0056 0.0000
# 4 0.0000 0.0000 0.0000 27.9199 0.0000 -0.8818
# 5 2.6599 -3.3268 -8.0056 0.0000 19.2981 0.0000
# 6 0.0000 0.0000 0.0000 -0.8818 0.0000 17.0859
#
#
#
# Elastic Compliance Matrix: (Units=1/GPa)
#
#
# Indices 1 2 3 4 5 6 
#
# 1 0.015294 -0.005090 -0.006877 0.000000 -0.005838 0.000000
# 2 -0.005090 0.025081 -0.005856 0.000000 0.002596 0.000000
# 3 -0.006877 -0.005856 0.015643 0.000000 0.006428 0.000000
# 4 0.000000 0.000000 0.000000 0.035875 0.000000 0.001851
# 5 -0.005838 0.002596 0.006428 0.000000 0.055737 0.000000
# 6 0.000000 0.000000 0.000000 0.001851 0.000000 0.058623
#
#
# Mechanical properties :
#
#
# Convention : Reuss Voigt Hill
#
# Bulk Modulus (GPa) = 49.08572 58.02994 53.55783
# Shear Modulus (GPa) = 20.10538 22.00091 21.05315
#
# Velocity S-wave (km/s) = 3.32881 3.48219 3.40636
# Velocity P-wave (km/s) = 6.46745 6.93905 6.70739
#
# Compressibility (1/GPa) = 0.02037252
#
# Stress axis : x y z
#
# Youngs Moduli (GPa) = 65.38669 39.87044 63.92704
#
# Poissons Ratio (x) = 0.20295 0.43961
# Poissons Ratio (y) = 0.33284 0.37433
# Poissons Ratio (z) = 0.44964 0.23347
#
# Static dielectric constant tensor:
#      x y z
#    x 3.486620 0.000000 -0.168750 
#    y 0.000000 3.222930 0.000000 
#    z -0.168750 0.000000 3.319060 
# 
# 
# High freq. dielectric constant tensor:
#      x y z
#    x 1.691570 0.000000 -0.018490 
#    y 0.000000 1.695450 0.000000 
#    z -0.018490 0.000000 1.686760 
# 
# From -- ./inp_files/54872.got.cif
#   From: 2010.06.25/outbox.cif.g09.slc.cpg/sg10_28_cif.got.tgz:54872.got - 2010.06.27 22:07:45.
