data_PCOD8057905
_publ_section_title
;
Structure prediction by ZEFSAII (Michael W. Deem and Ramdas Pophale) SiO2 
 PCOD8057905
Probable space group: P 2/M
;
_chemical_formula_sum "Si O2"
_cell_formula_units_Z 32
_cell_length_a 20.237754
_cell_length_b 8.754662
_cell_length_c 28.354046
_cell_angle_alpha 90.000000
_cell_angle_beta 21.055772
_cell_angle_gamma 90.000000
_cell_volume 1804.868582
_symmetry_space_group_name_H-M "P 2/M"
_symmetry_group_IT_number 10
_symmetry_cell_setting 'monoclinic'
loop_
_space_group_symop_operation_xyz
x,y,z
-x,y,-z
-x,-y,-z
x,-y,z
loop_
_atom_site_type_symbol
_atom_site_label
_atom_site_fract_x
_atom_site_fract_y
_atom_site_fract_z
Si Si1 0.055144 0.819797 0.411203
Si Si2 0.205162 0.821944 0.115429
Si Si3 0.930084 0.676870 0.887877
Si Si4 0.558185 0.680752 0.848722
Si Si5 0.854456 0.679137 0.380896
Si Si6 0.259452 0.679860 0.441112
Si Si7 0.430883 0.321909 0.831416
Si Si8 0.685482 0.322539 0.396650
O O1 0.244722 0.744872 0.268012
O O2 0.000000 0.760169 0.500000
O O3 0.902902 0.770588 0.475448
O O4 0.078615 0.000000 0.395325
O O5 0.125440 0.787887 0.117020
O O6 0.055772 0.756148 0.251925
O O7 0.229158 0.000000 0.108131
O O8 0.404980 0.742899 0.987501
O O9 0.898268 0.500000 0.893159
O O10 0.147590 0.703023 0.752664
O O11 0.790543 0.714089 0.024511
O O12 0.560658 0.500000 0.849768
O O13 0.509354 0.742328 0.828621
O O14 0.887786 0.500000 0.352285
O O15 0.737025 0.717690 0.505703
O O16 0.743040 0.744428 0.409563
O O17 0.229362 0.500000 0.452649
O O18 0.453032 0.742473 0.290197
O O19 0.465019 0.500000 0.808617
O O20 0.500000 0.242383 0.500000
O O21 0.643542 0.500000 0.431680
#
# Coordination Sequence:
#
# PCOD8057905 Si02
#       8
#     4   4   4   4   4   4   4   4
#     4  11  22  33  46  70 101 126 156 201 246 284
#     4  10  18  29  47  69  95 123 155 199 249 287
#     4   8  14  26  44  68  94 122 159 195 232 283
#     4  10  18  31  51  70  92 123 163 202 239 283
#     4   9  18  32  49  69  94 125 164 199 233 288
#     4  10  19  32  49  67  90 126 167 201 237 287
#     4   8  14  25  44  67  88 117 156 198 233 269
#     4   8  13  24  46  73  97 123 157 198 241 280
#
# _framework density 17.729824000000001
#
# number of rings (size 3 to 8) (size 9 to 14) (size 15 to 20)
#    0.000    2.750    1.250    3.375    0.000    1.000 
#    0.000    0.625    0.000   10.500    0.000    5.250 
#    0.000    0.000    0.000   18.625    0.000   23.250 
#
# Total GULP energy -396452.720124 kJ/mol
# GULP energy per Si atom -12389.147504 kJ/mol
# Density = 1.768947 g / cm^3
# Si number density = 17.729824 Si / 1000 Ang^3
#
#
#
# Elastic Constant Matrix: (Units=GPa)
#
#
# Indices 1 2 3 4 5 6 
#
# 1 59.9046 16.3266 59.8282 0.0000 2.5430 0.0000
# 2 16.3266 49.3795 27.3881 0.0000 1.1148 0.0000
# 3 59.8282 27.3881 179.1907 0.0000 1.1990 0.0000
# 4 0.0000 0.0000 0.0000 12.4198 0.0000 3.1624
# 5 2.5430 1.1148 1.1990 0.0000 27.0028 0.0000
# 6 0.0000 0.0000 0.0000 3.1624 0.0000 9.4557
#
#
#
# Elastic Compliance Matrix: (Units=1/GPa)
#
#
# Indices 1 2 3 4 5 6 
#
# 1 0.025880 -0.004073 -0.008005 0.000000 -0.001914 0.000000
# 2 -0.004073 0.022784 -0.002119 0.000000 -0.000463 0.000000
# 3 -0.008005 -0.002119 0.008574 0.000000 0.000461 0.000000
# 4 0.000000 0.000000 0.000000 0.088012 0.000000 -0.029435
# 5 -0.001914 -0.000463 0.000461 0.000000 0.037212 0.000000
# 6 0.000000 0.000000 0.000000 -0.029435 0.000000 0.115601
#
#
# Mechanical properties :
#
#
# Convention : Reuss Voigt Hill
#
# Bulk Modulus (GPa) = 34.67166 55.06230 44.86698
# Shear Modulus (GPa) = 14.87772 22.10446 18.49109
#
# Velocity S-wave (km/s) = 2.89993 3.53475 3.23296
# Velocity P-wave (km/s) = 5.55074 6.91253 6.26872
#
# Compressibility (1/GPa) = 0.02884200
#
# Stress axis : x y z
#
# Youngs Moduli (GPa) = 38.64028 43.89044 116.62779
#
# Poissons Ratio (x) = 0.17879 0.93364
# Poissons Ratio (y) = 0.15740 0.24716
# Poissons Ratio (z) = 0.30933 0.09301
#
# Static dielectric constant tensor:
#      x y z
#    x 3.027530 0.000000 0.132470 
#    y 0.000000 2.981400 0.000000 
#    z 0.132470 0.000000 3.929110 
# 
# 
# High freq. dielectric constant tensor:
#      x y z
#    x 1.629620 0.000000 0.007930 
#    y 0.000000 1.658870 0.000000 
#    z 0.007930 0.000000 1.710620 
# 
# From -- ./inp_files/54773.got.cif
#   From: 2010.06.25/outbox.cif.g09.slc.cpg/sg10_28_cif.got.tgz:54773.got - 2010.06.27 22:07:45.
