data_PCOD8057897
_publ_section_title
;
Structure prediction by ZEFSAII (Michael W. Deem and Ramdas Pophale) SiO2 
 PCOD8057897
Probable space group: P 2/M
;
_chemical_formula_sum "Si O2"
_cell_formula_units_Z 32
_cell_length_a 21.271812
_cell_length_b 9.249753
_cell_length_c 20.224502
_cell_angle_alpha 90.000000
_cell_angle_beta 152.054981
_cell_angle_gamma 90.000000
_cell_volume 1864.820568
_symmetry_space_group_name_H-M "P 2/M"
_symmetry_group_IT_number 10
_symmetry_cell_setting 'monoclinic'
loop_
_space_group_symop_operation_xyz
x,y,z
-x,y,-z
-x,-y,-z
x,-y,z
loop_
_atom_site_type_symbol
_atom_site_label
_atom_site_fract_x
_atom_site_fract_y
_atom_site_fract_z
Si Si1 0.153336 0.665502 0.626389
Si Si2 0.638787 0.170121 0.093432
Si Si3 0.612746 0.163265 0.809359
Si Si4 0.704801 0.838456 0.504570
Si Si5 0.675344 0.662039 0.599549
Si Si6 0.358404 0.662776 0.286916
Si Si7 0.275618 0.664926 0.602536
Si Si8 0.582423 0.329765 0.909825
O O1 0.195061 0.500000 0.681998
O O2 0.240646 0.777494 0.748733
O O3 0.173852 0.695293 0.567660
O O4 0.000000 0.695671 0.500000
O O5 0.651835 0.000000 0.092189
O O6 0.500000 0.209288 0.000000
O O7 0.650601 0.255398 0.035910
O O8 0.454414 0.164933 0.650823
O O9 0.687132 0.231282 0.814476
O O10 0.648956 0.260135 0.906466
O O11 0.664842 0.000000 0.868148
O O12 0.748781 0.762995 0.614112
O O13 0.770887 0.759401 0.503142
O O14 0.761446 0.000000 0.558950
O O15 0.731193 0.500000 0.642806
O O16 0.517768 0.662737 0.440401
O O17 0.704277 0.716852 0.701410
O O18 0.309128 0.500000 0.225509
O O19 0.272563 0.500000 0.575747
O O20 0.424517 0.705316 0.765450
O O21 0.612292 0.500000 0.938254
#
# Coordination Sequence:
#
# PCOD8057897 Si02
#       8
#     4   4   4   4   4   4   4   4
#     4  10  21  37  55  74  96 124 160 199 240 289
#     4  11  22  34  51  74  99 125 155 196 242 288
#     4   9  16  24  34  53  81 109 141 184 231 274
#     4   9  16  23  34  53  77 106 142 184 226 271
#     4   8  13  21  32  46  68 101 142 184 220 263
#     4   8  13  21  32  46  68 103 144 180 219 268
#     4   9  17  29  45  64  86 115 149 189 234 278
#     4  10  18  29  47  66  87 117 155 195 233 277
#
# _framework density 17.159828999999998
#
# number of rings (size 3 to 8) (size 9 to 14) (size 15 to 20)
#    0.000    2.750    1.250    2.250    0.000    5.250 
#    0.000    2.500    0.000    0.000    0.000    0.000 
#    0.000    0.000    0.000    1.125    0.000   23.000 
#
# Total GULP energy -396715.815830 kJ/mol
# GULP energy per Si atom -12397.369245 kJ/mol
# Density = 1.712077 g / cm^3
# Si number density = 17.159829 Si / 1000 Ang^3
#
#
#
# Elastic Constant Matrix: (Units=GPa)
#
#
# Indices 1 2 3 4 5 6 
#
# 1 133.7107 73.8962 37.8724 0.0000 -29.5549 0.0000
# 2 73.8962 115.8201 31.5875 0.0000 -20.2750 0.0000
# 3 37.8724 31.5875 30.6729 0.0000 -6.9065 0.0000
# 4 0.0000 0.0000 0.0000 13.0645 0.0000 -10.0897
# 5 -29.5549 -20.2750 -6.9065 0.0000 19.0720 0.0000
# 6 0.0000 0.0000 0.0000 -10.0897 0.0000 23.9005
#
#
#
# Elastic Compliance Matrix: (Units=1/GPa)
#
#
# Indices 1 2 3 4 5 6 
#
# 1 0.017624 -0.004585 -0.013051 0.000000 0.017711 0.000000
# 2 -0.004585 0.014817 -0.008330 0.000000 0.005630 0.000000
# 3 -0.013051 -0.008330 0.055252 0.000000 -0.009072 0.000000
# 4 0.000000 0.000000 0.000000 0.113570 0.000000 0.047944
# 5 0.017711 0.005630 -0.009072 0.000000 0.082578 0.000000
# 6 0.000000 0.000000 0.000000 0.047944 0.000000 0.062080
#
#
# Mechanical properties :
#
#
# Convention : Reuss Voigt Hill
#
# Bulk Modulus (GPa) = 27.96339 62.99066 45.47702
# Shear Modulus (GPa) = 12.20185 20.33059 16.26622
#
# Velocity S-wave (km/s) = 2.66948 3.44579 3.08218
# Velocity P-wave (km/s) = 5.08259 7.25391 6.26307
#
# Compressibility (1/GPa) = 0.03576105
#
# Stress axis : x y z
#
# Youngs Moduli (GPa) = 56.74066 67.49179 18.09877
#
# Poissons Ratio (x) = 0.30943 0.23621
# Poissons Ratio (y) = 0.26014 0.15076
# Poissons Ratio (z) = 0.74054 0.56220
#
# Static dielectric constant tensor:
#      x y z
#    x 3.425300 0.000000 -0.283460 
#    y 0.000000 3.350520 0.000000 
#    z -0.283460 0.000000 2.576720 
# 
# 
# High freq. dielectric constant tensor:
#      x y z
#    x 1.670860 0.000000 -0.034460 
#    y 0.000000 1.670000 0.000000 
#    z -0.034460 0.000000 1.587310 
# 
# From -- ./inp_files/86152.got.cif
#   From: 2010.06.25/outbox.cif.g09.slc.cpg/sg10_44_cif.got.tgz:86152.got - 2010.06.27 22:07:45.
