data_PCOD8057042
_publ_section_title
;
Structure prediction by ZEFSAII (Michael W. Deem and Ramdas Pophale) SiO2 
 PCOD8057042
Probable space group: P 2/M
;
_chemical_formula_sum "Si O2"
_cell_formula_units_Z 32
_cell_length_a 11.467171
_cell_length_b 8.893018
_cell_length_c 18.994022
_cell_angle_alpha 90.000000
_cell_angle_beta 118.585076
_cell_angle_gamma 90.000000
_cell_volume 1700.866191
_symmetry_space_group_name_H-M "P 2/M"
_symmetry_group_IT_number 10
_symmetry_cell_setting 'monoclinic'
loop_
_space_group_symop_operation_xyz
x,y,z
-x,y,-z
-x,-y,-z
x,-y,z
loop_
_atom_site_type_symbol
_atom_site_label
_atom_site_fract_x
_atom_site_fract_y
_atom_site_fract_z
Si Si1 0.390927 0.674782 0.683662
Si Si2 0.572676 0.164075 0.947592
Si Si3 0.312082 0.675262 0.235500
Si Si4 0.050074 0.678972 0.089974
Si Si5 0.336640 0.672021 0.822400
Si Si6 0.654954 0.324200 0.601150
Si Si7 0.819869 0.822343 0.101681
Si Si8 0.631287 0.821873 0.459870
O O1 0.399137 0.500000 0.664161
O O2 0.541044 0.742454 0.736855
O O3 0.307067 0.695438 0.731109
O O4 0.312904 0.766615 0.599779
O O5 0.491514 0.282514 0.877522
O O6 0.578287 0.000000 0.911571
O O7 0.500000 0.142224 0.000000
O O8 0.719895 0.224353 0.009038
O O9 0.322212 0.500000 0.224026
O O10 0.199454 0.740053 0.149856
O O11 0.265296 0.705746 0.303109
O O12 0.043969 0.500000 0.091054
O O13 0.958176 0.742538 0.125637
O O14 0.000000 0.740362 0.000000
O O15 0.320462 0.500000 0.840824
O O16 0.234975 0.770537 0.838209
O O17 0.648045 0.500000 0.581571
O O18 0.508973 0.259744 0.572452
O O19 0.719254 0.236505 0.552291
O O20 0.838220 0.000000 0.110243
O O21 0.618874 0.000000 0.458571
#
# Coordination Sequence:
#
# PCOD8057042 Si02
#       8
#     4   4   4   4   4   4   4   4
#     4   9  18  31  47  70 103 132 158 193 245 301
#     4   8  16  30  45  63  91 123 153 192 243 292
#     4   8  16  31  48  70  97 128 162 201 246 289
#     4  10  21  35  54  74  96 125 167 216 250 276
#     4  10  19  30  51  76  95 121 163 207 243 291
#     4   9  15  27  46  63  93 132 163 195 240 291
#     4  10  21  36  50  66  96 131 164 200 246 301
#     4  10  17  25  41  69 100 126 160 196 234 287
#
# _framework density 18.813945
#
# number of rings (size 3 to 8) (size 9 to 14) (size 15 to 20)
#    0.000    2.750    0.000    4.500    1.750    4.000 
#    0.000    3.125    0.000    0.000    0.000    0.875 
#    0.000    7.000    0.000    0.000    0.000    0.000 
#
# Total GULP energy -396469.340068 kJ/mol
# GULP energy per Si atom -12389.666877 kJ/mol
# Density = 1.877112 g / cm^3
# Si number density = 18.813945 Si / 1000 Ang^3
#
#
#
# Elastic Constant Matrix: (Units=GPa)
#
#
# Indices 1 2 3 4 5 6 
#
# 1 46.9755 11.7463 17.2768 0.0000 -10.2476 0.0000
# 2 11.7463 53.1205 27.4699 0.0000 -13.4310 0.0000
# 3 17.2768 27.4699 87.2525 0.0000 -21.0447 0.0000
# 4 0.0000 0.0000 0.0000 15.9767 0.0000 -3.7747
# 5 -10.2476 -13.4310 -21.0447 0.0000 23.1438 0.0000
# 6 0.0000 0.0000 0.0000 -3.7747 0.0000 11.1743
#
#
#
# Elastic Compliance Matrix: (Units=1/GPa)
#
#
# Indices 1 2 3 4 5 6 
#
# 1 0.024317 -0.002331 -0.002319 0.000000 0.007306 0.000000
# 2 -0.002331 0.024085 -0.005122 0.000000 0.008287 0.000000
# 3 -0.002319 -0.005122 0.016099 0.000000 0.010639 0.000000
# 4 0.000000 0.000000 0.000000 0.068020 0.000000 0.022977
# 5 0.007306 0.008287 0.010639 0.000000 0.060927 0.000000
# 6 0.000000 0.000000 0.000000 0.022977 0.000000 0.097253
#
#
# Mechanical properties :
#
#
# Convention : Reuss Voigt Hill
#
# Bulk Modulus (GPa) = 22.24363 33.37051 27.80707
# Shear Modulus (GPa) = 15.37371 18.78266 17.07818
#
# Velocity S-wave (km/s) = 2.86167 3.16307 3.01614
# Velocity P-wave (km/s) = 4.77153 5.57814 5.19053
#
# Compressibility (1/GPa) = 0.04495670
#
# Stress axis : x y z
#
# Youngs Moduli (GPa) = 41.12317 41.52005 62.11573
#
# Poissons Ratio (x) = 0.09677 0.14406
# Poissons Ratio (y) = 0.09584 0.31818
# Poissons Ratio (z) = 0.09537 0.21268
#
# Static dielectric constant tensor:
#      x y z
#    x 3.163520 0.000000 -0.226310 
#    y 0.000000 3.298050 0.000000 
#    z -0.226310 0.000000 4.196420 
# 
# 
# High freq. dielectric constant tensor:
#      x y z
#    x 1.686860 0.000000 -0.030180 
#    y 0.000000 1.721590 0.000000 
#    z -0.030180 0.000000 1.727010 
# 
# From -- ./inp_files/83401.got.cif
#   From: 2010.06.25/outbox.cif.g09.slc.cpg/sg10_42_cif.got.tgz:83401.got - 2010.06.27 22:07:45.
