data_PCOD8057880
_publ_section_title
;
Structure prediction by ZEFSAII (Michael W. Deem and Ramdas Pophale) SiO2 
 PCOD8057880
Probable space group: P 2/M
;
_chemical_formula_sum "Si O2"
_cell_formula_units_Z 32
_cell_length_a 19.712743
_cell_length_b 9.394204
_cell_length_c 24.118625
_cell_angle_alpha 90.000000
_cell_angle_beta 23.728963
_cell_angle_gamma 90.000000
_cell_volume 1797.334852
_symmetry_space_group_name_H-M "P 2/M"
_symmetry_group_IT_number 10
_symmetry_cell_setting 'monoclinic'
loop_
_space_group_symop_operation_xyz
x,y,z
-x,y,-z
-x,-y,-z
x,-y,z
loop_
_atom_site_type_symbol
_atom_site_label
_atom_site_fract_x
_atom_site_fract_y
_atom_site_fract_z
Si Si1 0.611198 0.337377 0.800921
Si Si2 0.774076 0.336030 0.889366
Si Si3 0.462743 0.340391 0.616605
Si Si4 0.226872 0.660891 0.699021
Si Si5 0.973435 0.165879 0.231538
Si Si6 0.335039 0.163779 0.456676
Si Si7 0.894079 0.334977 0.678221
Si Si8 0.771968 0.830864 0.585007
O O1 0.633978 0.500000 0.763314
O O2 0.734213 0.303569 0.759602
O O3 0.644735 0.229741 0.725705
O O4 0.424594 0.309916 0.962905
O O5 0.818457 0.500000 0.868507
O O6 0.847083 0.289063 0.775469
O O7 0.855199 0.239497 0.876527
O O8 0.434214 0.500000 0.659527
O O9 0.619332 0.334061 0.458330
O O10 0.295690 0.289019 0.708012
O O11 0.501579 0.244080 0.640998
O O12 0.155753 0.500000 0.755729
O O13 0.081076 0.766497 0.786734
O O14 0.832233 0.196965 0.383236
O O15 0.006415 0.000000 0.197732
O O16 0.302314 0.214874 0.418823
O O17 0.382618 0.000000 0.423652
O O18 0.947792 0.500000 0.634982
O O19 0.045870 0.239101 0.542248
O O20 0.789556 0.000000 0.577418
#
# Coordination Sequence:
#
# PCOD8057880 Si02
#       8
#     4   4   4   4   4   4   4   4
#     4  10  22  38  54  76 102 129 170 215 256 307
#     4  10  20  35  55  76 100 132 168 212 261 303
#     4   8  14  24  41  65  94 127 164 204 245 291
#     4   8  14  25  40  64  97 129 162 202 247 293
#     4  10  18  29  46  70 100 133 169 206 244 297
#     4   9  18  30  44  66  99 133 166 204 243 293
#     4  10  20  36  58  78  98 129 168 213 261 306
#     4  11  22  36  52  75 106 138 170 207 253 303
#
# _framework density 17.804138999999999
#
# number of rings (size 3 to 8) (size 9 to 14) (size 15 to 20)
#    0.000    2.500    1.250    2.250    0.000    6.000 
#    0.000    2.500    0.000    2.250    0.000    0.875 
#    0.000    7.000    0.000    0.000    0.000    0.000 
#
# Total GULP energy -396780.625537 kJ/mol
# GULP energy per Si atom -12399.394548 kJ/mol
# Density = 1.776362 g / cm^3
# Si number density = 17.804139 Si / 1000 Ang^3
#
#
#
# Elastic Constant Matrix: (Units=GPa)
#
#
# Indices 1 2 3 4 5 6 
#
# 1 100.8544 53.1411 23.5733 0.0000 -32.1793 0.0000
# 2 53.1411 77.8578 22.7668 0.0000 -13.7167 0.0000
# 3 23.5733 22.7668 32.7256 0.0000 -1.3039 0.0000
# 4 0.0000 0.0000 0.0000 14.8868 0.0000 1.0810
# 5 -32.1793 -13.7167 -1.3039 0.0000 19.9172 0.0000
# 6 0.0000 0.0000 0.0000 1.0810 0.0000 29.2966
#
#
#
# Elastic Compliance Matrix: (Units=1/GPa)
#
#
# Indices 1 2 3 4 5 6 
#
# 1 0.033759 -0.010422 -0.015219 0.000000 0.046369 0.000000
# 2 -0.010422 0.021819 -0.007764 0.000000 -0.002321 0.000000
# 3 -0.015219 -0.007764 0.045848 0.000000 -0.026935 0.000000
# 4 0.000000 0.000000 0.000000 0.067354 0.000000 -0.002485
# 5 0.046369 -0.002321 -0.026935 0.000000 0.121762 0.000000
# 6 0.000000 0.000000 0.000000 -0.002485 0.000000 0.034225
#
#
# Mechanical properties :
#
#
# Convention : Reuss Voigt Hill
#
# Bulk Modulus (GPa) = 28.88964 45.60002 37.24483
# Shear Modulus (GPa) = 12.40331 20.28391 16.34361
#
# Velocity S-wave (km/s) = 2.64228 3.37898 3.03308
# Velocity P-wave (km/s) = 5.05672 6.39461 5.76461
#
# Compressibility (1/GPa) = 0.03461448
#
# Stress axis : x y z
#
# Youngs Moduli (GPa) = 29.62173 45.83132 21.81104
#
# Poissons Ratio (x) = 0.47767 0.33195
# Poissons Ratio (y) = 0.30873 0.16934
# Poissons Ratio (z) = 0.45083 0.35584
#
# Static dielectric constant tensor:
#      x y z
#    x 3.537230 0.000000 -0.211870 
#    y 0.000000 3.312330 0.000000 
#    z -0.211870 0.000000 2.960830 
# 
# 
# High freq. dielectric constant tensor:
#      x y z
#    x 1.697710 0.000000 -0.021610 
#    y 0.000000 1.686990 0.000000 
#    z -0.021610 0.000000 1.649030 
# 
# From -- ./inp_files/86104.got.cif
#   From: 2010.06.25/outbox.cif.g09.slc.cpg/sg10_44_cif.got.tgz:86104.got - 2010.06.27 22:07:45.
