data_PCOD8057691
_publ_section_title
;
Structure prediction by ZEFSAII (Michael W. Deem and Ramdas Pophale) SiO2 
 PCOD8057691
Probable space group: P 2/M
;
_chemical_formula_sum "Si O2"
_cell_formula_units_Z 32
_cell_length_a 22.137496
_cell_length_b 10.256569
_cell_length_c 11.396159
_cell_angle_alpha 90.000000
_cell_angle_beta 134.727098
_cell_angle_gamma 90.000000
_cell_volume 1838.369659
_symmetry_space_group_name_H-M "P 2/M"
_symmetry_group_IT_number 10
_symmetry_cell_setting 'monoclinic'
loop_
_space_group_symop_operation_xyz
x,y,z
-x,y,-z
-x,-y,-z
x,-y,z
loop_
_atom_site_type_symbol
_atom_site_label
_atom_site_fract_x
_atom_site_fract_y
_atom_site_fract_z
Si Si1 0.793805 0.648171 0.068387
Si Si2 0.595495 0.149146 0.162582
Si Si3 0.146487 0.768108 0.448852
Si Si4 0.694594 0.354100 0.440390
Si Si5 0.011840 0.651187 0.645750
Si Si6 0.218408 0.646749 0.206342
Si Si7 0.743969 0.145040 0.192009
Si Si8 0.097453 0.144076 0.138029
O O1 0.783963 0.500000 0.103554
O O2 0.892878 0.680378 0.181151
O O3 0.753477 0.746595 0.105580
O O4 0.746278 0.664321 0.878135
O O5 0.626926 0.246455 0.306992
O O6 0.651962 0.167811 0.123702
O O7 0.602280 0.000000 0.218065
O O8 0.500000 0.186973 0.000000
O O9 0.215220 0.658722 0.504234
O O10 0.182975 0.846278 0.609594
O O11 0.132451 0.861865 0.318934
O O12 0.055026 0.709888 0.354803
O O13 0.660024 0.500000 0.368096
O O14 0.706582 0.332119 0.596627
O O15 0.991010 0.500000 0.610927
O O16 0.000000 0.713073 0.500000
O O17 0.180754 0.500000 0.168870
O O18 0.144341 0.750244 0.123578
O O19 0.749447 0.000000 0.143974
O O20 0.111300 0.000000 0.102812
O O21 0.000000 0.184898 0.000000
#
# Coordination Sequence:
#
# PCOD8057691 Si02
#       8
#     4   4   4   4   4   4   4   4
#     4  10  20  34  50  69  99 136 173 209 244 286
#     4   9  19  36  57  80 105 130 156 192 244 304
#     4  10  18  31  48  68  99 133 167 208 254 297
#     4   9  18  31  52  79 102 126 162 208 251 292
#     4  10  18  28  44  67  95 132 176 213 242 284
#     4   9  19  34  50  70  96 131 171 206 245 295
#     4  10  20  33  50  73  99 127 160 199 246 297
#     4  10  20  32  47  67  94 127 169 219 263 298
#
# _framework density 17.406728000000001
#
# number of rings (size 3 to 8) (size 9 to 14) (size 15 to 20)
#    0.000    2.375    1.250    1.500    0.000    6.500 
#    0.000    1.875    0.000    0.750    0.000    5.250 
#    0.000    0.000    0.000    0.000    0.000    0.000 
#
# Total GULP energy -396687.468841 kJ/mol
# GULP energy per Si atom -12396.483401 kJ/mol
# Density = 1.736711 g / cm^3
# Si number density = 17.406728 Si / 1000 Ang^3
#
#
#
# Elastic Constant Matrix: (Units=GPa)
#
#
# Indices 1 2 3 4 5 6 
#
# 1 64.5323 43.8237 45.9816 0.0000 0.0052 0.0000
# 2 43.8237 113.8251 60.9756 0.0000 -1.7166 0.0000
# 3 45.9816 60.9756 93.8208 0.0000 -6.2494 0.0000
# 4 0.0000 0.0000 0.0000 -21.1223 0.0000 7.5032
# 5 0.0052 -1.7166 -6.2494 0.0000 28.5224 0.0000
# 6 0.0000 0.0000 0.0000 7.5032 0.0000 19.7497
#
#
#
# Elastic Compliance Matrix: (Units=1/GPa)
#
#
# Indices 1 2 3 4 5 6 
#
# 1 0.025555 -0.004725 -0.009613 0.000000 -0.002395 0.000000
# 2 -0.004725 0.014387 -0.007080 0.000000 -0.000685 0.000000
# 3 -0.009613 -0.007080 0.020238 0.000000 0.004010 0.000000
# 4 0.000000 0.000000 0.000000 -0.041714 0.000000 0.015848
# 5 -0.002395 -0.000685 0.004010 0.000000 0.035898 0.000000
# 6 0.000000 0.000000 0.000000 0.015848 0.000000 0.044613
#
#
# Mechanical properties :
#
#
# Convention : Reuss Voigt Hill
#
# Bulk Modulus (GPa) = 57.65784 63.74889 60.70336
# Shear Modulus (GPa) = 33.87631 13.52311 23.69971
#
# Velocity S-wave (km/s) = 4.41632 2.79030 3.69389
# Velocity P-wave (km/s) = 7.69422 6.86175 7.28988
#
# Compressibility (1/GPa) = 0.01734370
#
# Stress axis : x y z
#
# Youngs Moduli (GPa) = 39.13151 69.50618 49.41078
#
# Poissons Ratio (x) = 0.32845 0.47498
# Poissons Ratio (y) = 0.18491 0.34984
# Poissons Ratio (z) = 0.37617 0.49211
#
# Static dielectric constant tensor:
#      x y z
#    x 3.023970 0.000000 -0.140220 
#    y 0.000000 3.250270 0.000000 
#    z -0.140220 0.000000 3.274660 
# 
# 
# High freq. dielectric constant tensor:
#      x y z
#    x 1.641510 0.000000 -0.013610 
#    y 0.000000 1.676970 0.000000 
#    z -0.013610 0.000000 1.668720 
# 
# From -- ./inp_files/56482.got.cif
#   From: 2010.06.25/outbox.cif.g09.slc.cpg/sg10_29_cif.got.tgz:56482.got - 2010.06.27 22:07:45.
