data_PCOD8057940
_publ_section_title
;
Structure prediction by ZEFSAII (Michael W. Deem and Ramdas Pophale) SiO2 
 PCOD8057940
Probable space group: P 2/M
;
_chemical_formula_sum "Si O2"
_cell_formula_units_Z 32
_cell_length_a 12.191905
_cell_length_b 9.363474
_cell_length_c 21.895251
_cell_angle_alpha 90.000000
_cell_angle_beta 134.377417
_cell_angle_gamma 90.000000
_cell_volume 1786.535686
_symmetry_space_group_name_H-M "P 2/M"
_symmetry_group_IT_number 10
_symmetry_cell_setting 'monoclinic'
loop_
_space_group_symop_operation_xyz
x,y,z
-x,y,-z
-x,-y,-z
x,-y,z
loop_
_atom_site_type_symbol
_atom_site_label
_atom_site_fract_x
_atom_site_fract_y
_atom_site_fract_z
Si Si1 0.532582 0.664932 0.611134
Si Si2 0.420721 0.170089 0.030057
Si Si3 0.952513 0.829987 0.284073
Si Si4 0.747200 0.334876 0.584750
Si Si5 0.637558 0.169213 0.219063
Si Si6 0.105117 0.169050 0.095165
Si Si7 0.910516 0.169406 0.130188
Si Si8 0.442210 0.168391 0.254311
O O1 0.549543 0.500000 0.635664
O O2 0.370021 0.693185 0.515863
O O3 0.668853 0.710265 0.618271
O O4 0.540298 0.758344 0.674224
O O5 0.513815 0.234238 0.123514
O O6 0.424512 0.000000 0.034023
O O7 0.500000 0.227263 0.000000
O O8 0.246396 0.226057 0.961666
O O9 0.808621 0.777136 0.269274
O O10 0.931594 0.771005 0.206858
O O11 0.104822 0.760942 0.371302
O O12 0.969139 0.000000 0.292321
O O13 0.795311 0.500000 0.605799
O O14 0.584255 0.215335 0.266223
O O15 0.634222 0.000000 0.211535
O O16 0.283025 0.214580 0.159001
O O17 0.046180 0.222752 0.138582
O O18 0.088104 0.000000 0.085067
O O19 0.000000 0.236056 0.000000
O O20 0.904482 0.000000 0.132818
O O21 0.441588 0.000000 0.265647
#
# Coordination Sequence:
#
# PCOD8057940 Si02
#       8
#     4   4   4   4   4   4   4   4
#     4   9  19  37  57  74  94 123 158 197 245 299
#     4   9  13  21  37  60  94 135 168 194 232 281
#     4  10  18  29  47  74 102 126 158 203 246 282
#     4   9  19  36  56  75  95 120 154 199 249 300
#     4   9  17  28  42  67 104 138 165 198 239 283
#     4   9  16  25  38  63  99 130 156 196 242 278
#     4   9  15  22  37  63  93 124 162 201 237 279
#     4  10  19  31  49  73 102 134 166 198 239 288
#
# _framework density 17.911762
#
# number of rings (size 3 to 8) (size 9 to 14) (size 15 to 20)
#    0.000    2.750    1.250    2.250    0.000    5.000 
#    0.000    2.500    0.000    4.125    0.000    4.375 
#    0.000    0.000    0.000    0.000    0.000    0.000 
#
# Total GULP energy -396633.895458 kJ/mol
# GULP energy per Si atom -12394.809233 kJ/mol
# Density = 1.787099 g / cm^3
# Si number density = 17.911762 Si / 1000 Ang^3
#
#
#
# Elastic Constant Matrix: (Units=GPa)
#
#
# Indices 1 2 3 4 5 6 
#
# 1 137.8961 30.3793 63.8081 0.0000 5.9165 0.0000
# 2 30.3793 24.8458 33.1753 0.0000 0.6729 0.0000
# 3 63.8081 33.1753 101.7938 0.0000 2.4577 0.0000
# 4 0.0000 0.0000 0.0000 -2.5564 0.0000 -3.4113
# 5 5.9165 0.6729 2.4577 0.0000 34.5678 0.0000
# 6 0.0000 0.0000 0.0000 -3.4113 0.0000 14.4588
#
#
#
# Elastic Compliance Matrix: (Units=1/GPa)
#
#
# Indices 1 2 3 4 5 6 
#
# 1 0.011016 -0.007536 -0.004415 0.000000 -0.001425 0.000000
# 2 -0.007536 0.076414 -0.020210 0.000000 0.001239 0.000000
# 3 -0.004415 -0.020210 0.019183 0.000000 -0.000215 0.000000
# 4 0.000000 0.000000 0.000000 -0.297510 0.000000 -0.070192
# 5 -0.001425 0.001239 -0.000215 0.000000 0.029164 0.000000
# 6 0.000000 0.000000 0.000000 -0.070192 0.000000 0.052602
#
#
# Mechanical properties :
#
#
# Convention : Reuss Voigt Hill
#
# Bulk Modulus (GPa) = 23.64533 57.69568 40.67050
# Shear Modulus (GPa) = -162.79991 18.43890 -72.18050
#
# Velocity S-wave (km/s) = -9.54396 3.21195 -6.35494
# Velocity P-wave (km/s) = 10.40288 6.78502 5.57600
#
# Compressibility (1/GPa) = 0.04229165
#
# Stress axis : x y z
#
# Youngs Moduli (GPa) = 90.77672 13.08653 52.12960
#
# Poissons Ratio (x) = 0.09862 0.23014
# Poissons Ratio (y) = 0.68409 1.05355
# Poissons Ratio (z) = 0.40076 0.26448
#
# Static dielectric constant tensor:
#      x y z
#    x 3.527180 0.000000 0.073740 
#    y 0.000000 2.703380 0.000000 
#    z 0.073740 0.000000 3.322850 
# 
# 
# High freq. dielectric constant tensor:
#      x y z
#    x 1.704400 0.000000 0.004940 
#    y 0.000000 1.625500 0.000000 
#    z 0.004940 0.000000 1.695330 
# 
# From -- ./inp_files/50727.got.cif
#   From: 2010.06.25/outbox.cif.g09.slc.cpg/sg10_26_cif.got.tgz:50727.got - 2010.06.27 22:07:45.
