data_PCOD8057601
_publ_section_title
;
Structure prediction by ZEFSAII (Michael W. Deem and Ramdas Pophale) SiO2 
 PCOD8057601
Probable space group: P 2/M
;
_chemical_formula_sum "Si O2"
_cell_formula_units_Z 26
_cell_length_a 9.102673
_cell_length_b 12.749300
_cell_length_c 26.110273
_cell_angle_alpha 90.000000
_cell_angle_beta 29.359317
_cell_angle_gamma 90.000000
_cell_volume 1485.645943
_symmetry_space_group_name_H-M "P 2/M"
_symmetry_group_IT_number 10
_symmetry_cell_setting 'monoclinic'
loop_
_space_group_symop_operation_xyz
x,y,z
-x,y,-z
-x,-y,-z
x,-y,z
loop_
_atom_site_type_symbol
_atom_site_label
_atom_site_fract_x
_atom_site_fract_y
_atom_site_fract_z
Si Si1 0.645821 0.227423 0.212086
Si Si2 0.756691 0.000000 0.000000
Si Si3 0.706255 0.772578 0.787913
Si Si4 0.183430 0.619786 0.395439
Si Si5 0.718925 0.000000 0.775902
Si Si6 0.160627 0.619786 0.604560
Si Si7 0.335147 0.773813 1.000000
Si Si8 0.401562 0.000000 0.775905
O O1 0.506479 0.222858 0.197408
O O2 0.479368 0.310581 0.298604
O O3 0.609823 0.111706 0.250790
O O4 0.990017 0.264233 0.103310
O O5 0.615879 0.000000 0.099083
O O6 0.651351 0.100703 0.999999
O O7 0.111293 0.000000 0.900919
O O8 0.506573 0.735768 0.896689
O O9 0.972390 0.689419 0.701395
O O10 0.863781 0.888293 0.749207
O O11 0.288510 0.500000 0.371293
O O12 0.000000 0.660706 0.500000
O O13 0.966956 0.631847 0.413218
O O14 0.698812 0.000000 0.720476
O O15 0.500000 0.660706 0.500000
O O16 0.144979 0.500000 0.628706
O O17 0.500000 0.726596 0.000000
#
# Coordination Sequence:
#
# PCOD8057601 Si02
#       8
#     4   2   4   4   2   4   4   2
#     4   9  17  30  47  67  92 121 152 183 219 266
#     4   8  14  24  38  60  91 122 151 182 215 256
#     4   9  17  30  47  67  92 121 152 183 219 266
#     4   9  18  33  52  70  87 113 151 191 227 264
#     4   8  13  23  42  65  88 117 150 181 214 258
#     4   9  18  33  52  70  87 113 151 191 227 264
#     4  10  18  27  43  68  96 123 150 183 223 263
#     4   8  13  23  42  65  88 117 150 181 214 258
#
# _framework density 17.500803999999999
#
# number of rings (size 3 to 8) (size 9 to 14) (size 15 to 20)
#    0.000    3.077    0.000    0.923    0.000    4.923 
#    0.000    1.538    0.000    4.615    0.000    0.000 
#    0.000    0.000    0.000    0.000    0.000    0.000 
#
# Total GULP energy -322093.933137 kJ/mol
# GULP energy per Si atom -12388.228198 kJ/mol
# Density = 1.746097 g / cm^3
# Si number density = 17.500804 Si / 1000 Ang^3
#
#
#
# Elastic Constant Matrix: (Units=GPa)
#
#
# Indices 1 2 3 4 5 6 
#
# 1 48.7301 23.8795 40.9739 0.0000 1.5812 0.0000
# 2 23.8795 92.5243 78.6654 0.0000 1.8513 0.0000
# 3 40.9739 78.6654 142.5963 0.0000 1.5913 0.0000
# 4 0.0000 0.0000 0.0000 32.8452 0.0000 0.6684
# 5 1.5812 1.8513 1.5913 0.0000 27.2702 0.0000
# 6 0.0000 0.0000 0.0000 0.6684 0.0000 13.0697
#
#
#
# Elastic Compliance Matrix: (Units=1/GPa)
#
#
# Indices 1 2 3 4 5 6 
#
# 1 0.027116 -0.000682 -0.007403 0.000000 -0.001094 0.000000
# 2 -0.000682 0.020387 -0.011043 0.000000 -0.000700 0.000000
# 3 -0.007403 -0.011043 0.015229 0.000000 0.000290 0.000000
# 4 0.000000 0.000000 0.000000 0.030478 0.000000 -0.001559
# 5 -0.001094 -0.000700 0.000290 0.000000 0.036764 0.000000
# 6 0.000000 0.000000 0.000000 -0.001559 0.000000 0.076593
#
#
# Mechanical properties :
#
#
# Convention : Reuss Voigt Hill
#
# Bulk Modulus (GPa) = 40.85793 63.43203 52.14498
# Shear Modulus (GPa) = 19.76444 23.99248 21.87846
#
# Velocity S-wave (km/s) = 3.36422 3.70663 3.53957
# Velocity P-wave (km/s) = 6.20384 7.39207 6.82387
#
# Compressibility (1/GPa) = 0.02447505
#
# Stress axis : x y z
#
# Youngs Moduli (GPa) = 36.87918 49.05122 65.66579
#
# Poissons Ratio (x) = 0.03347 0.48611
# Poissons Ratio (y) = 0.02517 0.72514
# Poissons Ratio (z) = 0.27301 0.54166
#
# Static dielectric constant tensor:
#      x y z
#    x 2.935250 0.000000 0.007350 
#    y 0.000000 3.405700 0.000000 
#    z 0.007350 0.000000 3.152740 
# 
# 
# High freq. dielectric constant tensor:
#      x y z
#    x 1.652390 0.000000 0.000270 
#    y 0.000000 1.669110 0.000000 
#    z 0.000270 0.000000 1.660410 
# 
# From -- ./inp_files/72353.got.cif
#   From: 2010.06.25/outbox.cif.g09.slc.cpg/sg10_37_cif.got.tgz:72353.got - 2010.06.27 22:07:45.
