data_PCOD8057400
_publ_section_title
;
Structure prediction by ZEFSAII (Michael W. Deem and Ramdas Pophale) SiO2 
 PCOD8057400
Probable space group: P 2/M
;
_chemical_formula_sum "Si O2"
_cell_formula_units_Z 24
_cell_length_a 9.944775
_cell_length_b 18.632059
_cell_length_c 10.056847
_cell_angle_alpha 90.000000
_cell_angle_beta 42.867475
_cell_angle_gamma 90.000000
_cell_volume 1267.713940
_symmetry_space_group_name_H-M "P 2/M"
_symmetry_group_IT_number 10
_symmetry_cell_setting 'monoclinic'
loop_
_space_group_symop_operation_xyz
x,y,z
-x,y,-z
-x,-y,-z
x,-y,z
loop_
_atom_site_type_symbol
_atom_site_label
_atom_site_fract_x
_atom_site_fract_y
_atom_site_fract_z
Si Si1 0.340051 0.697053 0.309375
Si Si2 0.166073 0.154288 0.492475
Si Si3 0.929800 0.420882 0.400686
Si Si4 0.533030 0.917592 0.126217
Si Si5 0.223507 0.314602 0.093261
Si Si6 0.912834 0.830741 0.918390
O O1 0.291926 0.772103 0.415271
O O2 0.254319 0.633518 0.463213
O O3 0.245629 0.704905 0.232081
O O4 0.570243 0.677950 0.132011
O O5 0.323618 0.091462 0.351427
O O6 0.000000 0.159302 0.500000
O O7 0.061719 0.132685 0.705914
O O8 0.870428 0.500000 0.389402
O O9 0.000000 0.428967 0.500000
O O10 0.100657 0.389132 0.179552
O O11 0.600945 0.000000 0.083494
O O12 0.500000 0.890767 0.000000
O O13 0.699508 0.868046 0.070588
O O14 0.099878 0.252664 0.111427
O O15 0.000000 0.840167 0.000000
#
# Coordination Sequence:
#
# PCOD8057400 Si02
#       6
#     4   4   4   4   4   4
#     4  10  17  30  58  83 109 151 204 247 286 346
#     4  12  20  37  66  88 115 160 207 246 294 355
#     4   9  17  29  48  84 122 150 192 250 302 348
#     4  11  24  42  66  95 122 155 204 254 297 361
#     4  10  18  32  54  82 113 154 195 243 296 351
#     4  12  25  40  61  92 125 158 203 254 305 356
#
# _framework density 18.931713999999999
#
# number of rings (size 3 to 8) (size 9 to 14) (size 15 to 20)
#    0.000    1.333    6.667    0.500    0.000    2.667 
#    0.000    4.167    0.000    0.500    0.000    1.167 
#    0.000    0.000    0.000    0.000    0.000    0.000 
#
# Total GULP energy -297570.412514 kJ/mol
# GULP energy per Si atom -12398.767188 kJ/mol
# Density = 1.888862 g / cm^3
# Si number density = 18.931714 Si / 1000 Ang^3
#
#
#
# Elastic Constant Matrix: (Units=GPa)
#
#
# Indices 1 2 3 4 5 6 
#
# 1 81.6486 32.2892 51.1053 0.0000 -0.2958 0.0000
# 2 32.2892 85.9598 21.6316 0.0000 -4.9117 0.0000
# 3 51.1053 21.6316 123.4463 0.0000 -14.0554 0.0000
# 4 0.0000 0.0000 0.0000 27.6703 0.0000 -7.5878
# 5 -0.2958 -4.9117 -14.0554 0.0000 25.0875 0.0000
# 6 0.0000 0.0000 0.0000 -7.5878 0.0000 8.0724
#
#
#
# Elastic Compliance Matrix: (Units=1/GPa)
#
#
# Indices 1 2 3 4 5 6 
#
# 1 0.019152 -0.005590 -0.007528 0.000000 -0.005086 0.000000
# 2 -0.005590 0.013840 0.000203 0.000000 0.002757 0.000000
# 3 -0.007528 0.000203 0.011938 0.000000 0.006639 0.000000
# 4 0.000000 0.000000 0.000000 0.048690 0.000000 0.045767
# 5 -0.005086 0.002757 0.006639 0.000000 0.044060 0.000000
# 6 0.000000 0.000000 0.000000 0.045767 0.000000 0.166899
#
#
# Mechanical properties :
#
#
# Convention : Reuss Voigt Hill
#
# Bulk Modulus (GPa) = 52.36009 55.67857 54.01933
# Shear Modulus (GPa) = 14.84667 24.56793 19.70730
#
# Velocity S-wave (km/s) = 2.80343 3.60629 3.22990
# Velocity P-wave (km/s) = 6.18032 6.84211 6.51962
#
# Compressibility (1/GPa) = 0.01909852
#
# Stress axis : x y z
#
# Youngs Moduli (GPa) = 52.21383 72.25611 83.76874
#
# Poissons Ratio (x) = 0.40393 0.63063
# Poissons Ratio (y) = 0.29189 -0.01702
# Poissons Ratio (z) = 0.39308 -0.01468
#
# Static dielectric constant tensor:
#      x y z
#    x 3.047610 0.000000 -0.256110 
#    y 0.000000 3.546610 0.000000 
#    z -0.256110 0.000000 3.741330 
# 
# 
# High freq. dielectric constant tensor:
#      x y z
#    x 1.688110 0.000000 -0.028110 
#    y 0.000000 1.733260 0.000000 
#    z -0.028110 0.000000 1.746460 
# 
# From -- ./inp_files/20148.got.cif
#   From: 2010.06.25/outbox.cif.g09.slc.cpg/sg10_11_cif.got.tgz:20148.got - 2010.06.27 22:07:45.
