data_PCOD8057934
_publ_section_title
;
Structure prediction by ZEFSAII (Michael W. Deem and Ramdas Pophale) SiO2 
 PCOD8057934
Probable space group: P 2/M
;
_chemical_formula_sum "Si O2"
_cell_formula_units_Z 32
_cell_length_a 17.088018
_cell_length_b 9.206780
_cell_length_c 26.095719
_cell_angle_alpha 90.000000
_cell_angle_beta 155.202083
_cell_angle_gamma 90.000000
_cell_volume 1721.935615
_symmetry_space_group_name_H-M "P 2/M"
_symmetry_group_IT_number 10
_symmetry_cell_setting 'monoclinic'
loop_
_space_group_symop_operation_xyz
x,y,z
-x,y,-z
-x,-y,-z
x,-y,z
loop_
_atom_site_type_symbol
_atom_site_label
_atom_site_fract_x
_atom_site_fract_y
_atom_site_fract_z
Si Si1 0.229387 0.334692 0.591096
Si Si2 0.754987 0.828129 0.965499
Si Si3 0.353841 0.667111 0.198125
Si Si4 0.035672 0.833717 0.641052
Si Si5 0.888796 0.170100 0.762393
Si Si6 0.585056 0.170294 0.664871
Si Si7 0.819085 0.829048 0.609121
Si Si8 0.649238 0.165940 0.242461
O O1 0.172875 0.500000 0.566453
O O2 0.429136 0.317521 0.684128
O O3 0.081202 0.264170 0.466082
O O4 0.226997 0.258544 0.644780
O O5 0.761899 0.748663 0.914838
O O6 0.567358 0.786330 0.885810
O O7 0.770354 0.000000 0.964737
O O8 0.927164 0.765920 0.100815
O O9 0.288741 0.500000 0.161937
O O10 0.317479 0.744048 0.230756
O O11 0.990493 0.788856 0.672855
O O12 0.255966 0.814362 0.757670
O O13 0.972492 0.000000 0.595347
O O14 0.704434 0.203662 0.685239
O O15 0.863334 0.241444 0.690866
O O16 0.921518 0.000000 0.775725
O O17 0.376133 0.229842 0.530025
O O18 0.585665 0.000000 0.679055
O O19 0.795139 0.000000 0.602289
O O20 0.662653 0.000000 0.268763
#
# Coordination Sequence:
#
# PCOD8057934 Si02
#       8
#     4   4   4   4   4   4   4   4
#     4  10  19  30  46  70 100 130 160 197 243 291
#     4   9  18  34  52  70  99 134 168 203 238 283
#     4  10  20  33  50  74 104 132 160 201 249 297
#     4  10  18  29  47  72  99 128 160 195 241 294
#     4   9  18  32  52  76  97 126 170 210 240 283
#     4  10  18  31  54  78  99 126 162 203 250 296
#     4   9  17  30  50  76 103 126 158 206 250 287
#     4   9  18  30  46  69  98 131 163 194 237 290
#
# _framework density 18.583738
#
# number of rings (size 3 to 8) (size 9 to 14) (size 15 to 20)
#    0.000    2.500    1.250    1.500    0.000    5.000 
#    0.000    3.750    0.000    7.500    0.000    0.000 
#    0.000    5.000    0.000    0.000    0.000    0.000 
#
# Total GULP energy -396694.045319 kJ/mol
# GULP energy per Si atom -12396.688916 kJ/mol
# Density = 1.854144 g / cm^3
# Si number density = 18.583738 Si / 1000 Ang^3
#
#
#
# Elastic Constant Matrix: (Units=GPa)
#
#
# Indices 1 2 3 4 5 6 
#
# 1 123.5282 33.0315 45.8185 0.0000 -16.0713 0.0000
# 2 33.0315 51.2626 24.1624 0.0000 -3.5022 0.0000
# 3 45.8185 24.1624 85.1537 0.0000 -20.0260 0.0000
# 4 0.0000 0.0000 0.0000 4.5301 0.0000 7.5166
# 5 -16.0713 -3.5022 -20.0260 0.0000 14.5517 0.0000
# 6 0.0000 0.0000 0.0000 7.5166 0.0000 5.2722
#
#
#
# Elastic Compliance Matrix: (Units=1/GPa)
#
#
# Indices 1 2 3 4 5 6 
#
# 1 0.011656 -0.005627 -0.002907 0.000000 0.007519 0.000000
# 2 -0.005627 0.025483 -0.006243 0.000000 -0.008673 0.000000
# 3 -0.002907 -0.006243 0.020656 0.000000 0.023713 0.000000
# 4 0.000000 0.000000 0.000000 -0.161649 0.000000 0.230462
# 5 0.007519 -0.008673 0.023713 0.000000 0.107571 0.000000
# 6 0.000000 0.000000 0.000000 0.230462 0.000000 -0.138895
#
#
# Mechanical properties :
#
#
# Convention : Reuss Voigt Hill
#
# Bulk Modulus (GPa) = 35.40854 51.77436 43.59145
# Shear Modulus (GPa) = -51.96970 15.33295 -18.31837
#
# Velocity S-wave (km/s) = -5.29395 2.87553 -3.14302
# Velocity P-wave (km/s) = 4.27469 6.24062 3.21500
#
# Compressibility (1/GPa) = 0.02824178
#
# Stress axis : x y z
#
# Youngs Moduli (GPa) = 85.78916 39.24149 48.41241
#
# Poissons Ratio (x) = 0.22081 0.14074
# Poissons Ratio (y) = 0.48274 0.30223
# Poissons Ratio (z) = 0.24940 0.24497
#
# Static dielectric constant tensor:
#      x y z
#    x 3.646300 0.000000 0.058340 
#    y 0.000000 3.154460 0.000000 
#    z 0.058340 0.000000 3.429640 
# 
# 
# High freq. dielectric constant tensor:
#      x y z
#    x 1.731500 0.000000 0.011290 
#    y 0.000000 1.686580 0.000000 
#    z 0.011290 0.000000 1.705530 
# 
# From -- ./inp_files/79912.got.cif
#   From: 2010.06.25/outbox.cif.g09.slc.cpg/sg10_40_cif.got.tgz:79912.got - 2010.06.27 22:07:45.
