data_PCOD8057852
_publ_section_title
;
Structure prediction by ZEFSAII (Michael W. Deem and Ramdas Pophale) SiO2 
 PCOD8057852
Probable space group: P 2/M
;
_chemical_formula_sum "Si O2"
_cell_formula_units_Z 32
_cell_length_a 16.295527
_cell_length_b 9.200273
_cell_length_c 22.239143
_cell_angle_alpha 90.000000
_cell_angle_beta 37.908665
_cell_angle_gamma 90.000000
_cell_volume 2048.526470
_symmetry_space_group_name_H-M "P 2/M"
_symmetry_group_IT_number 10
_symmetry_cell_setting 'monoclinic'
loop_
_space_group_symop_operation_xyz
x,y,z
-x,y,-z
-x,-y,-z
x,-y,z
loop_
_atom_site_type_symbol
_atom_site_label
_atom_site_fract_x
_atom_site_fract_y
_atom_site_fract_z
Si Si1 0.435322 0.335832 0.972121
Si Si2 0.288261 0.836627 0.642688
Si Si3 0.920267 0.332593 0.303019
Si Si4 0.325233 0.168382 0.210442
Si Si5 0.737739 0.666720 0.524655
Si Si6 0.850197 0.170576 0.573915
Si Si7 0.195661 0.829410 0.158428
Si Si8 0.528922 0.837168 0.579720
O O1 0.405826 0.500000 0.967789
O O2 0.538666 0.261121 0.866425
O O3 0.500000 0.333611 0.000000
O O4 0.298444 0.244882 0.052539
O O5 0.166170 0.725434 0.703665
O O6 0.378978 0.787191 0.647356
O O7 0.379790 0.835665 0.531440
O O8 0.233074 0.000000 0.685128
O O9 0.956779 0.500000 0.270419
O O10 0.839438 0.311813 0.411149
O O11 0.051795 0.237370 0.230840
O O12 0.239111 0.213728 0.317567
O O13 0.237450 0.204146 0.202613
O O14 0.365867 0.000000 0.187709
O O15 0.718180 0.500000 0.552926
O O16 0.796180 0.749291 0.547296
O O17 0.591345 0.730096 0.593211
O O18 0.000000 0.223943 0.500000
O O19 0.846893 0.000000 0.562692
O O20 0.192064 0.000000 0.147165
O O21 0.524270 0.000000 0.609358
#
# Coordination Sequence:
#
# PCOD8057852 Si02
#       8
#     4   4   4   4   4   4   4   4
#     4   9  17  29  45  64  85 108 135 171 217 264
#     4   8  14  25  41  60  80 107 142 175 210 252
#     4  10  19  28  39  60  90 118 143 174 214 259
#     4   9  18  31  46  63  82 109 147 185 217 250
#     4  10  20  30  41  60  86 116 148 181 217 256
#     4  10  20  33  47  62  83 114 152 188 217 247
#     4  10  18  29  46  64  84 111 143 178 214 256
#     4   8  14  26  43  59  78 107 143 179 211 249
#
# _framework density 15.620984999999999
#
# number of rings (size 3 to 8) (size 9 to 14) (size 15 to 20)
#    0.000    2.750    0.000    3.000    0.000    5.750 
#    0.000    2.500    0.000    0.000    0.000    0.000 
#    0.000    1.000    0.000   10.500    0.000    5.500 
#
# Total GULP energy -396722.487424 kJ/mol
# GULP energy per Si atom -12397.577732 kJ/mol
# Density = 1.558543 g / cm^3
# Si number density = 15.620985 Si / 1000 Ang^3
#
#
#
# Elastic Constant Matrix: (Units=GPa)
#
#
# Indices 1 2 3 4 5 6 
#
# 1 97.6215 50.7406 33.0016 0.0000 -13.0449 0.0000
# 2 50.7406 85.7741 41.6263 0.0000 -11.5158 0.0000
# 3 33.0016 41.6263 58.1622 0.0000 -7.3177 0.0000
# 4 0.0000 0.0000 0.0000 21.8419 0.0000 -1.7720
# 5 -13.0449 -11.5158 -7.3177 0.0000 15.4439 0.0000
# 6 0.0000 0.0000 0.0000 -1.7720 0.0000 19.9435
#
#
#
# Elastic Compliance Matrix: (Units=1/GPa)
#
#
# Indices 1 2 3 4 5 6 
#
# 1 0.015803 -0.006906 -0.003183 0.000000 0.006691 0.000000
# 2 -0.006906 0.021791 -0.011024 0.000000 0.005192 0.000000
# 3 -0.003183 -0.011024 0.027134 0.000000 0.001949 0.000000
# 4 0.000000 0.000000 0.000000 0.046116 0.000000 0.004097
# 5 0.006691 0.005192 0.001949 0.000000 0.075197 0.000000
# 6 0.000000 0.000000 0.000000 0.004097 0.000000 0.050506
#
#
# Mechanical properties :
#
#
# Convention : Reuss Voigt Hill
#
# Bulk Modulus (GPa) = 44.43765 54.69941 49.56853
# Shear Modulus (GPa) = 17.46595 19.19181 18.32888
#
# Velocity S-wave (km/s) = 3.34744 3.50893 3.42914
# Velocity P-wave (km/s) = 6.59163 7.17701 6.89054
#
# Compressibility (1/GPa) = 0.02250344
#
# Stress axis : x y z
#
# Youngs Moduli (GPa) = 63.27936 45.89154 36.85413
#
# Poissons Ratio (x) = 0.31691 0.11729
# Poissons Ratio (y) = 0.43698 0.40627
# Poissons Ratio (z) = 0.20139 0.50590
#
# Static dielectric constant tensor:
#      x y z
#    x 3.022910 0.000000 -0.211600 
#    y 0.000000 3.129630 0.000000 
#    z -0.211600 0.000000 2.811310 
# 
# 
# High freq. dielectric constant tensor:
#      x y z
#    x 1.584730 0.000000 -0.023870 
#    y 0.000000 1.609130 0.000000 
#    z -0.023870 0.000000 1.565740 
# 
# From -- ./inp_files/66065.got.cif
#   From: 2010.06.25/outbox.cif.g09.slc.cpg/sg10_34_cif.got.tgz:66065.got - 2010.06.27 22:07:45.
