data_PCOD8057432
_publ_section_title
;
Structure prediction by ZEFSAII (Michael W. Deem and Ramdas Pophale) SiO2 
 PCOD8057432
Probable space group: P 2/M
;
_chemical_formula_sum "Si O2"
_cell_formula_units_Z 32
_cell_length_a 22.996189
_cell_length_b 16.590238
_cell_length_c 12.022017
_cell_angle_alpha 90.000000
_cell_angle_beta 20.412514
_cell_angle_gamma 90.000000
_cell_volume 1599.680871
_symmetry_space_group_name_H-M "P 2/M"
_symmetry_group_IT_number 10
_symmetry_cell_setting 'monoclinic'
loop_
_space_group_symop_operation_xyz
x,y,z
-x,y,-z
-x,-y,-z
x,-y,z
loop_
_atom_site_type_symbol
_atom_site_label
_atom_site_fract_x
_atom_site_fract_y
_atom_site_fract_z
Si Si1 0.693497 0.091180 0.133605
Si Si2 0.206094 0.406900 0.785374
Si Si3 0.766830 0.838699 0.219422
Si Si4 0.662713 0.327061 0.656999
Si Si5 0.463119 0.692994 0.440415
Si Si6 0.744251 0.208080 0.846669
Si Si7 0.523876 0.161453 0.832899
Si Si8 0.952137 0.274574 0.295189
O O1 0.500000 0.114901 0.500000
O O2 0.793217 0.097334 0.072453
O O3 0.709257 0.000000 0.061238
O O4 0.777492 0.150348 0.892449
O O5 0.163020 0.500000 0.875695
O O6 0.225961 0.385433 0.618674
O O7 0.379978 0.385651 0.533429
O O8 0.053132 0.358232 0.114480
O O9 0.658252 0.769272 0.353929
O O10 0.669275 0.881185 0.498040
O O11 0.937085 0.797169 0.958811
O O12 0.583726 0.254537 0.727030
O O13 0.778608 0.286139 0.542356
O O14 0.500000 0.373142 0.000000
O O15 0.500000 0.670288 0.500000
O O16 0.638183 0.713342 0.069250
O O17 0.913889 0.244337 0.489750
O O18 0.649741 0.154700 0.921641
O O19 0.500000 0.124756 0.000000
#
# Coordination Sequence:
#
# PCOD8057432 Si02
#       8
#     4   4   4   4   4   4   4   4
#     4  11  21  37  65  96 125 153 190 246 307 350
#     4  11  24  38  53  82 123 161 202 255 317 359
#     4  10  19  35  54  91 120 150 199 238 296 353
#     4  11  19  35  58  86 111 147 206 257 297 351
#     4  10  17  36  60  79 108 149 210 251 282 353
#     4  11  18  35  60  90 115 153 203 244 288 358
#     4  10  17  31  57  86 114 142 198 255 270 344
#     4  11  22  33  57  84 116 159 196 246 298 355
#
# _framework density 20.003990000000002
#
# number of rings (size 3 to 8) (size 9 to 14) (size 15 to 20)
#    0.000    1.375   10.000    0.375    0.000    2.000 
#    0.000    3.125    0.000    2.250    0.000    0.875 
#    0.000    0.000    0.000    0.000    0.000    0.000 
#
# Total GULP energy -396607.009025 kJ/mol
# GULP energy per Si atom -12393.969032 kJ/mol
# Density = 1.995846 g / cm^3
# Si number density = 20.003990 Si / 1000 Ang^3
#
#
#
# Elastic Constant Matrix: (Units=GPa)
#
#
# Indices 1 2 3 4 5 6 
#
# 1 98.9375 25.6583 40.1193 0.0000 25.3429 0.0000
# 2 25.6583 67.6283 40.4990 0.0000 10.0521 0.0000
# 3 40.1193 40.4990 125.4816 0.0000 23.6461 0.0000
# 4 0.0000 0.0000 0.0000 14.4896 0.0000 2.6844
# 5 25.3429 10.0521 23.6461 0.0000 36.4702 0.0000
# 6 0.0000 0.0000 0.0000 2.6844 0.0000 18.1123
#
#
#
# Elastic Compliance Matrix: (Units=1/GPa)
#
#
# Indices 1 2 3 4 5 6 
#
# 1 0.013540 -0.002830 -0.002039 0.000000 -0.007307 0.000000
# 2 -0.002830 0.018983 -0.005248 0.000000 0.000137 0.000000
# 3 -0.002039 -0.005248 0.011136 0.000000 -0.004357 0.000000
# 4 0.000000 0.000000 0.000000 0.070964 0.000000 -0.010517
# 5 -0.007307 0.000137 -0.004357 0.000000 0.035284 0.000000
# 6 0.000000 0.000000 0.000000 -0.010517 0.000000 0.056770
#
#
# Mechanical properties :
#
#
# Convention : Reuss Voigt Hill
#
# Bulk Modulus (GPa) = 42.68842 56.06672 49.37757
# Shear Modulus (GPa) = 21.30227 26.19914 23.75070
#
# Velocity S-wave (km/s) = 3.26682 3.62290 3.44946
# Velocity P-wave (km/s) = 5.96790 6.75197 6.37201
#
# Compressibility (1/GPa) = 0.02342556
#
# Stress axis : x y z
#
# Youngs Moduli (GPa) = 73.85718 52.67986 89.80052
#
# Poissons Ratio (x) = 0.14909 0.18307
# Poissons Ratio (y) = 0.20902 0.47123
# Poissons Ratio (z) = 0.15057 0.27644
#
# Static dielectric constant tensor:
#      x y z
#    x 3.744210 0.000000 0.137660 
#    y 0.000000 3.133740 0.000000 
#    z 0.137660 0.000000 3.844030 
# 
# 
# High freq. dielectric constant tensor:
#      x y z
#    x 1.783350 0.000000 0.012140 
#    y 0.000000 1.723290 0.000000 
#    z 0.012140 0.000000 1.784780 
# 
# From -- ./inp_files/57091.got.cif
#   From: 2010.06.25/outbox.cif.g09.slc.cpg/sg10_29_cif.got.tgz:57091.got - 2010.06.27 22:07:45.
