data_PCOD8057452
_publ_section_title
;
Structure prediction by ZEFSAII (Michael W. Deem and Ramdas Pophale) SiO2 
 PCOD8057452
Probable space group: P 2/M
;
_chemical_formula_sum "Si O2"
_cell_formula_units_Z 28
_cell_length_a 15.062795
_cell_length_b 8.780444
_cell_length_c 12.560551
_cell_angle_alpha 90.000000
_cell_angle_beta 127.278697
_cell_angle_gamma 90.000000
_cell_volume 1321.841561
_symmetry_space_group_name_H-M "P 2/M"
_symmetry_group_IT_number 10
_symmetry_cell_setting 'monoclinic'
loop_
_space_group_symop_operation_xyz
x,y,z
-x,y,-z
-x,-y,-z
x,-y,z
loop_
_atom_site_type_symbol
_atom_site_label
_atom_site_fract_x
_atom_site_fract_y
_atom_site_fract_z
Si Si1 0.784874 0.821768 0.248325
Si Si2 0.257435 0.180201 0.547020
Si Si3 0.104333 0.822057 0.878025
Si Si4 0.125327 0.679101 0.262440
Si Si5 0.507769 0.324922 0.288791
Si Si6 0.736253 0.321215 0.841006
Si Si7 0.584462 0.834973 0.972391
O O1 0.782768 0.752276 0.366307
O O2 0.891912 0.792509 0.248818
O O3 0.762627 0.000000 0.245852
O O4 0.687508 0.752117 0.104823
O O5 0.167946 0.239857 0.399043
O O6 0.381957 0.229680 0.601591
O O7 0.253957 0.000000 0.545545
O O8 0.001862 0.727247 0.851565
O O9 0.086307 0.000000 0.887245
O O10 0.217383 0.768253 0.021510
O O11 0.134032 0.500000 0.284189
O O12 0.198268 0.734437 0.215525
O O13 0.541075 0.500000 0.326815
O O14 0.395692 0.284793 0.275400
O O15 0.472986 0.288832 0.143829
O O16 0.753305 0.500000 0.874264
O O17 0.616330 0.000000 0.939652
O O18 0.500000 0.882878 0.000000
#
# Coordination Sequence:
#
# PCOD8057452 Si02
#       7
#     4   4   4   4   4   4   4
#     4   9  19  35  59  89 122 156 189 237 299 356
#     4  11  23  42  63  87 121 162 202 238 291 359
#     4  11  22  39  66  95 118 149 200 253 296 346
#     4  11  25  45  62  82 119 163 203 246 299 353
#     4  11  22  36  58  91 123 155 196 243 297 353
#     4  10  23  42  63  87 121 161 196 241 304 359
#     4  10  17  32  56  84 119 159 194 234 296 355
#
# _framework density 21.182568
#
# number of rings (size 3 to 8) (size 9 to 14) (size 15 to 20)
#    0.000    1.571    2.857    2.143    0.000    4.857 
#    0.000    8.571    0.000    0.000    0.000    0.000 
#    0.000    0.000    0.000    0.000    0.000    0.000 
#
# Total GULP energy -346938.490326 kJ/mol
# GULP energy per Si atom -12390.660369 kJ/mol
# Density = 2.113436 g / cm^3
# Si number density = 21.182568 Si / 1000 Ang^3
#
#
#
# Elastic Constant Matrix: (Units=GPa)
#
#
# Indices 1 2 3 4 5 6 
#
# 1 99.8261 28.5396 11.9077 0.0000 -11.9396 0.0000
# 2 28.5396 58.1352 18.3047 0.0000 -5.3035 0.0000
# 3 11.9077 18.3047 64.5319 0.0000 -5.8531 0.0000
# 4 0.0000 0.0000 0.0000 32.2905 0.0000 4.1717
# 5 -11.9396 -5.3035 -5.8531 0.0000 30.0269 0.0000
# 6 0.0000 0.0000 0.0000 4.1717 0.0000 24.2886
#
#
#
# Elastic Compliance Matrix: (Units=1/GPa)
#
#
# Indices 1 2 3 4 5 6 
#
# 1 0.012074 -0.005479 -0.000332 0.000000 0.003769 0.000000
# 2 -0.005479 0.021537 -0.005040 0.000000 0.000643 0.000000
# 3 -0.000332 -0.005040 0.017198 0.000000 0.002330 0.000000
# 4 0.000000 0.000000 0.000000 0.031672 0.000000 -0.005440
# 5 0.003769 0.000643 0.002330 0.000000 0.035370 0.000000
# 6 0.000000 0.000000 0.000000 -0.005440 0.000000 0.042106
#
#
# Mechanical properties :
#
#
# Convention : Reuss Voigt Hill
#
# Bulk Modulus (GPa) = 34.35519 37.77747 36.06633
# Shear Modulus (GPa) = 26.12873 28.23728 27.18300
#
# Velocity S-wave (km/s) = 3.51593 3.65505 3.58617
# Velocity P-wave (km/s) = 5.72156 5.97373 5.84900
#
# Compressibility (1/GPa) = 0.02910768
#
# Stress axis : x y z
#
# Youngs Moduli (GPa) = 82.82113 46.43276 58.14524
#
# Poissons Ratio (x) = 0.25441 0.01930
# Poissons Ratio (y) = 0.45379 0.29303
# Poissons Ratio (z) = 0.02750 0.23400
#
# Static dielectric constant tensor:
#      x y z
#    x 4.191580 0.000000 -0.060020 
#    y 0.000000 3.594920 0.000000 
#    z -0.060020 0.000000 3.704220 
# 
# 
# High freq. dielectric constant tensor:
#      x y z
#    x 1.848840 0.000000 -0.000210 
#    y 0.000000 1.813230 0.000000 
#    z -0.000210 0.000000 1.815480 
# 
# From -- ./inp_files/50111.got.cif
#   From: 2010.06.25/outbox.cif.g09.slc.cpg/sg10_26_cif.got.tgz:50111.got - 2010.06.27 22:07:45.
