data_PCOD8057091
_publ_section_title
;
Structure prediction by ZEFSAII (Michael W. Deem and Ramdas Pophale) SiO2 
 PCOD8057091
Probable space group: P 2/M
;
_chemical_formula_sum "Si O2"
_cell_formula_units_Z 32
_cell_length_a 28.970921
_cell_length_b 9.178771
_cell_length_c 19.244393
_cell_angle_alpha 90.000000
_cell_angle_beta 156.138953
_cell_angle_gamma 90.000000
_cell_volume 2070.098343
_symmetry_space_group_name_H-M "P 2/M"
_symmetry_group_IT_number 10
_symmetry_cell_setting 'monoclinic'
loop_
_space_group_symop_operation_xyz
x,y,z
-x,y,-z
-x,-y,-z
x,-y,z
loop_
_atom_site_type_symbol
_atom_site_label
_atom_site_fract_x
_atom_site_fract_y
_atom_site_fract_z
Si Si1 0.068441 0.166314 0.739338
Si Si2 0.831136 0.665283 0.246869
Si Si3 0.727850 0.832023 0.883839
Si Si4 0.493453 0.169930 0.331448
Si Si5 0.180205 0.832691 0.627991
Si Si6 0.403613 0.671719 0.921127
Si Si7 0.569590 0.664065 0.885245
Si Si8 0.386090 0.335743 0.388014
O O1 0.090566 0.274202 0.706334
O O2 0.934994 0.181299 0.577184
O O3 0.096056 0.000000 0.754253
O O4 0.148663 0.208201 0.914668
O O5 0.868119 0.500000 0.315327
O O6 0.849511 0.765507 0.338612
O O7 0.700794 0.669468 0.042999
O O8 0.630129 0.795411 0.805730
O O9 0.714027 0.737648 0.795011
O O10 0.719247 0.000000 0.850111
O O11 0.499854 0.231222 0.261851
O O12 0.593436 0.246707 0.513118
O O13 0.519688 0.000000 0.365545
O O14 0.285393 0.749037 0.736738
O O15 0.216002 0.000000 0.687174
O O16 0.380461 0.500000 0.887466
O O17 0.500000 0.720975 0.000000
O O18 0.443003 0.719411 0.052583
O O19 0.521598 0.500000 0.812084
O O20 0.500000 0.331757 0.500000
O O21 0.350209 0.500000 0.357406
#
# Coordination Sequence:
#
# PCOD8057091 Si02
#       8
#     4   4   4   4   4   4   4   4
#     4  10  19  30  42  60  88 120 150 184 219 255
#     4  10  19  29  42  60  86 118 152 186 219 255
#     4   9  17  28  40  56  82 117 153 181 213 253
#     4  10  17  26  42  60  82 114 149 182 214 254
#     4  10  20  31  45  64  87 114 147 183 222 264
#     4   9  19  36  53  67  87 114 144 183 230 272
#     4   9  17  28  43  64  86 111 144 182 221 259
#     4   9  17  27  39  56  81 112 147 185 219 250
#
# _framework density 15.458202999999999
#
# number of rings (size 3 to 8) (size 9 to 14) (size 15 to 20)
#    0.000    2.500    1.250    2.625    0.000    7.250 
#    0.000    0.000    0.000    0.000    0.000    0.000 
#    0.000    1.000    0.000   11.500    0.000    3.500 
#
# Total GULP energy -396745.309991 kJ/mol
# GULP energy per Si atom -12398.290937 kJ/mol
# Density = 1.542302 g / cm^3
# Si number density = 15.458203 Si / 1000 Ang^3
#
#
#
# Elastic Constant Matrix: (Units=GPa)
#
#
# Indices 1 2 3 4 5 6 
#
# 1 67.9994 38.5709 50.4795 0.0000 -2.1239 0.0000
# 2 38.5709 83.1891 49.0627 0.0000 -6.8036 0.0000
# 3 50.4795 49.0627 96.4095 0.0000 -11.2717 0.0000
# 4 0.0000 0.0000 0.0000 20.3897 0.0000 -6.5959
# 5 -2.1239 -6.8036 -11.2717 0.0000 17.1116 0.0000
# 6 0.0000 0.0000 0.0000 -6.5959 0.0000 20.0325
#
#
#
# Elastic Compliance Matrix: (Units=1/GPa)
#
#
# Indices 1 2 3 4 5 6 
#
# 1 0.026527 -0.005993 -0.011629 0.000000 -0.006750 0.000000
# 2 -0.005993 0.018551 -0.005988 0.000000 0.002687 0.000000
# 3 -0.011629 -0.005988 0.020652 0.000000 0.009779 0.000000
# 4 0.000000 0.000000 0.000000 0.054891 0.000000 0.018073
# 5 -0.006750 0.002687 0.009779 0.000000 0.065112 0.000000
# 6 0.000000 0.000000 0.000000 0.018073 0.000000 0.055870
#
#
# Mechanical properties :
#
#
# Convention : Reuss Voigt Hill
#
# Bulk Modulus (GPa) = 54.02605 58.20270 56.11438
# Shear Modulus (GPa) = 16.94945 18.80576 17.87761
#
# Velocity S-wave (km/s) = 3.31489 3.49170 3.40444
# Velocity P-wave (km/s) = 7.04819 7.34774 7.19952
#
# Compressibility (1/GPa) = 0.01850959
#
# Stress axis : x y z
#
# Youngs Moduli (GPa) = 37.69693 53.90490 48.42115
#
# Poissons Ratio (x) = 0.32306 0.56308
# Poissons Ratio (y) = 0.22592 0.28997
# Poissons Ratio (z) = 0.43837 0.32281
#
# Static dielectric constant tensor:
#      x y z
#    x 2.648650 0.000000 -0.174840 
#    y 0.000000 3.056380 0.000000 
#    z -0.174840 0.000000 2.953510 
# 
# 
# High freq. dielectric constant tensor:
#      x y z
#    x 1.545450 0.000000 -0.025980 
#    y 0.000000 1.605670 0.000000 
#    z -0.025980 0.000000 1.579370 
# 
# From -- ./inp_files/66080.got.cif
#   From: 2010.06.25/outbox.cif.g09.slc.cpg/sg10_34_cif.got.tgz:66080.got - 2010.06.27 22:07:45.
