data_PCOD8057031
_publ_section_title
;
Structure prediction by ZEFSAII (Michael W. Deem and Ramdas Pophale) SiO2 
 PCOD8057031
Probable space group: P 2/M
;
_chemical_formula_sum "Si O2"
_cell_formula_units_Z 32
_cell_length_a 21.449950
_cell_length_b 8.713947
_cell_length_c 11.773624
_cell_angle_alpha 90.000000
_cell_angle_beta 58.018644
_cell_angle_gamma 90.000000
_cell_volume 1866.638066
_symmetry_space_group_name_H-M "P 2/M"
_symmetry_group_IT_number 10
_symmetry_cell_setting 'monoclinic'
loop_
_space_group_symop_operation_xyz
x,y,z
-x,y,-z
-x,-y,-z
x,-y,z
loop_
_atom_site_type_symbol
_atom_site_label
_atom_site_fract_x
_atom_site_fract_y
_atom_site_fract_z
Si Si1 0.567314 0.179916 0.297012
Si Si2 0.735777 0.321159 0.374054
Si Si3 0.425106 0.321016 0.462971
Si Si4 0.863047 0.320207 0.875090
Si Si5 0.870180 0.318350 0.385661
Si Si6 0.917277 0.317925 0.580348
Si Si7 0.995305 0.178402 0.873172
Si Si8 0.715137 0.320446 0.140020
O O1 0.491748 0.256789 0.319841
O O2 0.573107 0.227919 0.421975
O O3 0.640995 0.240300 0.163782
O O4 0.561125 0.000000 0.287246
O O5 0.753143 0.500000 0.348497
O O6 0.656221 0.292422 0.511086
O O7 0.799668 0.243872 0.389174
O O8 0.736739 0.254911 0.244355
O O9 0.437100 0.500000 0.476513
O O10 0.880977 0.500000 0.872316
O O11 0.874767 0.264479 0.734409
O O12 0.914956 0.224581 0.907924
O O13 0.779413 0.283224 0.989313
O O14 0.863012 0.500000 0.394950
O O15 0.873916 0.255218 0.511454
O O16 0.944709 0.276571 0.250513
O O17 0.921635 0.500000 0.571107
O O18 0.000000 0.250049 0.500000
O O19 0.009898 0.000000 0.837158
O O20 0.000000 0.221141 0.000000
O O21 0.698518 0.500000 0.165759
#
# Coordination Sequence:
#
# PCOD8057031 Si02
#       8
#     4   4   4   4   4   4   4   4
#     4  10  17  25  40  64  92 122 153 180 225 275
#     4   8  15  26  43  67  89 117 152 188 223 265
#     4   9  15  26  42  62  91 122 156 187 217 263
#     4  10  19  33  52  70  89 121 160 194 233 282
#     4  10  18  32  52  69  91 121 157 193 231 280
#     4   9  16  29  50  75  93 111 150 204 243 268
#     4  11  23  34  44  65  96 124 152 190 236 279
#     4   9  17  29  44  64  91 120 155 189 225 272
#
# _framework density 17.14312
#
# number of rings (size 3 to 8) (size 9 to 14) (size 15 to 20)
#    0.000    2.500    1.250    4.125    0.000    2.500 
#    0.000    5.625    0.000    0.000    0.000    0.875 
#    0.000    7.000    0.000    0.000    0.000    0.000 
#
# Total GULP energy -396586.412359 kJ/mol
# GULP energy per Si atom -12393.325386 kJ/mol
# Density = 1.710410 g / cm^3
# Si number density = 17.143120 Si / 1000 Ang^3
#
#
#
# Elastic Constant Matrix: (Units=GPa)
#
#
# Indices 1 2 3 4 5 6 
#
# 1 68.8232 19.2592 64.9962 0.0000 -20.4694 0.0000
# 2 19.2592 24.9865 19.9775 0.0000 -2.5720 0.0000
# 3 64.9962 19.9775 111.3807 0.0000 -10.2586 0.0000
# 4 0.0000 0.0000 0.0000 10.3921 0.0000 -1.8897
# 5 -20.4694 -2.5720 -10.2586 0.0000 29.9668 0.0000
# 6 0.0000 0.0000 0.0000 -1.8897 0.0000 8.6410
#
#
#
# Elastic Compliance Matrix: (Units=1/GPa)
#
#
# Indices 1 2 3 4 5 6 
#
# 1 0.047129 -0.015947 -0.022512 0.000000 0.023117 0.000000
# 2 -0.015947 0.052158 -0.000661 0.000000 -0.006643 0.000000
# 3 -0.022512 -0.000661 0.021490 0.000000 -0.008078 0.000000
# 4 0.000000 0.000000 0.000000 0.100212 0.000000 0.021915
# 5 0.023117 -0.006643 -0.008078 0.000000 0.045825 0.000000
# 6 0.000000 0.000000 0.000000 0.021915 0.000000 0.120520
#
#
# Mechanical properties :
#
#
# Convention : Reuss Voigt Hill
#
# Bulk Modulus (GPa) = 23.50975 45.96179 34.73577
# Shear Modulus (GPa) = 10.42202 16.53047 13.47625
#
# Velocity S-wave (km/s) = 2.46832 3.10863 2.80679
# Velocity P-wave (km/s) = 4.67622 6.30504 5.55071
#
# Compressibility (1/GPa) = 0.04253554
#
# Stress axis : x y z
#
# Youngs Moduli (GPa) = 21.21858 19.17242 46.53335
#
# Poissons Ratio (x) = 0.30574 1.04758
# Poissons Ratio (y) = 0.33837 0.03077
# Poissons Ratio (z) = 0.47768 0.01268
#
# Static dielectric constant tensor:
#      x y z
#    x 3.661470 0.000000 -0.280980 
#    y 0.000000 2.930540 0.000000 
#    z -0.280980 0.000000 3.249660 
# 
# 
# High freq. dielectric constant tensor:
#      x y z
#    x 1.658120 0.000000 -0.028980 
#    y 0.000000 1.637450 0.000000 
#    z -0.028980 0.000000 1.638690 
# 
# From -- ./inp_files/54823.got.cif
#   From: 2010.06.25/outbox.cif.g09.slc.cpg/sg10_28_cif.got.tgz:54823.got - 2010.06.27 22:07:45.
