data_PCOD8057434
_publ_section_title
;
Structure prediction by ZEFSAII (Michael W. Deem and Ramdas Pophale) SiO2 
 PCOD8057434
Probable space group: P 2/M
;
_chemical_formula_sum "Si O2"
_cell_formula_units_Z 28
_cell_length_a 9.648476
_cell_length_b 13.904971
_cell_length_c 13.874105
_cell_angle_alpha 90.000000
_cell_angle_beta 47.434734
_cell_angle_gamma 90.000000
_cell_volume 1370.915967
_symmetry_space_group_name_H-M "P 2/M"
_symmetry_group_IT_number 10
_symmetry_cell_setting 'monoclinic'
loop_
_space_group_symop_operation_xyz
x,y,z
-x,y,-z
-x,-y,-z
x,-y,z
loop_
_atom_site_type_symbol
_atom_site_label
_atom_site_fract_x
_atom_site_fract_y
_atom_site_fract_z
Si Si1 0.380747 0.886518 0.767801
Si Si2 0.447598 0.392339 0.855420
Si Si3 0.145172 0.392284 0.846347
Si Si4 0.650861 0.227402 0.508084
Si Si5 0.351633 0.799262 0.990291
Si Si6 0.792369 0.390166 0.573936
Si Si7 0.078463 0.796943 0.777121
O O1 0.562069 0.847238 0.625309
O O2 0.397442 0.850932 0.868962
O O3 0.183062 0.852114 0.815069
O O4 0.388094 0.000000 0.760985
O O5 0.399773 0.500000 0.916585
O O6 0.350561 0.375744 0.796342
O O7 0.374474 0.316235 0.968062
O O8 0.669015 0.379515 0.729901
O O9 0.122410 0.500000 0.815354
O O10 0.106471 0.317687 0.779213
O O11 0.000000 0.371801 0.000000
O O12 0.500000 0.258484 0.500000
O O13 0.714220 0.325387 0.526160
O O14 0.827397 0.176579 0.370035
O O15 0.500000 0.836702 0.000000
O O16 0.140548 0.825268 0.122804
O O17 0.791330 0.500000 0.537968
O O18 0.000000 0.353667 0.500000
#
# Coordination Sequence:
#
# PCOD8057434 Si02
#       7
#     4   4   4   4   4   4   4
#     4  11  24  47  71  89 119 161 206 263 329 388
#     4  10  19  36  60  88 127 173 211 249 298 357
#     4  10  17  31  58  89 127 170 210 250 297 364
#     4  10  22  39  64  96 125 162 207 261 315 378
#     4  12  25  40  63  97 128 166 207 259 310 376
#     4  10  21  37  61  89 127 177 218 247 292 361
#     4  11  22  38  64  99 127 158 211 256 318 371
#
# _framework density 20.424301
#
# number of rings (size 3 to 8) (size 9 to 14) (size 15 to 20)
#    0.000    1.429    4.286    1.286    2.000    5.143 
#    0.000    0.000    0.000    3.000    0.000    0.000 
#    0.000    0.000    0.000    0.000    0.000    0.000 
#
# Total GULP energy -347231.539251 kJ/mol
# GULP energy per Si atom -12401.126402 kJ/mol
# Density = 2.037781 g / cm^3
# Si number density = 20.424301 Si / 1000 Ang^3
#
#
#
# Elastic Constant Matrix: (Units=GPa)
#
#
# Indices 1 2 3 4 5 6 
#
# 1 115.0715 53.0335 77.2111 0.0000 -13.1083 0.0000
# 2 53.0335 109.7985 42.1759 0.0000 1.9168 0.0000
# 3 77.2111 42.1759 130.8878 0.0000 -14.7177 0.0000
# 4 0.0000 0.0000 0.0000 8.2651 0.0000 -0.8479
# 5 -13.1083 1.9168 -14.7177 0.0000 32.2341 0.0000
# 6 0.0000 0.0000 0.0000 -0.8479 0.0000 5.8967
#
#
#
# Elastic Compliance Matrix: (Units=1/GPa)
#
#
# Indices 1 2 3 4 5 6 
#
# 1 0.016684 -0.005127 -0.007793 0.000000 0.003532 0.000000
# 2 -0.005127 0.012129 -0.001264 0.000000 -0.003383 0.000000
# 3 -0.007793 -0.001264 0.012962 0.000000 0.002824 0.000000
# 4 0.000000 0.000000 0.000000 0.122802 0.000000 0.017658
# 5 0.003532 -0.003383 0.002824 0.000000 0.033950 0.000000
# 6 0.000000 0.000000 0.000000 0.017658 0.000000 0.172126
#
#
# Mechanical properties :
#
#
# Convention : Reuss Voigt Hill
#
# Bulk Modulus (GPa) = 74.58861 77.84431 76.21646
# Shear Modulus (GPa) = 12.39186 21.50168 16.94677
#
# Velocity S-wave (km/s) = 2.46584 3.24813 2.88364
# Velocity P-wave (km/s) = 6.68625 7.22935 6.96310
#
# Compressibility (1/GPa) = 0.01340687
#
# Stress axis : x y z
#
# Youngs Moduli (GPa) = 59.93628 82.44970 77.14703
#
# Poissons Ratio (x) = 0.42271 0.60121
# Poissons Ratio (y) = 0.30729 0.09754
# Poissons Ratio (z) = 0.46709 0.10424
#
# Static dielectric constant tensor:
#      x y z
#    x 3.726250 0.000000 -0.286140 
#    y 0.000000 3.568280 0.000000 
#    z -0.286140 0.000000 3.959450 
# 
# 
# High freq. dielectric constant tensor:
#      x y z
#    x 1.787410 0.000000 -0.021190 
#    y 0.000000 1.782750 0.000000 
#    z -0.021190 0.000000 1.799820 
# 
# From -- ./inp_files/42853.got.cif
#   From: 2010.06.25/outbox.cif.g09.slc.cpg/sg10_22_cif.got.tgz:42853.got - 2010.06.27 22:07:45.
