data_PCOD8057208
_publ_section_title
;
Structure prediction by ZEFSAII (Michael W. Deem and Ramdas Pophale) SiO2 
 PCOD8057208
Probable space group: P 2/M
;
_chemical_formula_sum "Si O2"
_cell_formula_units_Z 24
_cell_length_a 17.976815
_cell_length_b 12.970663
_cell_length_c 9.671123
_cell_angle_alpha 90.000000
_cell_angle_beta 143.865750
_cell_angle_gamma 90.000000
_cell_volume 1329.742888
_symmetry_space_group_name_H-M "P 2/M"
_symmetry_group_IT_number 10
_symmetry_cell_setting 'monoclinic'
loop_
_space_group_symop_operation_xyz
x,y,z
-x,y,-z
-x,-y,-z
x,-y,z
loop_
_atom_site_type_symbol
_atom_site_label
_atom_site_fract_x
_atom_site_fract_y
_atom_site_fract_z
Si Si1 0.461873 0.500000 0.785104
Si Si2 0.433373 0.886532 0.618600
Si Si3 0.688026 0.885872 0.864684
Si Si4 0.803350 0.687023 0.962061
Si Si5 0.627300 0.500000 0.782879
Si Si6 0.945840 0.384307 0.764653
Si Si7 0.293488 0.698068 0.489585
O O1 0.588959 0.500000 0.885637
O O2 0.383093 0.600201 0.628344
O O3 0.500000 0.500000 0.000000
O O4 0.583009 0.868185 0.825671
O O5 0.374522 0.878371 0.378968
O O6 0.374344 0.802349 0.635287
O O7 0.407379 0.000000 0.642821
O O8 0.789452 0.793392 0.028380
O O9 0.750055 0.000000 0.976497
O O10 0.711010 0.600468 0.882870
O O11 0.769297 0.705924 0.753248
O O12 0.950324 0.654780 0.189605
O O13 0.500000 0.500000 0.500000
O O14 0.905996 0.500000 0.663662
O O15 0.819720 0.313288 0.568371
O O16 0.000000 0.384319 0.000000
#
# Coordination Sequence:
#
# PCOD8057208 Si02
#       7
#     2   4   4   4   2   4   4
#     4  12  24  33  45  71 101 126 150 191 251 292
#     4   8  14  24  41  64  88 121 157 190 233 281
#     4   8  14  23  36  61  98 124 143 188 247 282
#     4  10  17  27  47  72  91 117 165 199 226 273
#     4  12  20  29  49  73  93 118 154 206 233 270
#     4   9  16  26  41  65  93 124 156 194 234 272
#     4  10  17  30  47  64  94 127 155 192 236 282
#
# _framework density 18.048601999999999
#
# number of rings (size 3 to 8) (size 9 to 14) (size 15 to 20)
#    0.000    2.500    3.333    2.000    2.333    0.000 
#    0.000    0.833    0.000    7.500    0.000    0.000 
#    0.000    0.000    0.000    7.500    0.000    4.833 
#
# Total GULP energy -297388.854600 kJ/mol
# GULP energy per Si atom -12391.202275 kJ/mol
# Density = 1.800752 g / cm^3
# Si number density = 18.048602 Si / 1000 Ang^3
#
#
#
# Elastic Constant Matrix: (Units=GPa)
#
#
# Indices 1 2 3 4 5 6 
#
# 1 111.2071 75.0898 31.4984 0.0000 44.3583 0.0000
# 2 75.0898 181.4831 29.2486 0.0000 41.6236 0.0000
# 3 31.4984 29.2486 13.7754 0.0000 18.3160 0.0000
# 4 0.0000 0.0000 0.0000 5.3894 0.0000 15.4129
# 5 44.3583 41.6236 18.3160 0.0000 31.7817 0.0000
# 6 0.0000 0.0000 0.0000 15.4129 0.0000 22.0270
#
#
#
# Elastic Compliance Matrix: (Units=1/GPa)
#
#
# Indices 1 2 3 4 5 6 
#
# 1 0.026380 -0.001627 -0.045964 0.000000 -0.008199 0.000000
# 2 -0.001627 0.008548 -0.010968 0.000000 -0.002604 0.000000
# 3 -0.045964 -0.010968 0.413215 0.000000 -0.159619 0.000000
# 4 0.000000 0.000000 0.000000 -0.185341 0.000000 0.129688
# 5 -0.008199 -0.002604 -0.159619 0.000000 0.138308 0.000000
# 6 0.000000 0.000000 0.000000 0.129688 0.000000 -0.045348
#
#
# Mechanical properties :
#
#
# Convention : Reuss Voigt Hill
#
# Bulk Modulus (GPa) = 3.02093 64.23769 33.62931
# Shear Modulus (GPa) = 8.57306 23.21486 15.89396
#
# Velocity S-wave (km/s) = 2.18181 3.59031 2.97074
# Velocity P-wave (km/s) = 2.83275 7.27021 5.51726
#
# Compressibility (1/GPa) = 0.33102435
#
# Stress axis : x y z
#
# Youngs Moduli (GPa) = 37.90728 116.98582 2.42005
#
# Poissons Ratio (x) = 0.19028 0.11124
# Poissons Ratio (y) = 0.06166 0.02654
# Poissons Ratio (z) = 1.74239 1.28313
#
# Static dielectric constant tensor:
#      x y z
#    x 3.493810 0.000000 0.531840 
#    y 0.000000 3.752650 0.000000 
#    z 0.531840 0.000000 2.836320 
# 
# 
# High freq. dielectric constant tensor:
#      x y z
#    x 1.686930 0.000000 0.039200 
#    y 0.000000 1.710980 0.000000 
#    z 0.039200 0.000000 1.633040 
# 
# From -- ./inp_files/29735.got.cif
#   From: 2010.06.25/outbox.cif.g09.slc.cpg/sg10_15_cif.got.tgz:29735.got - 2010.06.27 22:07:45.
