data_PCOD8057436
_publ_section_title
;
Structure prediction by ZEFSAII (Michael W. Deem and Ramdas Pophale) SiO2 
 PCOD8057436
Probable space group: P 2/M
;
_chemical_formula_sum "Si O2"
_cell_formula_units_Z 32
_cell_length_a 19.768750
_cell_length_b 16.087156
_cell_length_c 13.608181
_cell_angle_alpha 90.000000
_cell_angle_beta 26.010269
_cell_angle_gamma 90.000000
_cell_volume 1897.842097
_symmetry_space_group_name_H-M "P 2/M"
_symmetry_group_IT_number 10
_symmetry_cell_setting 'monoclinic'
loop_
_space_group_symop_operation_xyz
x,y,z
-x,y,-z
-x,-y,-z
x,-y,z
loop_
_atom_site_type_symbol
_atom_site_label
_atom_site_fract_x
_atom_site_fract_y
_atom_site_fract_z
Si Si1 0.667236 0.902242 0.324157
Si Si2 0.866082 0.292048 0.486556
Si Si3 0.076834 0.410080 0.295867
Si Si4 0.436325 0.226566 0.185738
Si Si5 0.969652 0.145157 0.826853
Si Si6 0.271180 0.904820 0.533392
Si Si7 0.246703 0.741345 0.152971
Si Si8 0.879137 0.910192 0.743876
O O1 0.500000 0.876662 0.500000
O O2 0.682440 0.876644 0.417883
O O3 0.697566 0.000000 0.269273
O O4 0.798358 0.851287 0.095438
O O5 0.696929 0.295443 0.658876
O O6 0.854424 0.256683 0.614319
O O7 0.943502 0.383139 0.391939
O O8 0.978459 0.236820 0.273276
O O9 0.147536 0.500000 0.170028
O O10 0.199476 0.334624 0.143069
O O11 0.000000 0.424521 0.500000
O O12 0.371157 0.147663 0.327101
O O13 0.500000 0.190518 0.000000
O O14 0.572575 0.273626 0.064269
O O15 0.968981 0.088867 0.730126
O O16 0.088882 0.108079 0.751187
O O17 0.316156 0.000000 0.458562
O O18 0.233701 0.830677 0.115557
O O19 0.000000 0.903884 0.500000
O O20 0.790466 0.000000 0.852070
#
# Coordination Sequence:
#
# PCOD8057436 Si02
#       8
#     4   4   4   4   4   4   4   4
#     4  10  22  36  48  66  91 122 167 218 258 289
#     4   9  17  32  48  69  97 128 163 202 242 289
#     4   9  16  28  50  71  94 130 167 200 241 291
#     4   9  20  32  48  69 101 137 157 196 255 295
#     4  11  19  34  51  66  91 131 169 205 249 292
#     4  10  21  35  49  67  94 130 176 214 241 288
#     4  10  17  32  45  69 105 130 161 205 242 285
#     4  11  20  28  45  72  98 131 170 205 241 287
#
# _framework density 16.861256000000001
#
# number of rings (size 3 to 8) (size 9 to 14) (size 15 to 20)
#    0.000    2.125    2.500    1.875    1.750    1.750 
#    0.000    0.625    0.000    3.750    0.000    0.000 
#    0.000   12.500    0.000    0.000    0.000    0.000 
#
# Total GULP energy -396563.459267 kJ/mol
# GULP energy per Si atom -12392.608102 kJ/mol
# Density = 1.682288 g / cm^3
# Si number density = 16.861256 Si / 1000 Ang^3
#
#
#
# Elastic Constant Matrix: (Units=GPa)
#
#
# Indices 1 2 3 4 5 6 
#
# 1 122.1435 47.7012 47.9805 0.0000 -16.4084 0.0000
# 2 47.7012 116.8987 31.7242 0.0000 -16.4586 0.0000
# 3 47.9805 31.7242 89.0559 0.0000 -13.0324 0.0000
# 4 0.0000 0.0000 0.0000 -9.4705 0.0000 0.7572
# 5 -16.4084 -16.4586 -13.0324 0.0000 23.8117 0.0000
# 6 0.0000 0.0000 0.0000 0.7572 0.0000 -4.6075
#
#
#
# Elastic Compliance Matrix: (Units=1/GPa)
#
#
# Indices 1 2 3 4 5 6 
#
# 1 0.011669 -0.003004 -0.004722 0.000000 0.003380 0.000000
# 2 -0.003004 0.010852 -0.001579 0.000000 0.004566 0.000000
# 3 -0.004722 -0.001579 0.014892 0.000000 0.003805 0.000000
# 4 0.000000 0.000000 0.000000 -0.106997 0.000000 -0.017584
# 5 0.003380 0.004566 0.003805 0.000000 0.049564 0.000000
# 6 0.000000 0.000000 0.000000 -0.017584 0.000000 -0.219929
#
#
# Mechanical properties :
#
#
# Convention : Reuss Voigt Hill
#
# Bulk Modulus (GPa) = 53.18368 64.76777 58.97572
# Shear Modulus (GPa) = -23.24821 15.32625 -3.96098
#
# Velocity S-wave (km/s) = -3.71724 3.01817 -1.53436
# Velocity P-wave (km/s) = 3.63133 7.11628 5.64925
#
# Compressibility (1/GPa) = 0.01880276
#
# Stress axis : x y z
#
# Youngs Moduli (GPa) = 85.69371 92.15128 67.14829
#
# Poissons Ratio (x) = 0.27685 0.31709
# Poissons Ratio (y) = 0.25745 0.10601
# Poissons Ratio (z) = 0.40467 0.14549
#
# Static dielectric constant tensor:
#      x y z
#    x 3.461790 0.000000 -0.154880 
#    y 0.000000 3.131300 0.000000 
#    z -0.154880 0.000000 2.968390 
# 
# 
# High freq. dielectric constant tensor:
#      x y z
#    x 1.659060 0.000000 -0.014980 
#    y 0.000000 1.618860 0.000000 
#    z -0.014980 0.000000 1.626220 
# 
# From -- ./inp_files/54128.got.cif
#   From: 2010.06.25/outbox.cif.g09.slc.cpg/sg10_28_cif.got.tgz:54128.got - 2010.06.27 22:07:45.
