data_PCOD8057667
_publ_section_title
;
Structure prediction by ZEFSAII (Michael W. Deem and Ramdas Pophale) SiO2 
 PCOD8057667
Probable space group: P 2/M
;
_chemical_formula_sum "Si O2"
_cell_formula_units_Z 28
_cell_length_a 12.506470
_cell_length_b 13.736099
_cell_length_c 16.255249
_cell_angle_alpha 90.000000
_cell_angle_beta 140.298307
_cell_angle_gamma 90.000000
_cell_volume 1783.816876
_symmetry_space_group_name_H-M "P 2/M"
_symmetry_group_IT_number 10
_symmetry_cell_setting 'monoclinic'
loop_
_space_group_symop_operation_xyz
x,y,z
-x,y,-z
-x,-y,-z
x,-y,z
loop_
_atom_site_type_symbol
_atom_site_label
_atom_site_fract_x
_atom_site_fract_y
_atom_site_fract_z
Si Si1 0.877895 0.774896 0.251281
Si Si2 0.418073 0.385282 0.649915
Si Si3 0.126781 0.891933 0.500000
Si Si4 0.373166 0.890192 0.000000
Si Si5 0.881757 0.385282 0.649915
Si Si6 0.375333 0.774896 0.748719
Si Si7 0.348412 0.394031 0.348412
O O1 0.750249 0.757968 0.250249
O O2 0.039427 0.837198 0.372917
O O3 0.943029 0.669682 0.260307
O O4 0.791530 0.831857 0.125127
O O5 0.440168 0.500000 0.679319
O O6 0.242213 0.365626 0.500000
O O7 0.422415 0.330318 0.739693
O O8 0.574913 0.342918 0.687860
O O9 0.293593 0.837198 0.627083
O O10 0.000000 0.898053 0.500000
O O11 0.176380 0.000000 0.500000
O O12 0.458725 0.831857 0.125128
O O13 0.325548 0.000000 0.000000
O O14 0.500000 0.897307 0.000000
O O15 0.918470 0.500000 0.679319
O O16 0.800807 0.342918 0.687860
O O17 0.500000 0.409986 0.500000
O O18 0.281920 0.500000 0.281919
#
# Coordination Sequence:
#
# PCOD8057667 Si02
#       7
#     4   4   4   4   4   4   4
#     4  10  18  28  43  67  92 117 148 179 222 271
#     4   9  16  27  44  67  94 120 146 179 218 261
#     4   9  16  26  41  62  87 110 141 186 223 253
#     4   9  18  32  47  62  87 122 155 186 219 261
#     4   9  16  27  44  67  94 120 146 179 218 261
#     4  10  18  28  43  67  92 117 148 179 222 271
#     4   7  12  24  42  63  86 115 151 183 211 251
#
# _framework density 15.696679
#
# number of rings (size 3 to 8) (size 9 to 14) (size 15 to 20)
#    0.000    3.000    1.429    2.571    0.000    4.000 
#    0.000    2.143    0.000    3.429    0.000    9.000 
#    0.000    0.000    0.000    0.000    0.000    0.000 
#
# Total GULP energy -346913.945784 kJ/mol
# GULP energy per Si atom -12389.783778 kJ/mol
# Density = 1.566095 g / cm^3
# Si number density = 15.696679 Si / 1000 Ang^3
#
#
#
# Elastic Constant Matrix: (Units=GPa)
#
#
# Indices 1 2 3 4 5 6 
#
# 1 59.6971 45.0368 30.4657 0.0000 -0.2332 0.0000
# 2 45.0368 98.0494 51.2797 0.0000 0.1623 0.0000
# 3 30.4657 51.2797 102.5737 0.0000 1.3480 0.0000
# 4 0.0000 0.0000 0.0000 26.1837 0.0000 0.5713
# 5 -0.2332 0.1623 1.3480 0.0000 10.1700 0.0000
# 6 0.0000 0.0000 0.0000 0.5713 0.0000 4.2071
#
#
#
# Elastic Compliance Matrix: (Units=1/GPa)
#
#
# Indices 1 2 3 4 5 6 
#
# 1 0.026067 -0.010722 -0.002396 0.000000 0.001087 0.000000
# 2 -0.010722 0.018225 -0.005930 0.000000 0.000249 0.000000
# 3 -0.002396 -0.005930 0.013448 0.000000 -0.001743 0.000000
# 4 0.000000 0.000000 0.000000 0.038305 0.000000 -0.005202
# 5 0.001087 0.000249 -0.001743 0.000000 0.098580 0.000000
# 6 0.000000 0.000000 0.000000 -0.005202 0.000000 0.238402
#
#
# Mechanical properties :
#
#
# Convention : Reuss Voigt Hill
#
# Bulk Modulus (GPa) = 50.90615 57.09830 54.00223
# Shear Modulus (GPa) = 10.46745 17.01469 13.74107
#
# Velocity S-wave (km/s) = 2.58516 3.29594 2.96195
# Velocity P-wave (km/s) = 6.43524 7.13718 6.79528
#
# Compressibility (1/GPa) = 0.01964399
#
# Stress axis : x y z
#
# Youngs Moduli (GPa) = 38.36224 54.87065 74.35923
#
# Poissons Ratio (x) = 0.58832 0.17819
# Poissons Ratio (y) = 0.41132 0.44093
# Poissons Ratio (z) = 0.09193 0.32537
#
# Static dielectric constant tensor:
#      x y z
#    x 2.915750 0.000000 -0.001200 
#    y 0.000000 2.949760 0.000000 
#    z -0.001200 0.000000 2.869620 
# 
# 
# High freq. dielectric constant tensor:
#      x y z
#    x 1.573900 0.000000 0.000190 
#    y 0.000000 1.594540 0.000000 
#    z 0.000190 0.000000 1.581300 
# 
# From -- ./inp_files/29614.got.cif
#   From: 2010.06.25/outbox.cif.g09.slc.cpg/sg10_15_cif.got.tgz:29614.got - 2010.06.27 22:07:45.
