data_PCOD8057065
_publ_section_title
;
Structure prediction by ZEFSAII (Michael W. Deem and Ramdas Pophale) SiO2 
 PCOD8057065
Probable space group: P 2/M
;
_chemical_formula_sum "Si O2"
_cell_formula_units_Z 26
_cell_length_a 25.098679
_cell_length_b 12.669725
_cell_length_c 5.140753
_cell_angle_alpha 90.000000
_cell_angle_beta 107.212343
_cell_angle_gamma 90.000000
_cell_volume 1561.513556
_symmetry_space_group_name_H-M "P 2/M"
_symmetry_group_IT_number 10
_symmetry_cell_setting 'monoclinic'
loop_
_space_group_symop_operation_xyz
x,y,z
-x,y,-z
-x,-y,-z
x,-y,z
loop_
_atom_site_type_symbol
_atom_site_label
_atom_site_fract_x
_atom_site_fract_y
_atom_site_fract_z
Si Si1 0.961947 0.000000 0.195140
Si Si2 0.820917 0.382746 0.000726
Si Si3 0.375956 0.378212 0.815797
Si Si4 0.132633 0.164380 0.988185
Si Si5 0.436672 0.373799 0.403535
Si Si6 0.200207 0.884475 0.583713
Si Si7 0.247909 0.329348 0.596053
O O1 0.926138 0.891855 0.148860
O O2 0.000000 0.000000 0.500000
O O3 0.000000 0.000000 0.000000
O O4 0.847701 0.500000 0.013586
O O5 0.773226 0.368473 0.714278
O O6 0.869118 0.293052 0.037526
O O7 0.792477 0.375299 0.241425
O O8 0.392106 0.500000 0.838012
O O9 0.403064 0.326066 0.599823
O O10 0.309892 0.367595 0.731156
O O11 0.405040 0.325878 0.107999
O O12 0.176711 0.122622 0.841451
O O13 0.150592 0.132885 0.304926
O O14 0.500000 0.332605 0.500000
O O15 0.434895 0.500000 0.400447
O O16 0.248023 0.798081 0.606263
O O17 0.226887 0.000000 0.583906
#
# Coordination Sequence:
#
# PCOD8057065 Si02
#       7
#     2   4   4   4   4   4   4
#     4  12  22  34  54  76 100 120 158 208 237 266
#     4  10  19  32  49  69  97 128 159 185 218 288
#     4  10  17  26  39  57  88 114 142 189 224 266
#     4  10  20  33  51  73  96 126 156 189 236 275
#     4   9  17  27  39  54  76 115 155 186 226 268
#     4  10  17  32  51  68  98 125 151 186 228 286
#     4  10  20  28  45  72  94 125 155 186 233 276
#
# _framework density 16.650511000000002
#
# number of rings (size 3 to 8) (size 9 to 14) (size 15 to 20)
#    0.000    2.000    1.538    3.692    0.000    3.077 
#    0.000    0.000    0.000    0.923    0.000    0.000 
#    0.000    3.692    0.000    0.000    0.000    0.000 
#
# Total GULP energy -322294.998142 kJ/mol
# GULP energy per Si atom -12395.961467 kJ/mol
# Density = 1.661261 g / cm^3
# Si number density = 16.650511 Si / 1000 Ang^3
#
#
#
# Elastic Constant Matrix: (Units=GPa)
#
#
# Indices 1 2 3 4 5 6 
#
# 1 63.8288 19.8647 26.4867 0.0000 0.6016 0.0000
# 2 19.8647 111.3606 16.4182 0.0000 0.3643 0.0000
# 3 26.4867 16.4182 106.0414 0.0000 -2.0260 0.0000
# 4 0.0000 0.0000 0.0000 13.5599 0.0000 0.7712
# 5 0.6016 0.3643 -2.0260 0.0000 28.1419 0.0000
# 6 0.0000 0.0000 0.0000 0.7712 0.0000 12.0014
#
#
#
# Elastic Compliance Matrix: (Units=1/GPa)
#
#
# Indices 1 2 3 4 5 6 
#
# 1 0.018217 -0.002635 -0.004155 0.000000 -0.000654 0.000000
# 2 -0.002635 0.009572 -0.000826 0.000000 -0.000127 0.000000
# 3 -0.004155 -0.000826 0.010612 0.000000 0.000864 0.000000
# 4 0.000000 0.000000 0.000000 0.074017 0.000000 -0.004756
# 5 -0.000654 -0.000127 0.000864 0.000000 0.035612 0.000000
# 6 0.000000 0.000000 0.000000 -0.004756 0.000000 0.083629
#
#
# Mechanical properties :
#
#
# Convention : Reuss Voigt Hill
#
# Bulk Modulus (GPa) = 43.15973 45.19666 44.17820
# Shear Modulus (GPa) = 19.63746 25.30473 22.47110
#
# Velocity S-wave (km/s) = 3.43795 3.90264 3.67764
# Velocity P-wave (km/s) = 6.46039 6.89280 6.68009
#
# Compressibility (1/GPa) = 0.02316975
#
# Stress axis : x y z
#
# Youngs Moduli (GPa) = 54.89318 104.47020 94.22873
#
# Poissons Ratio (x) = 0.27527 0.39150
# Poissons Ratio (y) = 0.14464 0.07786
# Poissons Ratio (z) = 0.22807 0.08633
#
# Static dielectric constant tensor:
#      x y z
#    x 2.907470 0.000000 -0.194780 
#    y 0.000000 3.290050 0.000000 
#    z -0.194780 0.000000 3.431210 
# 
# 
# High freq. dielectric constant tensor:
#      x y z
#    x 1.613080 0.000000 -0.019940 
#    y 0.000000 1.614690 0.000000 
#    z -0.019940 0.000000 1.666620 
# 
# From -- ./inp_files/13060.got.cif
#   From: 2010.06.25/outbox.cif.g09.slc.cpg/sg10_7_cif.got.tgz:13060.got - 2010.06.27 22:07:45.
