data_PCOD8057347
_publ_section_title
;
Structure prediction by ZEFSAII (Michael W. Deem and Ramdas Pophale) SiO2 
 PCOD8057347
Probable space group: P 2/M
;
_chemical_formula_sum "Si O2"
_cell_formula_units_Z 32
_cell_length_a 20.959687
_cell_length_b 17.963580
_cell_length_c 14.856768
_cell_angle_alpha 90.000000
_cell_angle_beta 159.689662
_cell_angle_gamma 90.000000
_cell_volume 1941.613287
_symmetry_space_group_name_H-M "P 2/M"
_symmetry_group_IT_number 10
_symmetry_cell_setting 'monoclinic'
loop_
_space_group_symop_operation_xyz
x,y,z
-x,y,-z
-x,-y,-z
x,-y,z
loop_
_atom_site_type_symbol
_atom_site_label
_atom_site_fract_x
_atom_site_fract_y
_atom_site_fract_z
Si Si1 0.577789 0.312724 0.937007
Si Si2 0.737718 0.778620 0.390761
Si Si3 0.945017 0.350524 0.718444
Si Si4 0.793696 0.181272 0.255978
Si Si5 0.297267 0.414250 0.251944
Si Si6 0.316019 0.586171 0.483952
Si Si7 0.288781 0.417937 0.750183
Si Si8 0.525983 0.918495 0.139905
O O1 0.430353 0.279426 0.814329
O O2 0.480781 0.356994 0.727278
O O3 0.707692 0.244603 0.076022
O O4 0.719483 0.368945 0.171397
O O5 0.911721 0.739486 0.670665
O O6 0.776228 0.789356 0.335805
O O7 0.687542 0.857711 0.371799
O O8 0.862316 0.392276 0.695364
O O9 0.850573 0.384227 0.505905
O O10 0.161899 0.365353 0.010730
O O11 0.000000 0.161919 0.500000
O O12 0.669467 0.107671 0.077478
O O13 0.500000 0.384647 0.500000
O O14 0.276417 0.500000 0.195158
O O15 0.257302 0.402938 0.303934
O O16 0.373504 0.500000 0.579586
O O17 0.216918 0.500000 0.677671
O O18 0.500000 0.421075 0.000000
O O19 0.578206 0.000000 0.249193
O O20 0.500000 0.924892 0.000000
#
# Coordination Sequence:
#
# PCOD8057347 Si02
#       8
#     4   4   4   4   4   4   4   4
#     4  10  17  30  45  64  93 121 153 194 238 280
#     4   9  17  29  46  67  92 119 152 184 234 271
#     4  11  19  30  51  69  89 116 158 203 237 278
#     4  10  18  27  41  64  96 127 155 184 222 273
#     4  10  22  37  47  60  90 127 160 200 247 282
#     4  10  19  31  49  67  84 112 159 210 243 275
#     4  11  17  24  44  70  90 115 151 198 241 276
#     4   8  15  28  46  65  91 124 152 180 219 273
#
# _framework density 16.481138999999999
#
# number of rings (size 3 to 8) (size 9 to 14) (size 15 to 20)
#    0.000    2.125    3.750    3.000    0.000    2.250 
#    0.000    0.000    0.000    0.750    0.000    0.000 
#    0.000   18.500    0.000    0.000    0.000   13.625 
#
# Total GULP energy -396466.357036 kJ/mol
# GULP energy per Si atom -12389.573657 kJ/mol
# Density = 1.644363 g / cm^3
# Si number density = 16.481139 Si / 1000 Ang^3
#
#
#
# Elastic Constant Matrix: (Units=GPa)
#
#
# Indices 1 2 3 4 5 6 
#
# 1 20.2605 13.5025 19.3846 0.0000 0.5314 0.0000
# 2 13.5025 129.6253 53.9834 0.0000 2.7650 0.0000
# 3 19.3846 53.9834 112.9149 0.0000 2.4025 0.0000
# 4 0.0000 0.0000 0.0000 16.7361 0.0000 4.2832
# 5 0.5314 2.7650 2.4025 0.0000 19.1412 0.0000
# 6 0.0000 0.0000 0.0000 4.2832 0.0000 5.7083
#
#
#
# Elastic Compliance Matrix: (Units=1/GPa)
#
#
# Indices 1 2 3 4 5 6 
#
# 1 0.059667 -0.002431 -0.009077 0.000000 -0.000166 0.000000
# 2 -0.002431 0.009744 -0.004224 0.000000 -0.000810 0.000000
# 3 -0.009077 -0.004224 0.012449 0.000000 -0.000700 0.000000
# 4 0.000000 0.000000 0.000000 0.073953 0.000000 -0.055490
# 5 -0.000166 -0.000810 -0.000700 0.000000 0.052453 0.000000
# 6 0.000000 0.000000 0.000000 -0.055490 0.000000 0.216819
#
#
# Mechanical properties :
#
#
# Convention : Reuss Voigt Hill
#
# Bulk Modulus (GPa) = 19.84345 48.50463 34.17404
# Shear Modulus (GPa) = 10.56306 20.04581 15.30444
#
# Velocity S-wave (km/s) = 2.53438 3.49132 3.05060
# Velocity P-wave (km/s) = 4.54207 6.76363 5.76095
#
# Compressibility (1/GPa) = 0.05039447
#
# Stress axis : x y z
#
# Youngs Moduli (GPa) = 16.75978 102.62535 80.32848
#
# Poissons Ratio (x) = 0.24952 0.72916
# Poissons Ratio (y) = 0.04075 0.33930
# Poissons Ratio (z) = 0.15213 0.43348
#
# Static dielectric constant tensor:
#      x y z
#    x 2.821260 0.000000 0.044750 
#    y 0.000000 3.572520 0.000000 
#    z 0.044750 0.000000 3.062650 
# 
# 
# High freq. dielectric constant tensor:
#      x y z
#    x 1.600120 0.000000 0.008660 
#    y 0.000000 1.628340 0.000000 
#    z 0.008660 0.000000 1.616460 
# 
# From -- ./inp_files/70837.got.cif
#   From: 2010.06.25/outbox.cif.g09.slc.cpg/sg10_36_cif.got.tgz:70837.got - 2010.06.27 22:07:45.
