data_PCOD8057387
_publ_section_title
;
Structure prediction by ZEFSAII (Michael W. Deem and Ramdas Pophale) SiO2 
 PCOD8057387
Probable space group: P 2/M
;
_chemical_formula_sum "Si O2"
_cell_formula_units_Z 28
_cell_length_a 16.332250
_cell_length_b 15.147049
_cell_length_c 9.557827
_cell_angle_alpha 90.000000
_cell_angle_beta 37.370456
_cell_angle_gamma 90.000000
_cell_volume 1435.151238
_symmetry_space_group_name_H-M "P 2/M"
_symmetry_group_IT_number 10
_symmetry_cell_setting 'monoclinic'
loop_
_space_group_symop_operation_xyz
x,y,z
-x,y,-z
-x,-y,-z
x,-y,z
loop_
_atom_site_type_symbol
_atom_site_label
_atom_site_fract_x
_atom_site_fract_y
_atom_site_fract_z
Si Si1 0.310721 0.733324 0.359424
Si Si2 0.852065 0.660796 0.178252
Si Si3 0.606008 0.898638 0.234298
Si Si4 0.838014 0.096400 0.377305
Si Si5 0.644395 0.400843 0.242805
Si Si6 0.871264 0.145496 0.028711
Si Si7 0.605278 0.268369 0.056844
O O1 0.204745 0.673328 0.587483
O O2 0.282407 0.837091 0.422337
O O3 0.454937 0.702420 0.221583
O O4 0.299761 0.719649 0.207682
O O5 0.756624 0.600088 0.212622
O O6 0.861668 0.752975 0.084856
O O7 0.000000 0.618015 0.000000
O O8 0.500000 0.872096 0.500000
O O9 0.758783 0.884237 0.073653
O O10 0.589476 0.833386 0.125943
O O11 0.581867 0.000000 0.220162
O O12 0.851384 0.086191 0.192431
O O13 0.802204 0.000000 0.488137
O O14 0.982632 0.129517 0.240763
O O15 0.500000 0.373685 0.500000
O O16 0.640996 0.500000 0.185341
O O17 0.673726 0.330506 0.080828
#
# Coordination Sequence:
#
# PCOD8057387 Si02
#       7
#     4   4   4   4   4   4   4
#     4  10  22  37  57  88 116 163 196 241 312 348
#     4  11  19  38  66  91 119 153 203 248 296 358
#     4  11  21  32  52  82 113 154 204 249 291 344
#     4  10  18  31  51  80 117 155 203 245 287 348
#     4  11  23  41  68  95 118 153 200 249 305 364
#     4  10  17  30  53  82 108 153 200 249 289 335
#     4  11  22  39  60  84 126 155 197 250 297 374
#
# _framework density 19.510138999999999
#
# number of rings (size 3 to 8) (size 9 to 14) (size 15 to 20)
#    0.000    1.429    5.714    3.857    0.000    2.571 
#    0.000    6.429    0.000    2.571    0.000    0.000 
#    0.000    0.000    0.000    0.000    0.000    0.000 
#
# Total GULP energy -347109.215793 kJ/mol
# GULP energy per Si atom -12396.757707 kJ/mol
# Density = 1.946573 g / cm^3
# Si number density = 19.510139 Si / 1000 Ang^3
#
#
#
# Elastic Constant Matrix: (Units=GPa)
#
#
# Indices 1 2 3 4 5 6 
#
# 1 96.6549 20.7437 45.5968 0.0000 0.3597 0.0000
# 2 20.7437 73.6423 22.4315 0.0000 12.6638 0.0000
# 3 45.5968 22.4315 89.2101 0.0000 7.0947 0.0000
# 4 0.0000 0.0000 0.0000 12.3795 0.0000 -1.3149
# 5 0.3597 12.6638 7.0947 0.0000 32.5449 0.0000
# 6 0.0000 0.0000 0.0000 -1.3149 0.0000 21.8042
#
#
#
# Elastic Compliance Matrix: (Units=1/GPa)
#
#
# Indices 1 2 3 4 5 6 
#
# 1 0.014018 -0.002265 -0.006770 0.000000 0.002202 0.000000
# 2 -0.002265 0.015918 -0.002396 0.000000 -0.005647 0.000000
# 3 -0.006770 -0.002396 0.015460 0.000000 -0.002363 0.000000
# 4 0.000000 0.000000 0.000000 0.081299 0.000000 0.004903
# 5 0.002202 -0.005647 -0.002363 0.000000 0.033415 0.000000
# 6 0.000000 0.000000 0.000000 0.004903 0.000000 0.046158
#
#
# Mechanical properties :
#
#
# Convention : Reuss Voigt Hill
#
# Bulk Modulus (GPa) = 44.37781 48.56126 46.46953
# Shear Modulus (GPa) = 21.12894 24.72808 22.92851
#
# Velocity S-wave (km/s) = 3.29442 3.56399 3.43185
# Velocity P-wave (km/s) = 6.10462 6.47150 6.29073
#
# Compressibility (1/GPa) = 0.02253378
#
# Stress axis : x y z
#
# Youngs Moduli (GPa) = 71.33715 62.82230 64.68173
#
# Poissons Ratio (x) = 0.14230 0.43792
# Poissons Ratio (y) = 0.16158 0.15496
# Poissons Ratio (z) = 0.48298 0.15050
#
# Static dielectric constant tensor:
#      x y z
#    x 3.563030 0.000000 -0.175420 
#    y 0.000000 3.384050 0.000000 
#    z -0.175420 0.000000 3.551390 
# 
# 
# High freq. dielectric constant tensor:
#      x y z
#    x 1.753150 0.000000 -0.019250 
#    y 0.000000 1.748290 0.000000 
#    z -0.019250 0.000000 1.742100 
# 
# From -- ./inp_files/30116.got.cif
#   From: 2010.06.25/outbox.cif.g09.slc.cpg/sg10_16_cif.got.tgz:30116.got - 2010.06.27 22:07:45.
