data_PCOD8057230
_publ_section_title
;
Structure prediction by ZEFSAII (Michael W. Deem and Ramdas Pophale) SiO2 
 PCOD8057230
Probable space group: P 2/M
;
_chemical_formula_sum "Si O2"
_cell_formula_units_Z 32
_cell_length_a 25.091412
_cell_length_b 9.120875
_cell_length_c 12.552073
_cell_angle_alpha 90.000000
_cell_angle_beta 48.153961
_cell_angle_gamma 90.000000
_cell_volume 2139.924547
_symmetry_space_group_name_H-M "P 2/M"
_symmetry_group_IT_number 10
_symmetry_cell_setting 'monoclinic'
loop_
_space_group_symop_operation_xyz
x,y,z
-x,y,-z
-x,-y,-z
x,-y,z
loop_
_atom_site_type_symbol
_atom_site_label
_atom_site_fract_x
_atom_site_fract_y
_atom_site_fract_z
Si Si1 0.909538 0.671834 0.439948
Si Si2 0.930669 0.673089 0.803439
Si Si3 0.690215 0.162372 0.632520
Si Si4 0.834956 0.826093 0.344291
Si Si5 0.417824 0.672308 0.104371
Si Si6 0.305805 0.836591 0.137329
Si Si7 0.824952 0.672702 0.765662
Si Si8 0.076855 0.327137 0.945859
O O1 0.902454 0.500000 0.422318
O O2 0.880223 0.760251 0.379600
O O3 0.868599 0.713370 0.601773
O O4 0.992042 0.718429 0.345272
O O5 0.924945 0.500000 0.811771
O O6 0.869196 0.734976 0.807461
O O7 0.919775 0.731602 0.937711
O O8 0.750834 0.216616 0.469476
O O9 0.622147 0.272375 0.733351
O O10 0.728512 0.155584 0.698129
O O11 0.662159 0.000000 0.638453
O O12 0.860860 0.757634 0.199156
O O13 0.844765 0.000000 0.330422
O O14 0.408193 0.500000 0.106699
O O15 0.381467 0.749169 0.049071
O O16 0.500000 0.719938 0.000000
O O17 0.251803 0.752166 0.131382
O O18 0.320168 0.000000 0.073005
O O19 0.811448 0.500000 0.791157
O O20 0.090808 0.500000 0.918570
O O21 0.000000 0.285918 0.000000
#
# Coordination Sequence:
#
# PCOD8057230 Si02
#       8
#     4   4   4   4   4   4   4   4
#     4  10  17  28  45  63  82 109 145 184 230 276
#     4   9  18  31  44  62  84 108 146 192 234 273
#     4   8  17  29  41  60  89 121 146 173 213 260
#     4  11  20  30  45  64  88 114 151 192 227 265
#     4   9  16  26  43  68  95 119 146 178 207 249
#     4   9  17  28  41  59  88 121 145 167 206 257
#     4  10  18  28  46  65  84 112 147 187 225 267
#     4  10  19  33  49  62  81 112 151 195 239 279
#
# _framework density 14.953799
#
# number of rings (size 3 to 8) (size 9 to 14) (size 15 to 20)
#    0.750    1.750    2.500    1.125    0.000    3.750 
#    0.000    1.250    0.000    1.500    0.000    0.000 
#    0.000    1.000    0.000   11.250    0.000    5.625 
#
# Total GULP energy -396535.343975 kJ/mol
# GULP energy per Si atom -12391.729499 kJ/mol
# Density = 1.491976 g / cm^3
# Si number density = 14.953799 Si / 1000 Ang^3
#
#
#
# Elastic Constant Matrix: (Units=GPa)
#
#
# Indices 1 2 3 4 5 6 
#
# 1 103.4857 42.7770 48.0745 0.0000 -14.2713 0.0000
# 2 42.7770 54.4137 29.8756 0.0000 -10.6745 0.0000
# 3 48.0745 29.8756 62.3635 0.0000 -10.0377 0.0000
# 4 0.0000 0.0000 0.0000 19.3539 0.0000 -3.6348
# 5 -14.2713 -10.6745 -10.0377 0.0000 25.4867 0.0000
# 6 0.0000 0.0000 0.0000 -3.6348 0.0000 10.2619
#
#
#
# Elastic Compliance Matrix: (Units=1/GPa)
#
#
# Indices 1 2 3 4 5 6 
#
# 1 0.017817 -0.008361 -0.009275 0.000000 0.002822 0.000000
# 2 -0.008361 0.029790 -0.007016 0.000000 0.005032 0.000000
# 3 -0.009275 -0.007016 0.026945 0.000000 0.002480 0.000000
# 4 0.000000 0.000000 0.000000 0.055351 0.000000 0.019605
# 5 0.002822 0.005032 0.002480 0.000000 0.043901 0.000000
# 6 0.000000 0.000000 0.000000 0.019605 0.000000 0.104392
#
#
# Mechanical properties :
#
#
# Convention : Reuss Voigt Hill
#
# Bulk Modulus (GPa) = 39.60678 51.30188 45.45433
# Shear Modulus (GPa) = 14.88467 17.65622 16.27044
#
# Velocity S-wave (km/s) = 3.15838 3.43989 3.30214
# Velocity P-wave (km/s) = 6.31222 7.08227 6.70830
#
# Compressibility (1/GPa) = 0.02524820
#
# Stress axis : x y z
#
# Youngs Moduli (GPa) = 56.12537 33.56872 37.11209
#
# Poissons Ratio (x) = 0.28066 0.34423
# Poissons Ratio (y) = 0.46925 0.26038
# Poissons Ratio (z) = 0.52059 0.23552
#
# Static dielectric constant tensor:
#      x y z
#    x 2.798790 0.000000 0.001730 
#    y 0.000000 2.797700 0.000000 
#    z 0.001730 0.000000 2.825970 
# 
# 
# High freq. dielectric constant tensor:
#      x y z
#    x 1.549980 0.000000 -0.010520 
#    y 0.000000 1.568630 0.000000 
#    z -0.010520 0.000000 1.549100 
# 
# From -- ./inp_files/57174.got.cif
#   From: 2010.06.25/outbox.cif.g09.slc.cpg/sg10_29_cif.got.tgz:57174.got - 2010.06.27 22:07:45.
