data_PCOD8057278
_publ_section_title
;
Structure prediction by ZEFSAII (Michael W. Deem and Ramdas Pophale) SiO2 
 PCOD8057278
Probable space group: P 2/M
;
_chemical_formula_sum "Si O2"
_cell_formula_units_Z 32
_cell_length_a 12.014677
_cell_length_b 14.416758
_cell_length_c 15.701292
_cell_angle_alpha 90.000000
_cell_angle_beta 40.074867
_cell_angle_gamma 90.000000
_cell_volume 1750.886514
_symmetry_space_group_name_H-M "P 2/M"
_symmetry_group_IT_number 10
_symmetry_cell_setting 'monoclinic'
loop_
_space_group_symop_operation_xyz
x,y,z
-x,y,-z
-x,-y,-z
x,-y,z
loop_
_atom_site_type_symbol
_atom_site_label
_atom_site_fract_x
_atom_site_fract_y
_atom_site_fract_z
Si Si1 0.216808 0.764978 0.654571
Si Si2 0.938849 0.397039 0.343964
Si Si3 0.474048 0.235022 0.654572
Si Si4 0.596245 0.894229 0.146197
Si Si5 0.257048 0.103014 0.242952
Si Si6 0.373224 0.397039 0.343963
Si Si7 0.888639 0.894228 0.853803
Si Si8 0.150488 0.299104 0.349512
O O1 0.138081 0.661973 0.689382
O O2 0.351582 0.787993 0.500000
O O3 0.306737 0.769553 0.693263
O O4 0.064466 0.838695 0.738866
O O5 0.990692 0.500000 0.281320
O O6 0.797036 0.405370 0.500000
O O7 0.107889 0.343556 0.282059
O O8 0.457800 0.161305 0.738867
O O9 0.483154 0.338027 0.689383
O O10 0.455748 0.885868 0.153334
O O11 0.615493 0.000000 0.164656
O O12 0.777830 0.858395 1.000000
O O13 0.237585 0.114132 0.153334
O O14 0.152743 0.187197 0.347257
O O15 0.188190 0.000000 0.311811
O O16 0.446668 0.500000 0.281320
O O17 0.327994 0.343556 0.282058
O O18 0.944804 0.000000 0.835344
O O19 0.000000 0.330250 0.500000
#
# Coordination Sequence:
#
# PCOD8057278 Si02
#       8
#     4   4   4   4   4   4   4   4
#     4  10  21  36  54  79 109 141 181 226 267 308
#     4   9  17  30  50  77 108 140 175 219 269 319
#     4  10  21  36  54  79 109 141 181 226 267 308
#     4  10  21  37  57  80 107 141 179 217 263 323
#     4  10  19  32  53  80 107 136 174 218 265 320
#     4   9  17  30  50  77 108 140 175 219 269 319
#     4  10  21  37  57  80 107 141 179 217 263 323
#     4  10  17  28  49  80 112 139 172 216 269 326
#
# _framework density 18.276456
#
# number of rings (size 3 to 8) (size 9 to 14) (size 15 to 20)
#    0.000    2.250    2.500    0.750    0.000    5.250 
#    0.000    7.500    0.000    0.750    0.000    3.500 
#    0.000    0.000    0.000    0.000    0.000    0.000 
#
# Total GULP energy -396587.709268 kJ/mol
# GULP energy per Si atom -12393.365915 kJ/mol
# Density = 1.823486 g / cm^3
# Si number density = 18.276456 Si / 1000 Ang^3
#
#
#
# Elastic Constant Matrix: (Units=GPa)
#
#
# Indices 1 2 3 4 5 6 
#
# 1 127.7959 66.4323 43.0989 0.0000 1.4126 0.0000
# 2 66.4323 141.0799 42.5259 0.0000 0.6174 0.0000
# 3 43.0989 42.5259 51.9134 0.0000 0.5472 0.0000
# 4 0.0000 0.0000 0.0000 4.5439 0.0000 0.3768
# 5 1.4126 0.6174 0.5472 0.0000 15.0207 0.0000
# 6 0.0000 0.0000 0.0000 0.3768 0.0000 19.1351
#
#
#
# Elastic Compliance Matrix: (Units=1/GPa)
#
#
# Indices 1 2 3 4 5 6 
#
# 1 0.012071 -0.003535 -0.007118 0.000000 -0.000731 0.000000
# 2 -0.003535 0.010448 -0.005625 0.000000 0.000108 0.000000
# 3 -0.007118 -0.005625 0.029782 0.000000 -0.000184 0.000000
# 4 0.000000 0.000000 0.000000 0.220433 0.000000 -0.004341
# 5 -0.000731 0.000108 -0.000184 0.000000 0.066646 0.000000
# 6 0.000000 0.000000 0.000000 -0.004341 0.000000 0.052345
#
#
# Mechanical properties :
#
#
# Convention : Reuss Voigt Hill
#
# Bulk Modulus (GPa) = 50.64570 69.43371 60.03971
# Shear Modulus (GPa) = 11.60461 18.98875 15.29668
#
# Velocity S-wave (km/s) = 2.52255 3.22681 2.89617
# Velocity P-wave (km/s) = 6.02125 7.20807 6.64122
#
# Compressibility (1/GPa) = 0.01974501
#
# Stress axis : x y z
#
# Youngs Moduli (GPa) = 82.84041 95.71263 33.57768
#
# Poissons Ratio (x) = 0.33839 0.23900
# Poissons Ratio (y) = 0.29288 0.18886
# Poissons Ratio (z) = 0.58965 0.53835
#
# Static dielectric constant tensor:
#      x y z
#    x 3.479200 0.000000 0.013840 
#    y 0.000000 3.608400 0.000000 
#    z 0.013840 0.000000 2.943440 
# 
# 
# High freq. dielectric constant tensor:
#      x y z
#    x 1.714640 0.000000 0.001430 
#    y 0.000000 1.716560 0.000000 
#    z 0.001430 0.000000 1.659080 
# 
# From -- ./inp_files/57676.got.cif
#   From: 2010.06.25/outbox.cif.g09.slc.cpg/sg10_29_cif.got.tgz:57676.got - 2010.06.27 22:07:45.
