data_PCOD8057536
_publ_section_title
;
Structure prediction by ZEFSAII (Michael W. Deem and Ramdas Pophale) SiO2 
 PCOD8057536
Probable space group: P 2/M
;
_chemical_formula_sum "Si O2"
_cell_formula_units_Z 24
_cell_length_a 13.289299
_cell_length_b 14.335684
_cell_length_c 10.018918
_cell_angle_alpha 90.000000
_cell_angle_beta 139.259710
_cell_angle_gamma 90.000000
_cell_volume 1245.687915
_symmetry_space_group_name_H-M "P 2/M"
_symmetry_group_IT_number 10
_symmetry_cell_setting 'monoclinic'
loop_
_space_group_symop_operation_xyz
x,y,z
-x,y,-z
-x,-y,-z
x,-y,z
loop_
_atom_site_type_symbol
_atom_site_label
_atom_site_fract_x
_atom_site_fract_y
_atom_site_fract_z
Si Si1 0.183265 0.300764 0.193260
Si Si2 0.183516 0.306572 0.678732
Si Si3 0.673609 0.000000 0.014355
Si Si4 0.167230 0.817458 0.423955
Si Si5 0.153779 0.500000 0.241802
Si Si6 0.801111 0.195237 0.052846
Si Si7 0.847319 0.500000 0.436728
Si Si8 0.690550 0.000000 0.336603
O O1 0.233599 0.231284 0.359942
O O2 0.246149 0.405635 0.290767
O O3 0.253100 0.253392 0.131127
O O4 0.000000 0.307751 0.000000
O O5 0.236415 0.237199 0.617919
O O6 0.252906 0.264658 0.883816
O O7 0.249347 0.408753 0.705465
O O8 0.000000 0.313035 0.500000
O O9 0.724493 0.093155 0.986386
O O10 0.746072 0.000000 0.237137
O O11 0.491555 0.000000 0.840155
O O12 0.238491 0.918048 0.505864
O O13 0.983003 0.821755 0.238174
O O14 0.118883 0.500000 0.367994
O O15 0.000000 0.500000 0.000000
O O16 0.000000 0.500000 0.500000
#
# Coordination Sequence:
#
# PCOD8057536 Si02
#       8
#     4   4   2   4   2   4   2   2
#     4   9  19  31  50  77 113 143 172 213 264 313
#     4   9  17  27  47  74 107 139 176 209 249 307
#     4  11  23  38  53  80 104 136 175 230 276 311
#     4  10  18  34  53  80 103 143 175 212 259 317
#     4  10  18  28  44  74 117 148 168 212 271 311
#     4  10  20  34  54  78 110 140 177 217 264 315
#     4  10  18  26  44  78 115 143 177 213 256 315
#     4  11  23  36  57  78 104 134 179 224 276 321
#
# _framework density 19.266463999999999
#
# number of rings (size 3 to 8) (size 9 to 14) (size 15 to 20)
#    0.000    2.167    3.333    0.500    7.000    1.333 
#    0.000    4.167    0.000    0.000    0.000    7.000 
#    0.000    0.000    0.000    0.000    0.000    0.000 
#
# Total GULP energy -297363.125373 kJ/mol
# GULP energy per Si atom -12390.130224 kJ/mol
# Density = 1.922261 g / cm^3
# Si number density = 19.266464 Si / 1000 Ang^3
#
#
#
# Elastic Constant Matrix: (Units=GPa)
#
#
# Indices 1 2 3 4 5 6 
#
# 1 64.7055 57.5335 47.2861 0.0000 -37.9453 0.0000
# 2 57.5335 215.7199 60.4962 0.0000 -38.5064 0.0000
# 3 47.2861 60.4962 71.2999 0.0000 -40.7954 0.0000
# 4 0.0000 0.0000 0.0000 353.7796 0.0000 476.4508
# 5 -37.9453 -38.5064 -40.7954 0.0000 40.2227 0.0000
# 6 0.0000 0.0000 0.0000 476.4508 0.0000 760.9209
#
#
#
# Elastic Compliance Matrix: (Units=1/GPa)
#
#
# Indices 1 2 3 4 5 6 
#
# 1 0.040060 -0.003651 -0.009165 0.000000 0.025001 0.000000
# 2 -0.003651 0.006449 -0.003547 0.000000 -0.000868 0.000000
# 3 -0.009165 -0.003547 0.038656 0.000000 0.027164 0.000000
# 4 0.000000 0.000000 0.000000 0.018034 0.000000 -0.011292
# 5 0.025001 -0.000868 0.027164 0.000000 0.075166 0.000000
# 6 0.000000 0.000000 0.000000 -0.011292 0.000000 0.008385
#
#
# Mechanical properties :
#
#
# Convention : Reuss Voigt Hill
#
# Bulk Modulus (GPa) = 19.07035 75.81742 47.44389
# Shear Modulus (GPa) = 21.10081 243.41194 132.25638
#
# Velocity S-wave (km/s) = 3.31299 11.25229 8.29427
# Velocity P-wave (km/s) = 4.95522 14.43108 10.78912
#
# Compressibility (1/GPa) = 0.05243741
#
# Stress axis : x y z
#
# Youngs Moduli (GPa) = 24.96232 155.05634 25.86941
#
# Poissons Ratio (x) = 0.56615 0.23710
# Poissons Ratio (y) = 0.09114 0.09177
# Poissons Ratio (z) = 0.22879 0.55004
#
# Static dielectric constant tensor:
#      x y z
#    x 3.278110 0.000000 -0.512700 
#    y 0.000000 4.198920 0.000000 
#    z -0.512700 0.000000 3.366170 
# 
# 
# High freq. dielectric constant tensor:
#      x y z
#    x 1.713400 0.000000 -0.043460 
#    y 0.000000 1.779120 0.000000 
#    z -0.043460 0.000000 1.723270 
# 
# From -- ./inp_files/29748.got.cif
#   From: 2010.06.25/outbox.cif.g09.slc.cpg/sg10_15_cif.got.tgz:29748.got - 2010.06.27 22:07:45.
