data_PCOD8057886
_publ_section_title
;
Structure prediction by ZEFSAII (Michael W. Deem and Ramdas Pophale) SiO2 
 PCOD8057886
Probable space group: P 2/M
;
_chemical_formula_sum "Si O2"
_cell_formula_units_Z 24
_cell_length_a 15.316285
_cell_length_b 7.836732
_cell_length_c 12.136596
_cell_angle_alpha 90.000000
_cell_angle_beta 106.551283
_cell_angle_gamma 90.000000
_cell_volume 1396.390742
_symmetry_space_group_name_H-M "P 2/M"
_symmetry_group_IT_number 10
_symmetry_cell_setting 'monoclinic'
loop_
_space_group_symop_operation_xyz
x,y,z
-x,y,-z
-x,-y,-z
x,-y,z
loop_
_atom_site_type_symbol
_atom_site_label
_atom_site_fract_x
_atom_site_fract_y
_atom_site_fract_z
Si Si1 0.935711 0.000000 0.814615
Si Si2 0.816155 0.306969 0.727982
Si Si3 0.129801 0.000000 0.959135
Si Si4 0.245275 0.689529 0.048352
Si Si5 0.361169 0.196678 0.434739
Si Si6 0.556731 0.195246 0.916659
Si Si7 0.482760 0.695002 0.665865
O O1 0.897968 0.828556 0.742227
O O2 0.045223 0.000000 0.843942
O O3 0.907353 0.000000 0.931017
O O4 0.854774 0.500000 0.731850
O O5 0.767230 0.274627 0.826909
O O6 0.740070 0.274637 0.607287
O O7 0.189458 0.830016 0.958665
O O8 0.209066 0.500000 0.004690
O O9 0.352009 0.694919 0.060745
O O10 0.425775 0.296800 0.373633
O O11 0.398765 0.216276 0.572149
O O12 0.359546 0.000000 0.398651
O O13 0.494946 0.210451 0.785886
O O14 0.585188 0.000000 0.945220
O O15 0.500000 0.265288 0.000000
O O16 0.458063 0.500000 0.679621
#
# Coordination Sequence:
#
# PCOD8057886 Si02
#       7
#     2   4   2   4   4   4   4
#     4   9  18  30  46  68  92 129 155 199 248 292
#     4  10  18  29  46  70  98 127 162 198 239 294
#     4   9  18  32  47  65  95 122 164 200 242 296
#     4  10  19  31  49  68  93 129 165 202 242 288
#     4  11  19  30  47  68  96 132 167 199 239 291
#     4  11  22  35  50  69  97 133 172 209 242 283
#     4  11  21  31  45  69  96 128 169 204 242 285
#
# _framework density 17.187166999999999
#
# number of rings (size 3 to 8) (size 9 to 14) (size 15 to 20)
#    0.000    1.667    3.333    4.500    0.000    2.000 
#    0.000    3.333    0.000    0.000    0.000    0.000 
#    0.000    2.667    0.000    4.667    0.000    0.333 
#
# Total GULP energy -297635.298072 kJ/mol
# GULP energy per Si atom -12401.470753 kJ/mol
# Density = 1.714805 g / cm^3
# Si number density = 17.187167 Si / 1000 Ang^3
#
#
#
# Elastic Constant Matrix: (Units=GPa)
#
#
# Indices 1 2 3 4 5 6 
#
# 1 59.5511 36.5811 47.1062 0.0000 22.2634 0.0000
# 2 36.5811 120.9918 24.3456 0.0000 20.0860 0.0000
# 3 47.1062 24.3456 84.2221 0.0000 20.0590 0.0000
# 4 0.0000 0.0000 0.0000 12.7597 0.0000 5.9756
# 5 22.2634 20.0860 20.0590 0.0000 31.2026 0.0000
# 6 0.0000 0.0000 0.0000 5.9756 0.0000 14.4912
#
#
#
# Elastic Compliance Matrix: (Units=1/GPa)
#
#
# Indices 1 2 3 4 5 6 
#
# 1 0.038655 -0.006183 -0.016781 0.000000 -0.012812 0.000000
# 2 -0.006183 0.010403 0.001175 0.000000 -0.003040 0.000000
# 3 -0.016781 0.001175 0.021547 0.000000 -0.002635 0.000000
# 4 0.000000 0.000000 0.000000 0.097129 0.000000 -0.040052
# 5 -0.012812 -0.003040 -0.002635 0.000000 0.044841 0.000000
# 6 0.000000 0.000000 0.000000 -0.040052 0.000000 0.085523
#
#
# Mechanical properties :
#
#
# Convention : Reuss Voigt Hill
#
# Bulk Modulus (GPa) = 37.00089 53.42567 45.21328
# Shear Modulus (GPa) = 14.25781 22.13949 18.19865
#
# Velocity S-wave (km/s) = 2.88334 3.59296 3.25753
# Velocity P-wave (km/s) = 5.71487 6.95447 6.36492
#
# Compressibility (1/GPa) = 0.02702637
#
# Stress axis : x y z
#
# Youngs Moduli (GPa) = 25.87006 96.12861 46.41024
#
# Poissons Ratio (x) = 0.59440 0.77881
# Poissons Ratio (y) = 0.15997 -0.05455
# Poissons Ratio (z) = 0.43413 -0.11300
#
# Static dielectric constant tensor:
#      x y z
#    x 2.929920 0.000000 0.310510 
#    y 0.000000 3.353890 0.000000 
#    z 0.310510 0.000000 3.118080 
# 
# 
# High freq. dielectric constant tensor:
#      x y z
#    x 1.618000 0.000000 0.034820 
#    y 0.000000 1.686060 0.000000 
#    z 0.034820 0.000000 1.633420 
# 
# From -- ./inp_files/48897.got.cif
#   From: 2010.06.25/outbox.cif.g09.slc.cpg/sg10_25_cif.got.tgz:48897.got - 2010.06.27 22:07:45.
