data_PCOD8057589
_publ_section_title
;
Structure prediction by ZEFSAII (Michael W. Deem and Ramdas Pophale) SiO2 
 PCOD8057589
Probable space group: P 2/M
;
_chemical_formula_sum "Si O2"
_cell_formula_units_Z 30
_cell_length_a 12.344491
_cell_length_b 9.122605
_cell_length_c 14.026802
_cell_angle_alpha 90.000000
_cell_angle_beta 76.383193
_cell_angle_gamma 90.000000
_cell_volume 1535.213301
_symmetry_space_group_name_H-M "P 2/M"
_symmetry_group_IT_number 10
_symmetry_cell_setting 'monoclinic'
loop_
_space_group_symop_operation_xyz
x,y,z
-x,y,-z
-x,-y,-z
x,-y,z
loop_
_atom_site_type_symbol
_atom_site_label
_atom_site_fract_x
_atom_site_fract_y
_atom_site_fract_z
Si Si1 0.305738 0.824208 0.324896
Si Si2 0.108475 0.173094 0.741936
Si Si3 0.779891 0.159015 0.463756
Si Si4 0.327201 0.670433 0.995010
Si Si5 0.000000 0.246294 0.500000
Si Si6 0.876573 0.170595 0.046731
Si Si7 0.543808 0.671177 0.841452
Si Si8 0.096243 0.664141 0.292544
O O1 0.296347 0.764961 0.437812
O O2 0.422593 0.767466 0.257824
O O3 0.210224 0.755685 0.277266
O O4 0.297618 0.000000 0.324762
O O5 0.198484 0.236514 0.644209
O O6 0.156852 0.202614 0.836648
O O7 0.988807 0.252469 0.760173
O O8 0.089651 0.000000 0.727104
O O9 0.901494 0.140144 0.486192
O O10 0.727576 0.000000 0.454285
O O11 0.301350 0.500000 0.994962
O O12 0.211975 0.753923 0.003795
O O13 0.417420 0.712792 0.895236
O O14 0.375560 0.712876 0.087723
O O15 0.039779 0.352118 0.407386
O O16 0.873675 0.000000 0.023297
O O17 0.000000 0.232915 0.000000
O O18 0.554048 0.500000 0.814621
O O19 0.121606 0.500000 0.248366
#
# Coordination Sequence:
#
# PCOD8057589 Si02
#       8
#     4   4   4   4   2   4   4   4
#     4  10  19  29  47  76 104 133 172 216 259 307
#     4   9  18  33  49  67 100 143 177 211 258 307
#     4   8  14  26  44  66  96 135 175 209 249 306
#     4   9  20  39  60  79 104 137 173 212 260 320
#     4   8  14  24  38  60  93 132 171 212 255 296
#     4  10  22  37  54  80 110 138 173 220 263 302
#     4   9  19  37  58  81 106 134 169 214 266 312
#     4  10  18  27  42  67 100 136 174 213 254 303
#
# _framework density 19.541257000000002
#
# number of rings (size 3 to 8) (size 9 to 14) (size 15 to 20)
#    0.000    2.800    0.000    2.000    1.867    5.067 
#    0.000    2.000    0.000    0.800    0.000    5.600 
#    0.000    0.000    0.000    0.000    0.000    0.000 
#
# Total GULP energy -371670.617553 kJ/mol
# GULP energy per Si atom -12389.020585 kJ/mol
# Density = 1.949678 g / cm^3
# Si number density = 19.541257 Si / 1000 Ang^3
#
#
#
# Elastic Constant Matrix: (Units=GPa)
#
#
# Indices 1 2 3 4 5 6 
#
# 1 70.9630 22.4462 22.9643 0.0000 -9.3865 0.0000
# 2 22.4462 61.4404 21.3440 0.0000 -5.8138 0.0000
# 3 22.9643 21.3440 99.0196 0.0000 -21.2230 0.0000
# 4 0.0000 0.0000 0.0000 17.5514 0.0000 -6.8101
# 5 -9.3865 -5.8138 -21.2230 0.0000 27.5640 0.0000
# 6 0.0000 0.0000 0.0000 -6.8101 0.0000 24.0332
#
#
#
# Elastic Compliance Matrix: (Units=1/GPa)
#
#
# Indices 1 2 3 4 5 6 
#
# 1 0.016799 -0.005106 -0.002156 0.000000 0.002984 0.000000
# 2 -0.005106 0.019166 -0.002938 0.000000 0.000041 0.000000
# 3 -0.002156 -0.002938 0.013105 0.000000 0.008736 0.000000
# 4 0.000000 0.000000 0.000000 0.064014 0.000000 0.018139
# 5 0.002984 0.000041 0.008736 0.000000 0.044031 0.000000
# 6 0.000000 0.000000 0.000000 0.018139 0.000000 0.046749
#
#
# Mechanical properties :
#
#
# Convention : Reuss Voigt Hill
#
# Bulk Modulus (GPa) = 34.87998 40.54798 37.71398
# Shear Modulus (GPa) = 21.38397 24.80763 23.09580
#
# Velocity S-wave (km/s) = 3.31161 3.56687 3.44161
# Velocity P-wave (km/s) = 5.70180 6.14479 5.92743
#
# Compressibility (1/GPa) = 0.02866974
#
# Stress axis : x y z
#
# Youngs Moduli (GPa) = 59.52641 52.17583 76.30800
#
# Poissons Ratio (x) = 0.26641 0.16451
# Poissons Ratio (y) = 0.30394 0.22421
# Poissons Ratio (z) = 0.12833 0.15330
#
# Static dielectric constant tensor:
#      x y z
#    x 3.191020 0.000000 -0.180650 
#    y 0.000000 3.222740 0.000000 
#    z -0.180650 0.000000 3.886360 
# 
# 
# High freq. dielectric constant tensor:
#      x y z
#    x 1.717490 0.000000 -0.014980 
#    y 0.000000 1.736280 0.000000 
#    z -0.014980 0.000000 1.778510 
# 
# From -- ./inp_files/63728.got.cif
#   From: 2010.06.25/outbox.cif.g09.slc.cpg/sg10_32_cif.got.tgz:63728.got - 2010.06.27 22:07:45.
