data_PCOD8057000
_publ_section_title
;
Structure prediction by ZEFSAII (Michael W. Deem and Ramdas Pophale) SiO2 
 PCOD8057000
Probable space group: P 2/M
;
_chemical_formula_sum "Si O2"
_cell_formula_units_Z 32
_cell_length_a 16.607092
_cell_length_b 9.173678
_cell_length_c 14.214920
_cell_angle_alpha 90.000000
_cell_angle_beta 81.760218
_cell_angle_gamma 90.000000
_cell_volume 2143.260520
_symmetry_space_group_name_H-M "P 2/M"
_symmetry_group_IT_number 10
_symmetry_cell_setting 'monoclinic'
loop_
_space_group_symop_operation_xyz
x,y,z
-x,y,-z
-x,-y,-z
x,-y,z
loop_
_atom_site_type_symbol
_atom_site_label
_atom_site_fract_x
_atom_site_fract_y
_atom_site_fract_z
Si Si1 0.164919 0.333999 0.890121
Si Si2 0.549392 0.165404 0.348279
Si Si3 0.984996 0.330946 0.214486
Si Si4 0.078281 0.835184 0.052884
Si Si5 0.936568 0.330814 0.428855
Si Si6 0.771945 0.824760 0.441581
Si Si7 0.300018 0.669601 0.725057
Si Si8 0.387933 0.162776 0.450564
O O1 0.151130 0.500000 0.923330
O O2 0.099917 0.290587 0.820949
O O3 0.254530 0.309687 0.832280
O O4 0.154136 0.237449 0.985598
O O5 0.608567 0.267336 0.276416
O O6 0.457241 0.235736 0.371339
O O7 0.583942 0.162503 0.446890
O O8 0.548738 0.000000 0.307746
O O9 0.005751 0.500000 0.200994
O O10 0.978028 0.283424 0.324059
O O11 0.059632 0.244133 0.154554
O O12 0.101923 0.000000 0.071532
O O13 0.000000 0.821132 0.000000
O O14 0.910276 0.500000 0.429241
O O15 0.857960 0.233050 0.463311
O O16 0.000000 0.298842 0.500000
O O17 0.751395 0.756084 0.344107
O O18 0.703721 0.771617 0.530728
O O19 0.771979 0.000000 0.432105
O O20 0.303850 0.500000 0.695498
O O21 0.383166 0.000000 0.412444
#
# Coordination Sequence:
#
# PCOD8057000 Si02
#       8
#     4   4   4   4   4   4   4   4
#     4   9  16  26  39  54  76 106 133 157 190 237
#     4   8  13  23  36  51  72 100 132 160 191 228
#     4   9  16  29  43  54  72 102 131 157 197 242
#     4   9  17  26  38  58  77  94 124 165 198 227
#     4  10  20  33  46  60  79 103 133 170 208 242
#     4  10  18  28  42  56  73 101 135 169 203 236
#     4  10  17  25  37  56  81 105 133 163 196 232
#     4   7  12  23  37  51  70  98 130 161 193 233
#
# _framework density 14.930523000000001
#
# number of rings (size 3 to 8) (size 9 to 14) (size 15 to 20)
#    0.000    3.000    1.250    2.625    0.000    3.250 
#    0.000    5.625    0.000    0.000    0.000    0.000 
#    0.000    0.000    0.000    1.125    0.000   22.750 
#
# Total GULP energy -396452.303866 kJ/mol
# GULP energy per Si atom -12389.134496 kJ/mol
# Density = 1.489654 g / cm^3
# Si number density = 14.930523 Si / 1000 Ang^3
#
#
#
# Elastic Constant Matrix: (Units=GPa)
#
#
# Indices 1 2 3 4 5 6 
#
# 1 90.4500 49.0161 51.0181 0.0000 -31.5038 0.0000
# 2 49.0161 72.7261 35.9992 0.0000 -18.9814 0.0000
# 3 51.0181 35.9992 67.8705 0.0000 -22.8457 0.0000
# 4 0.0000 0.0000 0.0000 12.7052 0.0000 -11.1846
# 5 -31.5038 -18.9814 -22.8457 0.0000 23.9756 0.0000
# 6 0.0000 0.0000 0.0000 -11.1846 0.0000 19.4218
#
#
#
# Elastic Compliance Matrix: (Units=1/GPa)
#
#
# Indices 1 2 3 4 5 6 
#
# 1 0.028988 -0.009093 -0.009671 0.000000 0.021676 0.000000
# 2 -0.009093 0.022561 -0.004624 0.000000 0.001507 0.000000
# 3 -0.009671 -0.004624 0.027893 0.000000 0.010210 0.000000
# 4 0.000000 0.000000 0.000000 0.159637 0.000000 0.091932
# 5 0.021676 0.001507 0.010210 0.000000 0.081114 0.000000
# 6 0.000000 0.000000 0.000000 0.091932 0.000000 0.104430
#
#
# Mechanical properties :
#
#
# Convention : Reuss Voigt Hill
#
# Bulk Modulus (GPa) = 30.61266 55.90146 43.25706
# Shear Modulus (GPa) = 10.36725 17.55473 13.96099
#
# Velocity S-wave (km/s) = 2.63794 3.43266 3.06120
# Velocity P-wave (km/s) = 5.46134 7.29611 6.44436
#
# Compressibility (1/GPa) = 0.03266622
#
# Stress axis : x y z
#
# Youngs Moduli (GPa) = 34.49695 44.32430 35.85123
#
# Poissons Ratio (x) = 0.40304 0.34671
# Poissons Ratio (y) = 0.31368 0.16578
# Poissons Ratio (z) = 0.33362 0.20496
#
# Static dielectric constant tensor:
#      x y z
#    x 3.082900 0.000000 -0.474750 
#    y 0.000000 2.875750 0.000000 
#    z -0.474750 0.000000 2.642040 
# 
# 
# High freq. dielectric constant tensor:
#      x y z
#    x 1.553560 0.000000 -0.048380 
#    y 0.000000 1.567630 0.000000 
#    z -0.048380 0.000000 1.528260 
# 
# From -- ./inp_files/66098.got.cif
#   From: 2010.06.25/outbox.cif.g09.slc.cpg/sg10_34_cif.got.tgz:66098.got - 2010.06.27 22:07:45.
