data_PCOD8057641
_publ_section_title
;
Structure prediction by ZEFSAII (Michael W. Deem and Ramdas Pophale) SiO2 
 PCOD8057641
Probable space group: P 2/M
;
_chemical_formula_sum "Si O2"
_cell_formula_units_Z 32
_cell_length_a 29.036025
_cell_length_b 8.723426
_cell_length_c 13.665850
_cell_angle_alpha 90.000000
_cell_angle_beta 144.863507
_cell_angle_gamma 90.000000
_cell_volume 1992.168262
_symmetry_space_group_name_H-M "P 2/M"
_symmetry_group_IT_number 10
_symmetry_cell_setting 'monoclinic'
loop_
_space_group_symop_operation_xyz
x,y,z
-x,y,-z
-x,-y,-z
x,-y,z
loop_
_atom_site_type_symbol
_atom_site_label
_atom_site_fract_x
_atom_site_fract_y
_atom_site_fract_z
Si Si1 0.675673 0.321924 0.086443
Si Si2 0.447213 0.321415 0.607416
Si Si3 0.309772 0.675573 0.235224
Si Si4 0.004723 0.672255 0.392160
Si Si5 0.842962 0.821284 0.109995
Si Si6 0.408400 0.821074 0.239746
Si Si7 0.166964 0.820620 0.681411
Si Si8 0.477114 0.678098 0.063707
O O1 0.673117 0.500000 0.051270
O O2 0.766315 0.269382 0.266496
O O3 0.646597 0.214305 0.948621
O O4 0.616885 0.292813 0.076583
O O5 0.472909 0.500000 0.644380
O O6 0.353421 0.300118 0.416739
O O7 0.500202 0.225118 0.622532
O O8 0.466286 0.258681 0.749932
O O9 0.283993 0.500000 0.175399
O O10 0.376432 0.720397 0.272870
O O11 0.230677 0.778299 0.088395
O O12 0.015486 0.500000 0.372184
O O13 0.080561 0.771863 0.489153
O O14 0.000000 0.679254 0.500000
O O15 0.922402 0.739966 0.206257
O O16 0.824046 0.771558 0.188829
O O17 0.859254 0.000000 0.133714
O O18 0.402176 0.000000 0.255076
O O19 0.178229 0.000000 0.686214
O O20 0.495924 0.500000 0.086867
O O21 0.500000 0.758883 0.000000
#
# Coordination Sequence:
#
# PCOD8057641 Si02
#       8
#     4   4   4   4   4   4   4   4
#     4  10  18  28  45  66  87 114 148 183 220 262
#     4   9  19  32  45  63  83 110 145 181 220 261
#     4  11  20  29  42  59  85 116 149 183 213 253
#     4   9  17  28  42  59  82 115 152 185 217 252
#     4  10  19  29  41  59  85 118 153 183 216 252
#     4  11  20  29  41  59  84 115 147 181 218 255
#     4  10  18  28  42  61  87 116 149 186 217 252
#     4   8  15  30  50  68  86 109 141 183 227 266
#
# _framework density 16.062899999999999
#
# number of rings (size 3 to 8) (size 9 to 14) (size 15 to 20)
#    0.000    2.250    1.250    4.125    0.000    5.000 
#    0.000    0.000    0.000    9.375    0.000    0.000 
#    0.000    1.000    0.000   11.750    0.000    2.250 
#
# Total GULP energy -396679.428231 kJ/mol
# GULP energy per Si atom -12396.232132 kJ/mol
# Density = 1.602634 g / cm^3
# Si number density = 16.062900 Si / 1000 Ang^3
#
#
#
# Elastic Constant Matrix: (Units=GPa)
#
#
# Indices 1 2 3 4 5 6 
#
# 1 51.8529 12.5054 39.9187 0.0000 9.0172 0.0000
# 2 12.5054 49.1107 19.9249 0.0000 8.5954 0.0000
# 3 39.9187 19.9249 105.8347 0.0000 20.1112 0.0000
# 4 0.0000 0.0000 0.0000 24.7869 0.0000 7.7972
# 5 9.0172 8.5954 20.1112 0.0000 17.6325 0.0000
# 6 0.0000 0.0000 0.0000 7.7972 0.0000 9.0145
#
#
#
# Elastic Compliance Matrix: (Units=1/GPa)
#
#
# Indices 1 2 3 4 5 6 
#
# 1 0.027635 -0.002841 -0.009532 0.000000 -0.001875 0.000000
# 2 -0.002841 0.023183 -0.001815 0.000000 -0.007778 0.000000
# 3 -0.009532 -0.001815 0.015692 0.000000 -0.012139 0.000000
# 4 0.000000 0.000000 0.000000 0.055424 0.000000 -0.047940
# 5 -0.001875 -0.007778 -0.012139 0.000000 0.075309 0.000000
# 6 0.000000 0.000000 0.000000 -0.047940 0.000000 0.152399
#
#
# Mechanical properties :
#
#
# Convention : Reuss Voigt Hill
#
# Bulk Modulus (GPa) = 26.22323 39.05513 32.63918
# Shear Modulus (GPa) = 12.79651 19.25007 16.02329
#
# Velocity S-wave (km/s) = 2.82556 3.46557 3.16180
# Velocity P-wave (km/s) = 5.19671 6.35455 5.80457
#
# Compressibility (1/GPa) = 0.03813413
#
# Stress axis : x y z
#
# Youngs Moduli (GPa) = 36.18611 43.13442 63.72516
#
# Poissons Ratio (x) = 0.12256 0.60743
# Poissons Ratio (y) = 0.10282 0.11565
# Poissons Ratio (z) = 0.34493 0.07828
#
# Static dielectric constant tensor:
#      x y z
#    x 2.866570 0.000000 0.125330 
#    y 0.000000 2.992170 0.000000 
#    z 0.125330 0.000000 3.172740 
# 
# 
# High freq. dielectric constant tensor:
#      x y z
#    x 1.559900 0.000000 0.025720 
#    y 0.000000 1.619940 0.000000 
#    z 0.025720 0.000000 1.616340 
# 
# From -- ./inp_files/66177.got.cif
#   From: 2010.06.25/outbox.cif.g09.slc.cpg/sg10_34_cif.got.tgz:66177.got - 2010.06.27 22:07:45.
