data_PCOD8057369
_publ_section_title
;
Structure prediction by ZEFSAII (Michael W. Deem and Ramdas Pophale) SiO2 
 PCOD8057369
Probable space group: P 2/M
;
_chemical_formula_sum "Si O2"
_cell_formula_units_Z 32
_cell_length_a 20.422281
_cell_length_b 8.979431
_cell_length_c 24.636428
_cell_angle_alpha 90.000000
_cell_angle_beta 156.394738
_cell_angle_gamma 90.000000
_cell_volume 1809.092908
_symmetry_space_group_name_H-M "P 2/M"
_symmetry_group_IT_number 10
_symmetry_cell_setting 'monoclinic'
loop_
_space_group_symop_operation_xyz
x,y,z
-x,y,-z
-x,-y,-z
x,-y,z
loop_
_atom_site_type_symbol
_atom_site_label
_atom_site_fract_x
_atom_site_fract_y
_atom_site_fract_z
Si Si1 0.059036 0.325637 0.711860
Si Si2 0.569787 0.172194 0.249099
Si Si3 0.453899 0.677570 0.270221
Si Si4 0.093268 0.676680 0.019036
Si Si5 0.910149 0.326099 0.486789
Si Si6 0.255186 0.171604 0.946179
Si Si7 0.003998 0.324307 0.833977
Si Si8 0.767659 0.324955 0.565928
O O1 0.085956 0.500000 0.741409
O O2 0.035010 0.285663 0.630469
O O3 0.897411 0.266751 0.620169
O O4 0.215654 0.243373 0.857206
O O5 0.496299 0.260165 0.243793
O O6 0.446963 0.192927 0.104866
O O7 0.744606 0.234048 0.364655
O O8 0.586941 0.000000 0.278228
O O9 0.452575 0.500000 0.264450
O O10 0.278658 0.737430 0.157417
O O11 0.587831 0.738174 0.415583
O O12 0.095234 0.500000 0.025769
O O13 0.998202 0.726458 0.892190
O O14 0.000000 0.747116 0.000000
O O15 0.864387 0.500000 0.454215
O O16 0.000000 0.280992 0.500000
O O17 0.205249 0.000000 0.906458
O O18 0.153509 0.247762 0.917058
O O19 0.035331 0.500000 0.852999
O O20 0.831001 0.279600 0.674201
O O21 0.756811 0.500000 0.552006
#
# Coordination Sequence:
#
# PCOD8057369 Si02
#       8
#     4   4   4   4   4   4   4   4
#     4   9  17  32  53  77 104 131 168 212 257 307
#     4  11  22  34  51  78 109 136 174 218 257 306
#     4  10  17  30  51  72  99 133 173 218 259 301
#     4   9  17  28  46  73 102 135 174 215 263 311
#     4  10  21  38  59  81 106 137 173 212 257 312
#     4  10  20  32  49  76 106 134 173 216 255 303
#     4   9  16  29  48  69  98 132 168 212 260 306
#     4   8  14  25  45  72  95 121 161 209 254 297
#
# _framework density 17.688421999999999
#
# number of rings (size 3 to 8) (size 9 to 14) (size 15 to 20)
#    0.000    2.500    2.500    1.500    0.000    2.250 
#    0.000    1.250    0.000    9.000    0.000    0.000 
#    0.000    3.250    0.000    0.000    0.000    0.000 
#
# Total GULP energy -396633.377901 kJ/mol
# GULP energy per Si atom -12394.793059 kJ/mol
# Density = 1.764816 g / cm^3
# Si number density = 17.688422 Si / 1000 Ang^3
#
#
#
# Elastic Constant Matrix: (Units=GPa)
#
#
# Indices 1 2 3 4 5 6 
#
# 1 120.2366 30.9084 64.6236 0.0000 -16.0539 0.0000
# 2 30.9084 46.8051 38.6197 0.0000 -4.7552 0.0000
# 3 64.6236 38.6197 129.3293 0.0000 -18.9327 0.0000
# 4 0.0000 0.0000 0.0000 20.7378 0.0000 -2.6809
# 5 -16.0539 -4.7552 -18.9327 0.0000 30.8371 0.0000
# 6 0.0000 0.0000 0.0000 -2.6809 0.0000 5.0025
#
#
#
# Elastic Compliance Matrix: (Units=1/GPa)
#
#
# Indices 1 2 3 4 5 6 
#
# 1 0.012131 -0.004069 -0.004410 0.000000 0.002980 0.000000
# 2 -0.004069 0.029739 -0.007126 0.000000 -0.001908 0.000000
# 3 -0.004410 -0.007126 0.012709 0.000000 0.004408 0.000000
# 4 0.000000 0.000000 0.000000 0.051811 0.000000 0.027766
# 5 0.002980 -0.001908 0.004408 0.000000 0.036392 0.000000
# 6 0.000000 0.000000 0.000000 0.027766 0.000000 0.214779
#
#
# Mechanical properties :
#
#
# Convention : Reuss Voigt Hill
#
# Bulk Modulus (GPa) = 42.79487 62.74163 52.76825
# Shear Modulus (GPa) = 12.60834 22.13009 17.36921
#
# Velocity S-wave (km/s) = 2.67273 3.54093 3.13701
# Velocity P-wave (km/s) = 5.81127 7.22946 6.55881
#
# Compressibility (1/GPa) = 0.02336729
#
# Stress axis : x y z
#
# Youngs Moduli (GPa) = 82.43079 33.62625 78.68217
#
# Poissons Ratio (x) = 0.13683 0.34702
# Poissons Ratio (y) = 0.33543 0.56072
# Poissons Ratio (z) = 0.36355 0.23963
#
# Static dielectric constant tensor:
#      x y z
#    x 3.305780 0.000000 -0.244480 
#    y 0.000000 3.026170 0.000000 
#    z -0.244480 0.000000 3.691890 
# 
# 
# High freq. dielectric constant tensor:
#      x y z
#    x 1.664160 0.000000 -0.023890 
#    y 0.000000 1.655580 0.000000 
#    z -0.023890 0.000000 1.694600 
# 
# From -- ./inp_files/86167.got.cif
#   From: 2010.06.25/outbox.cif.g09.slc.cpg/sg10_44_cif.got.tgz:86167.got - 2010.06.27 22:07:45.
