data_PCOD8057584
_publ_section_title
;
Structure prediction by ZEFSAII (Michael W. Deem and Ramdas Pophale) SiO2 
 PCOD8057584
Probable space group: P 2/M
;
_chemical_formula_sum "Si O2"
_cell_formula_units_Z 28
_cell_length_a 32.705682
_cell_length_b 8.922706
_cell_length_c 21.158026
_cell_angle_alpha 90.000000
_cell_angle_beta 162.656772
_cell_angle_gamma 90.000000
_cell_volume 1840.559318
_symmetry_space_group_name_H-M "P 2/M"
_symmetry_group_IT_number 10
_symmetry_cell_setting 'monoclinic'
loop_
_space_group_symop_operation_xyz
x,y,z
-x,y,-z
-x,-y,-z
x,-y,z
loop_
_atom_site_type_symbol
_atom_site_label
_atom_site_fract_x
_atom_site_fract_y
_atom_site_fract_z
Si Si1 0.587974 0.177369 0.361211
Si Si2 0.339701 0.825584 0.769514
Si Si3 0.193047 0.326570 0.668225
Si Si4 0.061757 0.830541 0.660739
Si Si5 0.144639 0.329814 0.235912
Si Si6 0.293051 0.670062 0.575368
Si Si7 0.684713 0.673495 0.013489
O O1 0.728243 0.231046 0.603713
O O2 0.587648 0.245291 0.289080
O O3 0.580097 0.000000 0.346109
O O4 0.458428 0.240975 0.208069
O O5 0.287564 0.749330 0.755753
O O6 0.262513 0.754695 0.595364
O O7 0.305745 0.000000 0.721901
O O8 0.500000 0.792098 0.000000
O O9 0.173828 0.500000 0.623853
O O10 0.265423 0.301023 0.841777
O O11 0.042978 0.250841 0.446256
O O12 0.205812 0.742673 0.873827
O O13 0.000000 0.827357 0.500000
O O14 0.085718 0.000000 0.719359
O O15 0.158787 0.500000 0.231226
O O16 0.154887 0.328078 0.328055
O O17 0.000000 0.259916 0.000000
O O18 0.341762 0.500000 0.660627
O O19 0.664884 0.500000 0.968157
#
# Coordination Sequence:
#
# PCOD8057584 Si02
#       7
#     4   4   4   4   4   4   4
#     4  10  18  27  42  65  90 114 143 178 220 263
#     4  11  22  32  43  61  87 119 154 190 224 258
#     4  10  20  31  44  60  82 115 154 189 221 263
#     4   9  17  29  44  61  82 109 143 186 230 266
#     4   8  16  31  48  65  88 117 146 179 223 272
#     4   9  18  31  45  62  85 116 150 182 218 261
#     4  10  18  29  44  62  85 115 150 185 223 265
#
# _framework density 15.212766999999999
#
# number of rings (size 3 to 8) (size 9 to 14) (size 15 to 20)
#    0.857    1.571    0.000    3.857    0.000    7.143 
#    0.000    0.000    0.000    0.000    0.000    0.000 
#    0.000    1.143    0.000   12.286    0.000    5.429 
#
# Total GULP energy -347052.850935 kJ/mol
# GULP energy per Si atom -12394.744676 kJ/mol
# Density = 1.517814 g / cm^3
# Si number density = 15.212767 Si / 1000 Ang^3
#
#
#
# Elastic Constant Matrix: (Units=GPa)
#
#
# Indices 1 2 3 4 5 6 
#
# 1 42.1752 35.6017 28.0704 0.0000 15.3226 0.0000
# 2 35.6017 128.6309 57.8544 0.0000 17.6956 0.0000
# 3 28.0704 57.8544 93.4877 0.0000 17.9699 0.0000
# 4 0.0000 0.0000 0.0000 23.2070 0.0000 6.9704
# 5 15.3226 17.6956 17.9699 0.0000 24.2503 0.0000
# 6 0.0000 0.0000 0.0000 6.9704 0.0000 23.8847
#
#
#
# Elastic Compliance Matrix: (Units=1/GPa)
#
#
# Indices 1 2 3 4 5 6 
#
# 1 0.037738 -0.006276 -0.004366 0.000000 -0.016030 0.000000
# 2 -0.006276 0.012063 -0.005424 0.000000 -0.000818 0.000000
# 3 -0.004366 -0.005424 0.016410 0.000000 -0.005444 0.000000
# 4 0.000000 0.000000 0.000000 0.047230 0.000000 -0.013784
# 5 -0.016030 -0.000818 -0.005444 0.000000 0.055996 0.000000
# 6 0.000000 0.000000 0.000000 -0.013784 0.000000 0.045890
#
#
# Mechanical properties :
#
#
# Convention : Reuss Voigt Hill
#
# Bulk Modulus (GPa) = 29.34245 56.37187 42.85716
# Shear Modulus (GPa) = 19.31846 23.78622 21.55234
#
# Velocity S-wave (km/s) = 3.56741 3.95849 3.76803
# Velocity P-wave (km/s) = 6.02482 7.61767 6.86758
#
# Compressibility (1/GPa) = 0.03408032
#
# Stress axis : x y z
#
# Youngs Moduli (GPa) = 26.49844 82.89736 60.93738
#
# Poissons Ratio (x) = 0.52026 0.26606
# Poissons Ratio (y) = 0.16630 0.33050
# Poissons Ratio (z) = 0.11569 0.44960
#
# Static dielectric constant tensor:
#      x y z
#    x 2.623210 0.000000 0.168660 
#    y 0.000000 3.034440 0.000000 
#    z 0.168660 0.000000 2.856720 
# 
# 
# High freq. dielectric constant tensor:
#      x y z
#    x 1.538090 0.000000 0.022910 
#    y 0.000000 1.602180 0.000000 
#    z 0.022910 0.000000 1.566650 
# 
# From -- ./inp_files/72462.got.cif
#   From: 2010.06.25/outbox.cif.g09.slc.cpg/sg10_37_cif.got.tgz:72462.got - 2010.06.27 22:07:45.
