data_PCOD8057051
_publ_section_title
;
Structure prediction by ZEFSAII (Michael W. Deem and Ramdas Pophale) SiO2 
 PCOD8057051
Probable space group: P 2/M
;
_chemical_formula_sum "Si O2"
_cell_formula_units_Z 28
_cell_length_a 26.944279
_cell_length_b 8.876521
_cell_length_c 20.868118
_cell_angle_alpha 90.000000
_cell_angle_beta 17.995545
_cell_angle_gamma 90.000000
_cell_volume 1541.952721
_symmetry_space_group_name_H-M "P 2/M"
_symmetry_group_IT_number 10
_symmetry_cell_setting 'monoclinic'
loop_
_space_group_symop_operation_xyz
x,y,z
-x,y,-z
-x,-y,-z
x,-y,z
loop_
_atom_site_type_symbol
_atom_site_label
_atom_site_fract_x
_atom_site_fract_y
_atom_site_fract_z
Si Si1 0.674063 0.324384 0.469756
Si Si2 0.162460 0.833942 0.840213
Si Si3 0.007024 0.823499 0.285385
Si Si4 0.891565 0.321933 0.546995
Si Si5 0.791234 0.175139 0.786836
Si Si6 0.638511 0.171913 0.101972
Si Si7 0.949784 0.821204 0.211904
O O1 0.700551 0.500000 0.442551
O O2 0.713179 0.274666 0.348675
O O3 0.491016 0.283438 0.709342
O O4 0.787283 0.246573 0.382942
O O5 0.241676 0.000000 0.748809
O O6 0.000000 0.845854 0.000000
O O7 0.108676 0.770971 0.976174
O O8 0.882265 0.737106 0.485355
O O9 0.972076 0.765020 0.256859
O O10 0.974156 0.000000 0.333243
O O11 0.190631 0.785482 0.077018
O O12 0.870495 0.500000 0.574618
O O13 0.754473 0.244600 0.761218
O O14 0.062092 0.270352 0.364934
O O15 0.839960 0.000000 0.721686
O O16 0.644258 0.193376 0.017319
O O17 0.592230 0.000000 0.175582
O O18 0.932989 0.000000 0.228217
#
# Coordination Sequence:
#
# PCOD8057051 Si02
#       7
#     4   4   4   4   4   4   4
#     4  11  21  31  48  73 100 129 158 192 239 291
#     4   8  15  30  51  71  91 120 161 203 236 273
#     4   9  18  33  52  73  96 125 162 201 240 282
#     4  10  17  25  42  69  99 127 154 191 240 287
#     4   9  16  28  46  66  90 124 166 204 233 270
#     4   9  18  32  50  71  96 126 161 200 238 278
#     4   9  18  34  55  74  93 122 162 204 240 278
#
# _framework density 18.158794
#
# number of rings (size 3 to 8) (size 9 to 14) (size 15 to 20)
#    0.000    2.714    0.000    5.571    0.000    6.000 
#    0.000    0.714    0.000    5.143    0.000    6.000 
#    0.000    0.000    0.000    0.000    0.000    0.000 
#
# Total GULP energy -346991.619599 kJ/mol
# GULP energy per Si atom -12392.557843 kJ/mol
# Density = 1.811746 g / cm^3
# Si number density = 18.158794 Si / 1000 Ang^3
#
#
#
# Elastic Constant Matrix: (Units=GPa)
#
#
# Indices 1 2 3 4 5 6 
#
# 1 82.5217 17.3902 -2.9732 0.0000 19.9833 0.0000
# 2 17.3902 54.7055 6.7786 0.0000 6.1796 0.0000
# 3 -2.9732 6.7786 13.7792 0.0000 2.9057 0.0000
# 4 0.0000 0.0000 0.0000 3.5987 0.0000 -1.6491
# 5 19.9833 6.1796 2.9057 0.0000 20.6299 0.0000
# 6 0.0000 0.0000 0.0000 -1.6491 0.0000 14.4573
#
#
#
# Elastic Compliance Matrix: (Units=1/GPa)
#
#
# Indices 1 2 3 4 5 6 
#
# 1 0.017612 -0.004894 0.009787 0.000000 -0.016972 0.000000
# 2 -0.004894 0.021263 -0.011515 0.000000 -0.000007 0.000000
# 3 0.009787 -0.011515 0.084120 0.000000 -0.017879 0.000000
# 4 0.000000 0.000000 0.000000 0.293202 0.000000 0.033444
# 5 -0.016972 -0.000007 -0.017879 0.000000 0.067434 0.000000
# 6 0.000000 0.000000 0.000000 0.033444 0.000000 0.072984
#
#
# Mechanical properties :
#
#
# Convention : Reuss Voigt Hill
#
# Bulk Modulus (GPa) = 9.11155 21.48861 15.30008
# Shear Modulus (GPa) = 8.24481 16.39124 12.31802
#
# Velocity S-wave (km/s) = 2.13313 3.00769 2.60734
# Velocity P-wave (km/s) = 3.33101 4.89091 4.18429
#
# Compressibility (1/GPa) = 0.10975081
#
# Stress axis : x y z
#
# Youngs Moduli (GPa) = 56.77941 47.03004 11.88782
#
# Poissons Ratio (x) = 0.23017 -0.11635
# Poissons Ratio (y) = 0.27788 0.13689
# Poissons Ratio (z) = -0.55570 0.54154
#
# Static dielectric constant tensor:
#      x y z
#    x 3.758870 0.000000 0.749160 
#    y 0.000000 3.228320 0.000000 
#    z 0.749160 0.000000 3.376110 
# 
# 
# High freq. dielectric constant tensor:
#      x y z
#    x 1.688260 0.000000 0.046500 
#    y 0.000000 1.697000 0.000000 
#    z 0.046500 0.000000 1.681430 
# 
# From -- ./inp_files/79244.got.cif
#   From: 2010.06.25/outbox.cif.g09.slc.cpg/sg10_40_cif.got.tgz:79244.got - 2010.06.27 22:07:45.
