data_PCOD8057784
_publ_section_title
;
Structure prediction by ZEFSAII (Michael W. Deem and Ramdas Pophale) SiO2 
 PCOD8057784
Probable space group: P 2/M
;
_chemical_formula_sum "Si O2"
_cell_formula_units_Z 24
_cell_length_a 15.790676
_cell_length_b 13.685225
_cell_length_c 10.050627
_cell_angle_alpha 90.000000
_cell_angle_beta 36.979374
_cell_angle_gamma 90.000000
_cell_volume 1306.475573
_symmetry_space_group_name_H-M "P 2/M"
_symmetry_group_IT_number 10
_symmetry_cell_setting 'monoclinic'
loop_
_space_group_symop_operation_xyz
x,y,z
-x,y,-z
-x,-y,-z
x,-y,z
loop_
_atom_site_type_symbol
_atom_site_label
_atom_site_fract_x
_atom_site_fract_y
_atom_site_fract_z
Si Si1 0.738918 0.500000 0.688523
Si Si2 0.856584 0.704021 0.536407
Si Si3 0.505323 0.500000 0.208150
Si Si4 0.658317 0.000000 0.760369
Si Si5 0.558171 0.704112 0.280941
Si Si6 0.153454 0.783962 0.159464
Si Si7 0.143443 0.000000 0.240628
Si Si8 0.396849 0.200303 0.255144
O O1 0.848461 0.588573 0.569273
O O2 0.651221 0.500000 0.659829
O O3 0.624341 0.500000 0.947746
O O4 0.827696 0.764077 0.707452
O O5 0.729996 0.722800 0.592465
O O6 0.007655 0.736817 0.289119
O O7 0.526602 0.594954 0.272012
O O8 0.683740 0.096123 0.640264
O O9 0.736588 0.000000 0.800891
O O10 0.500000 0.000000 0.000000
O O11 0.500000 0.718529 0.500000
O O12 0.483570 0.783407 0.279972
O O13 0.723562 0.730071 0.075926
O O14 0.154732 0.901907 0.135996
O O15 0.000000 0.000000 0.500000
O O16 0.500000 0.214073 0.000000
#
# Coordination Sequence:
#
# PCOD8057784 Si02
#       8
#     2   4   2   2   4   4   2   4
#     4  11  20  34  64  97 114 151 194 263 302 354
#     4  11  20  34  60  88 124 148 192 248 308 347
#     4  11  21  37  63  86 119 156 208 240 301 360
#     4  10  18  28  54  85 112 147 192 245 290 346
#     4  12  25  41  59  85 123 166 203 245 295 363
#     4  11  22  36  57  94 124 154 194 252 302 350
#     4  12  18  34  60  93 126 151 194 253 309 352
#     4  11  18  36  58  86 114 153 200 246 298 349
#
# _framework density 18.370034
#
# number of rings (size 3 to 8) (size 9 to 14) (size 15 to 20)
#    0.000    0.833    8.333    1.250    0.000    2.000 
#    0.000    2.500    0.000    1.000    0.000    3.500 
#    0.000    0.000    0.000    0.000    0.000    0.000 
#
# Total GULP energy -297542.271726 kJ/mol
# GULP energy per Si atom -12397.594655 kJ/mol
# Density = 1.832822 g / cm^3
# Si number density = 18.370034 Si / 1000 Ang^3
#
#
#
# Elastic Constant Matrix: (Units=GPa)
#
#
# Indices 1 2 3 4 5 6 
#
# 1 83.4298 28.2960 51.7556 0.0000 -14.0550 0.0000
# 2 28.2960 126.5223 26.6957 0.0000 -3.8736 0.0000
# 3 51.7556 26.6957 101.6858 0.0000 -7.5822 0.0000
# 4 0.0000 0.0000 0.0000 14.1923 0.0000 -7.9848
# 5 -14.0550 -3.8736 -7.5822 0.0000 33.6103 0.0000
# 6 0.0000 0.0000 0.0000 -7.9848 0.0000 51.1280
#
#
#
# Elastic Compliance Matrix: (Units=1/GPa)
#
#
# Indices 1 2 3 4 5 6 
#
# 1 0.019131 -0.002264 -0.008713 0.000000 0.005774 0.000000
# 2 -0.002264 0.008643 -0.001132 0.000000 -0.000206 0.000000
# 3 -0.008713 -0.001132 0.014529 0.000000 -0.000496 0.000000
# 4 0.000000 0.000000 0.000000 0.077248 0.000000 0.012064
# 5 0.005774 -0.000206 -0.000496 0.000000 0.032032 0.000000
# 6 0.000000 0.000000 0.000000 0.012064 0.000000 0.021443
#
#
# Mechanical properties :
#
#
# Convention : Reuss Voigt Hill
#
# Bulk Modulus (GPa) = 55.29087 58.34807 56.81947
# Shear Modulus (GPa) = 24.59772 33.44549 29.02161
#
# Velocity S-wave (km/s) = 3.66322 4.27154 3.97902
# Velocity P-wave (km/s) = 6.93224 7.49398 7.21858
#
# Compressibility (1/GPa) = 0.01808617
#
# Stress axis : x y z
#
# Youngs Moduli (GPa) = 52.27008 115.70644 68.82796
#
# Poissons Ratio (x) = 0.26190 0.59967
# Poissons Ratio (y) = 0.11831 0.07793
# Poissons Ratio (z) = 0.45541 0.13101
#
# Static dielectric constant tensor:
#      x y z
#    x 3.379750 0.000000 -0.359300 
#    y 0.000000 3.483110 0.000000 
#    z -0.359300 0.000000 3.127160 
# 
# 
# High freq. dielectric constant tensor:
#      x y z
#    x 1.704720 0.000000 -0.040230 
#    y 0.000000 1.736970 0.000000 
#    z -0.040230 0.000000 1.670520 
# 
# From -- ./inp_files/29376.got.cif
#   From: 2010.06.25/outbox.cif.g09.slc.cpg/sg10_15_cif.got.tgz:29376.got - 2010.06.27 22:07:45.
