data_PCOD8057266
_publ_section_title
;
Structure prediction by ZEFSAII (Michael W. Deem and Ramdas Pophale) SiO2 
 PCOD8057266
Probable space group: P 2/M
;
_chemical_formula_sum "Si O2"
_cell_formula_units_Z 32
_cell_length_a 14.914737
_cell_length_b 8.620532
_cell_length_c 15.175362
_cell_angle_alpha 90.000000
_cell_angle_beta 100.840792
_cell_angle_gamma 90.000000
_cell_volume 1916.320468
_symmetry_space_group_name_H-M "P 2/M"
_symmetry_group_IT_number 10
_symmetry_cell_setting 'monoclinic'
loop_
_space_group_symop_operation_xyz
x,y,z
-x,y,-z
-x,-y,-z
x,-y,z
loop_
_atom_site_type_symbol
_atom_site_label
_atom_site_fract_x
_atom_site_fract_y
_atom_site_fract_z
Si Si1 0.791512 0.679430 0.424870
Si Si2 0.065085 0.816123 0.889041
Si Si3 0.084202 0.181233 0.697899
Si Si4 0.871627 0.184037 0.916413
Si Si5 0.123589 0.821373 0.390060
Si Si6 0.741924 0.818336 0.744178
Si Si7 0.605943 0.818874 0.435702
Si Si8 0.582238 0.319052 0.619104
O O1 0.765859 0.500000 0.420861
O O2 0.849936 0.718234 0.349997
O O3 0.849275 0.717341 0.522348
O O4 0.698095 0.776318 0.402018
O O5 0.100871 0.758321 0.801043
O O6 0.964565 0.747619 0.891103
O O7 0.056163 0.000000 0.883123
O O8 0.133957 0.766323 0.981268
O O9 0.980254 0.214653 0.652865
O O10 0.107356 0.000000 0.691038
O O11 0.784104 0.242271 0.844806
O O12 0.875919 0.000000 0.908757
O O13 0.185530 0.778513 0.318291
O O14 0.137127 0.000000 0.419876
O O15 0.648361 0.724766 0.712013
O O16 0.719433 0.000000 0.742534
O O17 0.521076 0.728411 0.376125
O O18 0.616922 0.773941 0.540044
O O19 0.586663 0.000000 0.424374
O O20 0.586782 0.500000 0.598979
#
# Coordination Sequence:
#
# PCOD8057266 Si02
#       8
#     4   4   4   4   4   4   4   4
#     4  12  24  35  47  67  96 132 169 208 245 286
#     4   8  13  24  44  71  98 124 160 207 248 278
#     4  10  19  32  49  70  96 133 173 207 242 285
#     4   8  13  23  44  73 100 124 158 204 246 282
#     4  10  19  31  47  68  97 133 172 205 234 281
#     4  10  17  28  48  74 101 133 165 196 238 288
#     4  11  21  36  54  71  92 124 162 203 244 290
#     4  11  21  33  50  74 101 127 156 196 242 292
#
# _framework density 16.698668999999999
#
# number of rings (size 3 to 8) (size 9 to 14) (size 15 to 20)
#    0.000    2.000    2.500    5.250    0.000    2.000 
#    0.000    0.000    0.000    0.750    0.000    2.625 
#    0.000    7.000    0.000    0.000    0.000    0.000 
#
# Total GULP energy -396743.126412 kJ/mol
# GULP energy per Si atom -12398.222700 kJ/mol
# Density = 1.666066 g / cm^3
# Si number density = 16.698669 Si / 1000 Ang^3
#
#
#
# Elastic Constant Matrix: (Units=GPa)
#
#
# Indices 1 2 3 4 5 6 
#
# 1 79.7784 19.2452 51.8147 0.0000 13.4907 0.0000
# 2 19.2452 52.7691 24.6584 0.0000 2.5309 0.0000
# 3 51.8147 24.6584 108.1381 0.0000 14.3609 0.0000
# 4 0.0000 0.0000 0.0000 1.0082 0.0000 -0.1025
# 5 13.4907 2.5309 14.3609 0.0000 25.1528 0.0000
# 6 0.0000 0.0000 0.0000 -0.1025 0.0000 14.4204
#
#
#
# Elastic Compliance Matrix: (Units=1/GPa)
#
#
# Indices 1 2 3 4 5 6 
#
# 1 0.019293 -0.003129 -0.007789 0.000000 -0.005586 0.000000
# 2 -0.003129 0.021729 -0.003666 0.000000 0.001585 0.000000
# 3 -0.007789 -0.003666 0.014296 0.000000 -0.003616 0.000000
# 4 0.000000 0.000000 0.000000 0.992605 0.000000 0.007055
# 5 -0.005586 0.001585 -0.003616 0.000000 0.044658 0.000000
# 6 0.000000 0.000000 0.000000 0.007055 0.000000 0.069397
#
#
# Mechanical properties :
#
#
# Convention : Reuss Voigt Hill
#
# Bulk Modulus (GPa) = 38.24134 48.01360 43.12747
# Shear Modulus (GPa) = 4.16715 17.78075 10.97395
#
# Velocity S-wave (km/s) = 1.58143 3.26667 2.56632
# Velocity P-wave (km/s) = 5.12690 6.56076 5.88764
#
# Compressibility (1/GPa) = 0.02614971
#
# Stress axis : x y z
#
# Youngs Moduli (GPa) = 51.83266 46.02228 69.95119
#
# Poissons Ratio (x) = 0.14399 0.54485
# Poissons Ratio (y) = 0.16216 0.25645
# Poissons Ratio (z) = 0.40373 0.16872
#
# Static dielectric constant tensor:
#      x y z
#    x 3.112350 0.000000 0.165100 
#    y 0.000000 2.905420 0.000000 
#    z 0.165100 0.000000 3.335500 
# 
# 
# High freq. dielectric constant tensor:
#      x y z
#    x 1.627720 0.000000 0.015020 
#    y 0.000000 1.623840 0.000000 
#    z 0.015020 0.000000 1.632800 
# 
# From -- ./inp_files/66184.got.cif
#   From: 2010.06.25/outbox.cif.g09.slc.cpg/sg10_34_cif.got.tgz:66184.got - 2010.06.27 22:07:45.
