data_PCOD8057533
_publ_section_title
;
Structure prediction by ZEFSAII (Michael W. Deem and Ramdas Pophale) SiO2 
 PCOD8057533
Probable space group: P 2/M
;
_chemical_formula_sum "Si O2"
_cell_formula_units_Z 24
_cell_length_a 12.727063
_cell_length_b 14.515348
_cell_length_c 20.926125
_cell_angle_alpha 90.000000
_cell_angle_beta 159.915970
_cell_angle_gamma 90.000000
_cell_volume 1327.523239
_symmetry_space_group_name_H-M "P 2/M"
_symmetry_group_IT_number 10
_symmetry_cell_setting 'monoclinic'
loop_
_space_group_symop_operation_xyz
x,y,z
-x,y,-z
-x,-y,-z
x,-y,z
loop_
_atom_site_type_symbol
_atom_site_label
_atom_site_fract_x
_atom_site_fract_y
_atom_site_fract_z
Si Si1 0.649592 0.902070 0.516099
Si Si2 0.963595 0.895927 0.905027
Si Si3 0.869970 0.289774 0.056549
Si Si4 0.345766 0.606082 0.692015
Si Si5 0.807311 0.714987 0.634873
Si Si6 0.449561 0.394088 0.334979
O O1 0.500000 0.907648 0.500000
O O2 0.392574 0.888139 0.315375
O O3 0.877117 0.814384 0.641555
O O4 0.821910 0.000000 0.601727
O O5 0.145958 0.819681 0.967535
O O6 0.085525 0.000000 0.959448
O O7 0.000000 0.872192 0.000000
O O8 0.918590 0.309495 0.160145
O O9 0.146984 0.334933 0.174920
O O10 0.548133 0.334882 0.856031
O O11 0.366527 0.500000 0.724984
O O12 0.466729 0.620586 0.690162
O O13 0.000000 0.642166 0.500000
O O14 0.500000 0.727812 0.500000
O O15 0.743058 0.636953 0.545192
O O16 0.377952 0.500000 0.310233
#
# Coordination Sequence:
#
# PCOD8057533 Si02
#       6
#     4   4   4   4   4   4
#     4   9  14  25  41  63 104 138 156 191 242 292
#     4  10  18  26  42  73 107 134 162 199 243 289
#     4  11  19  31  52  76 102 131 163 204 246 292
#     4  10  22  38  53  70  95 131 171 206 247 298
#     4   9  17  28  43  75 103 128 157 199 247 294
#     4  10  19  32  51  75 101 126 159 205 251 296
#
# _framework density 18.078779999999998
#
# number of rings (size 3 to 8) (size 9 to 14) (size 15 to 20)
#    0.000    2.167    5.000    2.000    0.000    5.000 
#    0.000    0.833    0.000    3.500    0.000    0.000 
#    0.000    2.667    0.000    0.000    0.000    0.000 
#
# Total GULP energy -297432.316271 kJ/mol
# GULP energy per Si atom -12393.013178 kJ/mol
# Density = 1.803763 g / cm^3
# Si number density = 18.078780 Si / 1000 Ang^3
#
#
#
# Elastic Constant Matrix: (Units=GPa)
#
#
# Indices 1 2 3 4 5 6 
#
# 1 27.8989 18.8225 35.9329 0.0000 -24.1222 0.0000
# 2 18.8225 109.3592 50.1119 0.0000 -11.1709 0.0000
# 3 35.9329 50.1119 109.4520 0.0000 -27.3958 0.0000
# 4 0.0000 0.0000 0.0000 22.9447 0.0000 -12.3048
# 5 -24.1222 -11.1709 -27.3958 0.0000 31.5651 0.0000
# 6 0.0000 0.0000 0.0000 -12.3048 0.0000 17.2601
#
#
#
# Elastic Compliance Matrix: (Units=1/GPa)
#
#
# Indices 1 2 3 4 5 6 
#
# 1 0.148808 -0.005534 -0.023437 0.000000 0.091419 0.000000
# 2 -0.005534 0.011788 -0.004592 0.000000 -0.004043 0.000000
# 3 -0.023437 -0.004592 0.017941 0.000000 -0.003965 0.000000
# 4 0.000000 0.000000 0.000000 0.070559 0.000000 0.050302
# 5 0.091419 -0.004043 -0.003965 0.000000 0.096672 0.000000
# 6 0.000000 0.000000 0.000000 0.050302 0.000000 0.093797
#
#
# Mechanical properties :
#
#
# Convention : Reuss Voigt Hill
#
# Bulk Modulus (GPa) = 8.97590 50.71610 29.84600
# Shear Modulus (GPa) = 9.19408 23.81018 16.50213
#
# Velocity S-wave (km/s) = 2.25757 3.63302 3.02452
# Velocity P-wave (km/s) = 3.43091 6.76108 5.36112
#
# Compressibility (1/GPa) = 0.11140944
#
# Stress axis : x y z
#
# Youngs Moduli (GPa) = 6.72008 84.83217 55.73837
#
# Poissons Ratio (x) = 0.46947 1.30636
# Poissons Ratio (y) = 0.03719 0.25596
# Poissons Ratio (z) = 0.15750 0.38957
#
# Static dielectric constant tensor:
#      x y z
#    x 3.150700 0.000000 -0.545090 
#    y 0.000000 3.895320 0.000000 
#    z -0.545090 0.000000 3.223920 
# 
# 
# High freq. dielectric constant tensor:
#      x y z
#    x 1.667680 0.000000 -0.058060 
#    y 0.000000 1.723090 0.000000 
#    z -0.058060 0.000000 1.667310 
# 
# From -- ./inp_files/84160.got.cif
#   From: 2010.06.25/outbox.cif.g09.slc.cpg/sg10_43_cif.got.tgz:84160.got - 2010.06.27 22:07:45.
