data_PCOD8057912
_publ_section_title
;
Structure prediction by ZEFSAII (Michael W. Deem and Ramdas Pophale) SiO2 
 PCOD8057912
Probable space group: P 2/M
;
_chemical_formula_sum "Si O2"
_cell_formula_units_Z 32
_cell_length_a 28.105809
_cell_length_b 9.555411
_cell_length_c 19.987634
_cell_angle_alpha 90.000000
_cell_angle_beta 19.345422
_cell_angle_gamma 90.000000
_cell_volume 1778.193938
_symmetry_space_group_name_H-M "P 2/M"
_symmetry_group_IT_number 10
_symmetry_cell_setting 'monoclinic'
loop_
_space_group_symop_operation_xyz
x,y,z
-x,y,-z
-x,-y,-z
x,-y,z
loop_
_atom_site_type_symbol
_atom_site_label
_atom_site_fract_x
_atom_site_fract_y
_atom_site_fract_z
Si Si1 0.121312 0.665910 0.430866
Si Si2 0.257405 0.844844 0.803962
Si Si3 0.011788 0.333888 0.062669
Si Si4 0.548675 0.154656 0.337169
Si Si5 0.526057 0.333865 0.242372
Si Si6 0.349773 0.332949 0.232131
Si Si7 0.724655 0.333969 0.520342
Si Si8 0.817612 0.333782 0.796601
O O1 0.137249 0.500000 0.410269
O O2 0.220562 0.727311 0.357834
O O3 0.171918 0.726083 0.292317
O O4 0.954344 0.710200 0.660984
O O5 0.304732 0.803877 0.817076
O O6 0.408721 0.850275 0.567490
O O7 0.185975 0.000000 0.896664
O O8 0.150922 0.733848 0.912012
O O9 0.030029 0.500000 0.042199
O O10 0.875351 0.282907 0.288128
O O11 0.000000 0.287442 0.000000
O O12 0.509493 0.274453 0.337443
O O13 0.571486 0.000000 0.274712
O O14 0.524577 0.500000 0.248123
O O15 0.399005 0.277667 0.364254
O O16 0.674662 0.271329 0.017666
O O17 0.353550 0.500000 0.229124
O O18 0.313720 0.275087 0.354529
O O19 0.500000 0.278964 0.000000
O O20 0.725123 0.500000 0.522824
O O21 0.809891 0.500000 0.802580
#
# Coordination Sequence:
#
# PCOD8057912 Si02
#       8
#     4   4   4   4   4   4   4   4
#     4   8  13  22  35  55  87 122 154 190 235 279
#     4   9  19  36  54  70  91 122 160 197 234 280
#     4  10  20  33  49  71 102 134 158 190 239 285
#     4   9  19  35  52  70  93 120 152 196 243 281
#     4  10  18  29  47  70  95 123 156 192 235 286
#     4   9  15  23  37  56  85 128 164 189 230 285
#     4   9  18  29  41  64  98 129 159 197 236 281
#     4   8  14  23  37  60  89 118 150 193 236 276
#
# _framework density 17.995787
#
# number of rings (size 3 to 8) (size 9 to 14) (size 15 to 20)
#    0.000    3.000    0.000    3.000    0.000    6.250 
#    0.000    4.375    0.000    0.000    0.000    1.750 
#    0.000    9.000    0.000    0.000    0.000    0.000 
#
# Total GULP energy -396429.312456 kJ/mol
# GULP energy per Si atom -12388.416014 kJ/mol
# Density = 1.795483 g / cm^3
# Si number density = 17.995787 Si / 1000 Ang^3
#
#
#
# Elastic Constant Matrix: (Units=GPa)
#
#
# Indices 1 2 3 4 5 6 
#
# 1 141.8716 26.9463 63.5844 0.0000 -18.1871 0.0000
# 2 26.9463 20.6503 22.2285 0.0000 -7.7137 0.0000
# 3 63.5844 22.2285 114.2947 0.0000 -14.1485 0.0000
# 4 0.0000 0.0000 0.0000 12.1554 0.0000 -6.0378
# 5 -18.1871 -7.7137 -14.1485 0.0000 36.3395 0.0000
# 6 0.0000 0.0000 0.0000 -6.0378 0.0000 5.6151
#
#
#
# Elastic Compliance Matrix: (Units=1/GPa)
#
#
# Indices 1 2 3 4 5 6 
#
# 1 0.010819 -0.009076 -0.004015 0.000000 0.001925 0.000000
# 2 -0.009076 0.071654 -0.007949 0.000000 0.007573 0.000000
# 3 -0.004015 -0.007949 0.012683 0.000000 0.001241 0.000000
# 4 0.000000 0.000000 0.000000 0.176580 0.000000 0.189873
# 5 0.001925 0.007573 0.001241 0.000000 0.030572 0.000000
# 6 0.000000 0.000000 0.000000 0.189873 0.000000 0.382259
#
#
# Mechanical properties :
#
#
# Convention : Reuss Voigt Hill
#
# Bulk Modulus (GPa) = 18.84138 55.81500 37.32819
# Shear Modulus (GPa) = 6.71737 21.75915 14.23826
#
# Velocity S-wave (km/s) = 1.93413 3.48102 2.81588
# Velocity P-wave (km/s) = 3.93452 6.87311 5.60000
#
# Compressibility (1/GPa) = 0.05307467
#
# Stress axis : x y z
#
# Youngs Moduli (GPa) = 92.43137 13.95596 78.84782
#
# Poissons Ratio (x) = 0.12667 0.31660
# Poissons Ratio (y) = 0.83893 0.62675
# Poissons Ratio (z) = 0.37114 0.11093
#
# Static dielectric constant tensor:
#      x y z
#    x 3.623120 0.000000 -0.049050 
#    y 0.000000 2.747460 0.000000 
#    z -0.049050 0.000000 3.569050 
# 
# 
# High freq. dielectric constant tensor:
#      x y z
#    x 1.706650 0.000000 -0.008410 
#    y 0.000000 1.629560 0.000000 
#    z -0.008410 0.000000 1.706460 
# 
# From -- ./inp_files/86890.got.cif
#   From: 2010.06.25/outbox.cif.g09.slc.cpg/sg10_44_cif.got.tgz:86890.got - 2010.06.27 22:07:45.
