data_PCOD8057837
_publ_section_title
;
Structure prediction by ZEFSAII (Michael W. Deem and Ramdas Pophale) SiO2 
 PCOD8057837
Probable space group: P 2/M
;
_chemical_formula_sum "Si O2"
_cell_formula_units_Z 28
_cell_length_a 26.408430
_cell_length_b 12.138070
_cell_length_c 5.141718
_cell_angle_alpha 90.000000
_cell_angle_beta 85.436137
_cell_angle_gamma 90.000000
_cell_volume 1642.938296
_symmetry_space_group_name_H-M "P 2/M"
_symmetry_group_IT_number 10
_symmetry_cell_setting 'monoclinic'
loop_
_space_group_symop_operation_xyz
x,y,z
-x,y,-z
-x,-y,-z
x,-y,z
loop_
_atom_site_type_symbol
_atom_site_label
_atom_site_fract_x
_atom_site_fract_y
_atom_site_fract_z
Si Si1 0.705185 0.130534 0.645778
Si Si2 0.356333 0.130193 0.824774
Si Si3 0.944281 0.749367 0.073776
Si Si4 0.811573 0.247506 0.590182
Si Si5 0.529829 0.868525 0.237589
Si Si6 0.086663 0.872664 0.414245
Si Si7 0.842953 0.627929 0.078133
O O1 0.678058 0.174206 0.396809
O O2 0.758015 0.191363 0.660018
O O3 0.714909 0.000000 0.636578
O O4 0.668912 0.166174 0.895905
O O5 0.413062 0.179976 0.785258
O O6 0.360290 0.000000 0.801078
O O7 0.932268 0.842759 0.865687
O O8 0.055911 0.803438 0.641082
O O9 0.903235 0.651663 0.072240
O O10 0.000000 0.698410 0.000000
O O11 0.853489 0.151540 0.585443
O O12 0.812449 0.304964 0.309112
O O13 0.821918 0.338654 0.805407
O O14 0.500000 0.823921 0.500000
O O15 0.531311 0.000000 0.235064
O O16 0.500000 0.823343 0.000000
O O17 0.076445 0.000000 0.469479
O O18 0.833464 0.500000 0.126286
#
# Coordination Sequence:
#
# PCOD8057837 Si02
#       7
#     4   4   4   4   4   4   4
#     4  10  18  29  45  65  93 122 152 192 229 267
#     4   9  17  26  38  60  87 120 161 197 228 260
#     4  10  21  34  50  73  95 119 152 185 223 271
#     4  10  20  34  51  71  91 118 155 186 228 278
#     4   9  15  23  35  51  77 116 162 203 226 247
#     4  10  20  33  49  70  98 126 152 183 218 267
#     4  10  21  37  54  70  90 115 149 191 229 276
#
# _framework density 17.042635000000001
#
# number of rings (size 3 to 8) (size 9 to 14) (size 15 to 20)
#    0.000    2.286    0.000    3.429    0.000    5.429 
#    0.000    4.286    0.000    5.143    0.000    0.000 
#    0.000    0.000    0.000    0.000    0.000  180.000 
#
# Total GULP energy -347246.194717 kJ/mol
# GULP energy per Si atom -12401.649811 kJ/mol
# Density = 1.700385 g / cm^3
# Si number density = 17.042635 Si / 1000 Ang^3
#
#
#
# Elastic Constant Matrix: (Units=GPa)
#
#
# Indices 1 2 3 4 5 6 
#
# 1 97.2264 18.8329 19.6418 0.0000 -16.4191 0.0000
# 2 18.8329 35.9749 10.2189 0.0000 -4.3520 0.0000
# 3 19.6418 10.2189 87.1316 0.0000 2.3628 0.0000
# 4 0.0000 0.0000 0.0000 9.3205 0.0000 -0.5026
# 5 -16.4191 -4.3520 2.3628 0.0000 27.6460 0.0000
# 6 0.0000 0.0000 0.0000 -0.5026 0.0000 9.1228
#
#
#
# Elastic Compliance Matrix: (Units=1/GPa)
#
#
# Indices 1 2 3 4 5 6 
#
# 1 0.013009 -0.005236 -0.002511 0.000000 0.007116 0.000000
# 2 -0.005236 0.031520 -0.002573 0.000000 0.002072 0.000000
# 3 -0.002511 -0.002573 0.012425 0.000000 -0.002958 0.000000
# 4 0.000000 0.000000 0.000000 0.107611 0.000000 0.005929
# 5 0.007116 0.002072 -0.002958 0.000000 0.040977 0.000000
# 6 0.000000 0.000000 0.000000 0.005929 0.000000 0.109942
#
#
# Mechanical properties :
#
#
# Convention : Reuss Voigt Hill
#
# Bulk Modulus (GPa) = 27.53786 35.30223 31.42004
# Shear Modulus (GPa) = 14.35849 20.66049 17.50949
#
# Velocity S-wave (km/s) = 2.90574 3.48556 3.20878
# Velocity P-wave (km/s) = 5.23938 6.07930 5.67490
#
# Compressibility (1/GPa) = 0.03631365
#
# Stress axis : x y z
#
# Youngs Moduli (GPa) = 76.87251 31.72639 80.48314
#
# Poissons Ratio (x) = 0.16611 0.20212
# Poissons Ratio (y) = 0.40248 0.20705
# Poissons Ratio (z) = 0.19306 0.08162
#
# Static dielectric constant tensor:
#      x y z
#    x 3.309600 0.000000 -0.004470 
#    y 0.000000 2.622950 0.000000 
#    z -0.004470 0.000000 3.455680 
# 
# 
# High freq. dielectric constant tensor:
#      x y z
#    x 1.665470 0.000000 0.000480 
#    y 0.000000 1.593590 0.000000 
#    z 0.000480 0.000000 1.682800 
# 
# From -- ./inp_files/13066.got.cif
#   From: 2010.06.25/outbox.cif.g09.slc.cpg/sg10_7_cif.got.tgz:13066.got - 2010.06.27 22:07:45.
