data_PCOD8057740
_publ_section_title
;
Structure prediction by ZEFSAII (Michael W. Deem and Ramdas Pophale) SiO2 
 PCOD8057740
Probable space group: P 2/M
;
_chemical_formula_sum "Si O2"
_cell_formula_units_Z 28
_cell_length_a 14.932722
_cell_length_b 9.089051
_cell_length_c 11.987330
_cell_angle_alpha 90.000000
_cell_angle_beta 124.901457
_cell_angle_gamma 90.000000
_cell_volume 1334.340167
_symmetry_space_group_name_H-M "P 2/M"
_symmetry_group_IT_number 10
_symmetry_cell_setting 'monoclinic'
loop_
_space_group_symop_operation_xyz
x,y,z
-x,y,-z
-x,-y,-z
x,-y,z
loop_
_atom_site_type_symbol
_atom_site_label
_atom_site_fract_x
_atom_site_fract_y
_atom_site_fract_z
Si Si1 0.897558 0.333314 0.150786
Si Si2 0.319568 0.173245 0.696629
Si Si3 0.551914 0.172856 0.782405
Si Si4 0.616876 0.660758 0.042298
Si Si5 0.876988 0.669633 0.391296
Si Si6 0.254461 0.328507 0.165654
Si Si7 0.924656 0.165044 0.838336
O O1 0.937174 0.500000 0.160988
O O2 0.849470 0.305834 0.239698
O O3 0.005611 0.234922 0.211985
O O4 0.801339 0.293760 0.994412
O O5 0.421796 0.214382 0.688239
O O6 0.323309 0.257689 0.815850
O O7 0.199860 0.234798 0.577051
O O8 0.318964 0.000000 0.715512
O O9 0.623110 0.258302 0.740053
O O10 0.567820 0.000000 0.777444
O O11 0.606523 0.222709 0.936214
O O12 0.673234 0.500000 0.049269
O O13 0.500000 0.613460 0.000000
O O14 0.862021 0.500000 0.414193
O O15 0.000000 0.722069 0.500000
O O16 0.264664 0.500000 0.196315
O O17 0.184627 0.257514 0.215717
O O18 0.890209 0.000000 0.780773
O O19 0.000000 0.167526 0.000000
#
# Coordination Sequence:
#
# PCOD8057740 Si02
#       7
#     4   4   4   4   4   4   4
#     4   9  18  32  48  68  96 128 162 200 240 282
#     4  10  20  32  46  65  92 125 159 200 245 287
#     4  10  19  29  42  65  97 129 160 194 235 286
#     4   9  16  26  41  61  87 121 158 191 227 278
#     4  10  21  36  53  72  94 124 165 210 250 288
#     4  10  18  28  46  72 101 133 164 193 231 285
#     4   9  17  29  46  69  97 128 160 195 236 283
#
# _framework density 20.984154
#
# number of rings (size 3 to 8) (size 9 to 14) (size 15 to 20)
#    0.000    2.429    0.000    3.000    0.000    7.714 
#    0.000    0.000    0.000    0.000    0.000    1.000 
#    0.000    8.000    0.000    0.000    0.000    0.000 
#
# Total GULP energy -346878.296632 kJ/mol
# GULP energy per Si atom -12388.510594 kJ/mol
# Density = 2.093639 g / cm^3
# Si number density = 20.984154 Si / 1000 Ang^3
#
#
#
# Elastic Constant Matrix: (Units=GPa)
#
#
# Indices 1 2 3 4 5 6 
#
# 1 163.8995 86.4127 19.6586 0.0000 49.1765 0.0000
# 2 86.4127 133.5817 17.4189 0.0000 30.9870 0.0000
# 3 19.6586 17.4189 18.8461 0.0000 18.8965 0.0000
# 4 0.0000 0.0000 0.0000 16.3897 0.0000 10.5449
# 5 49.1765 30.9870 18.8965 0.0000 30.1902 0.0000
# 6 0.0000 0.0000 0.0000 10.5449 0.0000 40.9415
#
#
#
# Elastic Compliance Matrix: (Units=1/GPa)
#
#
# Indices 1 2 3 4 5 6 
#
# 1 0.018005 -0.005836 0.026889 0.000000 -0.040169 0.000000
# 2 -0.005836 0.011771 -0.005933 0.000000 0.001138 0.000000
# 3 0.026889 -0.005933 0.183419 0.000000 -0.152514 0.000000
# 4 0.000000 0.000000 0.000000 0.073133 0.000000 -0.018836
# 5 -0.040169 0.001138 -0.152514 0.000000 0.192848 0.000000
# 6 0.000000 0.000000 0.000000 -0.018836 0.000000 0.029277
#
#
# Mechanical properties :
#
#
# Convention : Reuss Voigt Hill
#
# Bulk Modulus (GPa) = 4.10787 62.58976 33.34881
# Shear Modulus (GPa) = 8.93884 30.36008 19.64946
#
# Velocity S-wave (km/s) = 2.06617 3.80782 3.06338
# Velocity P-wave (km/s) = 2.76657 7.01602 5.33285
#
# Compressibility (1/GPa) = 0.24343524
#
# Stress axis : x y z
#
# Youngs Moduli (GPa) = 55.53937 84.95581 5.45200
#
# Poissons Ratio (x) = 0.49577 -0.14660
# Poissons Ratio (y) = 0.32411 0.03235
# Poissons Ratio (z) = -1.49338 0.50403
#
# Static dielectric constant tensor:
#      x y z
#    x 3.997870 0.000000 0.575810 
#    y 0.000000 3.776610 0.000000 
#    z 0.575810 0.000000 3.191910 
# 
# 
# High freq. dielectric constant tensor:
#      x y z
#    x 1.841570 0.000000 0.038430 
#    y 0.000000 1.826170 0.000000 
#    z 0.038430 0.000000 1.759720 
# 
# From -- ./inp_files/66652.got.cif
#   From: 2010.06.25/outbox.cif.g09.slc.cpg/sg10_34_cif.got.tgz:66652.got - 2010.06.27 22:07:45.
