data_PCOD8057801
_publ_section_title
;
Structure prediction by ZEFSAII (Michael W. Deem and Ramdas Pophale) SiO2 
 PCOD8057801
Probable space group: P 2/M
;
_chemical_formula_sum "Si O2"
_cell_formula_units_Z 32
_cell_length_a 14.102266
_cell_length_b 9.130257
_cell_length_c 16.668968
_cell_angle_alpha 90.000000
_cell_angle_beta 82.517901
_cell_angle_gamma 90.000000
_cell_volume 2127.977470
_symmetry_space_group_name_H-M "P 2/M"
_symmetry_group_IT_number 10
_symmetry_cell_setting 'monoclinic'
loop_
_space_group_symop_operation_xyz
x,y,z
-x,y,-z
-x,-y,-z
x,-y,z
loop_
_atom_site_type_symbol
_atom_site_label
_atom_site_fract_x
_atom_site_fract_y
_atom_site_fract_z
Si Si1 0.867945 0.671856 0.036864
Si Si2 0.720988 0.671085 0.480246
Si Si3 0.954340 0.828281 0.898289
Si Si4 0.920032 0.828744 0.445883
Si Si5 0.233577 0.669329 0.798721
Si Si6 0.605817 0.669289 0.332707
Si Si7 0.060875 0.831406 0.735963
Si Si8 0.557508 0.834606 0.576029
O O1 0.888506 0.500000 0.024298
O O2 0.775113 0.699277 0.104045
O O3 0.954015 0.752442 0.072274
O O4 0.861006 0.748261 0.948928
O O5 0.726416 0.500000 0.497621
O O6 0.825516 0.738421 0.474838
O O7 0.677486 0.704797 0.397830
O O8 0.655356 0.744400 0.556173
O O9 0.966052 0.799676 0.801264
O O10 0.950470 0.000000 0.918720
O O11 0.961470 0.789358 0.353232
O O12 0.000000 0.779713 0.500000
O O13 0.895551 0.000000 0.456193
O O14 0.216526 0.500000 0.781777
O O15 0.338941 0.714078 0.755484
O O16 0.153351 0.747785 0.755999
O O17 0.575512 0.500000 0.337532
O O18 0.508957 0.763389 0.347893
O O19 0.088938 0.000000 0.740959
O O20 0.500000 0.827971 0.500000
O O21 0.582281 0.000000 0.598350
#
# Coordination Sequence:
#
# PCOD8057801 Si02
#       8
#     4   4   4   4   4   4   4   4
#     4   9  15  22  33  50  71  96 125 154 185 222
#     4  10  18  29  44  58  75 100 130 165 201 237
#     4   9  15  23  34  48  68  93 124 158 189 224
#     4  10  20  32  44  58  77 101 132 171 210 242
#     4   9  16  25  37  54  77 103 129 158 191 226
#     4   9  16  26  39  57  79 103 130 160 193 229
#     4   9  17  27  39  53  70  97 130 163 199 235
#     4   9  17  27  40  58  78 100 128 160 193 232
#
# _framework density 15.037753
#
# number of rings (size 3 to 8) (size 9 to 14) (size 15 to 20)
#    0.000    2.750    1.250    2.250    0.000    3.750 
#    0.000    0.000    0.000    0.000    0.000    0.000 
#    0.000    0.000    0.000    1.125    0.000   23.500 
#
# Total GULP energy -396474.489559 kJ/mol
# GULP energy per Si atom -12389.827799 kJ/mol
# Density = 1.500353 g / cm^3
# Si number density = 15.037753 Si / 1000 Ang^3
#
#
#
# Elastic Constant Matrix: (Units=GPa)
#
#
# Indices 1 2 3 4 5 6 
#
# 1 68.2971 45.8327 57.0015 0.0000 -28.1335 0.0000
# 2 45.8327 83.5501 47.7307 0.0000 -21.0684 0.0000
# 3 57.0015 47.7307 104.3121 0.0000 -38.4033 0.0000
# 4 0.0000 0.0000 0.0000 -7.1881 0.0000 -5.1680
# 5 -28.1335 -21.0684 -38.4033 0.0000 28.2884 0.0000
# 6 0.0000 0.0000 0.0000 -5.1680 0.0000 20.8288
#
#
#
# Elastic Compliance Matrix: (Units=1/GPa)
#
#
# Indices 1 2 3 4 5 6 
#
# 1 0.035433 -0.010473 -0.008933 0.000000 0.015312 0.000000
# 2 -0.010473 0.019530 -0.003385 0.000000 -0.000465 0.000000
# 3 -0.008933 -0.003385 0.023627 0.000000 0.020669 0.000000
# 4 0.000000 0.000000 0.000000 -0.118059 0.000000 -0.029293
# 5 0.015312 -0.000465 0.020669 0.000000 0.078292 0.000000
# 6 0.000000 0.000000 0.000000 -0.029293 0.000000 0.040742
#
#
# Mechanical properties :
#
#
# Convention : Reuss Voigt Hill
#
# Bulk Modulus (GPa) = 30.29561 61.92099 46.10830
# Shear Modulus (GPa) = 36.72417 15.42546 26.07481
#
# Velocity S-wave (km/s) = 4.94715 3.20626 4.16860
# Velocity P-wave (km/s) = 7.26791 7.41439 7.34152
#
# Compressibility (1/GPa) = 0.03300808
#
# Stress axis : x y z
#
# Youngs Moduli (GPa) = 28.22223 51.20219 42.32512
#
# Poissons Ratio (x) = 0.53624 0.37810
# Poissons Ratio (y) = 0.29557 0.14327
# Poissons Ratio (z) = 0.25211 0.17332
#
# Static dielectric constant tensor:
#      x y z
#    x 2.672460 0.000000 -0.659500 
#    y 0.000000 3.026710 0.000000 
#    z -0.659500 0.000000 3.496160 
# 
# 
# High freq. dielectric constant tensor:
#      x y z
#    x 1.525680 0.000000 -0.053810 
#    y 0.000000 1.589260 0.000000 
#    z -0.053810 0.000000 1.562560 
# 
# From -- ./inp_files/75980.got.cif
#   From: 2010.06.25/outbox.cif.g09.slc.cpg/sg10_38_cif.got.tgz:75980.got - 2010.06.27 22:07:45.
