data_PCOD8057973
_publ_section_title
;
Structure prediction by ZEFSAII (Michael W. Deem and Ramdas Pophale) SiO2 
 PCOD8057973
Probable space group: P 2/M
;
_chemical_formula_sum "Si O2"
_cell_formula_units_Z 30
_cell_length_a 26.521071
_cell_length_b 12.232459
_cell_length_c 26.540577
_cell_angle_alpha 90.000000
_cell_angle_beta 168.786043
_cell_angle_gamma 90.000000
_cell_volume 1674.461533
_symmetry_space_group_name_H-M "P 2/M"
_symmetry_group_IT_number 10
_symmetry_cell_setting 'monoclinic'
loop_
_space_group_symop_operation_xyz
x,y,z
-x,y,-z
-x,-y,-z
x,-y,z
loop_
_atom_site_type_symbol
_atom_site_label
_atom_site_fract_x
_atom_site_fract_y
_atom_site_fract_z
Si Si1 0.316521 0.752675 0.673943
Si Si2 0.836953 0.628284 0.162503
Si Si3 0.267882 0.260094 0.733682
Si Si4 0.946683 0.629851 0.063776
Si Si5 0.267300 0.500000 0.734319
Si Si6 0.889801 0.252799 0.113627
Si Si7 0.522919 0.629553 0.466318
Si Si8 0.630561 0.127938 0.374963
O O1 0.293067 0.810181 0.706738
O O2 0.325005 0.848264 0.640745
O O3 0.070375 0.675609 0.423866
O O4 0.573986 0.681014 0.923983
O O5 0.822069 0.500000 0.157237
O O6 0.881151 0.651874 0.146899
O O7 0.283242 0.382347 0.722721
O O8 0.000000 0.236474 0.500000
O O9 0.500000 0.235263 0.000000
O O10 0.942794 0.500000 0.068232
O O11 0.907306 0.687300 0.078045
O O12 0.214667 0.671370 0.302447
O O13 0.719781 0.669488 0.804312
O O14 0.000000 0.500000 0.500000
O O15 0.500000 0.500000 0.000000
O O16 0.137486 0.176503 0.364568
O O17 0.634308 0.179841 0.865054
O O18 0.500000 0.679699 0.500000
O O19 0.527247 0.500000 0.474067
O O20 0.618764 0.000000 0.372070
#
# Coordination Sequence:
#
# PCOD8057973 Si02
#       8
#     4   4   4   4   2   4   4   4
#     4  10  21  34  51  73  94 131 166 193 243 297
#     4  10  20  32  48  71 103 133 160 196 233 295
#     4  10  19  32  46  66  95 126 157 197 232 276
#     4  10  18  29  48  73 109 146 171 208 246 288
#     4   8  16  26  38  58  84 118 150 174 214 256
#     4  10  20  34  52  78 101 127 168 202 256 308
#     4   9  17  28  43  68 105 151 189 208 232 274
#     4  10  21  38  57  74  97 124 160 214 261 303
#
# _framework density 17.916208000000001
#
# number of rings (size 3 to 8) (size 9 to 14) (size 15 to 20)
#    0.000    2.267    0.000    3.200    1.867    1.600 
#    2.400    4.000    0.000    0.800    0.000    0.000 
#    0.000   37.333    0.000    0.000    0.000    0.000 
#
# Total GULP energy -371860.984893 kJ/mol
# GULP energy per Si atom -12395.366163 kJ/mol
# Density = 1.787543 g / cm^3
# Si number density = 17.916208 Si / 1000 Ang^3
#
#
#
# Elastic Constant Matrix: (Units=GPa)
#
#
# Indices 1 2 3 4 5 6 
#
# 1 129.9693 21.8951 35.1383 0.0000 -21.5883 0.0000
# 2 21.8951 44.8671 24.4944 0.0000 -6.1781 0.0000
# 3 35.1383 24.4944 140.1787 0.0000 -13.8190 0.0000
# 4 0.0000 0.0000 0.0000 15.0801 0.0000 -0.3261
# 5 -21.5883 -6.1781 -13.8190 0.0000 15.6979 0.0000
# 6 0.0000 0.0000 0.0000 -0.3261 0.0000 13.4698
#
#
#
# Elastic Compliance Matrix: (Units=1/GPa)
#
#
# Indices 1 2 3 4 5 6 
#
# 1 0.010505 -0.002917 -0.000890 0.000000 0.012515 0.000000
# 2 -0.002917 0.026063 -0.003512 0.000000 0.003154 0.000000
# 3 -0.000890 -0.003512 0.008447 0.000000 0.004830 0.000000
# 4 0.000000 0.000000 0.000000 0.066347 0.000000 0.001606
# 5 0.012515 0.003154 0.004830 0.000000 0.086407 0.000000
# 6 0.000000 0.000000 0.000000 0.001606 0.000000 0.074279
#
#
# Mechanical properties :
#
#
# Convention : Reuss Voigt Hill
#
# Bulk Modulus (GPa) = 32.91994 53.11896 43.01945
# Shear Modulus (GPa) = 16.84567 24.41539 20.63053
#
# Velocity S-wave (km/s) = 3.06967 3.69556 3.39706
# Velocity P-wave (km/s) = 5.56580 6.92260 6.28095
#
# Compressibility (1/GPa) = 0.03037672
#
# Stress axis : x y z
#
# Youngs Moduli (GPa) = 95.19293 38.36806 118.39104
#
# Poissons Ratio (x) = 0.11193 0.10533
# Poissons Ratio (y) = 0.27771 0.41579
# Poissons Ratio (z) = 0.08469 0.13475
#
# Static dielectric constant tensor:
#      x y z
#    x 3.390560 0.000000 -0.005450 
#    y 0.000000 2.985630 0.000000 
#    z -0.005450 0.000000 3.644320 
# 
# 
# High freq. dielectric constant tensor:
#      x y z
#    x 1.700970 0.000000 0.001090 
#    y 0.000000 1.642290 0.000000 
#    z 0.001090 0.000000 1.722400 
# 
# From -- ./inp_files/94074.got.cif
#   From: 2010.06.25/outbox.cif.g09.slc.cpg/sg10_48_cif.got.tgz:94074.got - 2010.06.27 22:07:45.
