data_PCOD8057119
_publ_section_title
;
Structure prediction by ZEFSAII (Michael W. Deem and Ramdas Pophale) SiO2 
 PCOD8057119
Probable space group: P 2/M
;
_chemical_formula_sum "Si O2"
_cell_formula_units_Z 24
_cell_length_a 12.152100
_cell_length_b 9.265254
_cell_length_c 21.679110
_cell_angle_alpha 90.000000
_cell_angle_beta 142.799912
_cell_angle_gamma 90.000000
_cell_volume 1475.769394
_symmetry_space_group_name_H-M "P 2/M"
_symmetry_group_IT_number 10
_symmetry_cell_setting 'monoclinic'
loop_
_space_group_symop_operation_xyz
x,y,z
-x,y,-z
-x,-y,-z
x,-y,z
loop_
_atom_site_type_symbol
_atom_site_label
_atom_site_fract_x
_atom_site_fract_y
_atom_site_fract_z
Si Si1 0.250033 0.833524 0.778949
Si Si2 0.256418 0.332883 0.335188
Si Si3 0.662120 0.666533 0.489448
Si Si4 0.421650 0.336702 0.033448
Si Si5 0.907491 0.167332 0.156524
Si Si6 0.954311 0.169899 0.548345
O O1 0.433148 0.739032 0.856568
O O2 0.147004 0.808474 0.797045
O O3 0.118261 0.779928 0.665772
O O4 0.305922 0.000000 0.796018
O O5 0.198118 0.500000 0.305500
O O6 0.275797 0.284469 0.414835
O O7 0.446759 0.307189 0.385193
O O8 0.105980 0.235380 0.234512
O O9 0.710237 0.500000 0.501016
O O10 0.765573 0.758391 0.484311
O O11 0.386999 0.500000 0.040492
O O12 0.500000 0.333898 0.000000
O O13 0.233751 0.247981 0.951598
O O14 0.910866 0.000000 0.139858
O O15 0.000000 0.221387 0.500000
O O16 0.925744 0.000000 0.539734
#
# Coordination Sequence:
#
# PCOD8057119 Si02
#       6
#     4   4   4   4   4   4
#     4   9  17  29  42  61  90 121 152 188 225 265
#     4   9  17  29  45  66  93 123 151 187 231 274
#     4   9  18  31  46  65  91 122 156 191 229 270
#     4   9  17  27  41  62  88 119 150 184 226 274
#     4  10  17  26  43  67  92 121 151 183 225 276
#     4  10  20  33  48  67  93 125 159 193 228 265
#
# _framework density 16.262702999999998
#
# number of rings (size 3 to 8) (size 9 to 14) (size 15 to 20)
#    0.000    2.667    1.667    2.000    0.000    4.333 
#    0.000    1.667    0.000    0.000    0.000    1.167 
#    0.000    9.333    0.000    0.000    0.000    0.000 
#
# Total GULP energy -297614.256032 kJ/mol
# GULP energy per Si atom -12400.594001 kJ/mol
# Density = 1.622569 g / cm^3
# Si number density = 16.262703 Si / 1000 Ang^3
#
#
#
# Elastic Constant Matrix: (Units=GPa)
#
#
# Indices 1 2 3 4 5 6 
#
# 1 73.0809 38.6174 39.1144 0.0000 10.8004 0.0000
# 2 38.6174 86.8481 54.0176 0.0000 19.2777 0.0000
# 3 39.1144 54.0176 98.2666 0.0000 24.0412 0.0000
# 4 0.0000 0.0000 0.0000 30.7572 0.0000 10.1003
# 5 10.8004 19.2777 24.0412 0.0000 24.0622 0.0000
# 6 0.0000 0.0000 0.0000 10.1003 0.0000 20.6672
#
#
#
# Elastic Compliance Matrix: (Units=1/GPa)
#
#
# Indices 1 2 3 4 5 6 
#
# 1 0.019096 -0.005786 -0.004576 0.000000 0.000636 0.000000
# 2 -0.005786 0.019891 -0.007104 0.000000 -0.006241 0.000000
# 3 -0.004576 -0.007104 0.018540 0.000000 -0.010778 0.000000
# 4 0.000000 0.000000 0.000000 0.038728 0.000000 -0.018927
# 5 0.000636 -0.006241 -0.010778 0.000000 0.057042 0.000000
# 6 0.000000 0.000000 0.000000 -0.018927 0.000000 0.057636
#
#
# Mechanical properties :
#
#
# Convention : Reuss Voigt Hill
#
# Bulk Modulus (GPa) = 44.25908 57.96605 51.11256
# Shear Modulus (GPa) = 19.73183 23.52706 21.62945
#
# Velocity S-wave (km/s) = 3.48705 3.80766 3.65088
# Velocity P-wave (km/s) = 6.59446 7.41970 7.01922
#
# Compressibility (1/GPa) = 0.02259423
#
# Stress axis : x y z
#
# Youngs Moduli (GPa) = 52.36644 50.27350 53.93728
#
# Poissons Ratio (x) = 0.29089 0.24682
# Poissons Ratio (y) = 0.30301 0.38319
# Poissons Ratio (z) = 0.23963 0.35716
#
# Static dielectric constant tensor:
#      x y z
#    x 2.701340 0.000000 0.182820 
#    y 0.000000 3.077440 0.000000 
#    z 0.182820 0.000000 3.098350 
# 
# 
# High freq. dielectric constant tensor:
#      x y z
#    x 1.578040 0.000000 0.028750 
#    y 0.000000 1.631210 0.000000 
#    z 0.028750 0.000000 1.622970 
# 
# From -- ./inp_files/48432.got.cif
#   From: 2010.06.25/outbox.cif.g09.slc.cpg/sg10_25_cif.got.tgz:48432.got - 2010.06.27 22:07:45.
