data_PCOD8057600
_publ_section_title
;
Structure prediction by ZEFSAII (Michael W. Deem and Ramdas Pophale) SiO2 
 PCOD8057600
Probable space group: P 2/M
;
_chemical_formula_sum "Si O2"
_cell_formula_units_Z 32
_cell_length_a 17.476438
_cell_length_b 9.322732
_cell_length_c 23.562755
_cell_angle_alpha 90.000000
_cell_angle_beta 149.194291
_cell_angle_gamma 90.000000
_cell_volume 1966.079570
_symmetry_space_group_name_H-M "P 2/M"
_symmetry_group_IT_number 10
_symmetry_cell_setting 'monoclinic'
loop_
_space_group_symop_operation_xyz
x,y,z
-x,y,-z
-x,-y,-z
x,-y,z
loop_
_atom_site_type_symbol
_atom_site_label
_atom_site_fract_x
_atom_site_fract_y
_atom_site_fract_z
Si Si1 0.101119 0.835270 0.446977
Si Si2 0.645111 0.333565 0.824825
Si Si3 0.061415 0.168324 0.978433
Si Si4 0.253287 0.162142 0.430090
Si Si5 0.884555 0.658556 0.374770
Si Si6 0.671081 0.332636 0.331536
Si Si7 0.205114 0.834720 0.271741
Si Si8 0.449450 0.669512 0.361436
O O1 0.122622 0.817212 0.393240
O O2 0.239562 0.759050 0.565591
O O3 0.940957 0.766868 0.362167
O O4 0.099258 0.000000 0.464831
O O5 0.686346 0.500000 0.853585
O O6 0.503762 0.297198 0.774715
O O7 0.609695 0.286055 0.738090
O O8 0.783701 0.245264 0.937268
O O9 0.943822 0.214984 0.855543
O O10 0.091853 0.000000 0.998100
O O11 0.000000 0.221049 0.000000
O O12 0.178360 0.189649 0.321360
O O13 0.383916 0.274075 0.524648
O O14 0.318468 0.000000 0.475083
O O15 0.873905 0.500000 0.340897
O O16 0.725555 0.703688 0.301792
O O17 0.000000 0.659791 0.500000
O O18 0.702079 0.500000 0.365197
O O19 0.345075 0.739685 0.342310
O O20 0.241387 0.000000 0.280235
O O21 0.450907 0.500000 0.370899
#
# Coordination Sequence:
#
# PCOD8057600 Si02
#       8
#     4   4   4   4   4   4   4   4
#     4  10  18  27  43  68  95 122 155 190 226 269
#     4  10  20  32  49  71  96 124 153 192 238 278
#     4  10  20  34  52  70  88 118 161 202 236 277
#     4  10  21  34  48  67  95 132 161 188 232 283
#     4   8  15  27  44  63  90 126 155 179 222 282
#     4   9  17  31  46  65  94 127 155 181 227 285
#     4  10  21  37  51  65  92 127 162 197 236 281
#     4  11  21  32  49  72  96 123 158 198 234 273
#
# _framework density 16.276045
#
# number of rings (size 3 to 8) (size 9 to 14) (size 15 to 20)
#    0.000    2.250    2.500    1.875    0.000    6.500 
#    0.000    0.000    0.000    0.000    0.000    0.875 
#    0.000    7.000    0.000    0.000    0.000    0.000 
#
# Total GULP energy -396788.099792 kJ/mol
# GULP energy per Si atom -12399.628119 kJ/mol
# Density = 1.623900 g / cm^3
# Si number density = 16.276045 Si / 1000 Ang^3
#
#
#
# Elastic Constant Matrix: (Units=GPa)
#
#
# Indices 1 2 3 4 5 6 
#
# 1 127.5792 52.6557 45.8202 0.0000 13.2974 0.0000
# 2 52.6557 67.6205 32.4000 0.0000 3.1120 0.0000
# 3 45.8202 32.4000 58.4923 0.0000 1.0036 0.0000
# 4 0.0000 0.0000 0.0000 20.7140 0.0000 6.8623
# 5 13.2974 3.1120 1.0036 0.0000 22.0560 0.0000
# 6 0.0000 0.0000 0.0000 6.8623 0.0000 25.5552
#
#
#
# Elastic Compliance Matrix: (Units=1/GPa)
#
#
# Indices 1 2 3 4 5 6 
#
# 1 0.014069 -0.007358 -0.006823 0.000000 -0.007134 0.000000
# 2 -0.007358 0.024101 -0.007609 0.000000 0.001382 0.000000
# 3 -0.006823 -0.007609 0.026588 0.000000 0.003977 0.000000
# 4 0.000000 0.000000 0.000000 0.052991 0.000000 -0.014229
# 5 -0.007134 0.001382 0.003977 0.000000 0.049264 0.000000
# 6 0.000000 0.000000 0.000000 -0.014229 0.000000 0.042952
#
#
# Mechanical properties :
#
#
# Convention : Reuss Voigt Hill
#
# Bulk Modulus (GPa) = 47.22211 57.27153 52.24682
# Shear Modulus (GPa) = 19.18621 21.85278 20.51949
#
# Velocity S-wave (km/s) = 3.43709 3.66817 3.55451
# Velocity P-wave (km/s) = 6.69535 7.29415 7.00116
#
# Compressibility (1/GPa) = 0.02117652
#
# Stress axis : x y z
#
# Youngs Moduli (GPa) = 71.07748 41.49280 37.61116
#
# Poissons Ratio (x) = 0.30531 0.25662
# Poissons Ratio (y) = 0.52299 0.28620
# Poissons Ratio (z) = 0.48496 0.31574
#
# Static dielectric constant tensor:
#      x y z
#    x 3.371750 0.000000 0.130070 
#    y 0.000000 3.104700 0.000000 
#    z 0.130070 0.000000 2.818460 
# 
# 
# High freq. dielectric constant tensor:
#      x y z
#    x 1.631470 0.000000 0.012760 
#    y 0.000000 1.630740 0.000000 
#    z 0.012760 0.000000 1.586740 
# 
# From -- ./inp_files/52800.got.cif
#   From: 2010.06.25/outbox.cif.g09.slc.cpg/sg10_27_cif.got.tgz:52800.got - 2010.06.27 22:07:45.
