data_PCOD8057309
_publ_section_title
;
Structure prediction by ZEFSAII (Michael W. Deem and Ramdas Pophale) SiO2 
 PCOD8057309
Probable space group: P 2/M
;
_chemical_formula_sum "Si O2"
_cell_formula_units_Z 32
_cell_length_a 14.394076
_cell_length_b 8.475129
_cell_length_c 14.408220
_cell_angle_alpha 90.000000
_cell_angle_beta 74.249099
_cell_angle_gamma 90.000000
_cell_volume 1691.683266
_symmetry_space_group_name_H-M "P 2/M"
_symmetry_group_IT_number 10
_symmetry_cell_setting 'monoclinic'
loop_
_space_group_symop_operation_xyz
x,y,z
-x,y,-z
-x,-y,-z
x,-y,z
loop_
_atom_site_type_symbol
_atom_site_label
_atom_site_fract_x
_atom_site_fract_y
_atom_site_fract_z
Si Si1 0.504592 0.310870 0.392558
Si Si2 0.707012 0.676615 0.284910
Si Si3 0.114043 0.314109 0.876154
Si Si4 0.692018 0.312681 0.640331
Si Si5 0.815946 0.322736 0.439908
Si Si6 0.177562 0.681786 0.233381
Si Si7 0.090778 0.817224 0.080466
Si Si8 0.991167 0.179174 0.610853
O O1 0.500000 0.247800 0.500000
O O2 0.508539 0.500000 0.393393
O O3 0.600289 0.244291 0.312909
O O4 0.413934 0.246920 0.356674
O O5 0.698644 0.500000 0.247553
O O6 0.790575 0.759294 0.199974
O O7 0.733159 0.675690 0.385841
O O8 0.104148 0.500000 0.858381
O O9 0.018154 0.230839 0.860801
O O10 0.123546 0.283876 0.983079
O O11 0.691102 0.500000 0.629489
O O12 0.770206 0.246263 0.545418
O O13 0.726297 0.264642 0.735195
O O14 0.853894 0.500000 0.448444
O O15 0.903405 0.217581 0.376879
O O16 0.185000 0.500000 0.202121
O O17 0.165187 0.784671 0.143947
O O18 0.086394 0.703282 0.325226
O O19 0.093494 0.000000 0.053061
O O20 0.000000 0.211925 0.500000
O O21 0.962157 0.000000 0.643137
#
# Coordination Sequence:
#
# PCOD8057309 Si02
#       8
#     4   4   4   4   4   4   4   4
#     4   9  14  25  45  74 110 138 166 210 259 305
#     4   9  17  27  48  78 107 134 165 209 261 309
#     4  10  19  34  55  83 111 137 170 213 261 311
#     4   9  17  27  45  72 103 137 172 207 251 302
#     4  10  17  29  47  72 101 136 173 206 247 302
#     4  11  21  34  51  73 101 138 177 216 258 306
#     4  11  22  37  56  78 103 137 176 216 265 316
#     4  11  22  32  43  66 100 138 173 208 249 300
#
# _framework density 18.916069
#
# number of rings (size 3 to 8) (size 9 to 14) (size 15 to 20)
#    0.000    2.000    2.500    3.750    0.000    1.500 
#    0.000    0.625    0.000    0.750    0.000   14.000 
#    0.000    0.000    0.000    0.000    0.000    0.000 
#
# Total GULP energy -396631.889948 kJ/mol
# GULP energy per Si atom -12394.746561 kJ/mol
# Density = 1.887302 g / cm^3
# Si number density = 18.916069 Si / 1000 Ang^3
#
#
#
# Elastic Constant Matrix: (Units=GPa)
#
#
# Indices 1 2 3 4 5 6 
#
# 1 129.9853 7.9372 45.7806 0.0000 5.9873 0.0000
# 2 7.9372 32.3043 5.3918 0.0000 3.2987 0.0000
# 3 45.7806 5.3918 72.1121 0.0000 2.7219 0.0000
# 4 0.0000 0.0000 0.0000 10.7457 0.0000 4.0960
# 5 5.9873 3.2987 2.7219 0.0000 32.0920 0.0000
# 6 0.0000 0.0000 0.0000 4.0960 0.0000 3.7406
#
#
#
# Elastic Compliance Matrix: (Units=1/GPa)
#
#
# Indices 1 2 3 4 5 6 
#
# 1 0.010018 -0.001300 -0.006217 0.000000 -0.001208 0.000000
# 2 -0.001300 0.031813 -0.001443 0.000000 -0.002905 0.000000
# 3 -0.006217 -0.001443 0.017930 0.000000 -0.000213 0.000000
# 4 0.000000 0.000000 0.000000 0.159728 0.000000 -0.174901
# 5 -0.001208 -0.002905 -0.000213 0.000000 0.031702 0.000000
# 6 0.000000 0.000000 0.000000 -0.174901 0.000000 0.458849
#
#
# Mechanical properties :
#
#
# Convention : Reuss Voigt Hill
#
# Bulk Modulus (GPa) = 23.90113 39.18010 31.54062
# Shear Modulus (GPa) = 6.73938 21.00180 13.87059
#
# Velocity S-wave (km/s) = 1.88958 3.33568 2.71083
# Velocity P-wave (km/s) = 4.17414 5.96600 5.14863
#
# Compressibility (1/GPa) = 0.04183902
#
# Stress axis : x y z
#
# Youngs Moduli (GPa) = 99.82168 31.43398 55.77197
#
# Poissons Ratio (x) = 0.04088 0.34674
# Poissons Ratio (y) = 0.12981 0.08050
# Poissons Ratio (z) = 0.62060 0.04537
#
# Static dielectric constant tensor:
#      x y z
#    x 3.712350 0.000000 0.032340 
#    y 0.000000 3.077800 0.000000 
#    z 0.032340 0.000000 3.374830 
# 
# 
# High freq. dielectric constant tensor:
#      x y z
#    x 1.732340 0.000000 0.008110 
#    y 0.000000 1.696800 0.000000 
#    z 0.008110 0.000000 1.719640 
# 
# From -- ./inp_files/66066.got.cif
#   From: 2010.06.25/outbox.cif.g09.slc.cpg/sg10_34_cif.got.tgz:66066.got - 2010.06.27 22:07:45.
