data_PCOD8057836
_publ_section_title
;
Structure prediction by ZEFSAII (Michael W. Deem and Ramdas Pophale) SiO2 
 PCOD8057836
Probable space group: P 2/M
;
_chemical_formula_sum "Si O2"
_cell_formula_units_Z 32
_cell_length_a 14.672939
_cell_length_b 9.156852
_cell_length_c 13.876822
_cell_angle_alpha 90.000000
_cell_angle_beta 89.941602
_cell_angle_gamma 90.000000
_cell_volume 1864.460122
_symmetry_space_group_name_H-M "P 2/M"
_symmetry_group_IT_number 10
_symmetry_cell_setting 'monoclinic'
loop_
_space_group_symop_operation_xyz
x,y,z
-x,y,-z
-x,-y,-z
x,-y,z
loop_
_atom_site_type_symbol
_atom_site_label
_atom_site_fract_x
_atom_site_fract_y
_atom_site_fract_z
Si Si1 0.531262 0.665836 0.690404
Si Si2 0.799292 0.838914 0.671304
Si Si3 0.667321 0.172885 0.828746
Si Si4 0.893584 0.332045 0.514181
Si Si5 0.335952 0.335159 0.778221
Si Si6 0.376729 0.160476 0.460949
Si Si7 0.605155 0.327468 0.010720
Si Si8 0.756658 0.827600 0.378488
O O1 0.567795 0.500000 0.692102
O O2 0.583975 0.757175 0.770654
O O3 0.425611 0.672777 0.713401
O O4 0.546367 0.732132 0.582742
O O5 0.765845 0.791791 0.778627
O O6 0.868520 0.726262 0.621337
O O7 0.706700 0.845500 0.612086
O O8 0.845112 0.000000 0.672941
O O9 0.651221 0.000000 0.834065
O O10 0.668156 0.242508 0.934672
O O11 0.863606 0.500000 0.507881
O O12 0.843821 0.244102 0.429393
O O13 0.000000 0.310975 0.500000
O O14 0.298625 0.500000 0.782157
O O15 0.357863 0.278748 0.885171
O O16 0.257832 0.235289 0.729125
O O17 0.335505 0.213231 0.562658
O O18 0.420714 0.000000 0.470725
O O19 0.614263 0.500000 0.993992
O O20 0.500000 0.279500 0.000000
O O21 0.773573 0.000000 0.375045
#
# Coordination Sequence:
#
# PCOD8057836 Si02
#       8
#     4   4   4   4   4   4   4   4
#     4  10  18  29  45  65  90 127 169 207 247 288
#     4   8  16  30  47  71 102 131 160 196 241 292
#     4  10  19  30  46  70  98 128 167 213 251 286
#     4  10  20  34  55  82 106 127 156 194 237 293
#     4  10  21  34  47  65  94 129 168 212 249 287
#     4   8  16  30  44  63  92 125 162 202 239 280
#     4  10  19  34  50  67  94 130 174 217 255 293
#     4  10  21  35  50  69  97 130 162 198 242 295
#
# _framework density 17.163146000000001
#
# number of rings (size 3 to 8) (size 9 to 14) (size 15 to 20)
#    0.000    2.500    1.250    3.000    0.000    8.750 
#    0.000    2.500    0.000    0.000    0.000    0.875 
#    0.000    7.000    0.000    0.000    0.000    0.000 
#
# Total GULP energy -396661.627282 kJ/mol
# GULP energy per Si atom -12395.675853 kJ/mol
# Density = 1.712408 g / cm^3
# Si number density = 17.163146 Si / 1000 Ang^3
#
#
#
# Elastic Constant Matrix: (Units=GPa)
#
#
# Indices 1 2 3 4 5 6 
#
# 1 52.9423 41.7362 39.1627 0.0000 -5.9424 0.0000
# 2 41.7362 97.1543 60.4525 0.0000 0.0736 0.0000
# 3 39.1627 60.4525 119.0362 0.0000 -0.4158 0.0000
# 4 0.0000 0.0000 0.0000 59.1678 0.0000 27.5803
# 5 -5.9424 0.0736 -0.4158 0.0000 17.7804 0.0000
# 6 0.0000 0.0000 0.0000 27.5803 0.0000 56.5216
#
#
#
# Elastic Compliance Matrix: (Units=1/GPa)
#
#
# Indices 1 2 3 4 5 6 
#
# 1 0.032344 -0.010680 -0.005180 0.000000 0.010733 0.000000
# 2 -0.010680 0.018575 -0.005933 0.000000 -0.003785 0.000000
# 3 -0.005180 -0.005933 0.013113 0.000000 -0.001400 0.000000
# 4 0.000000 0.000000 0.000000 0.021877 0.000000 -0.010675
# 5 0.010733 -0.003785 -0.001400 0.000000 0.059812 0.000000
# 6 0.000000 0.000000 0.000000 -0.010675 0.000000 0.022901
#
#
# Mechanical properties :
#
#
# Convention : Reuss Voigt Hill
#
# Bulk Modulus (GPa) = 48.90642 61.31507 55.11075
# Shear Modulus (GPa) = 22.82853 35.21273 29.02063
#
# Velocity S-wave (km/s) = 3.65100 4.53443 4.11648
# Velocity P-wave (km/s) = 6.80661 7.95092 7.40091
#
# Compressibility (1/GPa) = 0.02044721
#
# Stress axis : x y z
#
# Youngs Moduli (GPa) = 30.91763 53.83473 76.25839
#
# Poissons Ratio (x) = 0.57493 0.39502
# Poissons Ratio (y) = 0.33019 0.45245
# Poissons Ratio (z) = 0.16015 0.31941
#
# Static dielectric constant tensor:
#      x y z
#    x 2.850520 0.000000 -0.262990 
#    y 0.000000 3.341410 0.000000 
#    z -0.262990 0.000000 3.539700 
# 
# 
# High freq. dielectric constant tensor:
#      x y z
#    x 1.618180 0.000000 -0.009450 
#    y 0.000000 1.670550 0.000000 
#    z -0.009450 0.000000 1.660700 
# 
# From -- ./inp_files/66162.got.cif
#   From: 2010.06.25/outbox.cif.g09.slc.cpg/sg10_34_cif.got.tgz:66162.got - 2010.06.27 22:07:45.
