data_PCOD8057730
_publ_section_title
;
Structure prediction by ZEFSAII (Michael W. Deem and Ramdas Pophale) SiO2 
 PCOD8057730
Probable space group: P 2/M
;
_chemical_formula_sum "Si O2"
_cell_formula_units_Z 32
_cell_length_a 30.344061
_cell_length_b 9.406356
_cell_length_c 21.645123
_cell_angle_alpha 90.000000
_cell_angle_beta 17.553997
_cell_angle_gamma 90.000000
_cell_volume 1863.343618
_symmetry_space_group_name_H-M "P 2/M"
_symmetry_group_IT_number 10
_symmetry_cell_setting 'monoclinic'
loop_
_space_group_symop_operation_xyz
x,y,z
-x,y,-z
-x,-y,-z
x,-y,z
loop_
_atom_site_type_symbol
_atom_site_label
_atom_site_fract_x
_atom_site_fract_y
_atom_site_fract_z
Si Si1 0.125455 0.668763 0.094173
Si Si2 0.140690 0.165448 0.594079
Si Si3 0.558531 0.341800 0.098446
Si Si4 0.650692 0.331427 0.103671
Si Si5 0.229107 0.340866 0.586416
Si Si6 0.465904 0.164084 0.113550
Si Si7 0.343695 0.668915 0.558864
Si Si8 0.661189 0.668719 0.298646
O O1 0.096351 0.500000 0.130341
O O2 0.974075 0.753543 0.295916
O O3 0.206207 0.714730 0.049605
O O4 0.222504 0.723288 0.906759
O O5 0.135345 0.233729 0.669833
O O6 0.296875 0.190951 0.354085
O O7 0.101752 0.000000 0.651449
O O8 0.607915 0.500000 0.012787
O O9 0.659849 0.282290 0.019380
O O10 0.394820 0.345328 0.342501
O O11 0.571011 0.242483 0.021940
O O12 0.635492 0.500000 0.125092
O O13 0.505728 0.267102 0.330052
O O14 0.160722 0.500000 0.672882
O O15 0.230524 0.284881 0.655799
O O16 0.508120 0.000000 0.061348
O O17 0.500000 0.224783 0.000000
O O18 0.355106 0.500000 0.542111
O O19 0.288844 0.720150 0.699607
O O20 0.500000 0.730753 0.500000
O O21 0.653701 0.500000 0.304504
#
# Coordination Sequence:
#
# PCOD8057730 Si02
#       8
#     4   4   4   4   4   4   4   4
#     4  10  18  28  46  69  94 124 154 184 221 266
#     4  10  20  33  47  64  90 119 148 183 224 272
#     4   8  14  25  44  71  96 114 140 180 223 264
#     4   8  13  23  41  67  95 120 146 182 224 260
#     4   8  14  26  45  65  87 115 148 187 226 264
#     4   9  18  33  52  71  89 112 145 185 226 266
#     4   8  12  21  40  67  92 112 145 195 235 256
#     4   9  14  22  40  69  96 116 149 194 230 257
#
# _framework density 17.173428999999999
#
# number of rings (size 3 to 8) (size 9 to 14) (size 15 to 20)
#    0.000    3.250    1.250    1.875    0.000    0.750 
#    0.000    1.250    0.000    6.375    0.000    5.250 
#    0.000    0.000    0.000    0.000    0.000    0.000 
#
# Total GULP energy -396539.620727 kJ/mol
# GULP energy per Si atom -12391.863148 kJ/mol
# Density = 1.713434 g / cm^3
# Si number density = 17.173429 Si / 1000 Ang^3
#
#
#
# Elastic Constant Matrix: (Units=GPa)
#
#
# Indices 1 2 3 4 5 6 
#
# 1 177.1895 52.3858 41.8452 0.0000 2.9832 0.0000
# 2 52.3858 51.4255 23.0724 0.0000 -3.9921 0.0000
# 3 41.8452 23.0724 32.0970 0.0000 -1.8874 0.0000
# 4 0.0000 0.0000 0.0000 14.4799 0.0000 -0.0551
# 5 2.9832 -3.9921 -1.8874 0.0000 25.8884 0.0000
# 6 0.0000 0.0000 0.0000 -0.0551 0.0000 3.9805
#
#
#
# Elastic Compliance Matrix: (Units=1/GPa)
#
#
# Indices 1 2 3 4 5 6 
#
# 1 0.009401 -0.006217 -0.007942 0.000000 -0.002621 0.000000
# 2 -0.006217 0.033038 -0.015367 0.000000 0.004691 0.000000
# 3 -0.007942 -0.015367 0.052696 0.000000 0.002387 0.000000
# 4 0.000000 0.000000 0.000000 0.069065 0.000000 0.000957
# 5 -0.002621 0.004691 0.002387 0.000000 0.039827 0.000000
# 6 0.000000 0.000000 0.000000 0.000957 0.000000 0.251239
#
#
# Mechanical properties :
#
#
# Convention : Reuss Voigt Hill
#
# Bulk Modulus (GPa) = 27.71401 55.03542 41.37472
# Shear Modulus (GPa) = 9.49946 18.43034 13.96490
#
# Velocity S-wave (km/s) = 2.35446 3.27951 2.85471
# Velocity P-wave (km/s) = 4.85429 6.81591 5.91696
#
# Compressibility (1/GPa) = 0.03608283
#
# Stress axis : x y z
#
# Youngs Moduli (GPa) = 106.36617 30.26827 18.97679
#
# Poissons Ratio (x) = 0.18819 0.15071
# Poissons Ratio (y) = 0.66133 0.29162
# Poissons Ratio (z) = 0.84472 0.46514
#
# Static dielectric constant tensor:
#      x y z
#    x 3.762080 0.000000 0.022190 
#    y 0.000000 2.845910 0.000000 
#    z 0.022190 0.000000 2.863790 
# 
# 
# High freq. dielectric constant tensor:
#      x y z
#    x 1.683390 0.000000 -0.002320 
#    y 0.000000 1.615190 0.000000 
#    z -0.002320 0.000000 1.619440 
# 
# From -- ./inp_files/87183.got.cif
#   From: 2010.06.25/outbox.cif.g09.slc.cpg/sg10_44_cif.got.tgz:87183.got - 2010.06.27 22:07:45.
