data_PCOD8057458
_publ_section_title
;
Structure prediction by ZEFSAII (Michael W. Deem and Ramdas Pophale) SiO2 
 PCOD8057458
Probable space group: P 2/M
;
_chemical_formula_sum "Si O2"
_cell_formula_units_Z 22
_cell_length_a 11.401080
_cell_length_b 12.674860
_cell_length_c 8.461789
_cell_angle_alpha 90.000000
_cell_angle_beta 84.799846
_cell_angle_gamma 90.000000
_cell_volume 1217.755721
_symmetry_space_group_name_H-M "P 2/M"
_symmetry_group_IT_number 10
_symmetry_cell_setting 'monoclinic'
loop_
_space_group_symop_operation_xyz
x,y,z
-x,y,-z
-x,-y,-z
x,-y,z
loop_
_atom_site_type_symbol
_atom_site_label
_atom_site_fract_x
_atom_site_fract_y
_atom_site_fract_z
Si Si1 0.000000 0.302890 0.000000
Si Si2 0.124347 0.790278 0.533574
Si Si3 0.365883 0.379331 0.014421
Si Si4 0.177345 0.000000 0.062856
Si Si5 0.197847 0.616694 0.758264
Si Si6 0.071514 0.000000 0.737276
Si Si7 0.202297 0.211799 0.179741
O O1 0.912416 0.375960 0.109375
O O2 0.073223 0.230462 0.114553
O O3 0.196729 0.706352 0.626926
O O4 0.197313 0.810079 0.366183
O O5 0.000000 0.738177 0.500000
O O6 0.101971 0.898259 0.629312
O O7 0.355564 0.500000 0.075125
O O8 0.317588 0.367655 0.842419
O O9 0.500000 0.340280 0.000000
O O10 0.290070 0.308531 0.142722
O O11 0.252341 0.105042 0.092740
O O12 0.064036 0.000000 0.193814
O O13 0.152045 0.000000 0.881064
O O14 0.195024 0.500000 0.681022
#
# Coordination Sequence:
#
# PCOD8057458 Si02
#       7
#     2   4   4   2   4   2   4
#     4  10  17  33  48  76 108 143 183 212 258 324
#     4  12  21  33  48  82 121 148 173 211 274 335
#     4   9  20  41  63  78  99 141 195 236 265 312
#     4  11  19  32  54  79 107 152 190 222 255 315
#     4  10  20  33  52  78 109 140 175 222 274 323
#     4  11  20  33  52  75 117 155 186 212 253 326
#     4  11  21  33  54  81 111 144 181 223 272 322
#
# _framework density 18.066020999999999
#
# number of rings (size 3 to 8) (size 9 to 14) (size 15 to 20)
#    0.000    1.455    3.636    4.364    0.000    1.818 
#    0.000    1.364    0.000    3.273    0.000    3.818 
#    0.000    0.000    0.000    0.000    0.000    0.000 
#
# Total GULP energy -272787.507737 kJ/mol
# GULP energy per Si atom -12399.432170 kJ/mol
# Density = 1.802490 g / cm^3
# Si number density = 18.066021 Si / 1000 Ang^3
#
#
#
# Elastic Constant Matrix: (Units=GPa)
#
#
# Indices 1 2 3 4 5 6 
#
# 1 86.6369 38.5820 30.9800 0.0000 5.3476 0.0000
# 2 38.5820 114.0672 46.7111 0.0000 10.3297 0.0000
# 3 30.9800 46.7111 109.1161 0.0000 13.7858 0.0000
# 4 0.0000 0.0000 0.0000 11.7354 0.0000 8.6832
# 5 5.3476 10.3297 13.7858 0.0000 15.7047 0.0000
# 6 0.0000 0.0000 0.0000 8.6832 0.0000 10.2380
#
#
#
# Elastic Compliance Matrix: (Units=1/GPa)
#
#
# Indices 1 2 3 4 5 6 
#
# 1 0.014080 -0.003778 -0.002349 0.000000 -0.000247 0.000000
# 2 -0.003778 0.011805 -0.003557 0.000000 -0.003356 0.000000
# 3 -0.002349 -0.003557 0.012324 0.000000 -0.007679 0.000000
# 4 0.000000 0.000000 0.000000 0.228782 0.000000 -0.194037
# 5 -0.000247 -0.003356 -0.007679 0.000000 0.072707 0.000000
# 6 0.000000 0.000000 0.000000 -0.194037 0.000000 0.262244
#
#
# Mechanical properties :
#
#
# Convention : Reuss Voigt Hill
#
# Bulk Modulus (GPa) = 53.07428 60.26292 56.66860
# Shear Modulus (GPa) = 7.96696 20.43877 14.20287
#
# Velocity S-wave (km/s) = 2.10226 3.36719 2.80690
# Velocity P-wave (km/s) = 5.94427 6.96755 6.47615
#
# Compressibility (1/GPa) = 0.01884152
#
# Stress axis : x y z
#
# Youngs Moduli (GPa) = 71.02184 84.70861 81.14038
#
# Poissons Ratio (x) = 0.32004 0.19060
# Poissons Ratio (y) = 0.26833 0.28861
# Poissons Ratio (z) = 0.16683 0.30130
#
# Static dielectric constant tensor:
#      x y z
#    x 3.150680 0.000000 0.230320 
#    y 0.000000 3.552510 0.000000 
#    z 0.230320 0.000000 3.306610 
# 
# 
# High freq. dielectric constant tensor:
#      x y z
#    x 1.659340 0.000000 0.020900 
#    y 0.000000 1.717380 0.000000 
#    z 0.020900 0.000000 1.696690 
# 
# From -- ./inp_files/23976.got.cif
#   From: 2010.06.25/outbox.cif.g09.slc.cpg/sg10_12_cif.got.tgz:23976.got - 2010.06.27 22:07:45.
