data_PCOD8057201
_publ_section_title
;
Structure prediction by ZEFSAII (Michael W. Deem and Ramdas Pophale) SiO2 
 PCOD8057201
Probable space group: P 2/M
;
_chemical_formula_sum "Si O2"
_cell_formula_units_Z 32
_cell_length_a 20.462606
_cell_length_b 9.137823
_cell_length_c 21.609847
_cell_angle_alpha 90.000000
_cell_angle_beta 26.002164
_cell_angle_gamma 90.000000
_cell_volume 1771.458434
_symmetry_space_group_name_H-M "P 2/M"
_symmetry_group_IT_number 10
_symmetry_cell_setting 'monoclinic'
loop_
_space_group_symop_operation_xyz
x,y,z
-x,y,-z
-x,-y,-z
x,-y,z
loop_
_atom_site_type_symbol
_atom_site_label
_atom_site_fract_x
_atom_site_fract_y
_atom_site_fract_z
Si Si1 0.523009 0.829764 0.549995
Si Si2 0.821018 0.832423 0.365152
Si Si3 0.687628 0.328523 0.588518
Si Si4 0.696928 0.168604 0.944993
Si Si5 0.384074 0.671338 0.778796
Si Si6 0.676624 0.665354 0.842539
Si Si7 0.349540 0.170254 0.256086
Si Si8 0.846108 0.830731 0.944368
O O1 0.500000 0.773181 0.500000
O O2 0.693632 0.797490 0.423476
O O3 0.409846 0.742269 0.689953
O O4 0.483110 0.000000 0.589950
O O5 0.805294 0.728462 0.437944
O O6 0.978149 0.802228 0.198426
O O7 0.810370 0.000000 0.397293
O O8 0.709936 0.500000 0.579500
O O9 0.521191 0.290082 0.707282
O O10 0.720864 0.246387 0.624085
O O11 0.749832 0.263032 0.841100
O O12 0.795081 0.219370 0.919561
O O13 0.723664 0.000000 0.905256
O O14 0.525661 0.198073 0.107170
O O15 0.364879 0.500000 0.785971
O O16 0.233625 0.735646 0.935564
O O17 0.735164 0.500000 0.785872
O O18 0.724318 0.757067 0.741628
O O19 0.500000 0.670424 0.000000
O O20 0.309116 0.000000 0.290871
O O21 0.803235 0.000000 0.991075
#
# Coordination Sequence:
#
# PCOD8057201 Si02
#       8
#     4   4   4   4   4   4   4   4
#     4   9  18  35  58  80 103 134 171 208 245 290
#     4   9  19  34  53  76 102 132 168 207 251 298
#     4  10  19  31  48  72 101 131 167 210 255 301
#     4   9  17  28  44  67  95 128 164 203 251 300
#     4  10  20  32  51  78 105 134 168 206 249 297
#     4   9  17  27  40  63  96 129 163 206 253 300
#     4  10  17  27  46  69  95 127 167 211 253 298
#     4  10  19  33  52  75 103 134 168 209 251 298
#
# _framework density 18.064209999999999
#
# number of rings (size 3 to 8) (size 9 to 14) (size 15 to 20)
#    0.000    2.500    1.250    1.500    0.000    4.250 
#    0.000    0.625    0.000    4.500    0.000    5.250 
#    0.000    0.000    0.000    0.000    0.000    0.000 
#
# Total GULP energy -396889.233415 kJ/mol
# GULP energy per Si atom -12402.788544 kJ/mol
# Density = 1.802310 g / cm^3
# Si number density = 18.064210 Si / 1000 Ang^3
#
#
#
# Elastic Constant Matrix: (Units=GPa)
#
#
# Indices 1 2 3 4 5 6 
#
# 1 106.9914 52.3434 54.9045 0.0000 29.3292 0.0000
# 2 52.3434 98.2398 53.3537 0.0000 22.3716 0.0000
# 3 54.9045 53.3537 93.8224 0.0000 16.8591 0.0000
# 4 0.0000 0.0000 0.0000 21.1602 0.0000 4.7233
# 5 29.3292 22.3716 16.8591 0.0000 28.6891 0.0000
# 6 0.0000 0.0000 0.0000 4.7233 0.0000 19.9389
#
#
#
# Elastic Compliance Matrix: (Units=1/GPa)
#
#
# Indices 1 2 3 4 5 6 
#
# 1 0.017248 -0.003202 -0.006208 0.000000 -0.011488 0.000000
# 2 -0.003202 0.016847 -0.006634 0.000000 -0.005965 0.000000
# 3 -0.006208 -0.006634 0.017882 0.000000 0.001012 0.000000
# 4 0.000000 0.000000 0.000000 0.049897 0.000000 -0.011820
# 5 -0.011488 -0.005965 0.001012 0.000000 0.050657 0.000000
# 6 0.000000 0.000000 0.000000 -0.011820 0.000000 0.052953
#
#
# Mechanical properties :
#
#
# Convention : Reuss Voigt Hill
#
# Bulk Modulus (GPa) = 50.28324 68.91743 59.60034
# Shear Modulus (GPa) = 20.47470 23.18778 21.83124
#
# Velocity S-wave (km/s) = 3.37031 3.58667 3.48017
# Velocity P-wave (km/s) = 6.56061 7.44221 7.01527
#
# Compressibility (1/GPa) = 0.01988734
#
# Stress axis : x y z
#
# Youngs Moduli (GPa) = 57.97725 59.35826 55.92066
#
# Poissons Ratio (x) = 0.19009 0.34717
# Poissons Ratio (y) = 0.18566 0.37100
# Poissons Ratio (z) = 0.35994 0.39381
#
# Static dielectric constant tensor:
#      x y z
#    x 3.271120 0.000000 0.130490 
#    y 0.000000 3.355430 0.000000 
#    z 0.130490 0.000000 3.089230 
# 
# 
# High freq. dielectric constant tensor:
#      x y z
#    x 1.686630 0.000000 0.018250 
#    y 0.000000 1.703490 0.000000 
#    z 0.018250 0.000000 1.676590 
# 
# From -- ./inp_files/86096.got.cif
#   From: 2010.06.25/outbox.cif.g09.slc.cpg/sg10_44_cif.got.tgz:86096.got - 2010.06.27 22:07:45.
