data_PCOD8057805
_publ_section_title
;
Structure prediction by ZEFSAII (Michael W. Deem and Ramdas Pophale) SiO2 
 PCOD8057805
Probable space group: P 2/M
;
_chemical_formula_sum "Si O2"
_cell_formula_units_Z 32
_cell_length_a 13.789933
_cell_length_b 8.930039
_cell_length_c 23.696078
_cell_angle_alpha 90.000000
_cell_angle_beta 136.002186
_cell_angle_gamma 90.000000
_cell_volume 2026.964286
_symmetry_space_group_name_H-M "P 2/M"
_symmetry_group_IT_number 10
_symmetry_cell_setting 'monoclinic'
loop_
_space_group_symop_operation_xyz
x,y,z
-x,y,-z
-x,-y,-z
x,-y,z
loop_
_atom_site_type_symbol
_atom_site_label
_atom_site_fract_x
_atom_site_fract_y
_atom_site_fract_z
Si Si1 0.507664 0.329564 0.098401
Si Si2 0.226841 0.172126 0.832748
Si Si3 0.797615 0.331030 0.069051
Si Si4 0.113274 0.171967 0.664931
Si Si5 0.324541 0.322545 0.669623
Si Si6 0.143926 0.323453 0.031374
Si Si7 0.423901 0.823223 0.176025
Si Si8 0.104310 0.334636 0.491489
O O1 0.533101 0.500000 0.129813
O O2 0.635993 0.273267 0.115236
O O3 0.492504 0.221580 0.145495
O O4 0.369906 0.322135 0.002797
O O5 0.148595 0.226966 0.857066
O O6 0.124589 0.195480 0.736823
O O7 0.271113 0.000000 0.857570
O O8 0.848648 0.500000 0.101630
O O9 0.860311 0.272241 0.035831
O O10 0.232587 0.267368 0.684177
O O11 0.957346 0.223522 0.581566
O O12 0.134620 0.000000 0.656565
O O13 0.339102 0.500000 0.681157
O O14 0.476656 0.245405 0.733692
O O15 0.251851 0.278615 0.579346
O O16 0.173289 0.500000 0.046950
O O17 0.268196 0.241914 0.116868
O O18 0.000000 0.276243 0.000000
O O19 0.418672 0.000000 0.179953
O O20 0.120215 0.500000 0.471202
O O21 0.000000 0.342568 0.500000
#
# Coordination Sequence:
#
# PCOD8057805 Si02
#       8
#     4   4   4   4   4   4   4   4
#     4  10  19  31  45  60  84 119 155 189 222 259
#     4  11  21  29  40  62  91 121 152 186 221 260
#     4   9  19  32  46  65  84 111 150 184 221 266
#     4  10  19  28  39  59  87 120 155 188 225 262
#     4  10  18  29  44  61  85 118 155 190 222 261
#     4   9  19  37  56  70  88 115 147 185 229 274
#     4  11  20  29  45  70  94 117 149 186 227 271
#     4   8  16  28  41  58  80 113 155 190 222 260
#
# _framework density 15.787156
#
# number of rings (size 3 to 8) (size 9 to 14) (size 15 to 20)
#    0.000    2.250    1.250    4.500    0.000    8.500 
#    0.000    0.000    0.000    0.000    0.000    0.000 
#    0.000    1.000    0.000   11.250    0.000    5.625 
#
# Total GULP energy -396723.148012 kJ/mol
# GULP energy per Si atom -12397.598375 kJ/mol
# Density = 1.575122 g / cm^3
# Si number density = 15.787156 Si / 1000 Ang^3
#
#
#
# Elastic Constant Matrix: (Units=GPa)
#
#
# Indices 1 2 3 4 5 6 
#
# 1 64.3520 31.9967 50.0282 0.0000 2.8009 0.0000
# 2 31.9967 89.5925 57.4269 0.0000 1.6082 0.0000
# 3 50.0282 57.4269 109.4089 0.0000 0.8441 0.0000
# 4 0.0000 0.0000 0.0000 25.0085 0.0000 -1.7309
# 5 2.8009 1.6082 0.8441 0.0000 14.9837 0.0000
# 6 0.0000 0.0000 0.0000 -1.7309 0.0000 14.1026
#
#
#
# Elastic Compliance Matrix: (Units=1/GPa)
#
#
# Indices 1 2 3 4 5 6 
#
# 1 0.024650 -0.002305 -0.010032 0.000000 -0.003795 0.000000
# 2 -0.002305 0.017062 -0.007894 0.000000 -0.000956 0.000000
# 3 -0.010032 -0.007894 0.017858 0.000000 0.001717 0.000000
# 4 0.000000 0.000000 0.000000 0.040329 0.000000 0.004950
# 5 -0.003795 -0.000956 0.001717 0.000000 0.067455 0.000000
# 6 0.000000 0.000000 0.000000 0.004950 0.000000 0.071517
#
#
# Mechanical properties :
#
#
# Convention : Reuss Voigt Hill
#
# Bulk Modulus (GPa) = 52.33725 60.25077 56.29401
# Shear Modulus (GPa) = 17.50077 19.07907 18.28992
#
# Velocity S-wave (km/s) = 3.33309 3.48015 3.40741
# Velocity P-wave (km/s) = 6.93083 7.37535 7.15655
#
# Compressibility (1/GPa) = 0.01910685
#
# Stress axis : x y z
#
# Youngs Moduli (GPa) = 40.56792 58.60980 55.99780
#
# Poissons Ratio (x) = 0.13508 0.56180
# Poissons Ratio (y) = 0.09350 0.44207
# Poissons Ratio (z) = 0.40700 0.46269
#
# Static dielectric constant tensor:
#      x y z
#    x 2.604720 0.000000 -0.040880 
#    y 0.000000 3.050920 0.000000 
#    z -0.040880 0.000000 3.320050 
# 
# 
# High freq. dielectric constant tensor:
#      x y z
#    x 1.544910 0.000000 -0.009210 
#    y 0.000000 1.616440 0.000000 
#    z -0.009210 0.000000 1.609680 
# 
# From -- ./inp_files/92965.got.cif
#   From: 2010.06.25/outbox.cif.g09.slc.cpg/sg10_47_cif.got.tgz:92965.got - 2010.06.27 22:07:45.
