data_PCOD8057954
_publ_section_title
;
Structure prediction by ZEFSAII (Michael W. Deem and Ramdas Pophale) SiO2 
 PCOD8057954
Probable space group: P 2/M
;
_chemical_formula_sum "Si O2"
_cell_formula_units_Z 28
_cell_length_a 17.965811
_cell_length_b 11.814486
_cell_length_c 23.445999
_cell_angle_alpha 90.000000
_cell_angle_beta 161.059487
_cell_angle_gamma 90.000000
_cell_volume 1615.327498
_symmetry_space_group_name_H-M "P 2/M"
_symmetry_group_IT_number 10
_symmetry_cell_setting 'monoclinic'
loop_
_space_group_symop_operation_xyz
x,y,z
-x,y,-z
-x,-y,-z
x,-y,z
loop_
_atom_site_type_symbol
_atom_site_label
_atom_site_fract_x
_atom_site_fract_y
_atom_site_fract_z
Si Si1 0.123757 0.500000 0.220969
Si Si2 0.499619 0.271061 0.658407
Si Si3 0.450866 0.872730 0.133430
Si Si4 0.818944 0.872730 0.501505
Si Si5 0.865190 0.728929 0.023979
Si Si6 0.487390 0.500000 0.584593
Si Si7 0.817392 0.126074 0.817391
Si Si8 0.832008 0.134045 0.332006
O O1 0.307196 0.500000 0.403594
O O2 0.254175 0.500000 0.254176
O O3 0.959850 0.607121 0.108915
O O4 0.265142 0.214864 0.511519
O O5 0.685919 0.283804 0.842950
O O6 0.443872 0.392881 0.592934
O O7 0.592114 0.191409 0.674958
O O8 0.643097 0.873593 0.321562
O O9 0.250693 0.785143 0.004319
O O10 0.569761 0.832887 0.159300
O O11 0.348580 0.000000 0.053679
O O12 0.072130 0.832868 0.661659
O O13 0.831126 0.000000 0.536207
O O14 0.076469 0.808595 0.159321
O O15 0.747206 0.000000 0.747197
O O16 0.000000 0.119610 0.000000
O O17 0.000000 0.191935 0.500000
O O18 0.851907 0.000000 0.351890
#
# Coordination Sequence:
#
# PCOD8057954 Si02
#       8
#     2   4   4   4   4   2   4   4
#     4  11  23  37  49  60  83 120 160 195 229 268
#     4  10  18  29  48  70  91 116 151 189 221 261
#     4   8  13  22  40  69 100 124 145 175 220 270
#     4   8  13  22  40  69 100 124 145 175 220 270
#     4  10  18  29  48  70  91 116 151 189 221 261
#     4  11  23  37  49  60  83 120 160 195 229 268
#     4   9  16  25  41  68  96 115 134 173 226 269
#     4   7  10  18  34  61  99 130 144 165 212 269
#
# _framework density 17.333946000000001
#
# number of rings (size 3 to 8) (size 9 to 14) (size 15 to 20)
#    0.000    3.000    1.429    3.000    0.000    4.000 
#    0.000    0.000    0.000    5.143    0.000    7.000 
#    0.000    3.429    0.000    0.000    0.000    0.000 
#
# Total GULP energy -346922.199453 kJ/mol
# GULP energy per Si atom -12390.078552 kJ/mol
# Density = 1.729449 g / cm^3
# Si number density = 17.333946 Si / 1000 Ang^3
#
#
#
# Elastic Constant Matrix: (Units=GPa)
#
#
# Indices 1 2 3 4 5 6 
#
# 1 120.2012 71.2285 45.1934 0.0000 53.4739 0.0000
# 2 71.2285 138.9820 35.4081 0.0000 31.4325 0.0000
# 3 45.1934 35.4081 33.1456 0.0000 22.9045 0.0000
# 4 0.0000 0.0000 0.0000 5.2851 0.0000 19.1386
# 5 53.4739 31.4325 22.9045 0.0000 33.8482 0.0000
# 6 0.0000 0.0000 0.0000 19.1386 0.0000 26.7940
#
#
#
# Elastic Compliance Matrix: (Units=1/GPa)
#
#
# Indices 1 2 3 4 5 6 
#
# 1 0.034446 -0.005021 -0.013561 0.000000 -0.040578 0.000000
# 2 -0.005021 0.010888 -0.006160 0.000000 0.001990 0.000000
# 3 -0.013561 -0.006160 0.068527 0.000000 -0.019226 0.000000
# 4 0.000000 0.000000 0.000000 -0.119255 0.000000 0.085182
# 5 -0.040578 0.001990 -0.019226 0.000000 0.104811 0.000000
# 6 0.000000 0.000000 0.000000 0.085182 0.000000 -0.023523
#
#
# Mechanical properties :
#
#
# Convention : Reuss Voigt Hill
#
# Bulk Modulus (GPa) = 15.53393 66.22095 40.87744
# Shear Modulus (GPa) = 34.05118 22.55204 28.30161
#
# Velocity S-wave (km/s) = 4.43699 3.61090 4.04509
# Velocity P-wave (km/s) = 5.93550 7.46128 6.74170
#
# Compressibility (1/GPa) = 0.06437522
#
# Stress axis : x y z
#
# Youngs Moduli (GPa) = 29.03126 91.84588 14.59280
#
# Poissons Ratio (x) = 0.46117 0.19790
# Poissons Ratio (y) = 0.14577 0.08989
# Poissons Ratio (z) = 0.39371 0.56577
#
# Static dielectric constant tensor:
#      x y z
#    x 3.506310 0.000000 0.522160 
#    y 0.000000 3.121500 0.000000 
#    z 0.522160 0.000000 2.911070 
# 
# 
# High freq. dielectric constant tensor:
#      x y z
#    x 1.666560 0.000000 0.035370 
#    y 0.000000 1.650100 0.000000 
#    z 0.035370 0.000000 1.626240 
# 
# From -- ./inp_files/54720.got.cif
#   From: 2010.06.25/outbox.cif.g09.slc.cpg/sg10_28_cif.got.tgz:54720.got - 2010.06.27 22:07:45.
