data_PCOD8057572
_publ_section_title
;
Structure prediction by ZEFSAII (Michael W. Deem and Ramdas Pophale) SiO2 
 PCOD8057572
Probable space group: P 2/M
;
_chemical_formula_sum "Si O2"
_cell_formula_units_Z 24
_cell_length_a 21.803264
_cell_length_b 8.982985
_cell_length_c 12.314090
_cell_angle_alpha 90.000000
_cell_angle_beta 37.454023
_cell_angle_gamma 90.000000
_cell_volume 1466.685802
_symmetry_space_group_name_H-M "P 2/M"
_symmetry_group_IT_number 10
_symmetry_cell_setting 'monoclinic'
loop_
_space_group_symop_operation_xyz
x,y,z
-x,y,-z
-x,-y,-z
x,-y,z
loop_
_atom_site_type_symbol
_atom_site_label
_atom_site_fract_x
_atom_site_fract_y
_atom_site_fract_z
Si Si1 0.839162 0.325264 0.906995
Si Si2 0.663319 0.823698 0.264836
Si Si3 0.966506 0.831971 0.423177
Si Si4 0.563437 0.175593 0.015525
Si Si5 0.226542 0.324892 0.242494
Si Si6 0.508862 0.175352 0.653461
O O1 0.852010 0.500000 0.902695
O O2 0.790262 0.282707 0.859759
O O3 0.948897 0.251397 0.766639
O O4 0.768649 0.261005 0.101389
O O5 0.586900 0.764632 0.279302
O O6 0.614705 0.775362 0.449407
O O7 0.682504 0.000000 0.230331
O O8 0.860590 0.746753 0.560477
O O9 0.000000 0.829313 0.500000
O O10 0.954056 0.000000 0.397642
O O11 0.668584 0.260116 0.863590
O O12 0.585102 0.000000 0.989078
O O13 0.500000 0.222220 0.000000
O O14 0.498887 0.228752 0.211241
O O15 0.224392 0.500000 0.263501
O O16 0.503427 0.000000 0.651922
#
# Coordination Sequence:
#
# PCOD8057572 Si02
#       6
#     4   4   4   4   4   4
#     4  10  18  27  41  66  95 120 146 180 225 272
#     4   9  15  26  45  63  86 120 151 182 220 267
#     4   9  17  28  44  64  87 118 152 183 218 268
#     4  10  19  31  48  67  88 118 157 194 222 257
#     4  10  19  30  43  62  92 123 148 184 227 267
#     4   8  15  27  43  64  87 115 152 188 223 260
#
# _framework density 16.363423000000001
#
# number of rings (size 3 to 8) (size 9 to 14) (size 15 to 20)
#    0.000    2.667    1.667    2.500    0.000    3.667 
#    0.000    2.500    0.000    0.000    0.000    1.167 
#    0.000    9.333    0.000    0.000    0.000    0.000 
#
# Total GULP energy -297527.325437 kJ/mol
# GULP energy per Si atom -12396.971893 kJ/mol
# Density = 1.632618 g / cm^3
# Si number density = 16.363423 Si / 1000 Ang^3
#
#
#
# Elastic Constant Matrix: (Units=GPa)
#
#
# Indices 1 2 3 4 5 6 
#
# 1 62.1245 32.1484 54.1831 0.0000 -2.0609 0.0000
# 2 32.1484 71.8382 57.7059 0.0000 -13.4425 0.0000
# 3 54.1831 57.7059 169.7840 0.0000 -16.9705 0.0000
# 4 0.0000 0.0000 0.0000 10.4751 0.0000 -5.9594
# 5 -2.0609 -13.4425 -16.9705 0.0000 22.8391 0.0000
# 6 0.0000 0.0000 0.0000 -5.9594 0.0000 14.7848
#
#
#
# Elastic Compliance Matrix: (Units=1/GPa)
#
#
# Indices 1 2 3 4 5 6 
#
# 1 0.025138 -0.007602 -0.006113 0.000000 -0.006748 0.000000
# 2 -0.007602 0.022526 -0.004292 0.000000 0.009383 0.000000
# 3 -0.006113 -0.004292 0.009713 0.000000 0.004140 0.000000
# 4 0.000000 0.000000 0.000000 0.123870 0.000000 0.049929
# 5 -0.006748 0.009383 0.004140 0.000000 0.051774 0.000000
# 6 0.000000 0.000000 0.000000 0.049929 0.000000 0.087763
#
#
# Mechanical properties :
#
#
# Convention : Reuss Voigt Hill
#
# Bulk Modulus (GPa) = 46.81016 65.75793 56.28405
# Shear Modulus (GPa) = 13.73931 20.26708 17.00320
#
# Velocity S-wave (km/s) = 2.90079 3.52314 3.22700
# Velocity P-wave (km/s) = 6.31570 7.53811 6.95382
#
# Compressibility (1/GPa) = 0.02136288
#
# Stress axis : x y z
#
# Youngs Moduli (GPa) = 39.77963 44.39393 102.95149
#
# Poissons Ratio (x) = 0.33748 0.62937
# Poissons Ratio (y) = 0.30240 0.44188
# Poissons Ratio (z) = 0.24318 0.19054
#
# Static dielectric constant tensor:
#      x y z
#    x 2.714890 0.000000 0.016220 
#    y 0.000000 2.948970 0.000000 
#    z 0.016220 0.000000 3.419330 
# 
# 
# High freq. dielectric constant tensor:
#      x y z
#    x 1.569980 0.000000 -0.015520 
#    y 0.000000 1.622030 0.000000 
#    z -0.015520 0.000000 1.644450 
# 
# From -- ./inp_files/48510.got.cif
#   From: 2010.06.25/outbox.cif.g09.slc.cpg/sg10_25_cif.got.tgz:48510.got - 2010.06.27 22:07:45.
