data_PCOD8057679
_publ_section_title
;
Structure prediction by ZEFSAII (Michael W. Deem and Ramdas Pophale) SiO2 
 PCOD8057679
Probable space group: P 2/M
;
_chemical_formula_sum "Si O2"
_cell_formula_units_Z 32
_cell_length_a 11.207110
_cell_length_b 9.144427
_cell_length_c 20.660666
_cell_angle_alpha 90.000000
_cell_angle_beta 114.956621
_cell_angle_gamma 90.000000
_cell_volume 1919.655662
_symmetry_space_group_name_H-M "P 2/M"
_symmetry_group_IT_number 10
_symmetry_cell_setting 'monoclinic'
loop_
_space_group_symop_operation_xyz
x,y,z
-x,y,-z
-x,-y,-z
x,-y,z
loop_
_atom_site_type_symbol
_atom_site_label
_atom_site_fract_x
_atom_site_fract_y
_atom_site_fract_z
Si Si1 0.923206 0.665364 0.624768
Si Si2 0.787624 0.332160 0.962697
Si Si3 0.999263 0.829095 0.235350
Si Si4 0.979001 0.668362 0.890395
Si Si5 0.292492 0.829493 0.787277
Si Si6 0.776904 0.335022 0.351125
Si Si7 0.474696 0.173030 0.066135
Si Si8 0.849594 0.834494 0.487810
O O1 0.870872 0.500000 0.620349
O O2 0.833582 0.749941 0.552055
O O3 0.912905 0.747784 0.690794
O O4 0.072021 0.665836 0.634689
O O5 0.746458 0.500000 0.962182
O O6 0.855330 0.308083 0.908963
O O7 0.659827 0.232885 0.935758
O O8 0.887613 0.285434 0.042335
O O9 0.845659 0.793936 0.210184
O O10 0.042705 0.772008 0.175564
O O11 0.028826 0.000000 0.247420
O O12 0.988129 0.500000 0.870106
O O13 0.309044 0.741935 0.724174
O O14 0.405590 0.774869 0.861407
O O15 0.304164 0.000000 0.773431
O O16 0.725780 0.500000 0.349429
O O17 0.759728 0.246694 0.414016
O O18 0.464474 0.000000 0.062100
O O19 0.500000 0.235337 0.000000
O O20 0.000000 0.834227 0.500000
O O21 0.798576 0.000000 0.484456
#
# Coordination Sequence:
#
# PCOD8057679 Si02
#       8
#     4   4   4   4   4   4   4   4
#     4   9  16  25  37  56  84 115 146 181 219 259
#     4   9  19  34  50  67  87 114 148 184 223 268
#     4  10  18  28  44  65  88 117 152 184 219 265
#     4   9  18  33  49  65  88 115 144 183 228 267
#     4   9  18  30  42  60  89 120 148 182 223 265
#     4   9  16  25  38  56  79 111 150 185 217 258
#     4  10  20  33  48  67  92 119 147 183 225 265
#     4   9  15  23  36  54  79 112 147 181 218 260
#
# _framework density 16.669654999999999
#
# number of rings (size 3 to 8) (size 9 to 14) (size 15 to 20)
#    0.000    2.750    0.000    3.000    0.000    7.750 
#    0.000    1.250    0.000    0.000    0.000    0.000 
#    0.000    1.000    0.000   10.500    0.000    8.875 
#
# Total GULP energy -396815.758311 kJ/mol
# GULP energy per Si atom -12400.492447 kJ/mol
# Density = 1.663171 g / cm^3
# Si number density = 16.669655 Si / 1000 Ang^3
#
#
#
# Elastic Constant Matrix: (Units=GPa)
#
#
# Indices 1 2 3 4 5 6 
#
# 1 40.1111 24.4134 33.9141 0.0000 -3.5054 0.0000
# 2 24.4134 98.5816 71.8252 0.0000 -10.6880 0.0000
# 3 33.9141 71.8252 153.1716 0.0000 -16.6490 0.0000
# 4 0.0000 0.0000 0.0000 33.9839 0.0000 -4.4282
# 5 -3.5054 -10.6880 -16.6490 0.0000 18.0819 0.0000
# 6 0.0000 0.0000 0.0000 -4.4282 0.0000 20.6993
#
#
#
# Elastic Compliance Matrix: (Units=1/GPa)
#
#
# Indices 1 2 3 4 5 6 
#
# 1 0.031779 -0.004216 -0.005179 0.000000 -0.001100 0.000000
# 2 -0.004216 0.016089 -0.006296 0.000000 0.002895 0.000000
# 3 -0.005179 -0.006296 0.011239 0.000000 0.005623 0.000000
# 4 0.000000 0.000000 0.000000 0.030270 0.000000 0.006476
# 5 -0.001100 0.002895 0.005623 0.000000 0.061979 0.000000
# 6 0.000000 0.000000 0.000000 0.006476 0.000000 0.049696
#
#
# Mechanical properties :
#
#
# Convention : Reuss Voigt Hill
#
# Bulk Modulus (GPa) = 36.06841 61.35220 48.71030
# Shear Modulus (GPa) = 20.68876 25.33379 23.01127
#
# Velocity S-wave (km/s) = 3.52675 3.90263 3.71944
# Velocity P-wave (km/s) = 6.18612 7.56254 6.90869
#
# Compressibility (1/GPa) = 0.02772509
#
# Stress axis : x y z
#
# Youngs Moduli (GPa) = 31.46685 62.15282 88.97608
#
# Poissons Ratio (x) = 0.26204 0.46080
# Poissons Ratio (y) = 0.13266 0.56023
# Poissons Ratio (z) = 0.16296 0.39134
#
# Static dielectric constant tensor:
#      x y z
#    x 2.619470 0.000000 -0.108770 
#    y 0.000000 3.199660 0.000000 
#    z -0.108770 0.000000 3.277580 
# 
# 
# High freq. dielectric constant tensor:
#      x y z
#    x 1.580660 0.000000 -0.015780 
#    y 0.000000 1.651610 0.000000 
#    z -0.015780 0.000000 1.653200 
# 
# From -- ./inp_files/54787.got.cif
#   From: 2010.06.25/outbox.cif.g09.slc.cpg/sg10_28_cif.got.tgz:54787.got - 2010.06.27 22:07:45.
