data_PCOD8057448
_publ_section_title
;
Structure prediction by ZEFSAII (Michael W. Deem and Ramdas Pophale) SiO2 
 PCOD8057448
Probable space group: P 2/M
;
_chemical_formula_sum "Si O2"
_cell_formula_units_Z 24
_cell_length_a 10.399047
_cell_length_b 7.714682
_cell_length_c 18.221065
_cell_angle_alpha 90.000000
_cell_angle_beta 58.495821
_cell_angle_gamma 90.000000
_cell_volume 1246.326133
_symmetry_space_group_name_H-M "P 2/M"
_symmetry_group_IT_number 10
_symmetry_cell_setting 'monoclinic'
loop_
_space_group_symop_operation_xyz
x,y,z
-x,y,-z
-x,-y,-z
x,-y,z
loop_
_atom_site_type_symbol
_atom_site_label
_atom_site_fract_x
_atom_site_fract_y
_atom_site_fract_z
Si Si1 0.669023 0.704337 0.431153
Si Si2 0.042884 0.705480 0.566772
Si Si3 0.170714 0.804711 0.756940
Si Si4 0.819909 0.500000 0.979528
Si Si5 0.876877 0.296891 0.758488
Si Si6 0.173792 0.500000 0.860928
Si Si7 0.328700 0.804327 0.062372
O O1 0.500000 0.762147 0.500000
O O2 0.682207 0.500000 0.412997
O O3 0.786471 0.758836 0.460851
O O4 0.709721 0.802638 0.344681
O O5 0.030091 0.500000 0.567167
O O6 0.000000 0.786099 0.500000
O O7 0.924102 0.774969 0.663788
O O8 0.226615 0.673630 0.803156
O O9 0.009574 0.742317 0.776031
O O10 0.160594 0.000000 0.791624
O O11 0.748438 0.500000 0.082391
O O12 0.772117 0.674941 0.953884
O O13 0.997622 0.500000 0.926933
O O14 0.848765 0.500000 0.762963
O O15 0.724702 0.208227 0.835895
O O16 0.306261 0.000000 0.040370
O O17 0.500000 0.745575 0.000000
#
# Coordination Sequence:
#
# PCOD8057448 Si02
#       7
#     4   4   4   2   4   2   4
#     4   9  17  31  53  77 110 144 183 229 272 325
#     4   8  15  28  50  80 107 138 180 224 271 326
#     4  11  19  33  57  80 111 146 184 228 272 327
#     4  11  23  38  60  78 115 142 179 237 288 329
#     4  10  17  32  56  79 110 144 187 230 270 329
#     4  11  22  38  55  86 108 141 188 233 277 339
#     4  11  22  37  59  84 111 146 189 231 277 335
#
# _framework density 19.256596999999999
#
# number of rings (size 3 to 8) (size 9 to 14) (size 15 to 20)
#    0.000    2.000    4.167    1.750    0.000    1.000 
#    0.000    3.333    0.000   12.500    0.000    0.000 
#    0.000    0.000    0.000    0.000    0.000    0.000 
#
# Total GULP energy -297479.993675 kJ/mol
# GULP energy per Si atom -12394.999736 kJ/mol
# Density = 1.921277 g / cm^3
# Si number density = 19.256597 Si / 1000 Ang^3
#
#
#
# Elastic Constant Matrix: (Units=GPa)
#
#
# Indices 1 2 3 4 5 6 
#
# 1 66.7411 8.9138 62.8503 0.0000 -0.1302 0.0000
# 2 8.9138 58.7597 14.3004 0.0000 10.6461 0.0000
# 3 62.8503 14.3004 143.2178 0.0000 -0.1345 0.0000
# 4 0.0000 0.0000 0.0000 25.7014 0.0000 -5.5101
# 5 -0.1302 10.6461 -0.1345 0.0000 40.4846 0.0000
# 6 0.0000 0.0000 0.0000 -5.5101 0.0000 1.6922
#
#
#
# Elastic Compliance Matrix: (Units=1/GPa)
#
#
# Indices 1 2 3 4 5 6 
#
# 1 0.025621 -0.001248 -0.011119 0.000000 0.000374 0.000000
# 2 -0.001248 0.018401 -0.001294 0.000000 -0.004847 0.000000
# 3 -0.011119 -0.001294 0.011991 0.000000 0.000344 0.000000
# 4 0.000000 0.000000 0.000000 0.128873 0.000000 0.419632
# 5 0.000374 -0.004847 0.000344 0.000000 0.025978 0.000000
# 6 0.000000 0.000000 0.000000 0.419632 0.000000 1.957337
#
#
# Mechanical properties :
#
#
# Convention : Reuss Voigt Hill
#
# Bulk Modulus (GPa) = 34.85399 48.98307 41.91853
# Shear Modulus (GPa) = 2.26748 25.75258 14.01003
#
# Velocity S-wave (km/s) = 1.08631 3.66093 2.70023
# Velocity P-wave (km/s) = 4.43987 6.58499 5.61581
#
# Compressibility (1/GPa) = 0.02869112
#
# Stress axis : x y z
#
# Youngs Moduli (GPa) = 39.03002 54.34487 83.39377
#
# Poissons Ratio (x) = 0.06785 0.92723
# Poissons Ratio (y) = 0.04873 0.10791
# Poissons Ratio (z) = 0.43397 0.07032
#
# Static dielectric constant tensor:
#      x y z
#    x 3.400180 0.000000 0.081020 
#    y 0.000000 3.389770 0.000000 
#    z 0.081020 0.000000 4.075270 
# 
# 
# High freq. dielectric constant tensor:
#      x y z
#    x 1.706150 0.000000 -0.006620 
#    y 0.000000 1.745940 0.000000 
#    z -0.006620 0.000000 1.762710 
# 
# From -- ./inp_files/75906.got.cif
#   From: 2010.06.25/outbox.cif.g09.slc.cpg/sg10_38_cif.got.tgz:75906.got - 2010.06.27 22:07:45.
