data_PCOD8057510
_publ_section_title
;
Structure prediction by ZEFSAII (Michael W. Deem and Ramdas Pophale) SiO2 
 PCOD8057510
Probable space group: P 2/M
;
_chemical_formula_sum "Si O2"
_cell_formula_units_Z 32
_cell_length_a 30.934761
_cell_length_b 9.121886
_cell_length_c 20.683140
_cell_angle_alpha 90.000000
_cell_angle_beta 159.150181
_cell_angle_gamma 90.000000
_cell_volume 2077.303056
_symmetry_space_group_name_H-M "P 2/M"
_symmetry_group_IT_number 10
_symmetry_cell_setting 'monoclinic'
loop_
_space_group_symop_operation_xyz
x,y,z
-x,y,-z
-x,-y,-z
x,-y,z
loop_
_atom_site_type_symbol
_atom_site_label
_atom_site_fract_x
_atom_site_fract_y
_atom_site_fract_z
Si Si1 0.123899 0.165434 0.712701
Si Si2 0.004893 0.330930 0.362468
Si Si3 0.959190 0.328730 0.735133
Si Si4 0.275751 0.174718 0.542233
Si Si5 0.522158 0.169646 0.956154
Si Si6 0.075338 0.834113 0.007201
Si Si7 0.246453 0.672111 0.774784
Si Si8 0.818366 0.163293 0.718020
O O1 0.226441 0.253303 0.816657
O O2 0.000000 0.172063 0.500000
O O3 0.100714 0.238617 0.750010
O O4 0.169431 0.000000 0.786716
O O5 0.979985 0.500000 0.343264
O O6 0.996924 0.296374 0.275803
O O7 0.137797 0.286158 0.574171
O O8 0.941251 0.500000 0.723367
O O9 0.830722 0.249738 0.565644
O O10 0.066376 0.267502 0.931426
O O11 0.403284 0.219459 0.750907
O O12 0.274372 0.232205 0.464738
O O13 0.253757 0.000000 0.514026
O O14 0.553749 0.000000 0.987561
O O15 0.500000 0.200196 0.000000
O O16 0.631105 0.269600 0.085198
O O17 0.945269 0.839171 0.858491
O O18 0.113902 0.000000 0.041496
O O19 0.167737 0.763216 0.190923
O O20 0.256978 0.500000 0.800411
O O21 0.775152 0.000000 0.673551
#
# Coordination Sequence:
#
# PCOD8057510 Si02
#       8
#     4   4   4   4   4   4   4   4
#     4   9  17  29  46  65  81 100 132 173 209 240
#     4   9  18  30  42  59  84 112 137 162 200 249
#     4  10  18  26  38  59  86 110 135 168 203 242
#     4   9  17  29  42  55  77 111 145 174 205 239
#     4  10  20  31  43  61  84 109 141 180 211 233
#     4   8  13  23  38  54  74 102 135 166 199 242
#     4  10  19  31  46  60  80 111 141 169 203 244
#     4   7  11  22  39  54  70 100 139 170 197 237
#
# _framework density 15.404589
#
# number of rings (size 3 to 8) (size 9 to 14) (size 15 to 20)
#    0.000    3.000    0.000    3.375    0.000    3.750 
#    0.000    5.000    0.000    0.000    0.000    0.000 
#    0.000    1.000    0.000   11.500    0.000    3.125 
#
# Total GULP energy -396497.368212 kJ/mol
# GULP energy per Si atom -12390.542757 kJ/mol
# Density = 1.536953 g / cm^3
# Si number density = 15.404589 Si / 1000 Ang^3
#
#
#
# Elastic Constant Matrix: (Units=GPa)
#
#
# Indices 1 2 3 4 5 6 
#
# 1 105.6557 51.5763 48.1793 0.0000 -15.3171 0.0000
# 2 51.5763 69.3188 27.0082 0.0000 -1.8659 0.0000
# 3 48.1793 27.0082 58.7325 0.0000 -18.5285 0.0000
# 4 0.0000 0.0000 0.0000 15.9768 0.0000 2.2345
# 5 -15.3171 -1.8659 -18.5285 0.0000 26.4215 0.0000
# 6 0.0000 0.0000 0.0000 2.2345 0.0000 27.7366
#
#
#
# Elastic Compliance Matrix: (Units=1/GPa)
#
#
# Indices 1 2 3 4 5 6 
#
# 1 0.019888 -0.010702 -0.010266 0.000000 0.003575 0.000000
# 2 -0.010702 0.024024 -0.004739 0.000000 -0.007831 0.000000
# 3 -0.010266 -0.004739 0.032929 0.000000 0.016806 0.000000
# 4 0.000000 0.000000 0.000000 0.063304 0.000000 -0.005100
# 5 0.003575 -0.007831 0.016806 0.000000 0.051153 0.000000
# 6 0.000000 0.000000 0.000000 -0.005100 0.000000 0.036464
#
#
# Mechanical properties :
#
#
# Convention : Reuss Voigt Hill
#
# Bulk Modulus (GPa) = 39.32693 54.13718 46.73205
# Shear Modulus (GPa) = 17.38213 21.15652 19.26932
#
# Velocity S-wave (km/s) = 3.36277 3.70995 3.54062
# Velocity P-wave (km/s) = 6.37671 7.31925 6.86418
#
# Compressibility (1/GPa) = 0.02542787
#
# Stress axis : x y z
#
# Youngs Moduli (GPa) = 50.28087 41.62427 30.36877
#
# Poissons Ratio (x) = 0.44545 0.31176
# Poissons Ratio (y) = 0.53810 0.14392
# Poissons Ratio (z) = 0.51617 0.19727
#
# Static dielectric constant tensor:
#      x y z
#    x 3.102640 0.000000 -0.416840 
#    y 0.000000 2.917000 0.000000 
#    z -0.416840 0.000000 2.941100 
# 
# 
# High freq. dielectric constant tensor:
#      x y z
#    x 1.586660 0.000000 -0.025220 
#    y 0.000000 1.584240 0.000000 
#    z -0.025220 0.000000 1.552830 
# 
# From -- ./inp_files/87218.got.cif
#   From: 2010.06.25/outbox.cif.g09.slc.cpg/sg10_44_cif.got.tgz:87218.got - 2010.06.27 22:07:45.
