data_PCOD8057486
_publ_section_title
;
Structure prediction by ZEFSAII (Michael W. Deem and Ramdas Pophale) SiO2 
 PCOD8057486
Probable space group: P 2/M
;
_chemical_formula_sum "Si O2"
_cell_formula_units_Z 32
_cell_length_a 19.756311
_cell_length_b 9.393130
_cell_length_c 29.079494
_cell_angle_alpha 90.000000
_cell_angle_beta 157.026884
_cell_angle_gamma 90.000000
_cell_volume 2106.205108
_symmetry_space_group_name_H-M "P 2/M"
_symmetry_group_IT_number 10
_symmetry_cell_setting 'monoclinic'
loop_
_space_group_symop_operation_xyz
x,y,z
-x,y,-z
-x,-y,-z
x,-y,z
loop_
_atom_site_type_symbol
_atom_site_label
_atom_site_fract_x
_atom_site_fract_y
_atom_site_fract_z
Si Si1 0.368222 0.842992 0.375338
Si Si2 0.244551 0.839666 0.832357
Si Si3 0.690525 0.167715 0.524343
Si Si4 0.872329 0.664787 0.718945
Si Si5 0.757937 0.660377 0.079058
Si Si6 0.378988 0.337361 0.837465
Si Si7 0.033584 0.332472 0.572241
Si Si8 0.119377 0.159366 0.445530
O O1 0.500000 0.844970 0.500000
O O2 0.485760 0.799210 0.404769
O O3 0.214371 0.732004 0.289467
O O4 0.286382 0.000000 0.317150
O O5 0.227993 0.771443 0.871490
O O6 0.378504 0.754666 0.883854
O O7 0.057748 0.834939 0.692890
O O8 0.313387 0.000000 0.880511
O O9 0.809938 0.257872 0.633562
O O10 0.731943 0.209720 0.497404
O O11 0.730312 0.000000 0.557868
O O12 0.818272 0.500000 0.682277
O O13 0.080412 0.684393 0.854301
O O14 0.768441 0.500000 0.105967
O O15 0.572390 0.680284 0.936751
O O16 0.341100 0.500000 0.827694
O O17 0.230551 0.287269 0.708909
O O18 0.004288 0.500000 0.556801
O O19 0.891951 0.262108 0.517542
O O20 0.000000 0.275213 0.500000
O O21 0.157853 0.000000 0.487415
#
# Coordination Sequence:
#
# PCOD8057486 Si02
#       8
#     4   4   4   4   4   4   4   4
#     4   8  15  26  39  52  73 107 140 166 197 235
#     4  10  18  27  40  58  80 105 136 171 199 225
#     4   9  16  28  41  55  78 108 139 166 196 237
#     4  10  18  25  36  55  79 107 141 171 196 226
#     4  10  19  28  38  54  79 112 140 162 194 237
#     4   9  18  31  43  55  77 106 134 163 200 245
#     4   9  18  32  48  63  79 101 131 168 208 247
#     4   9  17  28  43  62  82 106 135 165 200 240
#
# _framework density 15.193201999999999
#
# number of rings (size 3 to 8) (size 9 to 14) (size 15 to 20)
#    0.000    2.750    1.250    1.875    0.000    6.000 
#    0.000    0.000    0.000    0.000    0.000    0.000 
#    0.000    1.000    0.000   12.500    0.000    1.000 
#
# Total GULP energy -396576.107799 kJ/mol
# GULP energy per Si atom -12393.003369 kJ/mol
# Density = 1.515862 g / cm^3
# Si number density = 15.193202 Si / 1000 Ang^3
#
#
#
# Elastic Constant Matrix: (Units=GPa)
#
#
# Indices 1 2 3 4 5 6 
#
# 1 115.0278 46.2872 46.7107 0.0000 21.5878 0.0000
# 2 46.2872 70.0577 30.9117 0.0000 10.1926 0.0000
# 3 46.7107 30.9117 46.3190 0.0000 17.1991 0.0000
# 4 0.0000 0.0000 0.0000 11.4630 0.0000 4.8279
# 5 21.5878 10.1926 17.1991 0.0000 22.7018 0.0000
# 6 0.0000 0.0000 0.0000 4.8279 0.0000 24.5474
#
#
#
# Elastic Compliance Matrix: (Units=1/GPa)
#
#
# Indices 1 2 3 4 5 6 
#
# 1 0.016134 -0.005053 -0.011192 0.000000 -0.004594 0.000000
# 2 -0.005053 0.021855 -0.010617 0.000000 0.003036 0.000000
# 3 -0.011192 -0.010617 0.047643 0.000000 -0.020684 0.000000
# 4 0.000000 0.000000 0.000000 0.095116 0.000000 -0.018707
# 5 -0.004594 0.003036 -0.020684 0.000000 0.062726 0.000000
# 6 0.000000 0.000000 0.000000 -0.018707 0.000000 0.044417
#
#
# Mechanical properties :
#
#
# Convention : Reuss Voigt Hill
#
# Bulk Modulus (GPa) = 31.34132 53.24710 42.29421
# Shear Modulus (GPa) = 14.19440 18.90877 16.55158
#
# Velocity S-wave (km/s) = 3.05988 3.53165 3.30420
# Velocity P-wave (km/s) = 5.75822 7.19394 6.51575
#
# Compressibility (1/GPa) = 0.03190676
#
# Stress axis : x y z
#
# Youngs Moduli (GPa) = 61.98039 45.75534 20.98964
#
# Poissons Ratio (x) = 0.23120 0.23493
# Poissons Ratio (y) = 0.31318 0.22285
# Poissons Ratio (z) = 0.69371 0.48579
#
# Static dielectric constant tensor:
#      x y z
#    x 3.102640 0.000000 0.387980 
#    y 0.000000 3.063660 0.000000 
#    z 0.387980 0.000000 2.820740 
# 
# 
# High freq. dielectric constant tensor:
#      x y z
#    x 1.564750 0.000000 0.036410 
#    y 0.000000 1.589780 0.000000 
#    z 0.036410 0.000000 1.543470 
# 
# From -- ./inp_files/68206.got.cif
#   From: 2010.06.25/outbox.cif.g09.slc.cpg/sg10_35_cif.got.tgz:68206.got - 2010.06.27 22:07:45.
