data_PCOD8057090
_publ_section_title
;
Structure prediction by ZEFSAII (Michael W. Deem and Ramdas Pophale) SiO2 
 PCOD8057090
Probable space group: P 2/M
;
_chemical_formula_sum "Si O2"
_cell_formula_units_Z 32
_cell_length_a 20.476938
_cell_length_b 8.872117
_cell_length_c 20.300701
_cell_angle_alpha 90.000000
_cell_angle_beta 29.722640
_cell_angle_gamma 90.000000
_cell_volume 1828.569471
_symmetry_space_group_name_H-M "P 2/M"
_symmetry_group_IT_number 10
_symmetry_cell_setting 'monoclinic'
loop_
_space_group_symop_operation_xyz
x,y,z
-x,y,-z
-x,-y,-z
x,-y,z
loop_
_atom_site_type_symbol
_atom_site_label
_atom_site_fract_x
_atom_site_fract_y
_atom_site_fract_z
Si Si1 0.521178 0.324026 0.267617
Si Si2 0.719226 0.320418 0.710721
Si Si3 0.436048 0.677032 0.916688
Si Si4 0.314158 0.168771 0.618559
Si Si5 0.918151 0.320988 0.424174
Si Si6 0.612590 0.829476 0.309647
Si Si7 0.792896 0.320361 0.790252
Si Si8 0.246359 0.819612 0.540817
O O1 0.492062 0.500000 0.301549
O O2 0.588054 0.287011 0.138991
O O3 0.624565 0.270559 0.233273
O O4 0.382296 0.239253 0.390967
O O5 0.717736 0.500000 0.711980
O O6 0.575141 0.254672 0.819425
O O7 0.823116 0.262985 0.565582
O O8 0.762545 0.258036 0.743922
O O9 0.440862 0.500000 0.924944
O O10 0.316291 0.746234 0.063967
O O11 0.306144 0.244278 0.698985
O O12 0.462020 0.168067 0.462812
O O13 0.229852 0.239438 0.631848
O O14 0.265338 0.000000 0.673595
O O15 0.911177 0.500000 0.422413
O O16 0.875815 0.245239 0.392677
O O17 0.064400 0.263080 0.312029
O O18 0.660041 0.000000 0.252738
O O19 0.790830 0.500000 0.791607
O O20 0.248842 0.000000 0.536980
#
# Coordination Sequence:
#
# PCOD8057090 Si02
#       8
#     4   4   4   4   4   4   4   4
#     4  10  17  26  41  65  94 117 145 187 224 255
#     4   9  15  26  44  66  91 116 145 185 226 263
#     4   9  16  26  41  65  94 120 147 181 220 262
#     4   7  12  23  39  58  82 113 149 182 210 256
#     4  10  18  29  45  70  94 112 143 192 231 257
#     4   8  13  24  40  59  85 116 147 178 218 265
#     4   9  17  27  43  66  92 120 148 179 224 273
#     4  10  18  29  45  63  86 121 155 179 218 270
#
# _framework density 17.500019000000002
#
# number of rings (size 3 to 8) (size 9 to 14) (size 15 to 20)
#    0.000    3.000    1.250    3.000    0.000    3.000 
#    0.000    5.625    0.000    3.000    0.000    1.750 
#    0.000    7.000    0.000    0.000    0.000    0.000 
#
# Total GULP energy -396438.954691 kJ/mol
# GULP energy per Si atom -12388.717334 kJ/mol
# Density = 1.746019 g / cm^3
# Si number density = 17.500019 Si / 1000 Ang^3
#
#
#
# Elastic Constant Matrix: (Units=GPa)
#
#
# Indices 1 2 3 4 5 6 
#
# 1 196.3433 30.7516 75.5916 0.0000 15.6969 0.0000
# 2 30.7516 30.7325 13.8506 0.0000 2.6601 0.0000
# 3 75.5916 13.8506 92.9688 0.0000 -7.5094 0.0000
# 4 0.0000 0.0000 0.0000 0.6088 0.0000 -2.4946
# 5 15.6969 2.6601 -7.5094 0.0000 14.6144 0.0000
# 6 0.0000 0.0000 0.0000 -2.4946 0.0000 19.4201
#
#
#
# Elastic Compliance Matrix: (Units=1/GPa)
#
#
# Indices 1 2 3 4 5 6 
#
# 1 0.010610 -0.005222 -0.009069 0.000000 -0.015106 0.000000
# 2 -0.005222 0.038737 -0.001713 0.000000 -0.002322 0.000000
# 3 -0.009069 -0.001713 0.020029 0.000000 0.020344 0.000000
# 4 0.000000 0.000000 0.000000 3.467370 0.000000 0.445398
# 5 -0.015106 -0.002322 0.020344 0.000000 0.095527 0.000000
# 6 0.000000 0.000000 0.000000 0.445398 0.000000 0.108706
#
#
# Mechanical properties :
#
#
# Convention : Reuss Voigt Hill
#
# Bulk Modulus (GPa) = 26.76075 62.27025 44.51550
# Shear Modulus (GPa) = 1.32085 20.25206 10.78645
#
# Velocity S-wave (km/s) = 0.86972 3.40554 2.48537
# Velocity P-wave (km/s) = 4.04148 7.15009 5.80764
#
# Compressibility (1/GPa) = 0.03736816
#
# Stress axis : x y z
#
# Youngs Moduli (GPa) = 94.24849 25.81510 49.92823
#
# Poissons Ratio (x) = 0.13481 0.45281
# Poissons Ratio (y) = 0.49217 0.08551
# Poissons Ratio (z) = 0.85476 0.04421
#
# Static dielectric constant tensor:
#      x y z
#    x 3.898460 0.000000 0.178530 
#    y 0.000000 2.814860 0.000000 
#    z 0.178530 0.000000 3.041230 
# 
# 
# High freq. dielectric constant tensor:
#      x y z
#    x 1.703070 0.000000 0.016780 
#    y 0.000000 1.624260 0.000000 
#    z 0.016780 0.000000 1.632480 
# 
# From -- ./inp_files/86101.got.cif
#   From: 2010.06.25/outbox.cif.g09.slc.cpg/sg10_44_cif.got.tgz:86101.got - 2010.06.27 22:07:45.
