data_PCOD8057374
_publ_section_title
;
Structure prediction by ZEFSAII (Michael W. Deem and Ramdas Pophale) SiO2 
 PCOD8057374
Probable space group: P 2/M
;
_chemical_formula_sum "Si O2"
_cell_formula_units_Z 30
_cell_length_a 12.525926
_cell_length_b 12.782309
_cell_length_c 19.570608
_cell_angle_alpha 90.000000
_cell_angle_beta 147.262460
_cell_angle_gamma 90.000000
_cell_volume 1694.546054
_symmetry_space_group_name_H-M "P 2/M"
_symmetry_group_IT_number 10
_symmetry_cell_setting 'monoclinic'
loop_
_space_group_symop_operation_xyz
x,y,z
-x,y,-z
-x,-y,-z
x,-y,z
loop_
_atom_site_type_symbol
_atom_site_label
_atom_site_fract_x
_atom_site_fract_y
_atom_site_fract_z
Si Si1 0.269067 0.240345 0.002073
Si Si2 0.225055 0.879480 0.109294
Si Si3 0.835484 0.622552 0.265849
Si Si4 0.500000 0.725570 0.000000
Si Si5 0.897653 0.618388 0.789921
Si Si6 0.749008 0.378729 0.561910
Si Si7 0.432900 0.620393 0.763250
Si Si8 0.567124 0.298224 0.699203
O O1 0.059305 0.290252 0.869498
O O2 0.261234 0.140733 0.048127
O O3 0.395592 0.205335 0.003328
O O4 0.372087 0.331988 0.099421
O O5 0.370967 0.815464 0.238332
O O6 0.264640 0.000000 0.147340
O O7 0.000000 0.846124 0.000000
O O8 0.861166 0.500000 0.274317
O O9 0.765038 0.660890 0.303720
O O10 0.049195 0.668356 0.362260
O O11 0.671399 0.653451 0.122348
O O12 0.986250 0.500000 0.842084
O O13 0.758248 0.627686 0.648682
O O14 0.766303 0.639243 0.786829
O O15 0.706165 0.500000 0.517149
O O16 0.576665 0.299510 0.443912
O O17 0.447839 0.500000 0.786942
O O18 0.431888 0.643004 0.682541
#
# Coordination Sequence:
#
# PCOD8057374 Si02
#       8
#     4   4   4   2   4   4   4   4
#     4  10  19  32  52  81 104 135 172 215 266 310
#     4  10  21  40  61  78  97 126 172 229 283 321
#     4   9  17  28  45  71 106 148 183 210 241 288
#     4  10  17  30  51  76 108 136 178 216 250 304
#     4  11  20  31  49  77 114 149 174 200 244 304
#     4  10  20  32  48  75 111 153 182 201 239 300
#     4   9  18  29  45  73 106 139 177 219 251 293
#     4  11  21  34  51  74 103 141 178 214 257 313
#
# _framework density 17.703855999999998
#
# number of rings (size 3 to 8) (size 9 to 14) (size 15 to 20)
#    0.000    2.000    2.667    2.200    0.000    2.667 
#    0.000    4.333    0.000    2.400    0.000   12.133 
#    0.000    0.000    0.000    0.000    0.000    0.000 
#
# Total GULP energy -371729.372720 kJ/mol
# GULP energy per Si atom -12390.979091 kJ/mol
# Density = 1.766356 g / cm^3
# Si number density = 17.703856 Si / 1000 Ang^3
#
#
#
# Elastic Constant Matrix: (Units=GPa)
#
#
# Indices 1 2 3 4 5 6 
#
# 1 118.1125 22.3608 16.7797 0.0000 -5.0698 0.0000
# 2 22.3608 44.7843 31.4876 0.0000 -0.6791 0.0000
# 3 16.7797 31.4876 70.9113 0.0000 2.0632 0.0000
# 4 0.0000 0.0000 0.0000 19.9554 0.0000 -2.0342
# 5 -5.0698 -0.6791 2.0632 0.0000 25.3821 0.0000
# 6 0.0000 0.0000 0.0000 -2.0342 0.0000 15.0843
#
#
#
# Elastic Compliance Matrix: (Units=1/GPa)
#
#
# Indices 1 2 3 4 5 6 
#
# 1 0.009432 -0.004473 -0.000298 0.000000 0.001789 0.000000
# 2 -0.004473 0.034692 -0.014381 0.000000 0.001204 0.000000
# 3 -0.000298 -0.014381 0.020620 0.000000 -0.002120 0.000000
# 4 0.000000 0.000000 0.000000 0.050810 0.000000 0.006852
# 5 0.001789 0.001204 -0.002120 0.000000 0.039960 0.000000
# 6 0.000000 0.000000 0.000000 0.006852 0.000000 0.067218
#
#
# Mechanical properties :
#
#
# Convention : Reuss Voigt Hill
#
# Bulk Modulus (GPa) = 37.82086 41.67381 39.74733
# Shear Modulus (GPa) = 18.52873 22.96304 20.74588
#
# Velocity S-wave (km/s) = 3.23862 3.60538 3.42691
# Velocity P-wave (km/s) = 5.94931 6.39705 6.17724
#
# Compressibility (1/GPa) = 0.02644044
#
# Stress axis : x y z
#
# Youngs Moduli (GPa) = 106.01734 28.82468 48.49607
#
# Poissons Ratio (x) = 0.12894 0.01444
# Poissons Ratio (y) = 0.47423 0.69744
# Poissons Ratio (z) = 0.03157 0.41454
#
# Static dielectric constant tensor:
#      x y z
#    x 3.913030 0.000000 -0.059370 
#    y 0.000000 2.786620 0.000000 
#    z -0.059370 0.000000 3.210690 
# 
# 
# High freq. dielectric constant tensor:
#      x y z
#    x 1.714460 0.000000 -0.000550 
#    y 0.000000 1.623230 0.000000 
#    z -0.000550 0.000000 1.678850 
# 
# From -- ./inp_files/76690.got.cif
#   From: 2010.06.25/outbox.cif.g09.slc.cpg/sg10_39_cif.got.tgz:76690.got - 2010.06.27 22:07:45.
