data_PCOD8057550
_publ_section_title
;
Structure prediction by ZEFSAII (Michael W. Deem and Ramdas Pophale) SiO2 
 PCOD8057550
Probable space group: P 2/M
;
_chemical_formula_sum "Si O2"
_cell_formula_units_Z 30
_cell_length_a 11.402460
_cell_length_b 9.540026
_cell_length_c 27.506913
_cell_angle_alpha 90.000000
_cell_angle_beta 38.022439
_cell_angle_gamma 90.000000
_cell_volume 1843.102800
_symmetry_space_group_name_H-M "P 2/M"
_symmetry_group_IT_number 10
_symmetry_cell_setting 'monoclinic'
loop_
_space_group_symop_operation_xyz
x,y,z
-x,y,-z
-x,-y,-z
x,-y,z
loop_
_atom_site_type_symbol
_atom_site_label
_atom_site_fract_x
_atom_site_fract_y
_atom_site_fract_z
Si Si1 0.858625 0.842358 0.761629
Si Si2 0.563890 0.342082 0.901730
Si Si3 0.500000 0.269862 0.500000
Si Si4 0.202662 0.343671 0.075432
Si Si5 0.912223 0.657622 0.388358
Si Si6 0.086345 0.844091 0.786038
Si Si7 0.458233 0.839526 0.618210
Si Si8 0.119435 0.835621 0.508667
O O1 0.652761 0.766100 0.833617
O O2 0.993290 0.746716 0.684890
O O3 0.951898 0.854015 0.783481
O O4 0.832595 0.000000 0.748399
O O5 0.558981 0.500000 0.881524
O O6 0.692550 0.343748 0.907437
O O7 0.350338 0.291787 0.985611
O O8 0.314530 0.360143 0.546725
O O9 0.554543 0.176812 0.435686
O O10 0.133101 0.500000 0.085616
O O11 0.015926 0.245786 0.138388
O O12 0.996743 0.500000 0.363201
O O13 0.961120 0.740191 0.421856
O O14 0.284474 0.767000 0.704619
O O15 0.118437 0.000000 0.796902
O O16 0.661787 0.790546 0.572625
O O17 0.423456 0.000000 0.640611
O O18 0.000000 0.801810 0.500000
O O19 0.107591 0.000000 0.527195
#
# Coordination Sequence:
#
# PCOD8057550 Si02
#       8
#     4   4   2   4   4   4   4   4
#     4  10  18  27  40  61  87 115 147 179 215 257
#     4   8  14  25  38  53  78 113 149 178 209 248
#     4  10  18  30  42  62  89 116 149 176 217 266
#     4   8  14  24  37  53  77 114 149 176 208 249
#     4  11  21  31  45  65  90 117 145 182 223 263
#     4   9  16  25  37  59  86 113 144 178 216 255
#     4   9  16  27  45  65  88 115 144 183 224 262
#     4   9  19  35  52  66  82 112 152 189 224 263
#
# _framework density 16.276900000000001
#
# number of rings (size 3 to 8) (size 9 to 14) (size 15 to 20)
#    0.000    2.800    1.333    2.000    0.000    2.400 
#    0.000    3.333    0.000    0.000    0.000    0.000 
#    0.000    1.067    0.000   12.267    0.000    3.600 
#
# Total GULP energy -371695.043522 kJ/mol
# GULP energy per Si atom -12389.834784 kJ/mol
# Density = 1.623985 g / cm^3
# Si number density = 16.276900 Si / 1000 Ang^3
#
#
#
# Elastic Constant Matrix: (Units=GPa)
#
#
# Indices 1 2 3 4 5 6 
#
# 1 49.7761 15.1811 16.0051 0.0000 -2.8364 0.0000
# 2 15.1811 88.5521 54.4209 0.0000 -2.8998 0.0000
# 3 16.0051 54.4209 111.2939 0.0000 -17.6965 0.0000
# 4 0.0000 0.0000 0.0000 29.4265 0.0000 -0.1940
# 5 -2.8364 -2.8998 -17.6965 0.0000 12.8784 0.0000
# 6 0.0000 0.0000 0.0000 -0.1940 0.0000 9.8792
#
#
#
# Elastic Compliance Matrix: (Units=1/GPa)
#
#
# Indices 1 2 3 4 5 6 
#
# 1 0.021505 -0.002758 -0.001394 0.000000 0.002199 0.000000
# 2 -0.002758 0.017403 -0.009708 0.000000 -0.010029 0.000000
# 3 -0.001394 -0.009708 0.017321 0.000000 0.021308 0.000000
# 4 0.000000 0.000000 0.000000 0.033987 0.000000 0.000668
# 5 0.002199 -0.010029 0.021308 0.000000 0.105156 0.000000
# 6 0.000000 0.000000 0.000000 0.000668 0.000000 0.101236
#
#
# Mechanical properties :
#
#
# Convention : Reuss Voigt Hill
#
# Bulk Modulus (GPa) = 35.07694 46.75958 40.91826
# Shear Modulus (GPa) = 14.97762 21.37113 18.17438
#
# Velocity S-wave (km/s) = 3.03673 3.62743 3.34514
# Velocity P-wave (km/s) = 5.82173 6.80693 6.33352
#
# Compressibility (1/GPa) = 0.02850876
#
# Stress axis : x y z
#
# Youngs Moduli (GPa) = 46.50138 57.46019 57.73370
#
# Poissons Ratio (x) = 0.15846 0.08050
# Poissons Ratio (y) = 0.12824 0.56048
# Poissons Ratio (z) = 0.06484 0.55782
#
# Static dielectric constant tensor:
#      x y z
#    x 2.576290 0.000000 -0.211390 
#    y 0.000000 3.205660 0.000000 
#    z -0.211390 0.000000 3.417760 
# 
# 
# High freq. dielectric constant tensor:
#      x y z
#    x 1.556080 0.000000 -0.016810 
#    y 0.000000 1.622850 0.000000 
#    z -0.016810 0.000000 1.637610 
# 
# From -- ./inp_files/52688.got.cif
#   From: 2010.06.25/outbox.cif.g09.slc.cpg/sg10_27_cif.got.tgz:52688.got - 2010.06.27 22:07:45.
