data_PCOD8057881
_publ_section_title
;
Structure prediction by ZEFSAII (Michael W. Deem and Ramdas Pophale) SiO2 
 PCOD8057881
Probable space group: P 2/M
;
_chemical_formula_sum "Si O2"
_cell_formula_units_Z 32
_cell_length_a 27.670969
_cell_length_b 9.411690
_cell_length_c 21.608588
_cell_angle_alpha 90.000000
_cell_angle_beta 18.522981
_cell_angle_gamma 90.000000
_cell_volume 1787.784129
_symmetry_space_group_name_H-M "P 2/M"
_symmetry_group_IT_number 10
_symmetry_cell_setting 'monoclinic'
loop_
_space_group_symop_operation_xyz
x,y,z
-x,y,-z
-x,-y,-z
x,-y,z
loop_
_atom_site_type_symbol
_atom_site_label
_atom_site_fract_x
_atom_site_fract_y
_atom_site_fract_z
Si Si1 0.414133 0.839464 0.510097
Si Si2 0.613040 0.163040 0.049902
Si Si3 0.543597 0.333383 0.249259
Si Si4 0.856831 0.335839 0.935932
Si Si5 0.428815 0.164047 0.151766
Si Si6 0.037723 0.162303 0.383288
Si Si7 0.263746 0.159230 0.814271
Si Si8 0.127434 0.668273 0.517743
O O1 0.415754 0.732615 0.450044
O O2 0.575454 0.834424 0.347414
O O3 0.286229 0.790700 0.715519
O O4 0.380574 0.000000 0.527992
O O5 0.522834 0.262840 0.207274
O O6 0.554876 0.188503 0.051141
O O7 0.588831 0.000000 0.099333
O O8 0.788907 0.205724 0.838675
O O9 0.514091 0.500000 0.279631
O O10 0.711970 0.296162 0.069597
O O11 0.855181 0.500000 0.954218
O O12 0.008510 0.290591 0.715825
O O13 0.854812 0.256650 0.004532
O O14 0.287597 0.262995 0.340902
O O15 0.375875 0.000000 0.212907
O O16 0.500000 0.211683 0.000000
O O17 0.000000 0.183650 0.500000
O O18 0.928833 0.267266 0.478399
O O19 0.006443 0.000000 0.400612
O O20 0.198654 0.000000 0.894157
O O21 0.144070 0.500000 0.490154
#
# Coordination Sequence:
#
# PCOD8057881 Si02
#       8
#     4   4   4   4   4   4   4   4
#     4   8  14  25  40  64  98 132 169 210 251 296
#     4  10  20  34  54  77 101 133 171 216 265 307
#     4  10  18  29  46  70 103 138 171 209 252 305
#     4   9  18  30  44  68 104 138 168 207 250 301
#     4  10  22  41  60  77 101 133 175 223 264 312
#     4  10  20  35  56  79 101 131 171 213 261 313
#     4   8  14  24  41  65  95 132 171 210 249 294
#     4  11  22  36  53  78 109 139 171 211 261 313
#
# _framework density 17.899252000000001
#
# number of rings (size 3 to 8) (size 9 to 14) (size 15 to 20)
#    0.000    2.500    1.250    2.250    0.000    5.000 
#    0.000    3.750    0.000    0.000    0.000    0.875 
#    0.000    7.000    0.000    0.000    0.000    0.000 
#
# Total GULP energy -396768.113653 kJ/mol
# GULP energy per Si atom -12399.003552 kJ/mol
# Density = 1.785851 g / cm^3
# Si number density = 17.899252 Si / 1000 Ang^3
#
#
#
# Elastic Constant Matrix: (Units=GPa)
#
#
# Indices 1 2 3 4 5 6 
#
# 1 63.6149 37.4642 26.1489 0.0000 26.5384 0.0000
# 2 37.4642 78.2145 38.7981 0.0000 20.0114 0.0000
# 3 26.1489 38.7981 63.6329 0.0000 23.9898 0.0000
# 4 0.0000 0.0000 0.0000 27.9069 0.0000 2.7338
# 5 26.5384 20.0114 23.9898 0.0000 32.6203 0.0000
# 6 0.0000 0.0000 0.0000 2.7338 0.0000 20.7742
#
#
#
# Elastic Compliance Matrix: (Units=1/GPa)
#
#
# Indices 1 2 3 4 5 6 
#
# 1 0.028420 -0.009439 0.000844 0.000000 -0.017952 0.000000
# 2 -0.009439 0.021886 -0.010099 0.000000 0.001680 0.000000
# 3 0.000844 -0.010099 0.026910 0.000000 -0.014282 0.000000
# 4 0.000000 0.000000 0.000000 0.036301 0.000000 -0.004777
# 5 -0.017952 0.001680 -0.014282 0.000000 0.054733 0.000000
# 6 0.000000 0.000000 0.000000 -0.004777 0.000000 0.048765
#
#
# Mechanical properties :
#
#
# Convention : Reuss Voigt Hill
#
# Bulk Modulus (GPa) = 25.10713 45.58721 35.34717
# Shear Modulus (GPa) = 18.67897 23.13036 20.90467
#
# Velocity S-wave (km/s) = 3.23393 3.59869 3.42117
# Velocity P-wave (km/s) = 5.29167 6.54152 5.94951
#
# Compressibility (1/GPa) = 0.03982932
#
# Stress axis : x y z
#
# Youngs Moduli (GPa) = 35.18600 45.69061 37.16085
#
# Poissons Ratio (x) = 0.43127 -0.03137
# Poissons Ratio (y) = 0.33212 0.37529
# Poissons Ratio (z) = -0.02970 0.46143
#
# Static dielectric constant tensor:
#      x y z
#    x 3.201730 0.000000 0.361310 
#    y 0.000000 3.334600 0.000000 
#    z 0.361310 0.000000 3.353510 
# 
# 
# High freq. dielectric constant tensor:
#      x y z
#    x 1.674630 0.000000 0.032250 
#    y 0.000000 1.691260 0.000000 
#    z 0.032250 0.000000 1.678240 
# 
# From -- ./inp_files/86798.got.cif
#   From: 2010.06.25/outbox.cif.g09.slc.cpg/sg10_44_cif.got.tgz:86798.got - 2010.06.27 22:07:45.
