data_PCOD8057952
_publ_section_title
;
Structure prediction by ZEFSAII (Michael W. Deem and Ramdas Pophale) SiO2 
 PCOD8057952
Probable space group: P 2/M
;
_chemical_formula_sum "Si O2"
_cell_formula_units_Z 32
_cell_length_a 26.877863
_cell_length_b 17.453350
_cell_length_c 24.225726
_cell_angle_alpha 90.000000
_cell_angle_beta 169.927172
_cell_angle_gamma 90.000000
_cell_volume 1987.648953
_symmetry_space_group_name_H-M "P 2/M"
_symmetry_group_IT_number 10
_symmetry_cell_setting 'monoclinic'
loop_
_space_group_symop_operation_xyz
x,y,z
-x,y,-z
-x,-y,-z
x,-y,z
loop_
_atom_site_type_symbol
_atom_site_label
_atom_site_fract_x
_atom_site_fract_y
_atom_site_fract_z
Si Si1 0.612427 0.740934 0.918649
Si Si2 0.961813 0.826076 0.692714
Si Si3 0.137058 0.090954 0.205594
Si Si4 0.716769 0.589498 0.075153
Si Si5 0.136248 0.175769 0.704368
Si Si6 0.712669 0.090162 0.319002
Si Si7 0.632978 0.589304 0.199469
Si Si8 0.218653 0.091056 0.077971
O O1 0.295722 0.773092 0.568342
O O2 0.794695 0.773105 0.067313
O O3 0.601359 0.647628 0.902037
O O4 0.757726 0.760224 0.136596
O O5 0.855771 0.889131 0.533659
O O6 0.087024 0.871387 0.880540
O O7 0.459205 0.120059 0.563017
O O8 0.130226 0.000000 0.195342
O O9 0.000000 0.125246 0.000000
O O10 0.955977 0.120057 0.059781
O O11 0.675466 0.500000 0.013199
O O12 0.042408 0.612873 0.439509
O O13 0.545999 0.612874 0.943100
O O14 0.000000 0.213339 0.500000
O O15 0.898189 0.122986 0.472011
O O16 0.397109 0.122985 0.970928
O O17 0.698322 0.000000 0.297478
O O18 0.610820 0.500000 0.166235
O O19 0.500000 0.630479 0.000000
O O20 0.202285 0.000000 0.053419
#
# Coordination Sequence:
#
# PCOD8057952 Si02
#       8
#     4   4   4   4   4   4   4   4
#     4  10  21  35  47  63  88 113 141 186 230 272
#     4  10  20  34  48  65  89 116 151 186 226 262
#     4   9  17  28  43  68 100 128 157 193 223 246
#     4  10  19  32  49  66  84 110 143 173 216 278
#     4  10  21  33  45  62  82 107 136 173 232 288
#     4  10  20  33  48  63  81 105 140 189 227 260
#     4   9  17  28  43  65  87 103 128 170 213 261
#     4  10  18  29  48  69  91 126 166 194 217 254
#
# _framework density 16.099421
#
# number of rings (size 3 to 8) (size 9 to 14) (size 15 to 20)
#    0.000    2.250    0.000    3.375    0.000    5.500 
#    0.000    3.750    0.000    0.000    0.000    0.000 
#    0.000    0.000    0.000    0.000    0.000   43.750 
#
# Total GULP energy -396730.158156 kJ/mol
# GULP energy per Si atom -12397.817442 kJ/mol
# Density = 1.606278 g / cm^3
# Si number density = 16.099421 Si / 1000 Ang^3
#
#
#
# Elastic Constant Matrix: (Units=GPa)
#
#
# Indices 1 2 3 4 5 6 
#
# 1 109.0795 21.9641 57.7434 0.0000 7.7695 0.0000
# 2 21.9641 58.5818 23.7775 0.0000 3.4909 0.0000
# 3 57.7434 23.7775 121.0445 0.0000 15.2649 0.0000
# 4 0.0000 0.0000 0.0000 7.0785 0.0000 -4.4979
# 5 7.7695 3.4909 15.2649 0.0000 42.1441 0.0000
# 6 0.0000 0.0000 0.0000 -4.4979 0.0000 9.3738
#
#
#
# Elastic Compliance Matrix: (Units=1/GPa)
#
#
# Indices 1 2 3 4 5 6 
#
# 1 0.012589 -0.002479 -0.005503 0.000000 -0.000122 0.000000
# 2 -0.002479 0.019039 -0.002532 0.000000 -0.000203 0.000000
# 3 -0.005503 -0.002532 0.011767 0.000000 -0.003038 0.000000
# 4 0.000000 0.000000 0.000000 0.203245 0.000000 0.097525
# 5 -0.000122 -0.000203 -0.003038 0.000000 0.024868 0.000000
# 6 0.000000 0.000000 0.000000 0.097525 0.000000 0.153477
#
#
# Mechanical properties :
#
#
# Convention : Reuss Voigt Hill
#
# Bulk Modulus (GPa) = 44.70783 55.07507 49.89145
# Shear Modulus (GPa) = 11.02614 24.06733 17.54673
#
# Velocity S-wave (km/s) = 2.61986 3.87061 3.30494
# Velocity P-wave (km/s) = 6.08125 7.36608 6.75429
#
# Compressibility (1/GPa) = 0.02236745
#
# Stress axis : x y z
#
# Youngs Moduli (GPa) = 79.43716 52.52287 84.98351
#
# Poissons Ratio (x) = 0.13020 0.46766
# Poissons Ratio (y) = 0.19693 0.21516
# Poissons Ratio (z) = 0.43713 0.13298
#
# Static dielectric constant tensor:
#      x y z
#    x 3.046180 0.000000 0.183090 
#    y 0.000000 2.797320 0.000000 
#    z 0.183090 0.000000 3.140770 
# 
# 
# High freq. dielectric constant tensor:
#      x y z
#    x 1.612120 0.000000 0.028230 
#    y 0.000000 1.590180 0.000000 
#    z 0.028230 0.000000 1.626730 
# 
# From -- ./inp_files/13366.got.cif
#   From: 2010.06.25/outbox.cif.g09.slc.cpg/sg10_7_cif.got.tgz:13366.got - 2010.06.27 22:07:45.
