data_PCOD8057869
_publ_section_title
;
Structure prediction by ZEFSAII (Michael W. Deem and Ramdas Pophale) SiO2 
 PCOD8057869
Probable space group: P 2/M
;
_chemical_formula_sum "Si O2"
_cell_formula_units_Z 22
_cell_length_a 5.261540
_cell_length_b 12.840944
_cell_length_c 19.680007
_cell_angle_alpha 90.000000
_cell_angle_beta 69.741547
_cell_angle_gamma 90.000000
_cell_volume 1247.391706
_symmetry_space_group_name_H-M "P 2/M"
_symmetry_group_IT_number 10
_symmetry_cell_setting 'monoclinic'
loop_
_space_group_symop_operation_xyz
x,y,z
-x,y,-z
-x,-y,-z
x,-y,z
loop_
_atom_site_type_symbol
_atom_site_label
_atom_site_fract_x
_atom_site_fract_y
_atom_site_fract_z
Si Si1 0.713295 0.623893 0.833308
Si Si2 0.989237 0.881901 0.419702
Si Si3 0.500000 0.774772 0.500000
Si Si4 0.876258 0.308647 0.675021
Si Si5 0.101254 0.376974 0.919274
Si Si6 0.492375 0.616382 0.604228
O O1 0.738886 0.500000 0.816574
O O2 0.816402 0.691525 0.760306
O O3 0.407193 0.658939 0.876823
O O4 0.900416 0.659799 0.878492
O O5 0.678083 0.850013 0.435338
O O6 0.000000 0.863259 0.500000
O O7 0.165273 0.806329 0.355220
O O8 0.056191 0.000000 0.392863
O O9 0.650787 0.695374 0.538456
O O10 0.644337 0.380415 0.662519
O O11 0.176376 0.352729 0.636120
O O12 0.092064 0.500000 0.925684
O O13 0.000000 0.328093 0.000000
O O14 0.511721 0.500000 0.573802
#
# Coordination Sequence:
#
# PCOD8057869 Si02
#       6
#     4   4   2   4   4   4
#     4  10  18  29  46  68 102 135 159 196 241 287
#     4  10  20  37  55  71  94 128 172 225 272 302
#     4  10  20  34  50  74  92 126 168 216 258 310
#     4  11  22  35  50  75 100 134 174 209 256 306
#     4   9  17  29  47  71  98 132 167 193 225 279
#     4  11  21  33  49  69 100 132 167 206 247 303
#
# _framework density 17.636800000000001
#
# number of rings (size 3 to 8) (size 9 to 14) (size 15 to 20)
#    0.000    1.818    1.818    3.818    0.000    3.636 
#    0.000    2.727    0.000    0.000    0.000    0.000 
#    0.000    4.364    0.000    0.000    0.000    0.000 
#
# Total GULP energy -272562.537573 kJ/mol
# GULP energy per Si atom -12389.206253 kJ/mol
# Density = 1.759666 g / cm^3
# Si number density = 17.636800 Si / 1000 Ang^3
#
#
#
# Elastic Constant Matrix: (Units=GPa)
#
#
# Indices 1 2 3 4 5 6 
#
# 1 111.8726 28.6264 37.2594 0.0000 8.7892 0.0000
# 2 28.6264 89.2733 45.0911 0.0000 0.0716 0.0000
# 3 37.2594 45.0911 121.3290 0.0000 7.0827 0.0000
# 4 0.0000 0.0000 0.0000 13.6611 0.0000 -1.3198
# 5 8.7892 0.0716 7.0827 0.0000 25.3691 0.0000
# 6 0.0000 0.0000 0.0000 -1.3198 0.0000 9.9606
#
#
#
# Elastic Compliance Matrix: (Units=1/GPa)
#
#
# Indices 1 2 3 4 5 6 
#
# 1 0.010485 -0.002243 -0.002211 0.000000 -0.003009 0.000000
# 2 -0.002243 0.014320 -0.004754 0.000000 0.002064 0.000000
# 3 -0.002211 -0.004754 0.010818 0.000000 -0.002241 0.000000
# 4 0.000000 0.000000 0.000000 0.074150 0.000000 0.009825
# 5 -0.003009 0.002064 -0.002241 0.000000 0.041080 0.000000
# 6 0.000000 0.000000 0.000000 0.009825 0.000000 0.101698
#
#
# Mechanical properties :
#
#
# Convention : Reuss Voigt Hill
#
# Bulk Modulus (GPa) = 58.10908 60.49207 59.30058
# Shear Modulus (GPa) = 18.06991 23.89802 20.98396
#
# Velocity S-wave (km/s) = 3.20434 3.68504 3.45306
# Velocity P-wave (km/s) = 6.83444 7.24426 7.04233
#
# Compressibility (1/GPa) = 0.01720901
#
# Stress axis : x y z
#
# Youngs Moduli (GPa) = 95.37039 69.83129 92.43516
#
# Poissons Ratio (x) = 0.15665 0.20434
# Poissons Ratio (y) = 0.21394 0.43940
# Poissons Ratio (z) = 0.21083 0.33195
#
# Static dielectric constant tensor:
#      x y z
#    x 3.496860 0.000000 0.069530 
#    y 0.000000 2.968350 0.000000 
#    z 0.069530 0.000000 3.330420 
# 
# 
# High freq. dielectric constant tensor:
#      x y z
#    x 1.698160 0.000000 0.008290 
#    y 0.000000 1.636990 0.000000 
#    z 0.008290 0.000000 1.670970 
# 
# From -- ./inp_files/10827.got.cif
#   From: 2010.06.25/outbox.cif.g09.slc.cpg/sg10_6_cif.got.tgz:10827.got - 2010.06.27 22:07:45.
