data_PCOD8057477
_publ_section_title
;
Structure prediction by ZEFSAII (Michael W. Deem and Ramdas Pophale) SiO2 
 PCOD8057477
Probable space group: P 2/M
;
_chemical_formula_sum "Si O2"
_cell_formula_units_Z 24
_cell_length_a 11.420642
_cell_length_b 11.577735
_cell_length_c 11.648791
_cell_angle_alpha 90.000000
_cell_angle_beta 45.696645
_cell_angle_gamma 90.000000
_cell_volume 1102.292281
_symmetry_space_group_name_H-M "P 2/M"
_symmetry_group_IT_number 10
_symmetry_cell_setting 'monoclinic'
loop_
_space_group_symop_operation_xyz
x,y,z
-x,y,-z
-x,-y,-z
x,-y,z
loop_
_atom_site_type_symbol
_atom_site_label
_atom_site_fract_x
_atom_site_fract_y
_atom_site_fract_z
Si Si1 0.247676 0.630849 0.687993
Si Si2 0.535625 0.500000 0.840232
Si Si3 0.681810 0.130011 0.886332
Si Si4 0.880709 0.500000 0.682407
Si Si5 0.030844 0.270091 0.252706
Si Si6 0.238332 0.868574 0.427051
Si Si7 0.484142 0.312750 0.328011
O O1 0.213903 0.500000 0.752596
O O2 0.347733 0.701143 0.715991
O O3 0.349765 0.622659 0.499230
O O4 0.076772 0.699296 0.786135
O O5 0.727155 0.500000 0.705030
O O6 0.474069 0.385907 0.815221
O O7 0.500000 0.500000 0.000000
O O8 0.805054 0.196175 0.889226
O O9 0.773580 0.134110 0.701814
O O10 0.660087 0.000000 0.947718
O O11 0.500000 0.186774 0.000000
O O12 0.897015 0.388366 0.748880
O O13 0.000000 0.500000 0.500000
O O14 0.915754 0.202022 0.420615
O O15 0.412318 0.812881 0.345271
O O16 0.233425 0.000000 0.476639
#
# Coordination Sequence:
#
# PCOD8057477 Si02
#       7
#     4   2   4   2   4   4   4
#     4  10  17  35  61  86 117 165 199 238 294 364
#     4  12  24  36  58  90 120 150 195 257 298 351
#     4  10  21  38  58  79 114 162 202 241 297 358
#     4  12  22  33  52  82 116 155 187 237 296 357
#     4  11  21  34  57  87 115 145 197 244 299 349
#     4  10  21  36  57  86 119 154 197 253 300 343
#     4  10  19  35  59  87 120 160 202 240 302 360
#
# _framework density 21.772808000000001
#
# number of rings (size 3 to 8) (size 9 to 14) (size 15 to 20)
#    0.000    1.500    2.500    5.500    0.000    4.000 
#    0.000    7.500    0.000    5.000    0.000    3.500 
#    0.000    0.000    0.000    0.000    0.000    0.000 
#
# Total GULP energy -297448.060369 kJ/mol
# GULP energy per Si atom -12393.669182 kJ/mol
# Density = 2.172325 g / cm^3
# Si number density = 21.772808 Si / 1000 Ang^3
#
#
#
# Elastic Constant Matrix: (Units=GPa)
#
#
# Indices 1 2 3 4 5 6 
#
# 1 174.2916 48.3866 18.6011 0.0000 -21.6955 0.0000
# 2 48.3866 114.4758 6.3274 0.0000 -7.5257 0.0000
# 3 18.6011 6.3274 40.0733 0.0000 -3.1010 0.0000
# 4 0.0000 0.0000 0.0000 -18.3646 0.0000 17.6774
# 5 -21.6955 -7.5257 -3.1010 0.0000 37.5749 0.0000
# 6 0.0000 0.0000 0.0000 17.6774 0.0000 13.5457
#
#
#
# Elastic Compliance Matrix: (Units=1/GPa)
#
#
# Indices 1 2 3 4 5 6 
#
# 1 0.007183 -0.002667 -0.002651 0.000000 0.003395 0.000000
# 2 -0.002667 0.009906 -0.000294 0.000000 0.000420 0.000000
# 3 -0.002651 -0.000294 0.026276 0.000000 0.000579 0.000000
# 4 0.000000 0.000000 0.000000 -0.024135 0.000000 0.031496
# 5 0.003395 0.000420 0.000579 0.000000 0.028706 0.000000
# 6 0.000000 0.000000 0.000000 0.031496 0.000000 0.032721
#
#
# Mechanical properties :
#
#
# Convention : Reuss Voigt Hill
#
# Bulk Modulus (GPa) = 31.11056 52.83010 41.97033
# Shear Modulus (GPa) = 48.73594 23.58623 36.16108
#
# Velocity S-wave (km/s) = 4.73629 3.29491 4.07976
# Velocity P-wave (km/s) = 6.65054 6.22833 6.44290
#
# Compressibility (1/GPa) = 0.03214343
#
# Stress axis : x y z
#
# Youngs Moduli (GPa) = 139.21302 100.94454 38.05784
#
# Poissons Ratio (x) = 0.26917 0.10087
# Poissons Ratio (y) = 0.37122 0.01119
# Poissons Ratio (z) = 0.36899 0.02967
#
# Static dielectric constant tensor:
#      x y z
#    x 4.125100 0.000000 -0.220810 
#    y 0.000000 4.005220 0.000000 
#    z -0.220810 0.000000 3.617890 
# 
# 
# High freq. dielectric constant tensor:
#      x y z
#    x 1.865490 0.000000 -0.019130 
#    y 0.000000 1.851060 0.000000 
#    z -0.019130 0.000000 1.822610 
# 
# From -- ./inp_files/46562.got.cif
#   From: 2010.06.25/outbox.cif.g09.slc.cpg/sg10_24_cif.got.tgz:46562.got - 2010.06.27 22:07:45.
