data_PCOD8057636
_publ_section_title
;
Structure prediction by ZEFSAII (Michael W. Deem and Ramdas Pophale) SiO2 
 PCOD8057636
Probable space group: P 2/M
;
_chemical_formula_sum "Si O2"
_cell_formula_units_Z 32
_cell_length_a 19.430251
_cell_length_b 8.907798
_cell_length_c 12.739835
_cell_angle_alpha 90.000000
_cell_angle_beta 62.668415
_cell_angle_gamma 90.000000
_cell_volume 1958.861150
_symmetry_space_group_name_H-M "P 2/M"
_symmetry_group_IT_number 10
_symmetry_cell_setting 'monoclinic'
loop_
_space_group_symop_operation_xyz
x,y,z
-x,y,-z
-x,-y,-z
x,-y,z
loop_
_atom_site_type_symbol
_atom_site_label
_atom_site_fract_x
_atom_site_fract_y
_atom_site_fract_z
Si Si1 0.686607 0.321834 0.402978
Si Si2 0.843387 0.677222 0.989134
Si Si3 0.422941 0.678433 0.336357
Si Si4 0.580861 0.321118 0.895566
Si Si5 0.312883 0.677530 0.996991
Si Si6 0.011264 0.333699 0.868094
Si Si7 0.164044 0.823189 0.780587
Si Si8 0.592549 0.678637 0.267394
O O1 0.698149 0.500000 0.389954
O O2 0.646087 0.269218 0.539220
O O3 0.769891 0.243246 0.340643
O O4 0.633017 0.263768 0.345057
O O5 0.841306 0.500000 0.015938
O O6 0.777581 0.723000 0.950777
O O7 0.927581 0.721887 0.881833
O O8 0.825300 0.759625 0.110383
O O9 0.427156 0.500000 0.330359
O O10 0.407641 0.742491 0.230066
O O11 0.504781 0.740081 0.323113
O O12 0.580030 0.500000 0.893403
O O13 0.651204 0.260119 0.919414
O O14 0.500000 0.262227 0.000000
O O15 0.322259 0.500000 0.989313
O O16 0.360422 0.743295 0.865066
O O17 0.031570 0.500000 0.811158
O O18 0.080685 0.222173 0.789212
O O19 0.000000 0.339174 0.000000
O O20 0.170087 0.000000 0.779681
O O21 0.592797 0.500000 0.266006
#
# Coordination Sequence:
#
# PCOD8057636 Si02
#       8
#     4   4   4   4   4   4   4   4
#     4  10  18  28  42  60  88 119 150 180 209 254
#     4   9  16  28  44  64  88 116 145 171 210 261
#     4   9  16  24  37  61  87 116 149 182 216 249
#     4   9  14  21  34  58  92 117 137 175 223 256
#     4   9  14  21  38  61  87 117 142 170 211 255
#     4   8  15  27  43  61  85 114 142 170 208 262
#     4  11  20  28  41  62  88 115 144 176 216 258
#     4   9  14  22  38  59  83 114 149 178 207 247
#
# _framework density 16.336023000000001
#
# number of rings (size 3 to 8) (size 9 to 14) (size 15 to 20)
#    0.000    2.750    2.500    2.250    0.000    3.750 
#    0.000    0.000    0.000    1.500    0.000    1.750 
#    0.000    9.000    0.000    0.000    0.000    0.000 
#
# Total GULP energy -396585.057942 kJ/mol
# GULP energy per Si atom -12393.283061 kJ/mol
# Density = 1.629884 g / cm^3
# Si number density = 16.336023 Si / 1000 Ang^3
#
#
#
# Elastic Constant Matrix: (Units=GPa)
#
#
# Indices 1 2 3 4 5 6 
#
# 1 151.1748 26.8455 73.9558 0.0000 -18.1920 0.0000
# 2 26.8455 32.9099 22.1428 0.0000 -7.7964 0.0000
# 3 73.9558 22.1428 108.5782 0.0000 -4.5391 0.0000
# 4 0.0000 0.0000 0.0000 3.2796 0.0000 -0.0057
# 5 -18.1920 -7.7964 -4.5391 0.0000 25.2226 0.0000
# 6 0.0000 0.0000 0.0000 -0.0057 0.0000 1.9515
#
#
#
# Elastic Compliance Matrix: (Units=1/GPa)
#
#
# Indices 1 2 3 4 5 6 
#
# 1 0.011173 -0.003211 -0.006710 0.000000 0.005858 0.000000
# 2 -0.003211 0.038647 -0.005332 0.000000 0.008670 0.000000
# 3 -0.006710 -0.005332 0.014707 0.000000 -0.003841 0.000000
# 4 0.000000 0.000000 0.000000 0.304913 0.000000 0.000887
# 5 0.005858 0.008670 -0.003841 0.000000 0.045861 0.000000
# 6 0.000000 0.000000 0.000000 0.000887 0.000000 0.512417
#
#
# Mechanical properties :
#
#
# Convention : Reuss Voigt Hill
#
# Bulk Modulus (GPa) = 29.39408 59.83903 44.61655
# Shear Modulus (GPa) = 5.15695 17.40533 11.28114
#
# Velocity S-wave (km/s) = 1.77867 3.26768 2.63072
# Velocity P-wave (km/s) = 4.71706 7.13769 6.04968
#
# Compressibility (1/GPa) = 0.03402046
#
# Stress axis : x y z
#
# Youngs Moduli (GPa) = 89.50277 25.87530 67.99332
#
# Poissons Ratio (x) = 0.08309 0.45626
# Poissons Ratio (y) = 0.28741 0.36252
# Poissons Ratio (z) = 0.60060 0.13796
#
# Static dielectric constant tensor:
#      x y z
#    x 3.554200 0.000000 -0.101880 
#    y 0.000000 2.551340 0.000000 
#    z -0.101880 0.000000 3.023020 
# 
# 
# High freq. dielectric constant tensor:
#      x y z
#    x 1.638120 0.000000 -0.015820 
#    y 0.000000 1.572710 0.000000 
#    z -0.015820 0.000000 1.598330 
# 
# From -- ./inp_files/54857.got.cif
#   From: 2010.06.25/outbox.cif.g09.slc.cpg/sg10_28_cif.got.tgz:54857.got - 2010.06.27 22:07:45.
