data_PCOD8057581
_publ_section_title
;
Structure prediction by ZEFSAII (Michael W. Deem and Ramdas Pophale) SiO2 
 PCOD8057581
Probable space group: P 2/M
;
_chemical_formula_sum "Si O2"
_cell_formula_units_Z 28
_cell_length_a 14.986473
_cell_length_b 8.976833
_cell_length_c 14.023613
_cell_angle_alpha 90.000000
_cell_angle_beta 85.568499
_cell_angle_gamma 90.000000
_cell_volume 1880.971424
_symmetry_space_group_name_H-M "P 2/M"
_symmetry_group_IT_number 10
_symmetry_cell_setting 'monoclinic'
loop_
_space_group_symop_operation_xyz
x,y,z
-x,y,-z
-x,-y,-z
x,-y,z
loop_
_atom_site_type_symbol
_atom_site_label
_atom_site_fract_x
_atom_site_fract_y
_atom_site_fract_z
Si Si1 0.405549 0.664574 0.455571
Si Si2 0.721585 0.668861 0.016790
Si Si3 0.665670 0.676131 0.343570
Si Si4 0.512456 0.825520 0.714581
Si Si5 0.575321 0.174075 0.919034
Si Si6 0.780329 0.823730 0.187959
Si Si7 0.089016 0.669085 0.945394
O O1 0.500000 0.657511 0.500000
O O2 0.381198 0.500000 0.418196
O O3 0.334830 0.714866 0.543059
O O4 0.409746 0.779658 0.367298
O O5 0.688917 0.500000 0.037139
O O6 0.667370 0.740914 0.934658
O O7 0.828719 0.671729 0.984847
O O8 0.707592 0.764402 0.115662
O O9 0.669690 0.500000 0.326760
O O10 0.577803 0.737418 0.298579
O O11 0.753196 0.754796 0.292126
O O12 0.545876 0.780104 0.816157
O O13 0.492951 0.000000 0.707665
O O14 0.594400 0.000000 0.926128
O O15 0.500000 0.225827 0.000000
O O16 0.778430 0.000000 0.193125
O O17 0.879780 0.765604 0.149603
O O18 0.069097 0.500000 0.913468
O O19 0.000000 0.739478 0.000000
#
# Coordination Sequence:
#
# PCOD8057581 Si02
#       7
#     4   4   4   4   4   4   4
#     4   8  16  29  42  56  77 107 142 181 219 256
#     4   9  18  30  44  62  82 113 148 175 209 249
#     4  10  18  29  43  59  81 111 146 180 218 257
#     4  10  19  28  41  60  82 111 147 183 221 254
#     4  10  20  31  41  57  85 118 149 182 215 246
#     4  10  18  27  42  64  88 110 137 172 213 256
#     4   8  16  31  47  64  88 114 141 174 213 258
#
# _framework density 14.885923999999999
#
# number of rings (size 3 to 8) (size 9 to 14) (size 15 to 20)
#    0.857    1.857    0.000    3.857    0.000    6.000 
#    0.000    0.000    0.000    0.000    0.000    0.000 
#    0.000    1.143    0.000   12.857    0.000    6.429 
#
# Total GULP energy -346936.732671 kJ/mol
# GULP energy per Si atom -12390.597595 kJ/mol
# Density = 1.485204 g / cm^3
# Si number density = 14.885924 Si / 1000 Ang^3
#
#
#
# Elastic Constant Matrix: (Units=GPa)
#
#
# Indices 1 2 3 4 5 6 
#
# 1 60.8736 30.5752 38.4933 0.0000 -19.8700 0.0000
# 2 30.5752 84.1681 45.7404 0.0000 -14.4660 0.0000
# 3 38.4933 45.7404 98.5514 0.0000 -23.4541 0.0000
# 4 0.0000 0.0000 0.0000 24.8072 0.0000 -1.4071
# 5 -19.8700 -14.4660 -23.4541 0.0000 24.0637 0.0000
# 6 0.0000 0.0000 0.0000 -1.4071 0.0000 16.5329
#
#
#
# Elastic Compliance Matrix: (Units=1/GPa)
#
#
# Indices 1 2 3 4 5 6 
#
# 1 0.026444 -0.004518 -0.004793 0.000000 0.014447 0.000000
# 2 -0.004518 0.016837 -0.005897 0.000000 0.000644 0.000000
# 3 -0.004793 -0.005897 0.016888 0.000000 0.008957 0.000000
# 4 0.000000 0.000000 0.000000 0.040506 0.000000 0.003447
# 5 0.014447 0.000644 0.008957 0.000000 0.062603 0.000000
# 6 0.000000 0.000000 0.000000 0.003447 0.000000 0.060779
#
#
# Mechanical properties :
#
#
# Convention : Reuss Voigt Hill
#
# Bulk Modulus (GPa) = 33.61079 52.57899 43.09489
# Shear Modulus (GPa) = 18.91138 21.66637 20.28887
#
# Velocity S-wave (km/s) = 3.56816 3.81923 3.69583
# Velocity P-wave (km/s) = 6.29314 7.40585 6.87206
#
# Compressibility (1/GPa) = 0.02975235
#
# Stress axis : x y z
#
# Youngs Moduli (GPa) = 37.81630 59.39149 59.21435
#
# Poissons Ratio (x) = 0.26833 0.28384
# Poissons Ratio (y) = 0.17085 0.34917
# Poissons Ratio (z) = 0.18127 0.35022
#
# Static dielectric constant tensor:
#      x y z
#    x 2.637360 0.000000 -0.283210 
#    y 0.000000 2.894000 0.000000 
#    z -0.283210 0.000000 2.997160 
# 
# 
# High freq. dielectric constant tensor:
#      x y z
#    x 1.526570 0.000000 -0.025210 
#    y 0.000000 1.581010 0.000000 
#    z -0.025210 0.000000 1.554990 
# 
# From -- ./inp_files/65756.got.cif
#   From: 2010.06.25/outbox.cif.g09.slc.cpg/sg10_33_cif.got.tgz:65756.got - 2010.06.27 22:07:45.
