data_PCOD8057964
_publ_section_title
;
Structure prediction by ZEFSAII (Michael W. Deem and Ramdas Pophale) SiO2 
 PCOD8057964
Probable space group: P 2/M
;
_chemical_formula_sum "Si O2"
_cell_formula_units_Z 32
_cell_length_a 9.868767
_cell_length_b 14.583435
_cell_length_c 28.338620
_cell_angle_alpha 90.000000
_cell_angle_beta 27.723609
_cell_angle_gamma 90.000000
_cell_volume 1897.350264
_symmetry_space_group_name_H-M "P 2/M"
_symmetry_group_IT_number 10
_symmetry_cell_setting 'monoclinic'
loop_
_space_group_symop_operation_xyz
x,y,z
-x,y,-z
-x,-y,-z
x,-y,z
loop_
_atom_site_type_symbol
_atom_site_label
_atom_site_fract_x
_atom_site_fract_y
_atom_site_fract_z
Si Si1 0.141725 0.156721 0.912362
Si Si2 0.714525 0.106902 0.892291
Si Si3 0.449731 0.395586 0.620625
Si Si4 0.308753 0.898171 0.760129
Si Si5 0.295245 0.729871 0.381995
Si Si6 0.846024 0.604772 0.757540
Si Si7 0.971592 0.394746 0.611571
Si Si8 0.447902 0.232857 0.897717
O O1 0.211848 0.098609 0.844817
O O2 0.428363 0.204600 0.847568
O O3 0.000000 0.096504 0.000000
O O4 0.884151 0.231648 0.978996
O O5 0.652771 0.162927 0.863646
O O6 0.042474 0.127039 0.808040
O O7 0.665292 0.000000 0.896287
O O8 0.500000 0.139431 0.000000
O O9 0.477801 0.500000 0.629915
O O10 0.488218 0.328540 0.652664
O O11 0.691815 0.376915 0.505836
O O12 0.133365 0.374716 0.698493
O O13 0.565373 0.826417 0.674568
O O14 0.424177 0.000000 0.712440
O O15 0.240398 0.670861 0.352309
O O16 0.000000 0.752306 0.500000
O O17 0.744307 0.500000 0.793788
O O18 0.927361 0.630305 0.679296
O O19 0.583980 0.665989 0.858615
O O20 0.886859 0.500000 0.626974
#
# Coordination Sequence:
#
# PCOD8057964 Si02
#       8
#     4   4   4   4   4   4   4   4
#     4   8  19  33  49  70  93 123 160 205 244 284
#     4  10  18  31  51  74  92 117 160 207 252 287
#     4   9  17  30  49  74  99 125 162 206 244 278
#     4  11  21  33  51  74  99 128 163 202 246 292
#     4  10  20  33  50  73 102 133 162 195 242 296
#     4  10  18  29  48  72 100 130 162 194 240 292
#     4   9  17  30  50  73  98 127 163 205 240 279
#     4   9  18  32  48  69  97 125 153 200 246 288
#
# _framework density 16.865625999999999
#
# number of rings (size 3 to 8) (size 9 to 14) (size 15 to 20)
#    0.750    1.625    1.250    2.250    0.000    4.000 
#    0.000    1.250    0.000    1.875    0.000    0.000 
#    0.000   14.000    0.000    0.000    0.000    0.000 
#
# Total GULP energy -396488.393393 kJ/mol
# GULP energy per Si atom -12390.262294 kJ/mol
# Density = 1.682724 g / cm^3
# Si number density = 16.865626 Si / 1000 Ang^3
#
#
#
# Elastic Constant Matrix: (Units=GPa)
#
#
# Indices 1 2 3 4 5 6 
#
# 1 89.1475 38.4894 20.9135 0.0000 -7.0555 0.0000
# 2 38.4894 82.4428 31.0327 0.0000 -7.0907 0.0000
# 3 20.9135 31.0327 36.1213 0.0000 -2.9405 0.0000
# 4 0.0000 0.0000 0.0000 16.6267 0.0000 0.7886
# 5 -7.0555 -7.0907 -2.9405 0.0000 18.8900 0.0000
# 6 0.0000 0.0000 0.0000 0.7886 0.0000 16.1784
#
#
#
# Elastic Compliance Matrix: (Units=1/GPa)
#
#
# Indices 1 2 3 4 5 6 
#
# 1 0.014545 -0.005112 -0.003792 0.000000 0.002924 0.000000
# 2 -0.005112 0.020090 -0.014019 0.000000 0.003449 0.000000
# 3 -0.003792 -0.014019 0.041912 0.000000 -0.000154 0.000000
# 4 0.000000 0.000000 0.000000 0.060283 0.000000 -0.002938
# 5 0.002924 0.003449 -0.000154 0.000000 0.055301 0.000000
# 6 0.000000 0.000000 0.000000 -0.002938 0.000000 0.061954
#
#
# Mechanical properties :
#
#
# Convention : Reuss Voigt Hill
#
# Bulk Modulus (GPa) = 32.57213 43.17588 37.87401
# Shear Modulus (GPa) = 16.12048 18.15743 17.13895
#
# Velocity S-wave (km/s) = 3.09499 3.28471 3.19126
# Velocity P-wave (km/s) = 5.66803 6.32782 6.00699
#
# Compressibility (1/GPa) = 0.03070109
#
# Stress axis : x y z
#
# Youngs Moduli (GPa) = 68.75051 49.77611 23.85977
#
# Poissons Ratio (x) = 0.25445 0.09047
# Poissons Ratio (y) = 0.35145 0.33450
# Poissons Ratio (z) = 0.26068 0.69782
#
# Static dielectric constant tensor:
#      x y z
#    x 3.289080 0.000000 -0.099790 
#    y 0.000000 3.033540 0.000000 
#    z -0.099790 0.000000 2.921190 
# 
# 
# High freq. dielectric constant tensor:
#      x y z
#    x 1.665670 0.000000 -0.009570 
#    y 0.000000 1.635190 0.000000 
#    z -0.009570 0.000000 1.626550 
# 
# From -- ./inp_files/92372.got.cif
#   From: 2010.06.25/outbox.cif.g09.slc.cpg/sg10_47_cif.got.tgz:92372.got - 2010.06.27 22:07:45.
