data_PCOD8057392
_publ_section_title
;
Structure prediction by ZEFSAII (Michael W. Deem and Ramdas Pophale) SiO2 
 PCOD8057392
Probable space group: P 2/M
;
_chemical_formula_sum "Si O2"
_cell_formula_units_Z 30
_cell_length_a 11.847683
_cell_length_b 13.611301
_cell_length_c 21.635734
_cell_angle_alpha 90.000000
_cell_angle_beta 152.067288
_cell_angle_gamma 90.000000
_cell_volume 1634.381329
_symmetry_space_group_name_H-M "P 2/M"
_symmetry_group_IT_number 10
_symmetry_cell_setting 'monoclinic'
loop_
_space_group_symop_operation_xyz
x,y,z
-x,y,-z
-x,-y,-z
x,-y,z
loop_
_atom_site_type_symbol
_atom_site_label
_atom_site_fract_x
_atom_site_fract_y
_atom_site_fract_z
Si Si1 0.000000 0.243237 0.500000
Si Si2 0.931960 0.805693 0.768094
Si Si3 0.717257 0.109950 0.972791
Si Si4 0.451773 0.113519 0.584421
Si Si5 0.059010 0.280833 0.396089
Si Si6 0.548293 0.112350 0.275066
Si Si7 0.321243 0.811936 0.863014
Si Si8 0.781805 0.391031 0.636220
O O1 0.935777 0.308899 0.528782
O O2 0.782666 0.175064 0.373435
O O3 0.671248 0.857290 0.645202
O O4 0.904920 0.689588 0.740282
O O5 0.093376 0.856525 0.791804
O O6 0.076068 0.816942 0.902269
O O7 0.657982 0.142691 0.873845
O O8 0.477370 0.109228 0.900163
O O9 0.823609 0.000000 0.025165
O O10 0.222818 0.183688 0.461507
O O11 0.543107 0.128615 0.699237
O O12 0.377782 0.000000 0.536916
O O13 0.153665 0.374123 0.404474
O O14 0.786952 0.262650 0.240007
O O15 0.621835 0.000000 0.298694
O O16 0.500000 0.759783 0.000000
O O17 0.500000 0.380075 0.500000
O O18 0.865824 0.500000 0.697532
#
# Coordination Sequence:
#
# PCOD8057392 Si02
#       8
#     2   4   4   4   4   4   4   4
#     4  10  17  30  55  76 108 144 168 232 262 294
#     4  10  20  34  52  74 105 136 178 218 263 315
#     4  10  19  32  50  75 108 150 186 211 246 308
#     4  10  20  32  48  77 113 144 175 217 262 304
#     4  10  19  34  54  82 107 136 181 220 265 316
#     4   9  18  30  47  74 106 149 191 209 245 304
#     4   9  19  32  48  68 103 143 179 215 245 308
#     4  10  20  38  60  78 100 130 172 225 277 335
#
# _framework density 18.355568999999999
#
# number of rings (size 3 to 8) (size 9 to 14) (size 15 to 20)
#    0.000    2.267    2.667    0.600    0.000    4.533 
#    0.000   10.333    0.000   25.600    0.000    2.800 
#    0.000    0.000    0.000    0.000    0.000    0.000 
#
# Total GULP energy -371692.679734 kJ/mol
# GULP energy per Si atom -12389.755991 kJ/mol
# Density = 1.831379 g / cm^3
# Si number density = 18.355569 Si / 1000 Ang^3
#
#
#
# Elastic Constant Matrix: (Units=GPa)
#
#
# Indices 1 2 3 4 5 6 
#
# 1 61.4626 16.7748 27.0634 0.0000 2.2748 0.0000
# 2 16.7748 70.9229 33.7076 0.0000 -2.4022 0.0000
# 3 27.0634 33.7076 94.1295 0.0000 -15.3346 0.0000
# 4 0.0000 0.0000 0.0000 29.5754 0.0000 14.3788
# 5 2.2748 -2.4022 -15.3346 0.0000 27.4612 0.0000
# 6 0.0000 0.0000 0.0000 14.3788 0.0000 40.5466
#
#
#
# Elastic Compliance Matrix: (Units=1/GPa)
#
#
# Indices 1 2 3 4 5 6 
#
# 1 0.019523 -0.002089 -0.005674 0.000000 -0.004969 0.000000
# 2 -0.002089 0.017326 -0.005862 0.000000 -0.001585 0.000000
# 3 -0.005674 -0.005862 0.015783 0.000000 0.008771 0.000000
# 4 0.000000 0.000000 0.000000 0.040856 0.000000 -0.014488
# 5 -0.004969 -0.001585 0.008771 0.000000 0.041586 0.000000
# 6 0.000000 0.000000 0.000000 -0.014488 0.000000 0.029801
#
#
# Mechanical properties :
#
#
# Convention : Reuss Voigt Hill
#
# Bulk Modulus (GPa) = 39.39913 42.40072 40.89993
# Shear Modulus (GPa) = 24.92701 29.44792 27.18746
#
# Velocity S-wave (km/s) = 3.68911 4.00972 3.85275
# Velocity P-wave (km/s) = 6.29739 6.67735 6.49015
#
# Compressibility (1/GPa) = 0.02538127
#
# Stress axis : x y z
#
# Youngs Moduli (GPa) = 51.22256 57.71568 63.35870
#
# Poissons Ratio (x) = 0.12057 0.35952
# Poissons Ratio (y) = 0.10700 0.37141
# Poissons Ratio (z) = 0.29066 0.33833
#
# Static dielectric constant tensor:
#      x y z
#    x 3.594600 0.000000 -0.116510 
#    y 0.000000 3.001990 0.000000 
#    z -0.116510 0.000000 3.572600 
# 
# 
# High freq. dielectric constant tensor:
#      x y z
#    x 1.723060 0.000000 -0.005680 
#    y 0.000000 1.651260 0.000000 
#    z -0.005680 0.000000 1.721410 
# 
# From -- ./inp_files/47351.got.cif
#   From: 2010.06.25/outbox.cif.g09.slc.cpg/sg10_24_cif.got.tgz:47351.got - 2010.06.27 22:07:45.
