data_PCOD8057962
_publ_section_title
;
Structure prediction by ZEFSAII (Michael W. Deem and Ramdas Pophale) SiO2 
 PCOD8057962
Probable space group: P 2/M
;
_chemical_formula_sum "Si O2"
_cell_formula_units_Z 32
_cell_length_a 15.740005
_cell_length_b 9.111010
_cell_length_c 26.000387
_cell_angle_alpha 90.000000
_cell_angle_beta 150.252995
_cell_angle_gamma 90.000000
_cell_volume 1850.046668
_symmetry_space_group_name_H-M "P 2/M"
_symmetry_group_IT_number 10
_symmetry_cell_setting 'monoclinic'
loop_
_space_group_symop_operation_xyz
x,y,z
-x,y,-z
-x,-y,-z
x,-y,z
loop_
_atom_site_type_symbol
_atom_site_label
_atom_site_fract_x
_atom_site_fract_y
_atom_site_fract_z
Si Si1 0.885533 0.327725 0.647829
Si Si2 0.323052 0.168372 0.095670
Si Si3 0.440493 0.328381 0.580585
Si Si4 0.928060 0.831188 0.877159
Si Si5 0.235354 0.173241 0.838382
Si Si6 0.423235 0.173496 0.037297
Si Si7 0.785019 0.672406 0.710329
Si Si8 0.633985 0.672760 0.781872
O O1 0.914930 0.500000 0.656457
O O2 0.742316 0.262773 0.533237
O O3 0.820070 0.288586 0.670143
O O4 0.062969 0.249140 0.728813
O O5 0.376755 0.237979 0.068859
O O6 0.417131 0.259895 0.189927
O O7 0.383608 0.000000 0.131235
O O8 0.120960 0.181514 0.998184
O O9 0.427035 0.500000 0.564079
O O10 0.594938 0.271246 0.625595
O O11 0.480631 0.290703 0.661196
O O12 0.919815 0.761350 0.815933
O O13 0.809693 0.743218 0.854350
O O14 0.868327 0.000000 0.843873
O O15 0.383018 0.216780 0.875380
O O16 0.207028 0.000000 0.824635
O O17 0.291824 0.232417 0.924575
O O18 0.401913 0.000000 0.027102
O O19 0.805416 0.500000 0.732928
O O20 0.662770 0.500000 0.802001
#
# Coordination Sequence:
#
# PCOD8057962 Si02
#       8
#     4   4   4   4   4   4   4   4
#     4  10  18  29  48  71  94 121 153 191 234 273
#     4  10  19  31  48  69  92 121 156 190 229 274
#     4   8  16  31  47  63  89 126 161 188 222 271
#     4  10  19  30  46  69  97 125 152 187 230 273
#     4   9  17  32  52  72  94 121 153 184 222 277
#     4   8  16  32  52  70  93 125 152 180 225 280
#     4   9  17  29  46  68  94 125 158 188 221 269
#     4  10  20  33  48  66  91 125 161 193 225 266
#
# _framework density 17.296861
#
# number of rings (size 3 to 8) (size 9 to 14) (size 15 to 20)
#    0.000    2.750    0.000    3.750    0.000    5.500 
#    0.000    5.625    0.000    4.500    0.000    5.250 
#    0.000    0.000    0.000    0.000    0.000    0.000 
#
# Total GULP energy -396704.501962 kJ/mol
# GULP energy per Si atom -12397.015686 kJ/mol
# Density = 1.725749 g / cm^3
# Si number density = 17.296861 Si / 1000 Ang^3
#
#
#
# Elastic Constant Matrix: (Units=GPa)
#
#
# Indices 1 2 3 4 5 6 
#
# 1 97.9212 33.1932 41.5655 0.0000 -14.6468 0.0000
# 2 33.1932 48.9165 33.4063 0.0000 -7.5833 0.0000
# 3 41.5655 33.4063 99.2053 0.0000 -5.3363 0.0000
# 4 0.0000 0.0000 0.0000 17.7934 0.0000 8.1310
# 5 -14.6468 -7.5833 -5.3363 0.0000 22.5292 0.0000
# 6 0.0000 0.0000 0.0000 8.1310 0.0000 11.1768
#
#
#
# Elastic Compliance Matrix: (Units=1/GPa)
#
#
# Indices 1 2 3 4 5 6 
#
# 1 0.015031 -0.006637 -0.003704 0.000000 0.006660 0.000000
# 2 -0.006637 0.030584 -0.007289 0.000000 0.004253 0.000000
# 3 -0.003704 -0.007289 0.014004 0.000000 -0.001545 0.000000
# 4 0.000000 0.000000 0.000000 0.084188 0.000000 -0.061245
# 5 0.006660 0.004253 -0.001545 0.000000 0.049783 0.000000
# 6 0.000000 0.000000 0.000000 -0.061245 0.000000 0.134026
#
#
# Mechanical properties :
#
#
# Convention : Reuss Voigt Hill
#
# Bulk Modulus (GPa) = 41.05586 51.37477 46.21531
# Shear Modulus (GPa) = 13.47725 19.49175 16.48450
#
# Velocity S-wave (km/s) = 2.79440 3.36057 3.09047
# Velocity P-wave (km/s) = 5.84800 6.69508 6.28583
#
# Compressibility (1/GPa) = 0.02435706
#
# Stress axis : x y z
#
# Youngs Moduli (GPa) = 66.52985 32.69679 71.40968
#
# Poissons Ratio (x) = 0.21701 0.26454
# Poissons Ratio (y) = 0.44156 0.52052
# Poissons Ratio (z) = 0.24646 0.23834
#
# Static dielectric constant tensor:
#      x y z
#    x 3.308070 0.000000 -0.162120 
#    y 0.000000 3.016550 0.000000 
#    z -0.162120 0.000000 3.326890 
# 
# 
# High freq. dielectric constant tensor:
#      x y z
#    x 1.658590 0.000000 -0.011530 
#    y 0.000000 1.644830 0.000000 
#    z -0.011530 0.000000 1.661290 
# 
# From -- ./inp_files/66510.got.cif
#   From: 2010.06.25/outbox.cif.g09.slc.cpg/sg10_34_cif.got.tgz:66510.got - 2010.06.27 22:07:45.
