data_PCOD8057037
_publ_section_title
;
Structure prediction by ZEFSAII (Michael W. Deem and Ramdas Pophale) SiO2 
 PCOD8057037
Probable space group: P 2/M
;
_chemical_formula_sum "Si O2"
_cell_formula_units_Z 28
_cell_length_a 21.482291
_cell_length_b 8.760436
_cell_length_c 11.513318
_cell_angle_alpha 90.000000
_cell_angle_beta 130.862663
_cell_angle_gamma 90.000000
_cell_volume 1638.662128
_symmetry_space_group_name_H-M "P 2/M"
_symmetry_group_IT_number 10
_symmetry_cell_setting 'monoclinic'
loop_
_space_group_symop_operation_xyz
x,y,z
-x,y,-z
-x,-y,-z
x,-y,z
loop_
_atom_site_type_symbol
_atom_site_label
_atom_site_fract_x
_atom_site_fract_y
_atom_site_fract_z
Si Si1 0.457633 0.180796 0.119405
Si Si2 0.909011 0.676868 0.985397
Si Si3 0.424477 0.819616 0.332873
Si Si4 0.771850 0.679179 0.527229
Si Si5 0.728657 0.674766 0.735481
Si Si6 0.626104 0.819336 0.214763
Si Si7 0.064003 0.179249 0.229395
O O1 0.430057 0.250138 0.209582
O O2 0.550166 0.235041 0.202813
O O3 0.458672 0.000000 0.123792
O O4 0.393692 0.231832 0.941549
O O5 0.926302 0.500000 0.977533
O O6 0.976586 0.740952 0.160175
O O7 0.814528 0.696315 0.911492
O O8 0.919208 0.777100 0.882774
O O9 0.500000 0.751830 0.500000
O O10 0.338397 0.779201 0.285737
O O11 0.431929 0.000000 0.335518
O O12 0.786188 0.500000 0.539920
O O13 0.739959 0.728216 0.615988
O O14 0.707276 0.730975 0.351984
O O15 0.858997 0.758542 0.602131
O O16 0.699187 0.500000 0.704189
O O17 0.640596 0.000000 0.242732
O O18 0.055956 0.000000 0.237342
#
# Coordination Sequence:
#
# PCOD8057037 Si02
#       7
#     4   4   4   4   4   4   4
#     4   8  16  30  47  68  91 116 147 188 232 264
#     4   9  16  28  42  59  89 122 149 182 225 265
#     4  10  19  30  46  68  92 118 151 187 221 261
#     4  10  19  30  43  64  94 121 149 187 229 266
#     4   9  19  31  43  62  90 124 153 180 220 266
#     4   9  16  30  50  66  86 117 152 187 225 271
#     4  10  17  25  41  65  89 116 151 183 219 270
#
# _framework density 17.087109000000002
#
# number of rings (size 3 to 8) (size 9 to 14) (size 15 to 20)
#    0.000    2.714    0.000    5.571    0.000    4.857 
#    0.000    2.857    0.000    0.000    0.000    1.000 
#    0.000    8.000    0.000    0.000    0.000    0.000 
#
# Total GULP energy -347016.855612 kJ/mol
# GULP energy per Si atom -12393.459129 kJ/mol
# Density = 1.704822 g / cm^3
# Si number density = 17.087109 Si / 1000 Ang^3
#
#
#
# Elastic Constant Matrix: (Units=GPa)
#
#
# Indices 1 2 3 4 5 6 
#
# 1 71.9477 22.2849 58.4881 0.0000 12.1682 0.0000
# 2 22.2849 49.5904 33.5044 0.0000 7.4526 0.0000
# 3 58.4881 33.5044 133.8485 0.0000 23.1265 0.0000
# 4 0.0000 0.0000 0.0000 21.2267 0.0000 6.6057
# 5 12.1682 7.4526 23.1265 0.0000 30.7447 0.0000
# 6 0.0000 0.0000 0.0000 6.6057 0.0000 17.2219
#
#
#
# Elastic Compliance Matrix: (Units=1/GPa)
#
#
# Indices 1 2 3 4 5 6 
#
# 1 0.022293 -0.004077 -0.008468 0.000000 -0.001465 0.000000
# 2 -0.004077 0.025076 -0.004280 0.000000 -0.001245 0.000000
# 3 -0.008468 -0.004280 0.013200 0.000000 -0.005540 0.000000
# 4 0.000000 0.000000 0.000000 0.053496 0.000000 -0.020519
# 5 -0.001465 -0.001245 -0.005540 0.000000 0.037575 0.000000
# 6 0.000000 0.000000 0.000000 -0.020519 0.000000 0.065936
#
#
# Mechanical properties :
#
#
# Convention : Reuss Voigt Hill
#
# Bulk Modulus (GPa) = 37.14775 53.77127 45.45951
# Shear Modulus (GPa) = 19.21597 23.24593 21.23095
#
# Velocity S-wave (km/s) = 3.35713 3.69241 3.52875
# Velocity P-wave (km/s) = 6.06749 7.05094 6.57762
#
# Compressibility (1/GPa) = 0.02691953
#
# Stress axis : x y z
#
# Youngs Moduli (GPa) = 44.85650 39.87828 75.75730
#
# Poissons Ratio (x) = 0.16258 0.64150
# Poissons Ratio (y) = 0.18287 0.32427
# Poissons Ratio (z) = 0.37984 0.17069
#
# Static dielectric constant tensor:
#      x y z
#    x 3.174950 0.000000 0.286590 
#    y 0.000000 2.980320 0.000000 
#    z 0.286590 0.000000 3.546770 
# 
# 
# High freq. dielectric constant tensor:
#      x y z
#    x 1.624910 0.000000 0.034770 
#    y 0.000000 1.649030 0.000000 
#    z 0.034770 0.000000 1.658650 
# 
# From -- ./inp_files/54960.got.cif
#   From: 2010.06.25/outbox.cif.g09.slc.cpg/sg10_28_cif.got.tgz:54960.got - 2010.06.27 22:07:45.
