data_PCOD8057131
_publ_section_title
;
Structure prediction by ZEFSAII (Michael W. Deem and Ramdas Pophale) SiO2 
 PCOD8057131
Probable space group: P 2/M
;
_chemical_formula_sum "Si O2"
_cell_formula_units_Z 28
_cell_length_a 20.420828
_cell_length_b 8.816472
_cell_length_c 18.191661
_cell_angle_alpha 90.000000
_cell_angle_beta 27.587238
_cell_angle_gamma 90.000000
_cell_volume 1516.750099
_symmetry_space_group_name_H-M "P 2/M"
_symmetry_group_IT_number 10
_symmetry_cell_setting 'monoclinic'
loop_
_space_group_symop_operation_xyz
x,y,z
-x,y,-z
-x,-y,-z
x,-y,z
loop_
_atom_site_type_symbol
_atom_site_label
_atom_site_fract_x
_atom_site_fract_y
_atom_site_fract_z
Si Si1 0.150356 0.826969 0.583378
Si Si2 0.327120 0.324293 0.530713
Si Si3 0.346638 0.322959 0.806046
Si Si4 0.177625 0.177122 0.104768
Si Si5 0.859872 0.176070 0.568366
Si Si6 0.332344 0.170456 0.672474
Si Si7 0.835088 0.321376 0.734568
O O1 0.232447 0.715304 0.555138
O O2 0.214562 0.804843 0.437051
O O3 0.985554 0.782590 0.748312
O O4 0.172046 0.000000 0.588001
O O5 0.314177 0.500000 0.561879
O O6 0.488429 0.280788 0.352619
O O7 0.268415 0.236253 0.660567
O O8 0.317680 0.500000 0.845850
O O9 0.283764 0.272024 0.789801
O O10 0.269433 0.228532 0.945053
O O11 0.236424 0.261764 0.119183
O O12 0.196600 0.000000 0.099549
O O13 0.766686 0.242104 0.729189
O O14 0.001860 0.274321 0.424960
O O15 0.897486 0.000000 0.544075
O O16 0.500000 0.175299 0.500000
O O17 0.275868 0.000000 0.739883
O O18 0.815087 0.500000 0.748514
#
# Coordination Sequence:
#
# PCOD8057131 Si02
#       7
#     4   4   4   4   4   4   4
#     4   9  19  33  50  73 101 131 165 203 243 290
#     4  10  20  33  52  76 102 130 161 201 247 292
#     4  10  20  34  52  76 102 128 162 203 246 293
#     4  10  20  34  51  73 101 133 166 203 247 292
#     4   9  16  28  45  67  96 129 165 204 242 285
#     4   9  17  31  52  74  96 127 166 203 239 285
#     4  10  17  26  44  70  97 127 163 203 245 289
#
# _framework density 18.460522000000001
#
# number of rings (size 3 to 8) (size 9 to 14) (size 15 to 20)
#    0.000    2.429    0.000    5.143    0.000    6.857 
#    0.000    0.714    0.000    5.143    0.000    6.000 
#    0.000    0.000    0.000    0.000    0.000    0.000 
#
# Total GULP energy -347095.778486 kJ/mol
# GULP energy per Si atom -12396.277803 kJ/mol
# Density = 1.841850 g / cm^3
# Si number density = 18.460522 Si / 1000 Ang^3
#
#
#
# Elastic Constant Matrix: (Units=GPa)
#
#
# Indices 1 2 3 4 5 6 
#
# 1 273.3119 91.1582 48.6860 0.0000 26.7765 0.0000
# 2 91.1582 102.2841 34.5402 0.0000 9.0227 0.0000
# 3 48.6860 34.5402 57.9499 0.0000 23.1371 0.0000
# 4 0.0000 0.0000 0.0000 27.0575 0.0000 8.3614
# 5 26.7765 9.0227 23.1371 0.0000 25.8825 0.0000
# 6 0.0000 0.0000 0.0000 8.3614 0.0000 33.7298
#
#
#
# Elastic Compliance Matrix: (Units=1/GPa)
#
#
# Indices 1 2 3 4 5 6 
#
# 1 0.005624 -0.004498 -0.000540 0.000000 -0.003768 0.000000
# 2 -0.004498 0.016045 -0.008412 0.000000 0.006579 0.000000
# 3 -0.000540 -0.008412 0.033168 0.000000 -0.026159 0.000000
# 4 0.000000 0.000000 0.000000 0.040024 0.000000 -0.009922
# 5 -0.003768 0.006579 -0.026159 0.000000 0.063625 0.000000
# 6 0.000000 0.000000 0.000000 -0.009922 0.000000 0.032107
#
#
# Mechanical properties :
#
#
# Convention : Reuss Voigt Hill
#
# Bulk Modulus (GPa) = 35.79279 86.92385 61.35832
# Shear Modulus (GPa) = 22.04538 34.61139 28.32838
#
# Velocity S-wave (km/s) = 3.45945 4.33469 3.92157
# Velocity P-wave (km/s) = 5.94878 8.49949 7.33585
#
# Compressibility (1/GPa) = 0.02793859
#
# Stress axis : x y z
#
# Youngs Moduli (GPa) = 177.79928 62.32311 30.14988
#
# Poissons Ratio (x) = 0.28032 0.01628
# Poissons Ratio (y) = 0.79971 0.25361
# Poissons Ratio (z) = 0.09600 0.52424
#
# Static dielectric constant tensor:
#      x y z
#    x 3.643230 0.000000 0.523450 
#    y 0.000000 3.429870 0.000000 
#    z 0.523450 0.000000 3.200950 
# 
# 
# High freq. dielectric constant tensor:
#      x y z
#    x 1.715440 0.000000 0.043170 
#    y 0.000000 1.729530 0.000000 
#    z 0.043170 0.000000 1.675980 
# 
# From -- ./inp_files/79245.got.cif
#   From: 2010.06.25/outbox.cif.g09.slc.cpg/sg10_40_cif.got.tgz:79245.got - 2010.06.27 22:07:45.
