data_PCOD8057243
_publ_section_title
;
Structure prediction by ZEFSAII (Michael W. Deem and Ramdas Pophale) SiO2 
 PCOD8057243
Probable space group: P 2/M
;
_chemical_formula_sum "Si O2"
_cell_formula_units_Z 32
_cell_length_a 20.266321
_cell_length_b 9.086881
_cell_length_c 31.542429
_cell_angle_alpha 90.000000
_cell_angle_beta 19.093514
_cell_angle_gamma 90.000000
_cell_volume 1900.115250
_symmetry_space_group_name_H-M "P 2/M"
_symmetry_group_IT_number 10
_symmetry_cell_setting 'monoclinic'
loop_
_space_group_symop_operation_xyz
x,y,z
-x,y,-z
-x,-y,-z
x,-y,z
loop_
_atom_site_type_symbol
_atom_site_label
_atom_site_fract_x
_atom_site_fract_y
_atom_site_fract_z
Si Si1 0.942940 0.330364 0.419134
Si Si2 0.277725 0.325013 0.623473
Si Si3 0.193944 0.672845 0.407110
Si Si4 0.275304 0.161714 0.098544
Si Si5 0.350376 0.828153 0.175904
Si Si6 0.089522 0.834193 0.117984
Si Si7 0.546669 0.674244 0.134750
Si Si8 0.912661 0.332552 0.345933
O O1 0.018294 0.500000 0.378069
O O2 0.123393 0.216085 0.304546
O O3 0.810156 0.285477 0.540506
O O4 0.817738 0.312872 0.450841
O O5 0.500000 0.268164 0.500000
O O6 0.263443 0.500000 0.636415
O O7 0.229002 0.265856 0.605083
O O8 0.121036 0.253375 0.751511
O O9 0.184561 0.500000 0.405678
O O10 0.406797 0.728591 0.259016
O O11 0.000000 0.742394 0.500000
O O12 0.201100 0.166665 0.095043
O O13 0.140971 0.270488 0.207826
O O14 0.242915 0.000000 0.137893
O O15 0.515915 0.198307 0.948546
O O16 0.426119 0.719729 0.166222
O O17 0.366516 0.000000 0.179746
O O18 0.046325 0.000000 0.128737
O O19 0.236253 0.754500 0.994795
O O20 0.582794 0.500000 0.112759
O O21 0.940891 0.500000 0.316567
#
# Coordination Sequence:
#
# PCOD8057243 Si02
#       8
#     4   4   4   4   4   4   4   4
#     4  10  19  31  44  60  85 116 153 190 224 266
#     4   9  17  31  51  74  97 119 145 177 219 274
#     4   9  16  28  45  64  84 115 157 195 231 264
#     4   8  16  29  42  56  83 119 148 177 214 261
#     4  10  19  29  41  61  86 117 155 191 227 259
#     4   9  17  29  45  69  97 120 147 183 225 269
#     4  10  17  28  47  65  87 120 156 193 230 266
#     4   9  18  30  45  65  87 113 145 183 221 260
#
# _framework density 16.841083000000001
#
# number of rings (size 3 to 8) (size 9 to 14) (size 15 to 20)
#    0.000    2.750    1.250    1.875    0.000    4.750 
#    0.000    4.375    0.000    0.000    0.000    0.875 
#    0.000    7.000    0.000    0.000    0.000    0.000 
#
# Total GULP energy -396513.964322 kJ/mol
# GULP energy per Si atom -12391.061385 kJ/mol
# Density = 1.680275 g / cm^3
# Si number density = 16.841083 Si / 1000 Ang^3
#
#
#
# Elastic Constant Matrix: (Units=GPa)
#
#
# Indices 1 2 3 4 5 6 
#
# 1 51.3814 18.1307 51.8792 0.0000 12.0945 0.0000
# 2 18.1307 45.4412 35.4543 0.0000 2.3341 0.0000
# 3 51.8792 35.4543 133.7205 0.0000 11.0966 0.0000
# 4 0.0000 0.0000 0.0000 14.8343 0.0000 -3.5672
# 5 12.0945 2.3341 11.0966 0.0000 26.6514 0.0000
# 6 0.0000 0.0000 0.0000 -3.5672 0.0000 9.7484
#
#
#
# Elastic Compliance Matrix: (Units=1/GPa)
#
#
# Indices 1 2 3 4 5 6 
#
# 1 0.035312 -0.004469 -0.011619 0.000000 -0.010796 0.000000
# 2 -0.004469 0.028323 -0.005943 0.000000 0.002022 0.000000
# 3 -0.011619 -0.005943 0.013549 0.000000 0.000152 0.000000
# 4 0.000000 0.000000 0.000000 0.073915 0.000000 0.027047
# 5 -0.010796 0.002022 0.000152 0.000000 0.042180 0.000000
# 6 0.000000 0.000000 0.000000 0.027047 0.000000 0.112478
#
#
# Mechanical properties :
#
#
# Convention : Reuss Voigt Hill
#
# Bulk Modulus (GPa) = 30.19238 49.05238 39.62238
# Shear Modulus (GPa) = 13.85572 18.58541 16.22056
#
# Velocity S-wave (km/s) = 2.87144 3.32562 3.10684
# Velocity P-wave (km/s) = 5.38148 6.62843 6.03724
#
# Compressibility (1/GPa) = 0.03312094
#
# Stress axis : x y z
#
# Youngs Moduli (GPa) = 28.31879 35.30702 73.80436
#
# Poissons Ratio (x) = 0.15780 0.85754
# Poissons Ratio (y) = 0.12657 0.43865
# Poissons Ratio (z) = 0.32904 0.20984
#
# Static dielectric constant tensor:
#      x y z
#    x 3.026080 0.000000 0.160910 
#    y 0.000000 3.080440 0.000000 
#    z 0.160910 0.000000 3.362520 
# 
# 
# High freq. dielectric constant tensor:
#      x y z
#    x 1.613160 0.000000 0.016950 
#    y 0.000000 1.641210 0.000000 
#    z 0.016950 0.000000 1.642050 
# 
# From -- ./inp_files/66202.got.cif
#   From: 2010.06.25/outbox.cif.g09.slc.cpg/sg10_34_cif.got.tgz:66202.got - 2010.06.27 22:07:45.
