data_PCOD8057995
_publ_section_title
;
Structure prediction by ZEFSAII (Michael W. Deem and Ramdas Pophale) SiO2 
 PCOD8057995
Probable space group: P 2/M
;
_chemical_formula_sum "Si O2"
_cell_formula_units_Z 32
_cell_length_a 11.663465
_cell_length_b 9.121093
_cell_length_c 19.704971
_cell_angle_alpha 90.000000
_cell_angle_beta 58.631069
_cell_angle_gamma 90.000000
_cell_volume 1789.877498
_symmetry_space_group_name_H-M "P 2/M"
_symmetry_group_IT_number 10
_symmetry_cell_setting 'monoclinic'
loop_
_space_group_symop_operation_xyz
x,y,z
-x,y,-z
-x,-y,-z
x,-y,z
loop_
_atom_site_type_symbol
_atom_site_label
_atom_site_fract_x
_atom_site_fract_y
_atom_site_fract_z
Si Si1 0.143380 0.331740 0.602873
Si Si2 0.830023 0.829668 0.267121
Si Si3 0.119682 0.837820 0.161708
Si Si4 0.549939 0.829458 0.291933
Si Si5 0.617392 0.672855 0.762784
Si Si6 0.425164 0.332487 0.454929
Si Si7 0.882099 0.165330 0.676173
Si Si8 0.377910 0.328613 0.081773
O O1 0.101025 0.500000 0.627745
O O2 0.192431 0.267166 0.659376
O O3 0.265269 0.318729 0.512662
O O4 0.017558 0.245144 0.609295
O O5 0.708300 0.801375 0.253222
O O6 0.969685 0.786815 0.185523
O O7 0.837323 0.000000 0.287741
O O8 0.117097 0.834425 0.243388
O O9 0.236736 0.734022 0.097390
O O10 0.151289 0.000000 0.124557
O O11 0.509184 0.739386 0.237726
O O12 0.467088 0.774390 0.382021
O O13 0.518008 0.000000 0.290940
O O14 0.625865 0.500000 0.748562
O O15 0.752278 0.745415 0.690595
O O16 0.597868 0.713643 0.847574
O O17 0.500000 0.281030 0.500000
O O18 0.466016 0.500000 0.424838
O O19 0.877144 0.000000 0.648675
O O20 0.368563 0.500000 0.073777
O O21 0.500000 0.262285 0.000000
#
# Coordination Sequence:
#
# PCOD8057995 Si02
#       8
#     4   4   4   4   4   4   4   4
#     4  10  18  29  49  73  98 128 168 215 258 297
#     4   9  18  31  47  70 100 133 169 210 250 291
#     4   8  15  28  47  73 101 127 160 201 242 287
#     4  11  22  34  51  73 101 137 173 210 254 302
#     4  10  20  35  54  75 102 133 166 204 250 304
#     4  10  20  34  49  71 102 134 171 216 258 299
#     4   9  17  31  50  71  99 130 165 209 253 299
#     4   9  18  33  54  80 105 128 158 199 246 296
#
# _framework density 17.878318
#
# number of rings (size 3 to 8) (size 9 to 14) (size 15 to 20)
#    0.000    2.500    1.250    2.250    0.000    5.500 
#    0.000    0.625    0.000    4.500    0.000    5.250 
#    0.000    0.000    0.000    0.000    0.000    0.000 
#
# Total GULP energy -396768.491886 kJ/mol
# GULP energy per Si atom -12399.015371 kJ/mol
# Density = 1.783763 g / cm^3
# Si number density = 17.878318 Si / 1000 Ang^3
#
#
#
# Elastic Constant Matrix: (Units=GPa)
#
#
# Indices 1 2 3 4 5 6 
#
# 1 111.9951 54.4136 48.1487 0.0000 -22.1716 0.0000
# 2 54.4136 94.0834 41.7695 0.0000 -10.1786 0.0000
# 3 48.1487 41.7695 75.3074 0.0000 -23.9586 0.0000
# 4 0.0000 0.0000 0.0000 21.8272 0.0000 -6.0987
# 5 -22.1716 -10.1786 -23.9586 0.0000 26.2801 0.0000
# 6 0.0000 0.0000 0.0000 -6.0987 0.0000 31.2878
#
#
#
# Elastic Compliance Matrix: (Units=1/GPa)
#
#
# Indices 1 2 3 4 5 6 
#
# 1 0.014954 -0.006129 -0.004089 0.000000 0.006515 0.000000
# 2 -0.006129 0.016717 -0.006956 0.000000 -0.005038 0.000000
# 3 -0.004089 -0.006956 0.025068 0.000000 0.016709 0.000000
# 4 0.000000 0.000000 0.000000 0.048453 0.000000 0.009445
# 5 0.006515 -0.005038 0.016709 0.000000 0.056829 0.000000
# 6 0.000000 0.000000 0.000000 0.009445 0.000000 0.033802
#
#
# Mechanical properties :
#
#
# Convention : Reuss Voigt Hill
#
# Bulk Modulus (GPa) = 44.66252 63.33883 54.00067
# Shear Modulus (GPa) = 21.04059 25.01596 23.02828
#
# Velocity S-wave (km/s) = 3.43429 3.74469 3.59284
# Velocity P-wave (km/s) = 6.38446 7.36217 6.89068
#
# Compressibility (1/GPa) = 0.02239014
#
# Stress axis : x y z
#
# Youngs Moduli (GPa) = 66.86992 59.82042 39.89199
#
# Poissons Ratio (x) = 0.36662 0.16314
# Poissons Ratio (y) = 0.40982 0.27750
# Poissons Ratio (z) = 0.27346 0.41613
#
# Static dielectric constant tensor:
#      x y z
#    x 3.487980 0.000000 -0.360080 
#    y 0.000000 3.405810 0.000000 
#    z -0.360080 0.000000 3.120770 
# 
# 
# High freq. dielectric constant tensor:
#      x y z
#    x 1.689990 0.000000 -0.030840 
#    y 0.000000 1.699600 0.000000 
#    z -0.030840 0.000000 1.656890 
# 
# From -- ./inp_files/52712.got.cif
#   From: 2010.06.25/outbox.cif.g09.slc.cpg/sg10_27_cif.got.tgz:52712.got - 2010.06.27 22:07:45.
