data_PCOD8057610
_publ_section_title
;
Structure prediction by ZEFSAII (Michael W. Deem and Ramdas Pophale) SiO2 
 PCOD8057610
Probable space group: P 2/M
;
_chemical_formula_sum "Si O2"
_cell_formula_units_Z 24
_cell_length_a 11.557962
_cell_length_b 8.992317
_cell_length_c 19.974103
_cell_angle_alpha 90.000000
_cell_angle_beta 137.111319
_cell_angle_gamma 90.000000
_cell_volume 1412.852663
_symmetry_space_group_name_H-M "P 2/M"
_symmetry_group_IT_number 10
_symmetry_cell_setting 'monoclinic'
loop_
_space_group_symop_operation_xyz
x,y,z
-x,y,-z
-x,-y,-z
x,-y,z
loop_
_atom_site_type_symbol
_atom_site_label
_atom_site_fract_x
_atom_site_fract_y
_atom_site_fract_z
Si Si1 0.690042 0.323042 0.590613
Si Si2 0.401708 0.823989 0.186767
Si Si3 0.108211 0.323917 0.450103
Si Si4 0.250282 0.675956 0.650954
Si Si5 0.099399 0.836334 0.973020
Si Si6 0.808012 0.324546 0.785759
O O1 0.500000 0.260686 0.500000
O O2 0.689038 0.500000 0.586405
O O3 0.809129 0.256594 0.582142
O O4 0.762944 0.269193 0.692349
O O5 0.588732 0.762703 0.251796
O O6 0.325267 0.750008 0.220777
O O7 0.402981 0.000000 0.198460
O O8 0.289551 0.782394 0.073226
O O9 0.113777 0.500000 0.451084
O O10 0.217165 0.272085 0.560551
O O11 0.911773 0.274480 0.373177
O O12 0.282687 0.500000 0.668909
O O13 0.003339 0.722525 0.883129
O O14 0.103395 0.000000 0.940924
O O15 0.000000 0.846709 0.000000
O O16 0.790717 0.500000 0.786168
#
# Coordination Sequence:
#
# PCOD8057610 Si02
#       6
#     4   4   4   4   4   4
#     4   9  16  26  43  68  96 120 141 172 218 268
#     4  10  19  30  45  65  91 120 147 181 228 269
#     4   8  15  28  45  68  95 118 143 180 226 264
#     4   9  16  28  49  70  87 114 152 188 217 255
#     4   8  16  30  44  60  87 120 146 178 229 270
#     4  10  18  27  45  70  91 116 150 183 215 260
#
# _framework density 16.986910999999999
#
# number of rings (size 3 to 8) (size 9 to 14) (size 15 to 20)
#    0.000    3.000    0.000    4.000    0.000    6.333 
#    0.000    1.667    0.000   12.000    0.000    7.000 
#    0.000    0.000    0.000    0.000    0.000    0.000 
#
# Total GULP energy -297468.476100 kJ/mol
# GULP energy per Si atom -12394.519838 kJ/mol
# Density = 1.694825 g / cm^3
# Si number density = 16.986911 Si / 1000 Ang^3
#
#
#
# Elastic Constant Matrix: (Units=GPa)
#
#
# Indices 1 2 3 4 5 6 
#
# 1 102.9619 25.9300 67.8721 0.0000 6.9036 0.0000
# 2 25.9300 47.7400 42.7605 0.0000 4.2857 0.0000
# 3 67.8721 42.7605 152.5579 0.0000 17.5702 0.0000
# 4 0.0000 0.0000 0.0000 9.5280 0.0000 7.3367
# 5 6.9036 4.2857 17.5702 0.0000 28.3564 0.0000
# 6 0.0000 0.0000 0.0000 7.3367 0.0000 7.1122
#
#
#
# Elastic Compliance Matrix: (Units=1/GPa)
#
#
# Indices 1 2 3 4 5 6 
#
# 1 0.014004 -0.002697 -0.005523 0.000000 0.000420 0.000000
# 2 -0.002697 0.028500 -0.006857 0.000000 0.000598 0.000000
# 3 -0.005523 -0.006857 0.011479 0.000000 -0.004732 0.000000
# 4 0.000000 0.000000 0.000000 0.510285 0.000000 -0.526394
# 5 0.000420 0.000598 -0.004732 0.000000 0.038004 0.000000
# 6 0.000000 0.000000 0.000000 -0.526394 0.000000 0.683615
#
#
# Mechanical properties :
#
#
# Convention : Reuss Voigt Hill
#
# Bulk Modulus (GPa) = 41.96641 64.04275 53.00458
# Shear Modulus (GPa) = 3.77648 20.11247 11.94447
#
# Velocity S-wave (km/s) = 1.49265 3.44466 2.65459
# Velocity P-wave (km/s) = 5.26587 7.32147 6.37705
#
# Compressibility (1/GPa) = 0.02382858
#
# Stress axis : x y z
#
# Youngs Moduli (GPa) = 71.40843 35.08760 87.11725
#
# Poissons Ratio (x) = 0.09464 0.48111
# Poissons Ratio (y) = 0.19262 0.59737
# Poissons Ratio (z) = 0.39436 0.24060
#
# Static dielectric constant tensor:
#      x y z
#    x 3.233750 0.000000 0.124510 
#    y 0.000000 2.888620 0.000000 
#    z 0.124510 0.000000 3.540080 
# 
# 
# High freq. dielectric constant tensor:
#      x y z
#    x 1.629340 0.000000 0.014070 
#    y 0.000000 1.626550 0.000000 
#    z 0.014070 0.000000 1.664390 
# 
# From -- ./inp_files/52880.got.cif
#   From: 2010.06.25/outbox.cif.g09.slc.cpg/sg10_27_cif.got.tgz:52880.got - 2010.06.27 22:07:45.
