data_PCOD8057560
_publ_section_title
;
Structure prediction by ZEFSAII (Michael W. Deem and Ramdas Pophale) SiO2 
 PCOD8057560
Probable space group: P 2/M
;
_chemical_formula_sum "Si O2"
_cell_formula_units_Z 32
_cell_length_a 16.384882
_cell_length_b 9.130829
_cell_length_c 22.178692
_cell_angle_alpha 90.000000
_cell_angle_beta 142.083359
_cell_angle_gamma 90.000000
_cell_volume 2039.020023
_symmetry_space_group_name_H-M "P 2/M"
_symmetry_group_IT_number 10
_symmetry_cell_setting 'monoclinic'
loop_
_space_group_symop_operation_xyz
x,y,z
-x,y,-z
-x,-y,-z
x,-y,z
loop_
_atom_site_type_symbol
_atom_site_label
_atom_site_fract_x
_atom_site_fract_y
_atom_site_fract_z
Si Si1 0.079546 0.327139 0.803179
Si Si2 0.739838 0.671246 0.980015
Si Si3 0.289275 0.834265 0.857211
Si Si4 0.526557 0.835888 0.919203
Si Si5 0.156118 0.669142 0.088878
Si Si6 0.442666 0.665532 0.533320
Si Si7 0.198051 0.828459 0.347335
Si Si8 0.688185 0.829160 0.717465
O O1 0.056475 0.500000 0.786400
O O2 0.152899 0.278665 0.907559
O O3 0.166069 0.275185 0.795821
O O4 0.941037 0.245287 0.719528
O O5 0.721381 0.500000 0.972593
O O6 0.593635 0.738193 0.906408
O O7 0.791707 0.722551 0.945489
O O8 0.378032 0.781796 0.851389
O O9 0.237170 0.000000 0.816520
O O10 0.382303 0.830201 0.969262
O O11 0.517189 0.000000 0.888452
O O12 0.193060 0.500000 0.123041
O O13 0.220302 0.771754 0.175971
O O14 0.000000 0.692738 0.000000
O O15 0.500000 0.665246 0.500000
O O16 0.418073 0.500000 0.541915
O O17 0.305733 0.755629 0.454604
O O18 0.547825 0.744958 0.638220
O O19 0.235322 0.797157 0.299962
O O20 0.191433 0.000000 0.357489
O O21 0.659328 0.000000 0.708907
#
# Coordination Sequence:
#
# PCOD8057560 Si02
#       8
#     4   4   4   4   4   4   4   4
#     4  10  18  27  41  62  87 115 146 177 212 256
#     4   9  18  29  41  59  83 113 149 186 218 249
#     4   8  14  25  39  57  81 109 139 171 212 257
#     4   8  14  25  41  57  77 108 142 175 212 256
#     4  10  20  33  46  60  84 118 152 185 219 252
#     4   9  17  30  48  66  83 107 139 174 214 260
#     4  10  19  30  44  63  88 114 140 175 217 258
#     4  10  20  32  46  64  85 111 145 183 219 254
#
# _framework density 15.693813
#
# number of rings (size 3 to 8) (size 9 to 14) (size 15 to 20)
#    0.000    2.750    0.000    3.000    0.000    5.750 
#    0.000    2.500    0.000    0.000    0.000    0.000 
#    0.000    1.000    0.000   10.500    0.000    6.250 
#
# Total GULP energy -396699.295290 kJ/mol
# GULP energy per Si atom -12396.852978 kJ/mol
# Density = 1.565809 g / cm^3
# Si number density = 15.693813 Si / 1000 Ang^3
#
#
#
# Elastic Constant Matrix: (Units=GPa)
#
#
# Indices 1 2 3 4 5 6 
#
# 1 97.9022 44.8469 36.1402 0.0000 21.4685 0.0000
# 2 44.8469 77.8149 41.4012 0.0000 17.9874 0.0000
# 3 36.1402 41.4012 68.4600 0.0000 18.4695 0.0000
# 4 0.0000 0.0000 0.0000 26.1236 0.0000 6.0704
# 5 21.4685 17.9874 18.4695 0.0000 20.0582 0.0000
# 6 0.0000 0.0000 0.0000 6.0704 0.0000 27.0006
#
#
#
# Elastic Compliance Matrix: (Units=1/GPa)
#
#
# Indices 1 2 3 4 5 6 
#
# 1 0.015769 -0.005614 -0.002308 0.000000 -0.009719 0.000000
# 2 -0.005614 0.022122 -0.008893 0.000000 -0.005641 0.000000
# 3 -0.002308 -0.008893 0.024462 0.000000 -0.012080 0.000000
# 4 0.000000 0.000000 0.000000 0.040390 0.000000 -0.009081
# 5 -0.009719 -0.005641 -0.012080 0.000000 0.076439 0.000000
# 6 0.000000 0.000000 0.000000 -0.009081 0.000000 0.039078
#
#
# Mechanical properties :
#
#
# Convention : Reuss Voigt Hill
#
# Bulk Modulus (GPa) = 34.81335 54.32817 44.57076
# Shear Modulus (GPa) = 19.12325 22.75573 20.93949
#
# Velocity S-wave (km/s) = 3.49452 3.81199 3.65670
# Velocity P-wave (km/s) = 6.20590 7.35308 6.80371
#
# Compressibility (1/GPa) = 0.02872461
#
# Stress axis : x y z
#
# Youngs Moduli (GPa) = 63.41656 45.20457 40.87941
#
# Poissons Ratio (x) = 0.25377 0.09433
# Poissons Ratio (y) = 0.35601 0.36353
# Poissons Ratio (z) = 0.14633 0.40199
#
# Static dielectric constant tensor:
#      x y z
#    x 3.161510 0.000000 0.209470 
#    y 0.000000 3.105650 0.000000 
#    z 0.209470 0.000000 2.782480 
# 
# 
# High freq. dielectric constant tensor:
#      x y z
#    x 1.588680 0.000000 0.025690 
#    y 0.000000 1.611460 0.000000 
#    z 0.025690 0.000000 1.568100 
# 
# From -- ./inp_files/55221.got.cif
#   From: 2010.06.25/outbox.cif.g09.slc.cpg/sg10_28_cif.got.tgz:55221.got - 2010.06.27 22:07:45.
