data_PCOD8057862
_publ_section_title
;
Structure prediction by ZEFSAII (Michael W. Deem and Ramdas Pophale) SiO2 
 PCOD8057862
Probable space group: P 2/M
;
_chemical_formula_sum "Si O2"
_cell_formula_units_Z 32
_cell_length_a 14.872607
_cell_length_b 18.941579
_cell_length_c 20.034776
_cell_angle_alpha 90.000000
_cell_angle_beta 19.274454
_cell_angle_gamma 90.000000
_cell_volume 1863.051319
_symmetry_space_group_name_H-M "P 2/M"
_symmetry_group_IT_number 10
_symmetry_cell_setting 'monoclinic'
loop_
_space_group_symop_operation_xyz
x,y,z
-x,y,-z
-x,-y,-z
x,-y,z
loop_
_atom_site_type_symbol
_atom_site_label
_atom_site_fract_x
_atom_site_fract_y
_atom_site_fract_z
Si Si1 0.923101 0.830314 0.387098
Si Si2 0.053064 0.319841 0.322427
Si Si3 0.033773 0.920980 0.084974
Si Si4 0.551194 0.319857 0.073326
Si Si5 0.441280 0.920983 0.677432
Si Si6 0.706785 0.921238 0.793257
Si Si7 0.317847 0.830310 0.992414
Si Si8 0.249784 0.578659 0.375083
O O1 0.672718 0.862299 0.521314
O O2 0.864802 0.750729 0.452546
O O3 0.010282 0.881968 0.386334
O O4 0.185098 0.823062 0.157443
O O5 0.288663 0.306638 0.211341
O O6 0.849908 0.382119 0.487654
O O7 0.187892 0.339089 0.156082
O O8 0.103760 0.862325 0.090360
O O9 0.734954 0.904070 0.265074
O O10 0.034416 0.000000 0.116034
O O11 0.253420 0.916919 0.873258
O O12 0.499777 0.382133 0.162664
O O13 0.595383 0.249282 0.087241
O O14 0.567437 0.000000 0.582946
O O15 0.783009 0.000000 0.717001
O O16 0.500000 0.923882 0.000000
O O17 0.576396 0.881955 0.820325
O O18 0.347822 0.500000 0.326107
O O19 0.000000 0.574335 0.500000
#
# Coordination Sequence:
#
# PCOD8057862 Si02
#       8
#     4   4   4   4   4   4   4   4
#     4  10  18  29  46  67  90 121 159 195 238 288
#     4   9  17  30  46  67  98 130 157 192 239 284
#     4   9  19  34  47  61  87 123 161 204 251 288
#     4   9  17  30  46  67  98 130 157 192 239 284
#     4   9  19  34  47  61  87 123 161 204 251 288
#     4   9  16  26  41  63  91 120 152 193 236 280
#     4  10  18  29  46  67  90 121 159 195 238 288
#     4   9  18  30  46  70  95 126 165 193 222 278
#
# _framework density 17.176123
#
# number of rings (size 3 to 8) (size 9 to 14) (size 15 to 20)
#    0.000    2.750    1.250    1.500    1.750    2.500 
#    0.000    4.375    0.000    2.250    0.000    0.000 
#    0.000    2.000    0.000    5.500    0.000    0.250 
#
# Total GULP energy -396635.431653 kJ/mol
# GULP energy per Si atom -12394.857239 kJ/mol
# Density = 1.713703 g / cm^3
# Si number density = 17.176123 Si / 1000 Ang^3
#
#
#
# Elastic Constant Matrix: (Units=GPa)
#
#
# Indices 1 2 3 4 5 6 
#
# 1 54.9803 49.2239 22.6199 0.0000 -5.5581 0.0000
# 2 49.2239 165.0945 50.0167 0.0000 1.0791 0.0000
# 3 22.6199 50.0167 52.1798 0.0000 2.1998 0.0000
# 4 0.0000 0.0000 0.0000 20.3347 0.0000 1.8803
# 5 -5.5581 1.0791 2.1998 0.0000 23.6609 0.0000
# 6 0.0000 0.0000 0.0000 1.8803 0.0000 18.8560
#
#
#
# Elastic Compliance Matrix: (Units=1/GPa)
#
#
# Indices 1 2 3 4 5 6 
#
# 1 0.027004 -0.006285 -0.005984 0.000000 0.007187 0.000000
# 2 -0.006285 0.010002 -0.006808 0.000000 -0.001300 0.000000
# 3 -0.005984 -0.006808 0.028442 0.000000 -0.003740 0.000000
# 4 0.000000 0.000000 0.000000 0.049635 0.000000 -0.004949
# 5 0.007187 -0.001300 -0.003740 0.000000 0.044359 0.000000
# 6 0.000000 0.000000 0.000000 -0.004949 0.000000 0.053527
#
#
# Mechanical properties :
#
#
# Convention : Reuss Voigt Hill
#
# Bulk Modulus (GPa) = 36.63954 57.33061 46.98508
# Shear Modulus (GPa) = 19.21429 22.59659 20.90544
#
# Velocity S-wave (km/s) = 3.34827 3.63103 3.49251
# Velocity P-wave (km/s) = 6.02709 7.14351 6.60892
#
# Compressibility (1/GPa) = 0.02729292
#
# Stress axis : x y z
#
# Youngs Moduli (GPa) = 37.03116 99.97773 35.15897
#
# Poissons Ratio (x) = 0.62840 0.21041
# Poissons Ratio (y) = 0.23276 0.23936
# Poissons Ratio (z) = 0.22161 0.68066
#
# Static dielectric constant tensor:
#      x y z
#    x 3.036740 0.000000 0.048190 
#    y 0.000000 3.395040 0.000000 
#    z 0.048190 0.000000 3.074360 
# 
# 
# High freq. dielectric constant tensor:
#      x y z
#    x 1.633410 0.000000 0.016860 
#    y 0.000000 1.654430 0.000000 
#    z 0.016860 0.000000 1.646720 
# 
# From -- ./inp_files/70857.got.cif
#   From: 2010.06.25/outbox.cif.g09.slc.cpg/sg10_36_cif.got.tgz:70857.got - 2010.06.27 22:07:45.
