data_PCOD8057810
_publ_section_title
;
Structure prediction by ZEFSAII (Michael W. Deem and Ramdas Pophale) SiO2 
 PCOD8057810
Probable space group: P 2/M
;
_chemical_formula_sum "Si O2"
_cell_formula_units_Z 32
_cell_length_a 21.895178
_cell_length_b 8.758053
_cell_length_c 32.713791
_cell_angle_alpha 90.000000
_cell_angle_beta 18.326809
_cell_angle_gamma 90.000000
_cell_volume 1972.514036
_symmetry_space_group_name_H-M "P 2/M"
_symmetry_group_IT_number 10
_symmetry_cell_setting 'monoclinic'
loop_
_space_group_symop_operation_xyz
x,y,z
-x,y,-z
-x,-y,-z
x,-y,z
loop_
_atom_site_type_symbol
_atom_site_label
_atom_site_fract_x
_atom_site_fract_y
_atom_site_fract_z
Si Si1 0.049010 0.323093 0.799567
Si Si2 0.469215 0.678305 0.761951
Si Si3 0.640446 0.171866 0.449281
Si Si4 0.778913 0.822419 0.149791
Si Si5 0.146797 0.827862 0.465747
Si Si6 0.650607 0.817656 0.077480
Si Si7 0.747058 0.829931 0.696087
Si Si8 0.671880 0.676519 0.301560
O O1 0.016094 0.500000 0.811736
O O2 0.157770 0.250804 0.691512
O O3 0.170270 0.296212 0.763579
O O4 0.843764 0.241041 0.933712
O O5 0.455933 0.500000 0.778561
O O6 0.357096 0.720880 0.792240
O O7 0.695119 0.724705 0.611541
O O8 0.366078 0.761196 0.865398
O O9 0.500000 0.169942 0.500000
O O10 0.540728 0.270081 0.548460
O O11 0.680577 0.000000 0.439288
O O12 0.736316 0.781629 0.223462
O O13 0.736081 0.000000 0.169175
O O14 0.000000 0.780268 0.000000
O O15 0.203137 0.835451 0.382993
O O16 0.926623 0.753516 0.607561
O O17 0.150476 0.000000 0.481683
O O18 0.468292 0.754243 0.165472
O O19 0.648279 0.000000 0.080177
O O20 0.733952 0.000000 0.722128
O O21 0.661385 0.500000 0.295195
#
# Coordination Sequence:
#
# PCOD8057810 Si02
#       8
#     4   4   4   4   4   4   4   4
#     4  10  19  30  45  67  93 118 144 178 224 268
#     4  11  21  31  43  62  88 117 149 185 225 263
#     4   9  17  30  48  67  86 112 147 182 216 260
#     4  11  23  36  49  64  84 115 155 191 220 256
#     4   8  13  26  44  59  79 110 147 181 214 255
#     4  10  18  29  44  63  89 120 152 182 216 261
#     4   7  12  23  41  61  81 110 145 179 214 254
#     4  10  20  33  48  65  88 116 146 185 228 264
#
# _framework density 16.222951999999999
#
# number of rings (size 3 to 8) (size 9 to 14) (size 15 to 20)
#    0.000    2.500    0.000    5.250    0.000    6.000 
#    0.000    5.625    0.000    0.000    0.000    0.000 
#    0.000    1.000    0.000   10.750    0.000    5.000 
#
# Total GULP energy -396549.972795 kJ/mol
# GULP energy per Si atom -12392.186650 kJ/mol
# Density = 1.618603 g / cm^3
# Si number density = 16.222952 Si / 1000 Ang^3
#
#
#
# Elastic Constant Matrix: (Units=GPa)
#
#
# Indices 1 2 3 4 5 6 
#
# 1 40.7935 22.5119 43.0694 0.0000 -11.8393 0.0000
# 2 22.5119 74.2534 46.1686 0.0000 -13.3694 0.0000
# 3 43.0694 46.1686 126.4942 0.0000 -12.2394 0.0000
# 4 0.0000 0.0000 0.0000 21.9004 0.0000 3.5682
# 5 -11.8393 -13.3694 -12.2394 0.0000 23.6796 0.0000
# 6 0.0000 0.0000 0.0000 3.5682 0.0000 16.5876
#
#
#
# Elastic Compliance Matrix: (Units=1/GPa)
#
#
# Indices 1 2 3 4 5 6 
#
# 1 0.043010 -0.002998 -0.012245 0.000000 0.013482 0.000000
# 2 -0.002998 0.018769 -0.005210 0.000000 0.006405 0.000000
# 3 -0.012245 -0.005210 0.013789 0.000000 -0.001937 0.000000
# 4 0.000000 0.000000 0.000000 0.047320 0.000000 -0.010179
# 5 0.013482 0.006405 -0.001937 0.000000 0.051586 0.000000
# 6 0.000000 0.000000 0.000000 -0.010179 0.000000 0.062476
#
#
# Mechanical properties :
#
#
# Convention : Reuss Voigt Hill
#
# Bulk Modulus (GPa) = 28.85117 51.67120 40.26119
# Shear Modulus (GPa) = 17.27655 21.08626 19.18141
#
# Velocity S-wave (km/s) = 3.26689 3.60916 3.44228
# Velocity P-wave (km/s) = 5.66153 7.02053 6.37733
#
# Compressibility (1/GPa) = 0.03466063
#
# Stress axis : x y z
#
# Youngs Moduli (GPa) = 23.25061 53.27955 72.52188
#
# Poissons Ratio (x) = 0.15975 0.88805
# Poissons Ratio (y) = 0.06971 0.37782
# Poissons Ratio (z) = 0.28471 0.27757
#
# Static dielectric constant tensor:
#      x y z
#    x 2.861930 0.000000 -0.380960 
#    y 0.000000 3.076680 0.000000 
#    z -0.380960 0.000000 3.438640 
# 
# 
# High freq. dielectric constant tensor:
#      x y z
#    x 1.577320 0.000000 -0.023270 
#    y 0.000000 1.624950 0.000000 
#    z -0.023270 0.000000 1.626390 
# 
# From -- ./inp_files/49918.got.cif
#   From: 2010.06.25/outbox.cif.g09.slc.cpg/sg10_25_cif.got.tgz:49918.got - 2010.06.27 22:07:45.
