data_PCOD8057979
_publ_section_title
;
Structure prediction by ZEFSAII (Michael W. Deem and Ramdas Pophale) SiO2 
 PCOD8057979
Probable space group: P 2/M
;
_chemical_formula_sum "Si O2"
_cell_formula_units_Z 32
_cell_length_a 21.274767
_cell_length_b 12.093398
_cell_length_c 8.332193
_cell_angle_alpha 90.000000
_cell_angle_beta 53.358852
_cell_angle_gamma 90.000000
_cell_volume 1720.115020
_symmetry_space_group_name_H-M "P 2/M"
_symmetry_group_IT_number 10
_symmetry_cell_setting 'monoclinic'
loop_
_space_group_symop_operation_xyz
x,y,z
-x,y,-z
-x,-y,-z
x,-y,z
loop_
_atom_site_type_symbol
_atom_site_label
_atom_site_fract_x
_atom_site_fract_y
_atom_site_fract_z
Si Si1 0.318038 0.128731 0.631481
Si Si2 0.280097 0.372864 0.067167
Si Si3 0.437183 0.876470 0.963160
Si Si4 0.577466 0.730160 0.310491
Si Si5 0.025174 0.870486 0.142009
Si Si6 0.711438 0.215174 0.663666
Si Si7 0.823402 0.806030 0.937152
Si Si8 0.868681 0.122449 0.532430
O O1 0.391957 0.175764 0.614361
O O2 0.307725 0.212737 0.496281
O O3 0.331852 0.000000 0.558543
O O4 0.243434 0.132271 0.861513
O O5 0.256479 0.500000 0.113614
O O6 0.297994 0.330379 0.222312
O O7 0.208099 0.308862 0.091038
O O8 0.356429 0.358823 0.837285
O O9 0.452811 0.792088 0.799246
O O10 0.452874 0.000000 0.878366
O O11 0.500000 0.841546 0.000000
O O12 0.347472 0.871095 0.162031
O O13 0.500000 0.670037 0.500000
O O14 0.100445 0.793294 0.065940
O O15 0.954730 0.828462 0.364942
O O16 0.046084 0.000000 0.136862
O O17 0.000000 0.846570 0.000000
O O18 0.802104 0.185284 0.536700
O O19 0.850722 0.882146 0.748093
O O20 0.869016 0.000000 0.459324
#
# Coordination Sequence:
#
# PCOD8057979 Si02
#       8
#     4   4   4   4   4   4   4   4
#     4  11  20  31  51  80 115 146 169 204 260 327
#     4   9  21  41  60  74  95 135 184 234 276 305
#     4  10  19  31  49  74 109 149 180 209 253 317
#     4  10  21  34  52  80 109 136 174 218 266 322
#     4  10  19  30  48  78 116 151 177 207 255 317
#     4  10  20  33  51  74 102 138 182 223 261 312
#     4  10  20  33  52  77 106 138 179 220 261 314
#     4  10  18  29  48  74 107 144 177 210 255 314
#
# _framework density 18.603406
#
# number of rings (size 3 to 8) (size 9 to 14) (size 15 to 20)
#    0.000    2.000    0.000    5.250    0.000    4.250 
#    0.000    2.500    0.000   19.125    0.000    0.000 
#    0.000    0.000    0.000    0.000    0.000    0.000 
#
# Total GULP energy -396590.953501 kJ/mol
# GULP energy per Si atom -12393.467297 kJ/mol
# Density = 1.856106 g / cm^3
# Si number density = 18.603406 Si / 1000 Ang^3
#
#
#
# Elastic Constant Matrix: (Units=GPa)
#
#
# Indices 1 2 3 4 5 6 
#
# 1 90.0012 37.6489 24.3921 0.0000 -7.1701 0.0000
# 2 37.6489 83.1801 18.9053 0.0000 3.4741 0.0000
# 3 24.3921 18.9053 100.9217 0.0000 -9.6145 0.0000
# 4 0.0000 0.0000 0.0000 11.6397 0.0000 0.9593
# 5 -7.1701 3.4741 -9.6145 0.0000 36.7197 0.0000
# 6 0.0000 0.0000 0.0000 0.9593 0.0000 16.9329
#
#
#
# Elastic Compliance Matrix: (Units=1/GPa)
#
#
# Indices 1 2 3 4 5 6 
#
# 1 0.014499 -0.006213 -0.002066 0.000000 0.002878 0.000000
# 2 -0.006213 0.015343 -0.001668 0.000000 -0.003102 0.000000
# 3 -0.002066 -0.001668 0.010971 0.000000 0.002627 0.000000
# 4 0.000000 0.000000 0.000000 0.086316 0.000000 -0.004890
# 5 0.002878 -0.003102 0.002627 0.000000 0.028777 0.000000
# 6 0.000000 0.000000 0.000000 -0.004890 0.000000 0.059334
#
#
# Mechanical properties :
#
#
# Convention : Reuss Voigt Hill
#
# Bulk Modulus (GPa) = 47.80539 48.44395 48.12467
# Shear Modulus (GPa) = 20.65205 25.93557 23.29381
#
# Velocity S-wave (km/s) = 3.33546 3.73786 3.54238
# Velocity P-wave (km/s) = 6.37077 6.68772 6.53117
#
# Compressibility (1/GPa) = 0.02091814
#
# Stress axis : x y z
#
# Youngs Moduli (GPa) = 68.96857 65.17645 91.15117
#
# Poissons Ratio (x) = 0.40496 0.18835
# Poissons Ratio (y) = 0.42852 0.15203
# Poissons Ratio (z) = 0.14251 0.10871
#
# Static dielectric constant tensor:
#      x y z
#    x 3.602130 0.000000 0.002450 
#    y 0.000000 2.863210 0.000000 
#    z 0.002450 0.000000 3.749600 
# 
# 
# High freq. dielectric constant tensor:
#      x y z
#    x 1.735990 0.000000 -0.003080 
#    y 0.000000 1.659660 0.000000 
#    z -0.003080 0.000000 1.740560 
# 
# From -- ./inp_files/34803.got.cif
#   From: 2010.06.25/outbox.cif.g09.slc.cpg/sg10_18_cif.got.tgz:34803.got - 2010.06.27 22:07:45.
