data_PCOD8057339
_publ_section_title
;
Structure prediction by ZEFSAII (Michael W. Deem and Ramdas Pophale) SiO2 
 PCOD8057339
Probable space group: P 2/M
;
_chemical_formula_sum "Si O2"
_cell_formula_units_Z 20
_cell_length_a 9.360922
_cell_length_b 11.584244
_cell_length_c 18.624660
_cell_angle_alpha 90.000000
_cell_angle_beta 32.357787
_cell_angle_gamma 90.000000
_cell_volume 1080.922364
_symmetry_space_group_name_H-M "P 2/M"
_symmetry_group_IT_number 10
_symmetry_cell_setting 'monoclinic'
loop_
_space_group_symop_operation_xyz
x,y,z
-x,y,-z
-x,-y,-z
x,-y,z
loop_
_atom_site_type_symbol
_atom_site_label
_atom_site_fract_x
_atom_site_fract_y
_atom_site_fract_z
Si Si1 0.964919 0.000000 0.362860
Si Si2 0.933534 0.000000 0.837971
Si Si3 0.326357 0.364473 0.506083
Si Si4 0.682737 0.234942 0.634517
Si Si5 0.516964 0.000000 0.325793
Si Si6 0.776371 0.248422 0.745081
Si Si7 0.500000 0.186134 0.000000
O O1 0.903751 0.000000 0.304967
O O2 0.133744 0.884488 0.308707
O O3 0.676968 0.000000 0.522570
O O4 0.746947 0.111506 0.924177
O O5 0.165742 0.000000 0.797398
O O6 0.500000 0.319460 0.500000
O O7 0.357596 0.500000 0.482745
O O8 0.419645 0.307498 0.390856
O O9 0.025961 0.331326 0.652576
O O10 0.542855 0.111758 0.695322
O O11 0.617218 0.291143 0.740723
O O12 0.000000 0.220369 0.500000
O O13 0.590970 0.262985 0.893728
#
# Coordination Sequence:
#
# PCOD8057339 Si02
#       7
#     2   2   4   4   2   4   2
#     4  10  17  29  52  83 113 136 176 218 272 325
#     4   9  21  30  48  77 112 158 180 216 257 317
#     4  10  22  37  57  84 109 133 174 234 286 324
#     4  10  20  32  53  85 115 140 171 221 277 328
#     4  12  18  28  53  86 116 139 177 218 277 328
#     4  10  20  35  57  76 112 149 179 218 266 320
#     4   9  20  38  49  72 114 152 191 215 252 310
#
# _framework density 18.502717000000001
#
# number of rings (size 3 to 8) (size 9 to 14) (size 15 to 20)
#    0.000    2.000    4.000    1.800    5.600    3.600 
#    0.000    2.500    0.000    0.000    0.000    2.800 
#    0.000    0.000    0.000    0.000    0.000    0.000 
#
# Total GULP energy -247831.614502 kJ/mol
# GULP energy per Si atom -12391.580725 kJ/mol
# Density = 1.846060 g / cm^3
# Si number density = 18.502717 Si / 1000 Ang^3
#
#
#
# Elastic Constant Matrix: (Units=GPa)
#
#
# Indices 1 2 3 4 5 6 
#
# 1 157.9193 42.4654 52.3051 0.0000 22.3728 0.0000
# 2 42.4654 52.1157 9.5344 0.0000 6.1498 0.0000
# 3 52.3051 9.5344 95.3215 0.0000 23.8148 0.0000
# 4 0.0000 0.0000 0.0000 4.8109 0.0000 -8.3421
# 5 22.3728 6.1498 23.8148 0.0000 31.8551 0.0000
# 6 0.0000 0.0000 0.0000 -8.3421 0.0000 3.0729
#
#
#
# Elastic Compliance Matrix: (Units=1/GPa)
#
#
# Indices 1 2 3 4 5 6 
#
# 1 0.009956 -0.007058 -0.004120 0.000000 -0.002550 0.000000
# 2 -0.007058 0.024761 0.001663 0.000000 -0.001066 0.000000
# 3 -0.004120 0.001663 0.014686 0.000000 -0.008406 0.000000
# 4 0.000000 0.000000 0.000000 -0.056067 0.000000 -0.152209
# 5 -0.002550 -0.001066 -0.008406 0.000000 0.039673 0.000000
# 6 0.000000 0.000000 0.000000 -0.152209 0.000000 -0.087780
#
#
# Mechanical properties :
#
#
# Convention : Reuss Voigt Hill
#
# Bulk Modulus (GPa) = 32.92590 57.10735 45.01663
# Shear Modulus (GPa) = -195.18003 21.35122 -86.91440
#
# Velocity S-wave (km/s) = -10.28184 3.40067 -6.86118
# Velocity P-wave (km/s) = 11.09600 6.80814 6.19558
#
# Compressibility (1/GPa) = 0.03037123
#
# Stress axis : x y z
#
# Youngs Moduli (GPa) = 100.44047 40.38654 68.09431
#
# Poissons Ratio (x) = 0.28504 0.28056
# Poissons Ratio (y) = 0.70890 -0.11321
# Poissons Ratio (z) = 0.41383 -0.06714
#
# Static dielectric constant tensor:
#      x y z
#    x 3.764260 0.000000 0.406810 
#    y 0.000000 3.177400 0.000000 
#    z 0.406810 0.000000 3.428690 
# 
# 
# High freq. dielectric constant tensor:
#      x y z
#    x 1.730310 0.000000 0.018550 
#    y 0.000000 1.690460 0.000000 
#    z 0.018550 0.000000 1.694050 
# 
# From -- ./inp_files/74599.got.cif
#   From: 2010.06.25/outbox.cif.g09.slc.cpg/sg10_38_cif.got.tgz:74599.got - 2010.06.27 22:07:45.
