data_PCOD8057540
_publ_section_title
;
Structure prediction by ZEFSAII (Michael W. Deem and Ramdas Pophale) SiO2 
 PCOD8057540
Probable space group: P 2/M
;
_chemical_formula_sum "Si O2"
_cell_formula_units_Z 32
_cell_length_a 28.313577
_cell_length_b 9.204286
_cell_length_c 20.429035
_cell_angle_alpha 90.000000
_cell_angle_beta 22.766940
_cell_angle_gamma 90.000000
_cell_volume 2060.275314
_symmetry_space_group_name_H-M "P 2/M"
_symmetry_group_IT_number 10
_symmetry_cell_setting 'monoclinic'
loop_
_space_group_symop_operation_xyz
x,y,z
-x,y,-z
-x,-y,-z
x,-y,z
loop_
_atom_site_type_symbol
_atom_site_label
_atom_site_fract_x
_atom_site_fract_y
_atom_site_fract_z
Si Si1 0.644571 0.663408 0.824883
Si Si2 0.422760 0.830470 0.687433
Si Si3 0.861164 0.669302 0.173582
Si Si4 0.683574 0.171946 0.307911
Si Si5 0.323210 0.835745 0.340482
Si Si6 0.302713 0.329305 0.494009
Si Si7 0.549772 0.170024 0.205397
Si Si8 0.387137 0.161304 0.013062
O O1 0.694902 0.500000 0.757715
O O2 0.711014 0.756927 0.683878
O O3 0.677647 0.729049 0.853943
O O4 0.500000 0.667380 0.000000
O O5 0.327108 0.774730 0.754803
O O6 0.560167 0.771222 0.501135
O O7 0.379539 0.794218 0.816892
O O8 0.433337 0.000000 0.661507
O O9 0.852389 0.500000 0.168918
O O10 0.798813 0.751819 0.193157
O O11 0.798969 0.706315 0.322248
O O12 0.000000 0.722861 0.000000
O O13 0.702349 0.000000 0.290659
O O14 0.262044 0.748919 0.478638
O O15 0.272443 0.000000 0.403463
O O16 0.467833 0.835104 0.164379
O O17 0.316712 0.500000 0.462463
O O18 0.430218 0.268038 0.356790
O O19 0.510350 0.000000 0.252836
O O20 0.638556 0.205297 0.030102
O O21 0.337513 0.000000 0.091812
#
# Coordination Sequence:
#
# PCOD8057540 Si02
#       8
#     4   4   4   4   4   4   4   4
#     4   9  15  22  32  47  69  97 128 161 192 225
#     4   8  14  25  43  64  84 104 129 170 213 245
#     4  10  21  34  44  57  82 112 138 171 214 252
#     4   9  16  28  46  64  80 102 136 172 207 248
#     4   9  16  25  37  50  68  95 127 164 200 236
#     4  10  18  27  39  55  74  98 133 171 203 240
#     4   9  15  25  40  56  78 106 132 161 201 243
#     4   8  14  21  31  48  70  99 130 156 186 230
#
# _framework density 15.531905
#
# number of rings (size 3 to 8) (size 9 to 14) (size 15 to 20)
#    0.000    3.000    1.250    2.625    0.000    5.250 
#    0.000    1.875    0.000    0.000    0.000    0.000 
#    0.000    0.000    0.000    1.125    0.000   23.625 
#
# Total GULP energy -396544.479766 kJ/mol
# GULP energy per Si atom -12392.014993 kJ/mol
# Density = 1.549655 g / cm^3
# Si number density = 15.531905 Si / 1000 Ang^3
#
#
#
# Elastic Constant Matrix: (Units=GPa)
#
#
# Indices 1 2 3 4 5 6 
#
# 1 142.9210 56.7676 49.6649 0.0000 29.5821 0.0000
# 2 56.7676 83.5205 31.1402 0.0000 15.1071 0.0000
# 3 49.6649 31.1402 39.1239 0.0000 8.2490 0.0000
# 4 0.0000 0.0000 0.0000 13.9815 0.0000 4.8505
# 5 29.5821 15.1071 8.2490 0.0000 26.5337 0.0000
# 6 0.0000 0.0000 0.0000 4.8505 0.0000 15.5682
#
#
#
# Elastic Compliance Matrix: (Units=1/GPa)
#
#
# Indices 1 2 3 4 5 6 
#
# 1 0.015845 -0.003026 -0.015351 0.000000 -0.011170 0.000000
# 2 -0.003026 0.018501 -0.010033 0.000000 -0.004041 0.000000
# 3 -0.015351 -0.010033 0.051602 0.000000 0.006784 0.000000
# 4 0.000000 0.000000 0.000000 0.080191 0.000000 -0.024984
# 5 -0.011170 -0.004041 0.006784 0.000000 0.050334 0.000000
# 6 0.000000 0.000000 0.000000 -0.024984 0.000000 0.072018
#
#
# Mechanical properties :
#
#
# Convention : Reuss Voigt Hill
#
# Bulk Modulus (GPa) = 34.32958 60.07898 47.20428
# Shear Modulus (GPa) = 14.08376 19.74952 16.91664
#
# Velocity S-wave (km/s) = 3.01452 3.56974 3.30381
# Velocity P-wave (km/s) = 5.85380 7.46698 6.70905
#
# Compressibility (1/GPa) = 0.02912940
#
# Stress axis : x y z
#
# Youngs Moduli (GPa) = 63.11074 54.05005 19.37922
#
# Poissons Ratio (x) = 0.16354 0.29749
# Poissons Ratio (y) = 0.19096 0.19443
# Poissons Ratio (z) = 0.96880 0.54228
#
# Static dielectric constant tensor:
#      x y z
#    x 3.217670 0.000000 0.409300 
#    y 0.000000 2.963700 0.000000 
#    z 0.409300 0.000000 2.556630 
# 
# 
# High freq. dielectric constant tensor:
#      x y z
#    x 1.598140 0.000000 0.044440 
#    y 0.000000 1.593460 0.000000 
#    z 0.044440 0.000000 1.530200 
# 
# From -- ./inp_files/87180.got.cif
#   From: 2010.06.25/outbox.cif.g09.slc.cpg/sg10_44_cif.got.tgz:87180.got - 2010.06.27 22:07:45.
