data_PCOD8057002
_publ_section_title
;
Structure prediction by ZEFSAII (Michael W. Deem and Ramdas Pophale) SiO2 
 PCOD8057002
Probable space group: P 2/M
;
_chemical_formula_sum "Si O2"
_cell_formula_units_Z 24
_cell_length_a 10.299203
_cell_length_b 8.548934
_cell_length_c 23.104050
_cell_angle_alpha 90.000000
_cell_angle_beta 40.942548
_cell_angle_gamma 90.000000
_cell_volume 1333.046032
_symmetry_space_group_name_H-M "P 2/M"
_symmetry_group_IT_number 10
_symmetry_cell_setting 'monoclinic'
loop_
_space_group_symop_operation_xyz
x,y,z
-x,y,-z
-x,-y,-z
x,-y,z
loop_
_atom_site_type_symbol
_atom_site_label
_atom_site_fract_x
_atom_site_fract_y
_atom_site_fract_z
Si Si1 0.149274 0.684745 0.776875
Si Si2 0.512000 0.183264 0.061789
Si Si3 0.079287 0.684354 0.035825
Si Si4 0.494092 0.681695 0.587155
Si Si5 0.211690 0.818118 0.587140
Si Si6 0.120174 0.684241 0.236678
O O1 0.141617 0.500000 0.774547
O O2 0.375247 0.738599 0.685225
O O3 0.087204 0.739545 0.861806
O O4 0.989859 0.749375 0.784012
O O5 0.348536 0.267492 0.156393
O O6 0.472368 0.000000 0.076498
O O7 0.500000 0.247398 0.000000
O O8 0.721864 0.222093 0.018977
O O9 0.122311 0.500000 0.026137
O O10 0.000000 0.732490 0.000000
O O11 0.548702 0.500000 0.572361
O O12 0.338503 0.711450 0.587962
O O13 0.698503 0.778219 0.507160
O O14 0.982745 0.766727 0.672530
O O15 0.240383 0.000000 0.590817
O O16 0.103550 0.500000 0.250006
#
# Coordination Sequence:
#
# PCOD8057002 Si02
#       6
#     4   4   4   4   4   4
#     4   8  15  27  45  69  94 125 164 208 245 285
#     4  11  22  34  50  75 103 133 168 209 256 303
#     4  10  20  35  54  75 100 134 175 213 249 294
#     4   9  15  25  40  60  90 129 167 197 240 297
#     4  10  17  25  38  63  97 125 156 201 251 296
#     4  10  18  30  49  69  95 130 167 204 247 297
#
# _framework density 18.003876999999999
#
# number of rings (size 3 to 8) (size 9 to 14) (size 15 to 20)
#    0.000    2.333    1.667    5.000    0.000    1.000 
#    0.000    0.833    0.000    0.000    0.000    1.167 
#    0.000    9.333    0.000    0.000    0.000    0.000 
#
# Total GULP energy -297424.604076 kJ/mol
# GULP energy per Si atom -12392.691836 kJ/mol
# Density = 1.796290 g / cm^3
# Si number density = 18.003877 Si / 1000 Ang^3
#
#
#
# Elastic Constant Matrix: (Units=GPa)
#
#
# Indices 1 2 3 4 5 6 
#
# 1 51.2461 13.3147 41.8516 0.0000 0.7532 0.0000
# 2 13.3147 57.0444 37.5142 0.0000 -3.7129 0.0000
# 3 41.8516 37.5142 194.6997 0.0000 -13.8141 0.0000
# 4 0.0000 0.0000 0.0000 21.4328 0.0000 -5.8534
# 5 0.7532 -3.7129 -13.8141 0.0000 16.4185 0.0000
# 6 0.0000 0.0000 0.0000 -5.8534 0.0000 13.9693
#
#
#
# Elastic Compliance Matrix: (Units=1/GPa)
#
#
# Indices 1 2 3 4 5 6 
#
# 1 0.024544 -0.002716 -0.005186 0.000000 -0.006103 0.000000
# 2 -0.002716 0.020403 -0.003202 0.000000 0.002044 0.000000
# 3 -0.005186 -0.003202 0.007267 0.000000 0.005628 0.000000
# 4 0.000000 0.000000 0.000000 0.052687 0.000000 0.022077
# 5 -0.006103 0.002044 0.005628 0.000000 0.066384 0.000000
# 6 0.000000 0.000000 0.000000 0.022077 0.000000 0.080836
#
#
# Mechanical properties :
#
#
# Convention : Reuss Voigt Hill
#
# Bulk Modulus (GPa) = 33.32599 54.26124 43.79361
# Shear Modulus (GPa) = 17.58511 24.38477 20.98494
#
# Velocity S-wave (km/s) = 3.12867 3.68423 3.41776
# Velocity P-wave (km/s) = 5.62158 6.94998 6.32077
#
# Compressibility (1/GPa) = 0.03000661
#
# Stress axis : x y z
#
# Youngs Moduli (GPa) = 40.74326 49.01203 137.60596
#
# Poissons Ratio (x) = 0.13311 0.71357
# Poissons Ratio (y) = 0.11065 0.44067
# Poissons Ratio (z) = 0.21128 0.15696
#
# Static dielectric constant tensor:
#      x y z
#    x 2.722470 0.000000 -0.022230 
#    y 0.000000 3.118810 0.000000 
#    z -0.022230 0.000000 4.398190 
# 
# 
# High freq. dielectric constant tensor:
#      x y z
#    x 1.614350 0.000000 -0.016020 
#    y 0.000000 1.690060 0.000000 
#    z -0.016020 0.000000 1.731360 
# 
# From -- ./inp_files/68518.got.cif
#   From: 2010.06.25/outbox.cif.g09.slc.cpg/sg10_35_cif.got.tgz:68518.got - 2010.06.27 22:07:45.
