data_PCOD8057190
_publ_section_title
;
Structure prediction by ZEFSAII (Michael W. Deem and Ramdas Pophale) SiO2 
 PCOD8057190
Probable space group: P 2/M
;
_chemical_formula_sum "Si O2"
_cell_formula_units_Z 28
_cell_length_a 17.722812
_cell_length_b 9.080657
_cell_length_c 22.092561
_cell_angle_alpha 90.000000
_cell_angle_beta 152.315479
_cell_angle_gamma 90.000000
_cell_volume 1651.877421
_symmetry_space_group_name_H-M "P 2/M"
_symmetry_group_IT_number 10
_symmetry_cell_setting 'monoclinic'
loop_
_space_group_symop_operation_xyz
x,y,z
-x,y,-z
-x,-y,-z
x,-y,z
loop_
_atom_site_type_symbol
_atom_site_label
_atom_site_fract_x
_atom_site_fract_y
_atom_site_fract_z
Si Si1 0.179180 0.172038 0.632726
Si Si2 0.028661 0.674745 0.712501
Si Si3 0.163672 0.662915 0.311373
Si Si4 0.472261 0.665202 0.617476
Si Si5 0.265655 0.172879 0.562193
Si Si6 0.656174 0.835002 0.653782
Si Si7 0.684032 0.173920 0.144190
O O1 0.283518 0.203414 0.646512
O O2 0.273376 0.233377 0.758242
O O3 0.000000 0.245162 0.500000
O O4 0.155246 0.000000 0.625735
O O5 0.019449 0.500000 0.694553
O O6 0.206170 0.739165 0.826101
O O7 0.986890 0.711451 0.753189
O O8 0.901548 0.753982 0.578043
O O9 0.135748 0.500000 0.264837
O O10 0.320949 0.662682 0.465315
O O11 0.188813 0.771419 0.272571
O O12 0.522334 0.500000 0.671913
O O13 0.423353 0.756785 0.642388
O O14 0.624300 0.741156 0.691806
O O15 0.258175 0.000000 0.541710
O O16 0.500000 0.830537 0.500000
O O17 0.698495 0.000000 0.703675
O O18 0.713896 0.000000 0.157919
O O19 0.500000 0.217090 0.000000
#
# Coordination Sequence:
#
# PCOD8057190 Si02
#       7
#     4   4   4   4   4   4   4
#     4   9  16  29  48  69  91 117 151 193 236 273
#     4  10  19  30  44  64  91 119 151 189 233 277
#     4   8  15  25  36  52  78 114 147 179 221 268
#     4   9  16  25  36  54  85 117 147 183 227 272
#     4  10  17  27  45  64  87 117 154 192 228 271
#     4   9  15  22  34  54  79 111 150 184 219 265
#     4  10  20  34  51  69  90 120 157 194 233 277
#
# _framework density 16.950410999999999
#
# number of rings (size 3 to 8) (size 9 to 14) (size 15 to 20)
#    0.000    2.714    1.429    2.571    0.000    6.000 
#    0.000    2.143    0.000    0.000    0.000    0.000 
#    0.000    1.143    0.000   13.143    0.000    6.429 
#
# Total GULP energy -347082.269715 kJ/mol
# GULP energy per Si atom -12395.795347 kJ/mol
# Density = 1.691183 g / cm^3
# Si number density = 16.950411 Si / 1000 Ang^3
#
#
#
# Elastic Constant Matrix: (Units=GPa)
#
#
# Indices 1 2 3 4 5 6 
#
# 1 154.3773 71.2101 49.9787 0.0000 22.9066 0.0000
# 2 71.2101 105.9094 27.7189 0.0000 14.0121 0.0000
# 3 49.9787 27.7189 55.5450 0.0000 3.2001 0.0000
# 4 0.0000 0.0000 0.0000 8.1253 0.0000 9.3147
# 5 22.9066 14.0121 3.2001 0.0000 14.9966 0.0000
# 6 0.0000 0.0000 0.0000 9.3147 0.0000 29.7893
#
#
#
# Elastic Compliance Matrix: (Units=1/GPa)
#
#
# Indices 1 2 3 4 5 6 
#
# 1 0.013950 -0.005036 -0.009195 0.000000 -0.014640 0.000000
# 2 -0.005036 0.014062 -0.002200 0.000000 -0.004978 0.000000
# 3 -0.009195 -0.002200 0.026777 0.000000 0.010387 0.000000
# 4 0.000000 0.000000 0.000000 0.191838 0.000000 -0.059985
# 5 -0.014640 -0.004978 0.010387 0.000000 0.091478 0.000000
# 6 0.000000 0.000000 0.000000 -0.059985 0.000000 0.052326
#
#
# Mechanical properties :
#
#
# Convention : Reuss Voigt Hill
#
# Bulk Modulus (GPa) = 45.60583 68.18302 56.89443
# Shear Modulus (GPa) = 11.61168 21.71051 16.66109
#
# Velocity S-wave (km/s) = 2.62016 3.58274 3.13858
# Velocity P-wave (km/s) = 6.00979 7.57806 6.83903
#
# Compressibility (1/GPa) = 0.02192702
#
# Stress axis : x y z
#
# Youngs Moduli (GPa) = 71.68579 71.11265 37.34615
#
# Poissons Ratio (x) = 0.35811 0.34341
# Poissons Ratio (y) = 0.36100 0.08215
# Poissons Ratio (z) = 0.65917 0.15642
#
# Static dielectric constant tensor:
#      x y z
#    x 3.470100 0.000000 0.132770 
#    y 0.000000 3.205790 0.000000 
#    z 0.132770 0.000000 2.621130 
# 
# 
# High freq. dielectric constant tensor:
#      x y z
#    x 1.672820 0.000000 0.016370 
#    y 0.000000 1.652810 0.000000 
#    z 0.016370 0.000000 1.575660 
# 
# From -- ./inp_files/56311.got.cif
#   From: 2010.06.25/outbox.cif.g09.slc.cpg/sg10_29_cif.got.tgz:56311.got - 2010.06.27 22:07:45.
