data_PCOD8057507
_publ_section_title
;
Structure prediction by ZEFSAII (Michael W. Deem and Ramdas Pophale) SiO2 
 PCOD8057507
Probable space group: P 2/M
;
_chemical_formula_sum "Si O2"
_cell_formula_units_Z 32
_cell_length_a 16.193800
_cell_length_b 9.007851
_cell_length_c 14.217815
_cell_angle_alpha 90.000000
_cell_angle_beta 97.701994
_cell_angle_gamma 90.000000
_cell_volume 2055.261430
_symmetry_space_group_name_H-M "P 2/M"
_symmetry_group_IT_number 10
_symmetry_cell_setting 'monoclinic'
loop_
_space_group_symop_operation_xyz
x,y,z
-x,y,-z
-x,-y,-z
x,-y,z
loop_
_atom_site_type_symbol
_atom_site_label
_atom_site_fract_x
_atom_site_fract_y
_atom_site_fract_z
Si Si1 0.554873 0.827752 0.417192
Si Si2 0.876929 0.833110 0.543209
Si Si3 0.045151 0.166811 0.650289
Si Si4 0.667541 0.175126 0.128904
Si Si5 0.271960 0.670358 0.551755
Si Si6 0.586225 0.663958 0.957961
Si Si7 0.522368 0.675623 0.224185
Si Si8 0.194213 0.329780 0.744654
O O1 0.500000 0.799587 0.500000
O O2 0.646800 0.768275 0.451187
O O3 0.510179 0.739444 0.326118
O O4 0.560375 0.000000 0.390975
O O5 0.915737 0.831493 0.446368
O O6 0.797686 0.723955 0.533910
O O7 0.948460 0.779979 0.627978
O O8 0.847825 0.000000 0.563953
O O9 0.098213 0.275604 0.725123
O O10 0.048951 0.000000 0.691932
O O11 0.602864 0.250181 0.189930
O O12 0.759317 0.231731 0.169795
O O13 0.661841 0.000000 0.138206
O O14 0.648508 0.220752 0.017634
O O15 0.293167 0.500000 0.534133
O O16 0.239857 0.693247 0.652426
O O17 0.627426 0.500000 0.965268
O O18 0.562065 0.712161 0.847756
O O19 0.500000 0.658340 0.000000
O O20 0.539341 0.500000 0.230190
O O21 0.194970 0.500000 0.776423
#
# Coordination Sequence:
#
# PCOD8057507 Si02
#       8
#     4   4   4   4   4   4   4   4
#     4  11  23  35  47  63  82 107 141 182 223 257
#     4   8  14  25  40  55  76 103 134 171 206 244
#     4   8  14  24  37  55  77 105 137 168 204 242
#     4  11  19  26  41  62  84 111 141 173 206 247
#     4  10  19  29  43  59  77 106 140 175 214 252
#     4   8  16  29  43  59  81 105 133 169 207 250
#     4  10  19  32  47  61  79 106 137 173 216 255
#     4  10  18  26  38  57  83 112 141 174 208 243
#
# _framework density 15.569794999999999
#
# number of rings (size 3 to 8) (size 9 to 14) (size 15 to 20)
#    0.000    2.500    1.250    4.125    0.000    5.250 
#    0.000    2.500    0.000    0.000    0.000    0.000 
#    0.000    0.000    0.000    1.125    0.000   21.000 
#
# Total GULP energy -396649.972434 kJ/mol
# GULP energy per Si atom -12395.311639 kJ/mol
# Density = 1.553436 g / cm^3
# Si number density = 15.569795 Si / 1000 Ang^3
#
#
#
# Elastic Constant Matrix: (Units=GPa)
#
#
# Indices 1 2 3 4 5 6 
#
# 1 55.5877 41.4482 46.5511 0.0000 24.7139 0.0000
# 2 41.4482 109.1414 56.1771 0.0000 21.6921 0.0000
# 3 46.5511 56.1771 78.2197 0.0000 27.6193 0.0000
# 4 0.0000 0.0000 0.0000 22.2383 0.0000 11.1359
# 5 24.7139 21.6921 27.6193 0.0000 24.7266 0.0000
# 6 0.0000 0.0000 0.0000 11.1359 0.0000 19.5814
#
#
#
# Elastic Compliance Matrix: (Units=1/GPa)
#
#
# Indices 1 2 3 4 5 6 
#
# 1 0.044255 -0.004511 -0.014658 0.000000 -0.023902 0.000000
# 2 -0.004511 0.015045 -0.008342 0.000000 0.000629 0.000000
# 3 -0.014658 -0.008342 0.032600 0.000000 -0.014444 0.000000
# 4 0.000000 0.000000 0.000000 0.062872 0.000000 -0.035755
# 5 -0.023902 0.000629 -0.014444 0.000000 0.079915 0.000000
# 6 0.000000 0.000000 0.000000 -0.035755 0.000000 0.071402
#
#
# Mechanical properties :
#
#
# Convention : Reuss Voigt Hill
#
# Bulk Modulus (GPa) = 27.11756 59.03352 43.07554
# Shear Modulus (GPa) = 13.39037 19.89410 16.64224
#
# Velocity S-wave (km/s) = 2.93580 3.57842 3.27292
# Velocity P-wave (km/s) = 5.38019 7.42100 6.48142
#
# Compressibility (1/GPa) = 0.03687648
#
# Stress axis : x y z
#
# Youngs Moduli (GPa) = 22.59629 66.46926 30.67528
#
# Poissons Ratio (x) = 0.29986 0.44964
# Poissons Ratio (y) = 0.10194 0.25590
# Poissons Ratio (z) = 0.33121 0.55450
#
# Static dielectric constant tensor:
#      x y z
#    x 2.862700 0.000000 0.503940 
#    y 0.000000 3.093280 0.000000 
#    z 0.503940 0.000000 3.011880 
# 
# 
# High freq. dielectric constant tensor:
#      x y z
#    x 1.561750 0.000000 0.050740 
#    y 0.000000 1.608870 0.000000 
#    z 0.050740 0.000000 1.565880 
# 
# From -- ./inp_files/66190.got.cif
#   From: 2010.06.25/outbox.cif.g09.slc.cpg/sg10_34_cif.got.tgz:66190.got - 2010.06.27 22:07:45.
