data_PCOD8057873
_publ_section_title
;
Structure prediction by ZEFSAII (Michael W. Deem and Ramdas Pophale) SiO2 
 PCOD8057873
Probable space group: P 2/M
;
_chemical_formula_sum "Si O2"
_cell_formula_units_Z 32
_cell_length_a 27.062469
_cell_length_b 8.980232
_cell_length_c 13.452711
_cell_angle_alpha 90.000000
_cell_angle_beta 32.944663
_cell_angle_gamma 90.000000
_cell_volume 1777.980421
_symmetry_space_group_name_H-M "P 2/M"
_symmetry_group_IT_number 10
_symmetry_cell_setting 'monoclinic'
loop_
_space_group_symop_operation_xyz
x,y,z
-x,y,-z
-x,-y,-z
x,-y,z
loop_
_atom_site_type_symbol
_atom_site_label
_atom_site_fract_x
_atom_site_fract_y
_atom_site_fract_z
Si Si1 0.547756 0.332264 0.525331
Si Si2 0.910589 0.835723 0.457222
Si Si3 0.296595 0.827939 0.833483
Si Si4 0.896516 0.173598 0.921586
Si Si5 0.903043 0.675402 0.119983
Si Si6 0.613974 0.175333 0.111587
Si Si7 0.801761 0.834092 0.456527
Si Si8 0.263316 0.324290 0.253190
O O1 0.500000 0.328422 0.500000
O O2 0.556108 0.500000 0.552272
O O3 0.647957 0.263095 0.343717
O O4 0.488747 0.234067 0.701290
O O5 0.894566 0.844931 0.364709
O O6 0.834520 0.724155 0.631123
O O7 0.896326 0.000000 0.529608
O O8 0.014722 0.781813 0.294367
O O9 0.190292 0.793404 0.000447
O O10 0.324862 0.780180 0.896647
O O11 0.320125 0.000000 0.776329
O O12 0.891672 0.274586 0.026527
O O13 0.901943 0.000000 0.943065
O O14 0.890532 0.500000 0.148454
O O15 0.822236 0.750867 0.319369
O O16 0.000000 0.725131 0.000000
O O17 0.612348 0.000000 0.095666
O O18 0.654568 0.256561 0.947609
O O19 0.729541 0.741490 0.646352
O O20 0.763655 0.000000 0.498382
O O21 0.270925 0.500000 0.242491
#
# Coordination Sequence:
#
# PCOD8057873 Si02
#       8
#     4   4   4   4   4   4   4   4
#     4   9  17  30  49  72  96 121 151 192 241 287
#     4   8  16  29  45  63  89 123 158 195 233 271
#     4   9  19  33  49  71  97 126 160 197 235 280
#     4  10  19  32  49  68  94 129 165 198 236 281
#     4  11  20  28  43  68  94 123 159 198 241 284
#     4  10  18  31  51  72  95 124 159 196 236 283
#     4   9  17  29  45  64  89 120 156 197 236 271
#     4  10  18  29  46  69  95 121 156 200 240 281
#
# _framework density 17.997948000000001
#
# number of rings (size 3 to 8) (size 9 to 14) (size 15 to 20)
#    0.750    1.750    1.250    2.250    0.000    3.500 
#    0.000    0.625    0.000    3.750    0.000    0.875 
#    0.000    7.000    0.000    0.000    0.000    0.000 
#
# Total GULP energy -396581.953831 kJ/mol
# GULP energy per Si atom -12393.186057 kJ/mol
# Density = 1.795698 g / cm^3
# Si number density = 17.997948 Si / 1000 Ang^3
#
#
#
# Elastic Constant Matrix: (Units=GPa)
#
#
# Indices 1 2 3 4 5 6 
#
# 1 6.1170 -0.2727 -11.3599 0.0000 3.1572 0.0000
# 2 -0.2727 100.6546 36.9430 0.0000 14.5036 0.0000
# 3 -11.3599 36.9430 84.2030 0.0000 14.0425 0.0000
# 4 0.0000 0.0000 0.0000 30.5744 0.0000 5.1908
# 5 3.1572 14.5036 14.0425 0.0000 20.8456 0.0000
# 6 0.0000 0.0000 0.0000 5.1908 0.0000 14.6970
#
#
#
# Elastic Compliance Matrix: (Units=1/GPa)
#
#
# Indices 1 2 3 4 5 6 
#
# 1 0.319306 -0.009631 0.061117 0.000000 -0.082832 0.000000
# 2 -0.009631 0.012684 -0.006349 0.000000 -0.003090 0.000000
# 3 0.061117 -0.006349 0.026715 0.000000 -0.022836 0.000000
# 4 0.000000 0.000000 0.000000 0.034793 0.000000 -0.012289
# 5 -0.082832 -0.003090 -0.022836 0.000000 0.078050 0.000000
# 6 0.000000 0.000000 0.000000 -0.012289 0.000000 0.072381
#
#
# Mechanical properties :
#
#
# Convention : Reuss Voigt Hill
#
# Bulk Modulus (GPa) = 2.22728 26.84392 14.53560
# Shear Modulus (GPa) = 8.28752 24.26766 16.27759
#
# Velocity S-wave (km/s) = 2.14819 3.67598 3.01061
# Velocity P-wave (km/s) = 2.71903 5.74147 4.49208
#
# Compressibility (1/GPa) = 0.44897883
#
# Stress axis : x y z
#
# Youngs Moduli (GPa) = 3.13180 78.83699 37.43153
#
# Poissons Ratio (x) = 0.75930 -2.28771
# Poissons Ratio (y) = 0.03016 0.23766
# Poissons Ratio (z) = -0.19141 0.50056
#
# Static dielectric constant tensor:
#      x y z
#    x 2.853790 0.000000 -0.029820 
#    y 0.000000 3.336560 0.000000 
#    z -0.029820 0.000000 3.308310 
# 
# 
# High freq. dielectric constant tensor:
#      x y z
#    x 1.638970 0.000000 0.004580 
#    y 0.000000 1.703050 0.000000 
#    z 0.004580 0.000000 1.697750 
# 
# From -- ./inp_files/72544.got.cif
#   From: 2010.06.25/outbox.cif.g09.slc.cpg/sg10_37_cif.got.tgz:72544.got - 2010.06.27 22:07:45.
