data_PCOD8057999
_publ_section_title
;
Structure prediction by ZEFSAII (Michael W. Deem and Ramdas Pophale) SiO2 
 PCOD8057999
Probable space group: P 2/M
;
_chemical_formula_sum "Si O2"
_cell_formula_units_Z 32
_cell_length_a 27.891256
_cell_length_b 8.882488
_cell_length_c 22.805792
_cell_angle_alpha 90.000000
_cell_angle_beta 162.165411
_cell_angle_gamma 90.000000
_cell_volume 1730.423397
_symmetry_space_group_name_H-M "P 2/M"
_symmetry_group_IT_number 10
_symmetry_cell_setting 'monoclinic'
loop_
_space_group_symop_operation_xyz
x,y,z
-x,y,-z
-x,-y,-z
x,-y,z
loop_
_atom_site_type_symbol
_atom_site_label
_atom_site_fract_x
_atom_site_fract_y
_atom_site_fract_z
Si Si1 0.019750 0.178521 0.456927
Si Si2 0.190170 0.171657 0.498166
Si Si3 0.852306 0.677689 0.792727
Si Si4 0.917131 0.828508 0.748284
Si Si5 0.760253 0.177011 0.939171
Si Si6 0.105585 0.323946 0.796823
Si Si7 0.521517 0.323131 0.457314
Si Si8 0.649660 0.173972 0.204545
O O1 0.189819 0.238676 0.634887
O O2 0.000000 0.235859 0.500000
O O3 0.888397 0.252436 0.261599
O O4 0.002228 0.000000 0.431677
O O5 0.213719 0.191818 0.455804
O O6 0.347095 0.196838 0.720302
O O7 0.062909 0.290377 0.371415
O O8 0.127132 0.000000 0.436451
O O9 0.857667 0.500000 0.802809
O O10 0.863054 0.723344 0.737706
O O11 0.691694 0.735954 0.634807
O O12 0.000000 0.747073 0.000000
O O13 0.922070 0.000000 0.776346
O O14 0.086723 0.778951 0.920982
O O15 0.607228 0.234900 0.728852
O O16 0.750246 0.000000 0.936071
O O17 0.765192 0.251618 0.009490
O O18 0.136859 0.500000 0.828813
O O19 0.500000 0.282395 0.500000
O O20 0.500752 0.500000 0.421804
O O21 0.642104 0.000000 0.178609
O O22 0.500000 0.255549 0.000000
#
# Coordination Sequence:
#
# PCOD8057999 Si02
#       8
#     4   4   4   4   4   4   4   4
#     4   9  17  30  47  68  97 131 167 206 248 297
#     4   8  15  29  47  69  98 128 164 206 246 295
#     4  10  21  36  54  76 102 133 167 204 248 300
#     4   9  18  32  51  75 101 130 165 208 254 300
#     4  10  20  35  55  78 103 132 170 213 257 305
#     4  10  18  29  49  74  99 129 167 208 253 304
#     4  10  21  37  56  78 105 137 173 210 250 300
#     4   8  13  24  45  69  91 120 159 200 238 280
#
# _framework density 18.492584999999998
#
# number of rings (size 3 to 8) (size 9 to 14) (size 15 to 20)
#    0.000    2.750    0.000    3.750    0.000    4.750 
#    0.000    1.250    0.000    9.000    0.000    0.000 
#    0.000    0.000    0.000    0.000    0.000    0.000 
#
# Total GULP energy -396571.946889 kJ/mol
# GULP energy per Si atom -12392.873340 kJ/mol
# Density = 1.845050 g / cm^3
# Si number density = 18.492585 Si / 1000 Ang^3
#
#
#
# Elastic Constant Matrix: (Units=GPa)
#
#
# Indices 1 2 3 4 5 6 
#
# 1 124.2084 32.5705 69.2086 0.0000 -23.2750 0.0000
# 2 32.5705 51.7245 39.0451 0.0000 -9.5887 0.0000
# 3 69.2086 39.0451 142.6416 0.0000 -23.2473 0.0000
# 4 0.0000 0.0000 0.0000 20.6581 0.0000 -4.3866
# 5 -23.2750 -9.5887 -23.2473 0.0000 31.0474 0.0000
# 6 0.0000 0.0000 0.0000 -4.3866 0.0000 25.7765
#
#
#
# Elastic Compliance Matrix: (Units=1/GPa)
#
#
# Indices 1 2 3 4 5 6 
#
# 1 0.012242 -0.003676 -0.004127 0.000000 0.004952 0.000000
# 2 -0.003676 0.025701 -0.005020 0.000000 0.001423 0.000000
# 3 -0.004127 -0.005020 0.010968 0.000000 0.003569 0.000000
# 4 0.000000 0.000000 0.000000 0.050222 0.000000 0.008547
# 5 0.004952 0.001423 0.003569 0.000000 0.039033 0.000000
# 6 0.000000 0.000000 0.000000 0.008547 0.000000 0.040250
#
#
# Mechanical properties :
#
#
# Convention : Reuss Voigt Hill
#
# Bulk Modulus (GPa) = 42.97822 66.69146 54.83484
# Shear Modulus (GPa) = 23.60540 27.34641 25.47591
#
# Velocity S-wave (km/s) = 3.57666 3.84966 3.71567
# Velocity P-wave (km/s) = 6.35200 7.47677 6.93722
#
# Compressibility (1/GPa) = 0.02326760
#
# Stress axis : x y z
#
# Youngs Moduli (GPa) = 81.68497 38.90926 91.17073
#
# Poissons Ratio (x) = 0.14302 0.37622
# Poissons Ratio (y) = 0.30025 0.45764
# Poissons Ratio (z) = 0.33707 0.19531
#
# Static dielectric constant tensor:
#      x y z
#    x 3.667030 0.000000 -0.344750 
#    y 0.000000 3.115640 0.000000 
#    z -0.344750 0.000000 3.688300 
# 
# 
# High freq. dielectric constant tensor:
#      x y z
#    x 1.705690 0.000000 -0.033830 
#    y 0.000000 1.694160 0.000000 
#    z -0.033830 0.000000 1.715960 
# 
# From -- ./inp_files/86809.got.cif
#   From: 2010.06.25/outbox.cif.g09.slc.cpg/sg10_44_cif.got.tgz:86809.got - 2010.06.27 22:07:45.
