data_PCOD8057232
_publ_section_title
;
Structure prediction by ZEFSAII (Michael W. Deem and Ramdas Pophale) SiO2 
 PCOD8057232
Probable space group: P 2/M
;
_chemical_formula_sum "Si O2"
_cell_formula_units_Z 32
_cell_length_a 31.006841
_cell_length_b 8.787388
_cell_length_c 15.192460
_cell_angle_alpha 90.000000
_cell_angle_beta 151.310305
_cell_angle_gamma 90.000000
_cell_volume 1987.220829
_symmetry_space_group_name_H-M "P 2/M"
_symmetry_group_IT_number 10
_symmetry_cell_setting 'monoclinic'
loop_
_space_group_symop_operation_xyz
x,y,z
-x,y,-z
-x,-y,-z
x,-y,z
loop_
_atom_site_type_symbol
_atom_site_label
_atom_site_fract_x
_atom_site_fract_y
_atom_site_fract_z
Si Si1 0.609260 0.819627 0.781018
Si Si2 0.413145 0.179959 0.458115
Si Si3 0.754307 0.676333 0.772641
Si Si4 0.201381 0.181326 0.822699
Si Si5 0.881796 0.180572 0.144493
Si Si6 0.884394 0.322934 0.852611
Si Si7 0.077765 0.819560 0.447739
Si Si8 0.930841 0.820420 0.764316
O O1 0.613743 0.764792 0.687995
O O2 0.516272 0.767267 0.660847
O O3 0.610484 0.000000 0.780887
O O4 0.695997 0.756093 0.988878
O O5 0.347918 0.263014 0.410570
O O6 0.402349 0.000000 0.449723
O O7 0.756554 0.500000 0.800033
O O8 0.794874 0.707896 0.748501
O O9 0.810886 0.763578 0.946716
O O10 0.146335 0.238245 0.809183
O O11 0.153356 0.246715 0.649158
O O12 0.202456 0.000000 0.822479
O O13 0.980335 0.247497 0.299480
O O14 0.881693 0.000000 0.140364
O O15 0.910451 0.500000 0.898493
O O16 0.868439 0.264426 0.724314
O O17 0.965873 0.229107 0.041021
O O18 0.103012 0.772494 0.393384
O O19 0.073048 0.000000 0.448258
O O20 0.924310 0.000000 0.767297
#
# Coordination Sequence:
#
# PCOD8057232 Si02
#       8
#     4   4   4   4   4   4   4   4
#     4   8  14  25  44  68  90 114 147 184 220 260
#     4   9  16  28  46  67  88 114 150 185 220 266
#     4  11  21  30  43  65  91 120 150 183 224 265
#     4   9  15  25  44  68  92 120 150 182 215 257
#     4  10  17  28  45  64  90 124 155 182 208 250
#     4  10  20  32  45  61  86 119 150 180 221 274
#     4   9  17  26  41  69  95 115 149 186 219 254
#     4  10  18  29  46  68  89 111 144 189 225 255
#
# _framework density 16.102891
#
# number of rings (size 3 to 8) (size 9 to 14) (size 15 to 20)
#    0.000    2.500    2.500    3.000    0.000    3.000 
#    0.000    1.250    0.000    3.000    0.000    0.875 
#    0.000    7.000    0.000    0.000    0.000    0.000 
#
# Total GULP energy -396640.883901 kJ/mol
# GULP energy per Si atom -12395.027622 kJ/mol
# Density = 1.606624 g / cm^3
# Si number density = 16.102891 Si / 1000 Ang^3
#
#
#
# Elastic Constant Matrix: (Units=GPa)
#
#
# Indices 1 2 3 4 5 6 
#
# 1 129.2105 24.6439 67.1605 0.0000 2.8700 0.0000
# 2 24.6439 18.8361 12.3905 0.0000 -0.4277 0.0000
# 3 67.1605 12.3905 101.5130 0.0000 3.5663 0.0000
# 4 0.0000 0.0000 0.0000 3.6021 0.0000 4.6062
# 5 2.8700 -0.4277 3.5663 0.0000 26.6984 0.0000
# 6 0.0000 0.0000 0.0000 4.6062 0.0000 16.8769
#
#
#
# Elastic Compliance Matrix: (Units=1/GPa)
#
#
# Indices 1 2 3 4 5 6 
#
# 1 0.014472 -0.013776 -0.007868 0.000000 -0.000725 0.000000
# 2 -0.013776 0.070930 0.000366 0.000000 0.002568 0.000000
# 3 -0.007868 0.000366 0.015052 0.000000 -0.001159 0.000000
# 4 0.000000 0.000000 0.000000 0.426460 0.000000 -0.116394
# 5 -0.000725 0.002568 -0.001159 0.000000 0.037729 0.000000
# 6 0.000000 0.000000 0.000000 -0.116394 0.000000 0.091020
#
#
# Mechanical properties :
#
#
# Convention : Reuss Voigt Hill
#
# Bulk Modulus (GPa) = 17.27118 50.88325 34.07722
# Shear Modulus (GPa) = 6.96846 19.12645 13.04745
#
# Velocity S-wave (km/s) = 2.08251 3.45014 2.84959
# Velocity P-wave (km/s) = 4.06587 6.89483 5.65994
#
# Compressibility (1/GPa) = 0.05789992
#
# Stress axis : x y z
#
# Youngs Moduli (GPa) = 69.09727 14.09839 66.43465
#
# Poissons Ratio (x) = 0.19421 0.52270
# Poissons Ratio (y) = 0.95185 -0.02432
# Poissons Ratio (z) = 0.54365 -0.00516
#
# Static dielectric constant tensor:
#      x y z
#    x 3.272180 0.000000 0.078190 
#    y 0.000000 2.760840 0.000000 
#    z 0.078190 0.000000 3.231280 
# 
# 
# High freq. dielectric constant tensor:
#      x y z
#    x 1.615810 0.000000 0.009100 
#    y 0.000000 1.590770 0.000000 
#    z 0.009100 0.000000 1.597860 
# 
# From -- ./inp_files/72572.got.cif
#   From: 2010.06.25/outbox.cif.g09.slc.cpg/sg10_37_cif.got.tgz:72572.got - 2010.06.27 22:07:45.
