data_PCOD8057919
_publ_section_title
;
Structure prediction by ZEFSAII (Michael W. Deem and Ramdas Pophale) SiO2 
 PCOD8057919
Probable space group: P 2/M
;
_chemical_formula_sum "Si O2"
_cell_formula_units_Z 24
_cell_length_a 11.429906
_cell_length_b 7.753774
_cell_length_c 20.789813
_cell_angle_alpha 90.000000
_cell_angle_beta 46.894028
_cell_angle_gamma 90.000000
_cell_volume 1345.189310
_symmetry_space_group_name_H-M "P 2/M"
_symmetry_group_IT_number 10
_symmetry_cell_setting 'monoclinic'
loop_
_space_group_symop_operation_xyz
x,y,z
-x,y,-z
-x,-y,-z
x,-y,z
loop_
_atom_site_type_symbol
_atom_site_label
_atom_site_fract_x
_atom_site_fract_y
_atom_site_fract_z
Si Si1 0.883710 0.703742 0.454697
Si Si2 0.257357 0.500000 0.921111
Si Si3 0.027925 0.500000 0.885494
Si Si4 0.228291 0.703944 0.366183
Si Si5 0.790977 0.192952 0.234347
Si Si6 0.321153 0.296560 0.586798
Si Si7 0.431008 0.192868 0.800222
O O1 0.867558 0.500000 0.462569
O O2 0.795902 0.773154 0.551900
O O3 0.797678 0.776613 0.423576
O O4 0.070893 0.755606 0.384167
O O5 0.133103 0.500000 0.909758
O O6 0.367086 0.328652 0.876987
O O7 0.159669 0.500000 0.024895
O O8 0.064940 0.328903 0.829830
O O9 0.257816 0.500000 0.354435
O O10 0.378108 0.797117 0.277615
O O11 0.720955 0.201840 0.331806
O O12 0.646610 0.236987 0.239747
O O13 0.857595 0.000000 0.196836
O O14 0.500000 0.246400 0.500000
O O15 0.302009 0.500000 0.604081
O O16 0.384195 0.000000 0.840511
#
# Coordination Sequence:
#
# PCOD8057919 Si02
#       7
#     4   2   2   4   4   4   4
#     4   8  16  27  45  71  96 132 171 202 237 278
#     4   9  18  32  52  72  97 127 154 195 249 294
#     4   9  18  34  51  71  97 128 160 192 241 302
#     4   9  15  29  48  67  98 131 164 204 243 281
#     4  10  20  32  48  72 101 131 162 198 238 283
#     4  10  18  29  47  71 100 134 170 201 233 280
#     4  10  19  30  48  75 100 125 161 199 240 291
#
# _framework density 17.841353999999999
#
# number of rings (size 3 to 8) (size 9 to 14) (size 15 to 20)
#    0.000    2.667    1.667    2.000    0.000    2.333 
#    0.000    6.667    0.000    0.000    0.000    2.333 
#    0.000    2.667    0.000    0.000    0.000    0.000 
#
# Total GULP energy -297550.860810 kJ/mol
# GULP energy per Si atom -12397.952534 kJ/mol
# Density = 1.780075 g / cm^3
# Si number density = 17.841354 Si / 1000 Ang^3
#
#
#
# Elastic Constant Matrix: (Units=GPa)
#
#
# Indices 1 2 3 4 5 6 
#
# 1 78.9149 24.4988 38.1608 0.0000 -8.1015 0.0000
# 2 24.4988 95.3404 53.4447 0.0000 -7.0495 0.0000
# 3 38.1608 53.4447 125.4801 0.0000 -16.2199 0.0000
# 4 0.0000 0.0000 0.0000 7.8809 0.0000 1.0483
# 5 -8.1015 -7.0495 -16.2199 0.0000 20.3464 0.0000
# 6 0.0000 0.0000 0.0000 1.0483 0.0000 11.4985
#
#
#
# Elastic Compliance Matrix: (Units=1/GPa)
#
#
# Indices 1 2 3 4 5 6 
#
# 1 0.015191 -0.001721 -0.003548 0.000000 0.002624 0.000000
# 2 -0.001721 0.013974 -0.005453 0.000000 -0.000191 0.000000
# 3 -0.003548 -0.005453 0.012201 0.000000 0.006425 0.000000
# 4 0.000000 0.000000 0.000000 0.128447 0.000000 -0.011710
# 5 0.002624 -0.000191 0.006425 0.000000 0.055249 0.000000
# 6 0.000000 0.000000 0.000000 -0.011710 0.000000 0.088035
#
#
# Mechanical properties :
#
#
# Convention : Reuss Voigt Hill
#
# Bulk Modulus (GPa) = 50.19307 59.10486 54.64897
# Shear Modulus (GPa) = 14.65494 20.18723 17.42108
#
# Velocity S-wave (km/s) = 2.86912 3.36740 3.12820
# Velocity P-wave (km/s) = 6.25858 6.95120 6.61396
#
# Compressibility (1/GPa) = 0.01992307
#
# Stress axis : x y z
#
# Youngs Moduli (GPa) = 65.82810 71.56373 81.95798
#
# Poissons Ratio (x) = 0.12314 0.29077
# Poissons Ratio (y) = 0.11327 0.44692
# Poissons Ratio (z) = 0.23354 0.39024
#
# Static dielectric constant tensor:
#      x y z
#    x 3.294490 0.000000 -0.061060 
#    y 0.000000 3.243900 0.000000 
#    z -0.061060 0.000000 3.250120 
# 
# 
# High freq. dielectric constant tensor:
#      x y z
#    x 1.659270 0.000000 -0.011300 
#    y 0.000000 1.689540 0.000000 
#    z -0.011300 0.000000 1.673430 
# 
# From -- ./inp_files/48901.got.cif
#   From: 2010.06.25/outbox.cif.g09.slc.cpg/sg10_25_cif.got.tgz:48901.got - 2010.06.27 22:07:45.
