data_PCOD8057202
_publ_section_title
;
Structure prediction by ZEFSAII (Michael W. Deem and Ramdas Pophale) SiO2 
 PCOD8057202
Probable space group: P 2/M
;
_chemical_formula_sum "Si O2"
_cell_formula_units_Z 32
_cell_length_a 19.830493
_cell_length_b 9.022434
_cell_length_c 20.306700
_cell_angle_alpha 90.000000
_cell_angle_beta 30.075069
_cell_angle_gamma 90.000000
_cell_volume 1820.751402
_symmetry_space_group_name_H-M "P 2/M"
_symmetry_group_IT_number 10
_symmetry_cell_setting 'monoclinic'
loop_
_space_group_symop_operation_xyz
x,y,z
-x,y,-z
-x,-y,-z
x,-y,z
loop_
_atom_site_type_symbol
_atom_site_label
_atom_site_fract_x
_atom_site_fract_y
_atom_site_fract_z
Si Si1 0.691056 0.672967 0.952878
Si Si2 0.822356 0.323469 0.329746
Si Si3 0.352556 0.676628 0.642635
Si Si4 0.121678 0.674337 0.087938
Si Si5 0.664722 0.676378 0.195965
Si Si6 0.415964 0.175621 0.222682
Si Si7 0.624263 0.324252 0.611421
Si Si8 0.658248 0.836345 0.854225
O O1 0.656731 0.500000 0.981693
O O2 0.819370 0.709772 0.889778
O O3 0.726611 0.724755 0.848470
O O4 0.564289 0.756843 0.090437
O O5 0.825073 0.500000 0.326285
O O6 0.754779 0.262925 0.319698
O O7 0.736193 0.270288 0.465116
O O8 0.972612 0.256289 0.208169
O O9 0.500000 0.738440 0.500000
O O10 0.356298 0.500000 0.637968
O O11 0.310908 0.733954 0.750302
O O12 0.112697 0.500000 0.084263
O O13 0.218180 0.742226 0.949685
O O14 0.665674 0.500000 0.193326
O O15 0.520327 0.731460 0.292213
O O16 0.342330 0.245120 0.347878
O O17 0.323253 0.215700 0.237232
O O18 0.431203 0.000000 0.216740
O O19 0.626833 0.500000 0.619482
O O20 0.720396 0.000000 0.812582
O O21 0.500000 0.841870 0.000000
#
# Coordination Sequence:
#
# PCOD8057202 Si02
#       8
#     4   4   4   4   4   4   4   4
#     4  10  17  27  46  69  97 128 156 190 232 279
#     4   9  17  27  41  64  95 129 157 188 238 286
#     4   9  14  22  38  61  92 127 158 189 231 282
#     4   9  17  27  39  63  98 126 153 193 235 274
#     4   9  15  24  40  63  92 122 154 194 232 270
#     4  10  19  30  46  69  96 122 154 197 238 276
#     4  10  17  28  47  69  93 122 157 196 234 276
#     4   8  16  29  43  65  96 123 151 193 237 275
#
# _framework density 17.57516
#
# number of rings (size 3 to 8) (size 9 to 14) (size 15 to 20)
#    0.000    2.750    2.500    1.500    0.000    3.250 
#    0.000    2.500    0.000    2.250    0.000    7.000 
#    0.000    1.000    0.000    0.000    0.000    0.000 
#
# Total GULP energy -396642.462104 kJ/mol
# GULP energy per Si atom -12395.076941 kJ/mol
# Density = 1.753516 g / cm^3
# Si number density = 17.575160 Si / 1000 Ang^3
#
#
#
# Elastic Constant Matrix: (Units=GPa)
#
#
# Indices 1 2 3 4 5 6 
#
# 1 155.3357 34.5044 84.7726 0.0000 21.7058 0.0000
# 2 34.5044 34.0687 21.1681 0.0000 6.2043 0.0000
# 3 84.7726 21.1681 126.3065 0.0000 6.5244 0.0000
# 4 0.0000 0.0000 0.0000 6.5443 0.0000 3.6821
# 5 21.7058 6.2043 6.5244 0.0000 33.7999 0.0000
# 6 0.0000 0.0000 0.0000 3.6821 0.0000 2.8192
#
#
#
# Elastic Compliance Matrix: (Units=1/GPa)
#
#
# Indices 1 2 3 4 5 6 
#
# 1 0.012660 -0.007513 -0.006958 0.000000 -0.005407 0.000000
# 2 -0.007513 0.038083 -0.001240 0.000000 -0.001926 0.000000
# 3 -0.006958 -0.001240 0.012679 0.000000 0.002249 0.000000
# 4 0.000000 0.000000 0.000000 0.576381 0.000000 -0.752820
# 5 -0.005407 -0.001926 0.002249 0.000000 0.032978 0.000000
# 6 0.000000 0.000000 0.000000 -0.752820 0.000000 1.337985
#
#
# Mechanical properties :
#
#
# Convention : Reuss Voigt Hill
#
# Bulk Modulus (GPa) = 31.25164 66.28902 48.77033
# Shear Modulus (GPa) = 2.43563 20.31706 11.37634
#
# Velocity S-wave (km/s) = 1.17849 3.40370 2.54696
# Velocity P-wave (km/s) = 4.43533 7.29700 6.03814
#
# Compressibility (1/GPa) = 0.03199832
#
# Stress axis : x y z
#
# Youngs Moduli (GPa) = 78.99202 26.25822 78.87044
#
# Poissons Ratio (x) = 0.19729 0.54879
# Poissons Ratio (y) = 0.59349 0.09783
# Poissons Ratio (z) = 0.54964 0.03257
#
# Static dielectric constant tensor:
#      x y z
#    x 3.627840 0.000000 0.223120 
#    y 0.000000 2.790110 0.000000 
#    z 0.223120 0.000000 3.306100 
# 
# 
# High freq. dielectric constant tensor:
#      x y z
#    x 1.692290 0.000000 0.020680 
#    y 0.000000 1.626010 0.000000 
#    z 0.020680 0.000000 1.657620 
# 
# From -- ./inp_files/86134.got.cif
#   From: 2010.06.25/outbox.cif.g09.slc.cpg/sg10_44_cif.got.tgz:86134.got - 2010.06.27 22:07:45.
