data_PCOD8057915
_publ_section_title
;
Structure prediction by ZEFSAII (Michael W. Deem and Ramdas Pophale) SiO2 
 PCOD8057915
Probable space group: P 2/M
;
_chemical_formula_sum "Si O2"
_cell_formula_units_Z 32
_cell_length_a 15.287688
_cell_length_b 8.505605
_cell_length_c 20.902085
_cell_angle_alpha 90.000000
_cell_angle_beta 138.448970
_cell_angle_gamma 90.000000
_cell_volume 1802.760397
_symmetry_space_group_name_H-M "P 2/M"
_symmetry_group_IT_number 10
_symmetry_cell_setting 'monoclinic'
loop_
_space_group_symop_operation_xyz
x,y,z
-x,y,-z
-x,-y,-z
x,-y,z
loop_
_atom_site_type_symbol
_atom_site_label
_atom_site_fract_x
_atom_site_fract_y
_atom_site_fract_z
Si Si1 0.787068 0.679250 0.800990
Si Si2 0.503239 0.813886 0.669501
Si Si3 0.419030 0.187947 0.016471
Si Si4 0.385068 0.316962 0.484824
Si Si5 0.792232 0.322576 0.943175
Si Si6 0.524747 0.822467 0.817734
Si Si7 0.864844 0.820389 0.717044
Si Si8 0.131733 0.679874 0.877865
O O1 0.802856 0.500000 0.785074
O O2 0.632352 0.716601 0.721307
O O3 0.858696 0.700988 0.909560
O O4 0.852675 0.795938 0.786445
O O5 0.392723 0.774970 0.556484
O O6 0.453755 0.756631 0.714125
O O7 0.533679 0.000000 0.687811
O O8 0.494315 0.255564 0.122019
O O9 0.412677 0.000000 0.014857
O O10 0.500000 0.250374 0.000000
O O11 0.270677 0.250890 0.931220
O O12 0.500000 0.255237 0.500000
O O13 0.403132 0.500000 0.507881
O O14 0.241889 0.285630 0.377377
O O15 0.730634 0.500000 0.911884
O O16 0.680378 0.190799 0.888615
O O17 0.890858 0.303630 0.057237
O O18 0.479788 0.000000 0.801042
O O19 0.012833 0.771038 0.777617
O O20 0.839856 0.000000 0.685045
O O21 0.125744 0.500000 0.853116
#
# Coordination Sequence:
#
# PCOD8057915 Si02
#       8
#     4   4   4   4   4   4   4   4
#     4  10  18  30  46  66  92 126 168 207 245 286
#     4  10  18  29  47  70  97 128 165 210 251 287
#     4   9  17  32  55  81 108 135 162 194 236 291
#     4  11  22  35  51  69  92 127 171 216 255 294
#     4   8  16  29  46  65  90 127 165 200 238 283
#     4   8  15  27  45  72 102 129 159 197 240 285
#     4  12  24  35  48  67  94 128 168 210 252 295
#     4  10  20  35  51  70  99 131 164 203 245 292
#
# _framework density 17.750556
#
# number of rings (size 3 to 8) (size 9 to 14) (size 15 to 20)
#    0.000    2.250    1.250    2.625    0.000    2.750 
#    0.000    2.500    0.000    0.000    0.000    0.875 
#    0.000    7.000    0.000    0.000    0.000    0.000 
#
# Total GULP energy -396433.859441 kJ/mol
# GULP energy per Si atom -12388.558108 kJ/mol
# Density = 1.771016 g / cm^3
# Si number density = 17.750556 Si / 1000 Ang^3
#
#
#
# Elastic Constant Matrix: (Units=GPa)
#
#
# Indices 1 2 3 4 5 6 
#
# 1 85.6210 14.1817 52.6456 0.0000 -16.8727 0.0000
# 2 14.1817 44.9177 16.7071 0.0000 -4.5314 0.0000
# 3 52.6456 16.7071 100.8040 0.0000 -9.9320 0.0000
# 4 0.0000 0.0000 0.0000 23.2613 0.0000 -0.2929
# 5 -16.8727 -4.5314 -9.9320 0.0000 23.6154 0.0000
# 6 0.0000 0.0000 0.0000 -0.2929 0.0000 15.0785
#
#
#
# Elastic Compliance Matrix: (Units=1/GPa)
#
#
# Indices 1 2 3 4 5 6 
#
# 1 0.019336 -0.001836 -0.008834 0.000000 0.009748 0.000000
# 2 -0.001836 0.024109 -0.002828 0.000000 0.002125 0.000000
# 3 -0.008834 -0.002828 0.014946 0.000000 -0.000568 0.000000
# 4 0.000000 0.000000 0.000000 0.043000 0.000000 0.000835
# 5 0.009748 0.002125 -0.000568 0.000000 0.049479 0.000000
# 6 0.000000 0.000000 0.000000 0.000835 0.000000 0.066336
#
#
# Mechanical properties :
#
#
# Convention : Reuss Voigt Hill
#
# Bulk Modulus (GPa) = 31.85031 44.26794 38.05912
# Shear Modulus (GPa) = 19.63360 22.24491 20.93926
#
# Velocity S-wave (km/s) = 3.32939 3.54389 3.43831
# Velocity P-wave (km/s) = 5.72381 6.46054 6.10330
#
# Compressibility (1/GPa) = 0.03139687
#
# Stress axis : x y z
#
# Youngs Moduli (GPa) = 51.71735 41.47883 66.90597
#
# Poissons Ratio (x) = 0.07615 0.59102
# Poissons Ratio (y) = 0.09494 0.18918
# Poissons Ratio (z) = 0.45685 0.11728
#
# Static dielectric constant tensor:
#      x y z
#    x 3.185170 0.000000 -0.401280 
#    y 0.000000 3.227030 0.000000 
#    z -0.401280 0.000000 3.359560 
# 
# 
# High freq. dielectric constant tensor:
#      x y z
#    x 1.643020 0.000000 -0.026290 
#    y 0.000000 1.686970 0.000000 
#    z -0.026290 0.000000 1.680500 
# 
# From -- ./inp_files/70035.got.cif
#   From: 2010.06.25/outbox.cif.g09.slc.cpg/sg10_36_cif.got.tgz:70035.got - 2010.06.27 22:07:45.
