data_PCOD8057553
_publ_section_title
;
Structure prediction by ZEFSAII (Michael W. Deem and Ramdas Pophale) SiO2 
 PCOD8057553
Probable space group: P 2/M
;
_chemical_formula_sum "Si O2"
_cell_formula_units_Z 28
_cell_length_a 28.673085
_cell_length_b 9.280973
_cell_length_c 14.079387
_cell_angle_alpha 90.000000
_cell_angle_beta 28.381256
_cell_angle_gamma 90.000000
_cell_volume 1780.954241
_symmetry_space_group_name_H-M "P 2/M"
_symmetry_group_IT_number 10
_symmetry_cell_setting 'monoclinic'
loop_
_space_group_symop_operation_xyz
x,y,z
-x,y,-z
-x,-y,-z
x,-y,z
loop_
_atom_site_type_symbol
_atom_site_label
_atom_site_fract_x
_atom_site_fract_y
_atom_site_fract_z
Si Si1 0.949848 0.162960 0.691974
Si Si2 0.410462 0.340521 0.233603
Si Si3 0.777221 0.667928 0.924457
Si Si4 0.879353 0.664709 0.542887
Si Si5 0.468429 0.833826 0.849437
Si Si6 0.422120 0.165101 0.719533
Si Si7 0.699978 0.667864 0.744130
O O1 0.849079 0.252305 0.869999
O O2 0.000000 0.168267 0.500000
O O3 0.024794 0.234793 0.632717
O O4 0.927708 0.000000 0.763814
O O5 0.394736 0.500000 0.304741
O O6 0.433071 0.232684 0.279532
O O7 0.316008 0.293247 0.339058
O O8 0.500000 0.339783 0.000000
O O9 0.776425 0.500000 0.951121
O O10 0.812732 0.696839 0.753969
O O11 0.669312 0.730393 0.129849
O O12 0.915681 0.500000 0.479253
O O13 0.812792 0.698998 0.569851
O O14 0.475505 0.810159 0.724391
O O15 0.463717 0.000000 0.886511
O O16 0.370110 0.759474 0.062744
O O17 0.500000 0.205636 0.500000
O O18 0.385867 0.000000 0.775481
O O19 0.673847 0.500000 0.808651
#
# Coordination Sequence:
#
# PCOD8057553 Si02
#       7
#     4   4   4   4   4   4   4
#     4   9  17  27  40  59  84 112 140 168 205 253
#     4   8  15  26  40  56  79 110 139 165 203 253
#     4  10  18  29  45  61  80 108 143 181 214 245
#     4   9  16  26  41  61  85 111 141 172 203 244
#     4  10  18  27  41  58  79 107 141 179 213 245
#     4  10  21  34  45  59  82 113 147 182 220 256
#     4   9  16  27  41  59  84 114 140 166 205 251
#
# _framework density 15.721909999999999
#
# number of rings (size 3 to 8) (size 9 to 14) (size 15 to 20)
#    0.000    2.714    1.429    2.143    0.000    6.286 
#    0.000    0.000    0.000    0.000    0.000    0.000 
#    0.000    1.143    0.000   13.143    0.000    4.000 
#
# Total GULP energy -347106.787871 kJ/mol
# GULP energy per Si atom -12396.670995 kJ/mol
# Density = 1.568613 g / cm^3
# Si number density = 15.721910 Si / 1000 Ang^3
#
#
#
# Elastic Constant Matrix: (Units=GPa)
#
#
# Indices 1 2 3 4 5 6 
#
# 1 123.4034 65.1527 41.2763 0.0000 -29.0146 0.0000
# 2 65.1527 105.9575 40.6038 0.0000 -16.5421 0.0000
# 3 41.2763 40.6038 41.1760 0.0000 -11.4618 0.0000
# 4 0.0000 0.0000 0.0000 17.2029 0.0000 -7.8292
# 5 -29.0146 -16.5421 -11.4618 0.0000 23.2886 0.0000
# 6 0.0000 0.0000 0.0000 -7.8292 0.0000 25.3801
#
#
#
# Elastic Compliance Matrix: (Units=1/GPa)
#
#
# Indices 1 2 3 4 5 6 
#
# 1 0.016496 -0.005080 -0.007891 0.000000 0.013059 0.000000
# 2 -0.005080 0.017056 -0.011722 0.000000 0.000017 0.000000
# 3 -0.007891 -0.011722 0.044844 0.000000 0.003914 0.000000
# 4 0.000000 0.000000 0.000000 0.067623 0.000000 0.020860
# 5 0.013059 0.000017 0.003914 0.000000 0.061148 0.000000
# 6 0.000000 0.000000 0.000000 0.020860 0.000000 0.045836
#
#
# Mechanical properties :
#
#
# Convention : Reuss Voigt Hill
#
# Bulk Modulus (GPa) = 34.47066 62.73361 48.60213
# Shear Modulus (GPa) = 16.02263 21.40792 18.71528
#
# Velocity S-wave (km/s) = 3.19584 3.69407 3.45395
# Velocity P-wave (km/s) = 5.96579 7.62781 6.84742
#
# Compressibility (1/GPa) = 0.02901018
#
# Stress axis : x y z
#
# Youngs Moduli (GPa) = 60.62224 58.63008 22.29941
#
# Poissons Ratio (x) = 0.29787 0.17596
# Poissons Ratio (y) = 0.30799 0.26139
# Poissons Ratio (z) = 0.47836 0.68724
#
# Static dielectric constant tensor:
#      x y z
#    x 3.346520 0.000000 -0.292090 
#    y 0.000000 3.111630 0.000000 
#    z -0.292090 0.000000 2.500150 
# 
# 
# High freq. dielectric constant tensor:
#      x y z
#    x 1.608410 0.000000 -0.032940 
#    y 0.000000 1.613810 0.000000 
#    z -0.032940 0.000000 1.538660 
# 
# From -- ./inp_files/54983.got.cif
#   From: 2010.06.25/outbox.cif.g09.slc.cpg/sg10_28_cif.got.tgz:54983.got - 2010.06.27 22:07:45.
