data_PCOD8057875
_publ_section_title
;
Structure prediction by ZEFSAII (Michael W. Deem and Ramdas Pophale) SiO2 
 PCOD8057875
Probable space group: P 2/M
;
_chemical_formula_sum "Si O2"
_cell_formula_units_Z 32
_cell_length_a 15.982314
_cell_length_b 22.877873
_cell_length_c 16.026584
_cell_angle_alpha 90.000000
_cell_angle_beta 161.930636
_cell_angle_gamma 90.000000
_cell_volume 1817.579689
_symmetry_space_group_name_H-M "P 2/M"
_symmetry_group_IT_number 10
_symmetry_cell_setting 'monoclinic'
loop_
_space_group_symop_operation_xyz
x,y,z
-x,y,-z
-x,-y,-z
x,-y,z
loop_
_atom_site_type_symbol
_atom_site_label
_atom_site_fract_x
_atom_site_fract_y
_atom_site_fract_z
Si Si1 0.212302 0.065685 0.768505
Si Si2 0.225301 0.262354 0.282101
Si Si3 0.750632 0.806955 0.536330
Si Si4 0.232778 0.623170 0.389065
Si Si5 0.794145 0.688488 0.475854
Si Si6 0.708052 0.843839 0.012065
Si Si7 0.805292 0.567083 0.890337
Si Si8 0.350600 0.275395 0.945063
O O1 0.000000 0.093686 0.500000
O O2 0.114676 0.000000 0.697947
O O3 0.500000 0.065181 0.000000
O O4 0.242761 0.100144 0.883603
O O5 0.500000 0.281344 0.500000
O O6 0.295799 0.207381 0.409821
O O7 0.128556 0.318209 0.243731
O O8 0.000000 0.245147 0.000000
O O9 0.760999 0.746402 0.497919
O O10 0.533471 0.848938 0.284469
O O11 0.033585 0.839129 0.801248
O O12 0.218926 0.633042 0.475190
O O13 0.528349 0.603514 0.636494
O O14 0.000825 0.574449 0.155336
O O15 0.534238 0.680892 0.172194
O O16 0.058354 0.693538 0.667113
O O17 0.668232 0.788949 0.034665
O O18 0.721751 0.500000 0.797677
O O19 0.000000 0.590337 0.000000
O O20 0.500000 0.267100 0.000000
#
# Coordination Sequence:
#
# PCOD8057875 Si02
#       8
#     4   4   4   4   4   4   4   4
#     4  10  20  32  47  70  98 128 166 204 231 268
#     4  11  20  31  49  71  96 126 161 194 233 286
#     4   9  19  31  45  67  94 124 159 197 232 281
#     4  11  20  34  50  67  97 131 158 187 236 282
#     4   9  19  31  45  67  94 124 155 192 229 278
#     4  10  18  31  47  65  96 133 160 189 239 282
#     4  11  22  34  49  71  97 125 161 198 226 266
#     4  10  18  29  46  69  96 124 156 190 230 282
#
# _framework density 17.605830999999998
#
# number of rings (size 3 to 8) (size 9 to 14) (size 15 to 20)
#    0.000    1.875    0.000    5.625    0.000    7.000 
#    0.000    0.000    0.000    0.000    0.000    0.000 
#    0.000   45.000    0.000    0.000    0.000    0.000 
#
# Total GULP energy -396553.126924 kJ/mol
# GULP energy per Si atom -12392.285216 kJ/mol
# Density = 1.756576 g / cm^3
# Si number density = 17.605831 Si / 1000 Ang^3
#
#
#
# Elastic Constant Matrix: (Units=GPa)
#
#
# Indices 1 2 3 4 5 6 
#
# 1 63.0631 26.8266 26.0782 0.0000 -0.0938 0.0000
# 2 26.8266 44.3989 21.4497 0.0000 -7.8941 0.0000
# 3 26.0782 21.4497 113.1685 0.0000 -7.6892 0.0000
# 4 0.0000 0.0000 0.0000 24.2970 0.0000 -5.8377
# 5 -0.0938 -7.8941 -7.6892 0.0000 29.0246 0.0000
# 6 0.0000 0.0000 0.0000 -5.8377 0.0000 19.2331
#
#
#
# Elastic Compliance Matrix: (Units=1/GPa)
#
#
# Indices 1 2 3 4 5 6 
#
# 1 0.022621 -0.012953 -0.003047 0.000000 -0.004257 0.000000
# 2 -0.012953 0.033137 -0.002736 0.000000 0.008246 0.000000
# 3 -0.003047 -0.002736 0.010189 0.000000 0.001945 0.000000
# 4 0.000000 0.000000 0.000000 0.044395 0.000000 0.013475
# 5 -0.004257 0.008246 0.001945 0.000000 0.037198 0.000000
# 6 0.000000 0.000000 0.000000 0.013475 0.000000 0.056084
#
#
# Mechanical properties :
#
#
# Convention : Reuss Voigt Hill
#
# Bulk Modulus (GPa) = 35.11670 41.03774 38.07722
# Shear Modulus (GPa) = 19.95319 24.26268 22.10793
#
# Velocity S-wave (km/s) = 3.37015 3.71631 3.54745
# Velocity P-wave (km/s) = 5.92733 6.46331 6.20111
#
# Compressibility (1/GPa) = 0.02847648
#
# Stress axis : x y z
#
# Youngs Moduli (GPa) = 44.20715 30.17762 98.14333
#
# Poissons Ratio (x) = 0.39088 0.29903
# Poissons Ratio (y) = 0.57261 0.26849
# Poissons Ratio (z) = 0.13469 0.08256
#
# Static dielectric constant tensor:
#      x y z
#    x 3.273070 0.000000 -0.114030 
#    y 0.000000 3.056070 0.000000 
#    z -0.114030 0.000000 3.833010 
# 
# 
# High freq. dielectric constant tensor:
#      x y z
#    x 1.669250 0.000000 0.002060 
#    y 0.000000 1.632270 0.000000 
#    z 0.002060 0.000000 1.706480 
# 
# From -- ./inp_files/67968.got.cif
#   From: 2010.06.25/outbox.cif.g09.slc.cpg/sg10_34_cif.got.tgz:67968.got - 2010.06.27 22:07:45.
