data_PCOD8057620
_publ_section_title
;
Structure prediction by ZEFSAII (Michael W. Deem and Ramdas Pophale) SiO2 
 PCOD8057620
Probable space group: P 2/M
;
_chemical_formula_sum "Si O2"
_cell_formula_units_Z 32
_cell_length_a 12.113803
_cell_length_b 9.905454
_cell_length_c 15.084470
_cell_angle_alpha 90.000000
_cell_angle_beta 77.552157
_cell_angle_gamma 90.000000
_cell_volume 1767.477597
_symmetry_space_group_name_H-M "P 2/M"
_symmetry_group_IT_number 10
_symmetry_cell_setting 'monoclinic'
loop_
_space_group_symop_operation_xyz
x,y,z
-x,y,-z
-x,-y,-z
x,-y,z
loop_
_atom_site_type_symbol
_atom_site_label
_atom_site_fract_x
_atom_site_fract_y
_atom_site_fract_z
Si Si1 0.168144 0.161255 0.096940
Si Si2 0.585674 0.157893 0.914745
Si Si3 0.044017 0.160179 0.759074
Si Si4 0.685994 0.346050 0.511447
Si Si5 0.898328 0.159281 0.449263
Si Si6 0.580232 0.150704 0.204457
Si Si7 0.458431 0.348275 0.639263
Si Si8 0.821018 0.153780 0.098588
O O1 0.289776 0.222995 0.102863
O O2 0.079509 0.209316 0.186750
O O3 0.173133 0.000000 0.093214
O O4 0.134874 0.214472 0.003213
O O5 0.535931 0.183073 0.825818
O O6 0.594813 0.000000 0.935139
O O7 0.500000 0.226092 0.000000
O O8 0.069446 0.213765 0.655261
O O9 0.129604 0.220717 0.819434
O O10 0.051572 0.000000 0.752496
O O11 0.729857 0.500000 0.517140
O O12 0.789262 0.241719 0.501741
O O13 0.589634 0.308696 0.600098
O O14 0.621754 0.332805 0.430494
O O15 0.000000 0.188678 0.500000
O O16 0.868967 0.000000 0.453672
O O17 0.598178 0.251583 0.280664
O O18 0.685302 0.165625 0.118933
O O19 0.578287 0.000000 0.244586
O O20 0.454255 0.500000 0.676254
O O21 0.862543 0.000000 0.095729
#
# Coordination Sequence:
#
# PCOD8057620 Si02
#       8
#     4   4   4   4   4   4   4   4
#     4   9  15  24  39  60  92 129 161 197 238 279
#     4   9  15  25  39  61  95 129 160 195 232 278
#     4   9  17  27  40  62  92 127 160 192 240 294
#     4   9  19  37  57  73  95 131 172 211 254 306
#     4  10  21  35  51  74 108 137 160 204 260 306
#     4  10  18  27  46  74 100 128 162 200 246 297
#     4   9  19  35  53  75 101 128 165 215 261 301
#     4   9  15  24  40  64  93 122 159 202 237 278
#
# _framework density 18.104897000000001
#
# number of rings (size 3 to 8) (size 9 to 14) (size 15 to 20)
#    0.000    2.750    1.250    1.875    0.000    4.750 
#    0.000    3.750    0.000    0.375    0.000    0.875 
#    0.000    4.000    0.000    0.000    0.000    0.000 
#
# Total GULP energy -396490.344476 kJ/mol
# GULP energy per Si atom -12390.323265 kJ/mol
# Density = 1.806369 g / cm^3
# Si number density = 18.104897 Si / 1000 Ang^3
#
#
#
# Elastic Constant Matrix: (Units=GPa)
#
#
# Indices 1 2 3 4 5 6 
#
# 1 103.6591 18.7690 10.5461 0.0000 -1.5097 0.0000
# 2 18.7690 40.7738 16.0074 0.0000 -4.1684 0.0000
# 3 10.5461 16.0074 55.4542 0.0000 2.0745 0.0000
# 4 0.0000 0.0000 0.0000 2.4270 0.0000 1.9815
# 5 -1.5097 -4.1684 2.0745 0.0000 18.1670 0.0000
# 6 0.0000 0.0000 0.0000 1.9815 0.0000 17.1565
#
#
#
# Elastic Compliance Matrix: (Units=1/GPa)
#
#
# Indices 1 2 3 4 5 6 
#
# 1 0.010547 -0.004601 -0.000674 0.000000 -0.000102 0.000000
# 2 -0.004601 0.030663 -0.008260 0.000000 0.007597 0.000000
# 3 -0.000674 -0.008260 0.020707 0.000000 -0.004316 0.000000
# 4 0.000000 0.000000 0.000000 0.454922 0.000000 -0.052541
# 5 -0.000102 0.007597 -0.004316 0.000000 0.057272 0.000000
# 6 0.000000 0.000000 0.000000 -0.052541 0.000000 0.064355
#
#
# Mechanical properties :
#
#
# Convention : Reuss Voigt Hill
#
# Bulk Modulus (GPa) = 28.69712 32.28134 30.48923
# Shear Modulus (GPa) = 7.38386 17.85440 12.61913
#
# Velocity S-wave (km/s) = 2.02169 3.14373 2.64294
# Velocity P-wave (km/s) = 4.61893 5.57192 5.11766
#
# Compressibility (1/GPa) = 0.03484670
#
# Stress axis : x y z
#
# Youngs Moduli (GPa) = 94.81238 32.61258 48.29296
#
# Poissons Ratio (x) = 0.15005 0.03254
# Poissons Ratio (y) = 0.43623 0.39892
# Poissons Ratio (z) = 0.06389 0.26939
#
# Static dielectric constant tensor:
#      x y z
#    x 3.521560 0.000000 -0.101630 
#    y 0.000000 2.783670 0.000000 
#    z -0.101630 0.000000 3.547750 
# 
# 
# High freq. dielectric constant tensor:
#      x y z
#    x 1.713680 0.000000 -0.001710 
#    y 0.000000 1.628330 0.000000 
#    z -0.001710 0.000000 1.705400 
# 
# From -- ./inp_files/64376.got.cif
#   From: 2010.06.25/outbox.cif.g09.slc.cpg/sg10_33_cif.got.tgz:64376.got - 2010.06.27 22:07:45.
