data_PCOD8057105
_publ_section_title
;
Structure prediction by ZEFSAII (Michael W. Deem and Ramdas Pophale) SiO2 
 PCOD8057105
Probable space group: P 2/M
;
_chemical_formula_sum "Si O2"
_cell_formula_units_Z 32
_cell_length_a 17.688265
_cell_length_b 9.012088
_cell_length_c 24.081275
_cell_angle_alpha 90.000000
_cell_angle_beta 149.001730
_cell_angle_gamma 90.000000
_cell_volume 1977.004457
_symmetry_space_group_name_H-M "P 2/M"
_symmetry_group_IT_number 10
_symmetry_cell_setting 'monoclinic'
loop_
_space_group_symop_operation_xyz
x,y,z
-x,y,-z
-x,-y,-z
x,-y,z
loop_
_atom_site_type_symbol
_atom_site_label
_atom_site_fract_x
_atom_site_fract_y
_atom_site_fract_z
Si Si1 0.780515 0.175974 0.093897
Si Si2 0.685396 0.173615 0.839308
Si Si3 0.382578 0.174588 0.695267
Si Si4 0.108559 0.324052 0.942117
Si Si5 0.060345 0.176743 0.478981
Si Si6 0.129412 0.663731 0.125864
Si Si7 0.454495 0.176582 0.861991
Si Si8 0.821041 0.823659 0.243506
O O1 0.884179 0.256679 0.114664
O O2 0.836258 0.227519 0.189457
O O3 0.792824 0.000000 0.093181
O O4 0.613591 0.232188 0.981803
O O5 0.512302 0.212581 0.733570
O O6 0.743962 0.225583 0.815827
O O7 0.714681 0.000000 0.864760
O O8 0.764853 0.254512 0.940091
O O9 0.226652 0.237368 0.575155
O O10 0.420835 0.241919 0.779725
O O11 0.366605 0.000000 0.692860
O O12 0.131590 0.500000 0.955991
O O13 0.946197 0.283816 0.864149
O O14 0.000000 0.234529 0.500000
O O15 0.958496 0.239829 0.365298
O O16 0.055865 0.000000 0.475078
O O17 0.199247 0.500000 0.176292
O O18 0.000000 0.658622 0.000000
O O19 0.331204 0.237582 0.826630
O O20 0.453126 0.000000 0.860307
O O21 0.817801 0.000000 0.244697
#
# Coordination Sequence:
#
# PCOD8057105 Si02
#       8
#     4   4   4   4   4   4   4   4
#     4  10  18  27  41  64  91 114 144 183 218 253
#     4  10  17  26  42  66  91 113 140 176 218 256
#     4   9  15  22  36  60  88 116 142 173 212 251
#     4  10  19  30  43  60  86 119 147 171 210 261
#     4   9  14  22  36  56  86 118 147 176 210 254
#     4   8  16  29  42  59  85 115 143 171 208 260
#     4   9  14  23  37  57  86 116 144 175 213 252
#     4   9  16  24  38  60  85 118 151 180 214 251
#
# _framework density 16.186105000000001
#
# number of rings (size 3 to 8) (size 9 to 14) (size 15 to 20)
#    0.000    2.750    2.500    1.875    0.000    4.250 
#    0.000    0.000    0.000    1.500    0.000    2.625 
#    0.000   10.500    0.000    0.000    0.000    0.000 
#
# Total GULP energy -396595.104177 kJ/mol
# GULP energy per Si atom -12393.597006 kJ/mol
# Density = 1.614926 g / cm^3
# Si number density = 16.186105 Si / 1000 Ang^3
#
#
#
# Elastic Constant Matrix: (Units=GPa)
#
#
# Indices 1 2 3 4 5 6 
#
# 1 156.8244 38.3335 71.8759 0.0000 7.3235 0.0000
# 2 38.3335 34.6945 19.8842 0.0000 4.0425 0.0000
# 3 71.8759 19.8842 102.6900 0.0000 -2.2096 0.0000
# 4 0.0000 0.0000 0.0000 1.5242 0.0000 -3.1973
# 5 7.3235 4.0425 -2.2096 0.0000 22.1407 0.0000
# 6 0.0000 0.0000 0.0000 -3.1973 0.0000 8.8773
#
#
#
# Elastic Compliance Matrix: (Units=1/GPa)
#
#
# Indices 1 2 3 4 5 6 
#
# 1 0.011646 -0.008800 -0.006510 0.000000 -0.002895 0.000000
# 2 -0.008800 0.040049 -0.001694 0.000000 -0.004571 0.000000
# 3 -0.006510 -0.001694 0.014707 0.000000 0.003930 0.000000
# 4 0.000000 0.000000 0.000000 2.683546 0.000000 0.966528
# 5 -0.002895 -0.004571 0.003930 0.000000 0.047350 0.000000
# 6 0.000000 0.000000 0.000000 0.966528 0.000000 0.460759
#
#
# Mechanical properties :
#
#
# Convention : Reuss Voigt Hill
#
# Bulk Modulus (GPa) = 30.86874 61.59957 46.23415
# Shear Modulus (GPa) = 1.51384 17.44945 9.48165
#
# Velocity S-wave (km/s) = 0.96814 3.28693 2.42293
# Velocity P-wave (km/s) = 4.51246 7.24879 6.03768
#
# Compressibility (1/GPa) = 0.03239524
#
# Stress axis : x y z
#
# Youngs Moduli (GPa) = 85.86345 24.96937 67.99352
#
# Poissons Ratio (x) = 0.21972 0.44264
# Poissons Ratio (y) = 0.75556 0.11519
# Poissons Ratio (z) = 0.55898 0.04230
#
# Static dielectric constant tensor:
#      x y z
#    x 3.384370 0.000000 0.120280 
#    y 0.000000 2.651930 0.000000 
#    z 0.120280 0.000000 3.057590 
# 
# 
# High freq. dielectric constant tensor:
#      x y z
#    x 1.630760 0.000000 0.012060 
#    y 0.000000 1.576590 0.000000 
#    z 0.012060 0.000000 1.591760 
# 
# From -- ./inp_files/87174.got.cif
#   From: 2010.06.25/outbox.cif.g09.slc.cpg/sg10_44_cif.got.tgz:87174.got - 2010.06.27 22:07:45.
