data_PCOD8057867
_publ_section_title
;
Structure prediction by ZEFSAII (Michael W. Deem and Ramdas Pophale) SiO2 
 PCOD8057867
Probable space group: P 2/M
;
_chemical_formula_sum "Si O2"
_cell_formula_units_Z 32
_cell_length_a 23.309253
_cell_length_b 13.124835
_cell_length_c 19.412008
_cell_angle_alpha 90.000000
_cell_angle_beta 18.101201
_cell_angle_gamma 90.000000
_cell_volume 1845.137886
_symmetry_space_group_name_H-M "P 2/M"
_symmetry_group_IT_number 10
_symmetry_cell_setting 'monoclinic'
loop_
_space_group_symop_operation_xyz
x,y,z
-x,y,-z
-x,-y,-z
x,-y,z
loop_
_atom_site_type_symbol
_atom_site_label
_atom_site_fract_x
_atom_site_fract_y
_atom_site_fract_z
Si Si1 0.758256 0.694188 0.010850
Si Si2 0.746954 0.881336 0.675500
Si Si3 0.125460 0.379432 0.645130
Si Si4 0.534512 0.616743 0.141278
Si Si5 0.842522 0.885123 0.834817
Si Si6 0.476860 0.383367 0.603457
Si Si7 0.118449 0.616640 0.804042
Si Si8 0.621368 0.191377 0.961467
O O1 0.750310 0.811915 0.996858
O O2 0.970838 0.658290 0.768568
O O3 0.645873 0.624131 0.085809
O O4 0.673589 0.682883 0.183817
O O5 0.720762 0.814897 0.774346
O O6 0.943637 0.854560 0.418388
O O7 0.733197 0.000000 0.711217
O O8 0.586702 0.852683 0.804307
O O9 0.126119 0.500000 0.650026
O O10 0.325661 0.344151 0.390601
O O11 0.083879 0.332588 0.768818
O O12 0.543047 0.500000 0.105537
O O13 0.623315 0.690063 0.982281
O O14 0.736438 0.875895 0.883793
O O15 0.824380 0.000000 0.883024
O O16 0.500000 0.339404 0.500000
O O17 0.405562 0.500000 0.681176
O O18 0.666429 0.374812 0.427264
O O19 0.052047 0.500000 0.876587
O O20 0.000000 0.671563 0.000000
#
# Coordination Sequence:
#
# PCOD8057867 Si02
#       8
#     4   4   4   4   4   4   4   4
#     4  11  20  32  51  72  99 132 170 206 248 295
#     4  10  19  34  55  78 101 123 160 211 262 301
#     4  10  18  29  46  67  97 132 166 198 238 288
#     4  10  20  33  47  69 102 138 171 201 237 291
#     4  10  21  35  53  76 100 126 162 209 257 301
#     4  10  18  29  47  73 103 132 166 204 243 286
#     4   9  16  26  41  66  97 126 158 199 239 278
#     4  10  19  32  54  77 100 130 165 203 250 301
#
# _framework density 17.342877999999999
#
# number of rings (size 3 to 8) (size 9 to 14) (size 15 to 20)
#    0.000    2.000    1.250    4.500    0.000    3.000 
#    0.000    1.250    0.000    7.875    0.000    0.000 
#    0.000    2.000    0.000    0.000    0.000    0.000 
#
# Total GULP energy -396795.580361 kJ/mol
# GULP energy per Si atom -12399.861886 kJ/mol
# Density = 1.730340 g / cm^3
# Si number density = 17.342878 Si / 1000 Ang^3
#
#
#
# Elastic Constant Matrix: (Units=GPa)
#
#
# Indices 1 2 3 4 5 6 
#
# 1 52.6608 17.5724 27.6591 0.0000 -6.3686 0.0000
# 2 17.5724 63.2505 36.1639 0.0000 15.0347 0.0000
# 3 27.6591 36.1639 74.4982 0.0000 -8.7025 0.0000
# 4 0.0000 0.0000 0.0000 22.1798 0.0000 0.7547
# 5 -6.3686 15.0347 -8.7025 0.0000 31.9715 0.0000
# 6 0.0000 0.0000 0.0000 0.7547 0.0000 17.1171
#
#
#
# Elastic Compliance Matrix: (Units=1/GPa)
#
#
# Indices 1 2 3 4 5 6 
#
# 1 0.024408 -0.004415 -0.006309 0.000000 0.005221 0.000000
# 2 -0.004415 0.030461 -0.015414 0.000000 -0.019399 0.000000
# 3 -0.006309 -0.015414 0.024734 0.000000 0.012724 0.000000
# 4 0.000000 0.000000 0.000000 0.045154 0.000000 -0.001991
# 5 0.005221 -0.019399 0.012724 0.000000 0.044904 0.000000
# 6 0.000000 0.000000 0.000000 -0.001991 0.000000 0.058509
#
#
# Mechanical properties :
#
#
# Convention : Reuss Voigt Hill
#
# Bulk Modulus (GPa) = 36.59283 39.24446 37.91865
# Shear Modulus (GPa) = 17.26799 21.52129 19.39464
#
# Velocity S-wave (km/s) = 3.15887 3.52650 3.34774
# Velocity P-wave (km/s) = 5.86941 6.26573 6.07081
#
# Compressibility (1/GPa) = 0.02732775
#
# Stress axis : x y z
#
# Youngs Moduli (GPa) = 40.97076 32.82913 40.42996
#
# Poissons Ratio (x) = 0.14493 0.25507
# Poissons Ratio (y) = 0.18088 0.62317
# Poissons Ratio (z) = 0.25848 0.50602
#
# Static dielectric constant tensor:
#      x y z
#    x 3.322830 0.000000 -0.142810 
#    y 0.000000 2.912180 0.000000 
#    z -0.142810 0.000000 3.346100 
# 
# 
# High freq. dielectric constant tensor:
#      x y z
#    x 1.674150 0.000000 -0.015930 
#    y 0.000000 1.627990 0.000000 
#    z -0.015930 0.000000 1.679630 
# 
# From -- ./inp_files/79707.got.cif
#   From: 2010.06.25/outbox.cif.g09.slc.cpg/sg10_40_cif.got.tgz:79707.got - 2010.06.27 22:07:45.
