data_PCOD8057437
_publ_section_title
;
Structure prediction by ZEFSAII (Michael W. Deem and Ramdas Pophale) SiO2 
 PCOD8057437
Probable space group: P 2/M
;
_chemical_formula_sum "Si O2"
_cell_formula_units_Z 26
_cell_length_a 8.571302
_cell_length_b 15.380751
_cell_length_c 11.433230
_cell_angle_alpha 90.000000
_cell_angle_beta 86.128160
_cell_angle_gamma 90.000000
_cell_volume 1503.837487
_symmetry_space_group_name_H-M "P 2/M"
_symmetry_group_IT_number 10
_symmetry_cell_setting 'monoclinic'
loop_
_space_group_symop_operation_xyz
x,y,z
-x,y,-z
-x,-y,-z
x,-y,z
loop_
_atom_site_type_symbol
_atom_site_label
_atom_site_fract_x
_atom_site_fract_y
_atom_site_fract_z
Si Si1 0.000000 0.836320 0.000000
Si Si2 0.930859 0.404638 0.823270
Si Si3 0.467047 0.238566 0.874702
Si Si4 0.814919 0.765551 0.793702
Si Si5 0.236147 0.903580 0.806333
Si Si6 0.016948 0.900599 0.367068
Si Si7 0.745211 0.596338 0.069802
O O1 0.889614 0.896858 0.083261
O O2 0.111062 0.778097 0.078866
O O3 0.910407 0.500000 0.765576
O O4 0.889097 0.324651 0.739187
O O5 0.108893 0.391972 0.852010
O O6 0.807247 0.395131 0.935248
O O7 0.630032 0.247481 0.800479
O O8 0.364759 0.170980 0.806558
O O9 0.384939 0.332284 0.892700
O O10 0.500000 0.197401 0.000000
O O11 0.853136 0.844507 0.706221
O O12 0.150452 0.890875 0.686810
O O13 0.311909 0.000000 0.809686
O O14 0.000000 0.866881 0.500000
O O15 0.076130 0.000000 0.361018
O O16 0.671274 0.500000 0.091323
#
# Coordination Sequence:
#
# PCOD8057437 Si02
#       7
#     2   4   4   4   4   4   4
#     4  10  17  32  47  70  98 136 171 206 239 296
#     4   9  16  28  47  70  98 140 183 211 240 285
#     4  12  21  30  43  76 115 144 161 194 251 320
#     4  11  20  31  51  74 106 135 168 209 255 303
#     4  10  20  33  50  72 102 133 164 204 252 304
#     4   9  20  40  62  76  89 124 180 227 256 290
#     4   9  17  29  45  67 104 146 178 206 238 289
#
# _framework density 17.289103000000001
#
# number of rings (size 3 to 8) (size 9 to 14) (size 15 to 20)
#    0.000    2.000    3.077    3.923    0.000    2.462 
#    0.000    0.769    0.000    3.231    0.000    0.000 
#    0.000    4.923    0.000    0.000    0.000    0.000 
#
# Total GULP energy -322261.262652 kJ/mol
# GULP energy per Si atom -12394.663948 kJ/mol
# Density = 1.724975 g / cm^3
# Si number density = 17.289103 Si / 1000 Ang^3
#
#
#
# Elastic Constant Matrix: (Units=GPa)
#
#
# Indices 1 2 3 4 5 6 
#
# 1 95.6751 58.1228 28.1382 0.0000 -3.6355 0.0000
# 2 58.1228 123.2084 33.0806 0.0000 2.9699 0.0000
# 3 28.1382 33.0806 64.2614 0.0000 6.5992 0.0000
# 4 0.0000 0.0000 0.0000 11.3185 0.0000 -4.9843
# 5 -3.6355 2.9699 6.5992 0.0000 12.5093 0.0000
# 6 0.0000 0.0000 0.0000 -4.9843 0.0000 18.5969
#
#
#
# Elastic Compliance Matrix: (Units=1/GPa)
#
#
# Indices 1 2 3 4 5 6 
#
# 1 0.016126 -0.006593 -0.004556 0.000000 0.008655 0.000000
# 2 -0.006593 0.012115 -0.003021 0.000000 -0.003198 0.000000
# 3 -0.004556 -0.003021 0.020272 0.000000 -0.011301 0.000000
# 4 0.000000 0.000000 0.000000 0.100175 0.000000 0.026849
# 5 0.008655 -0.003198 -0.011301 0.000000 0.089177 0.000000
# 6 0.000000 0.000000 0.000000 0.026849 0.000000 0.060968
#
#
# Mechanical properties :
#
#
# Convention : Reuss Voigt Hill
#
# Bulk Modulus (GPa) = 49.57162 57.98090 53.77626
# Shear Modulus (GPa) = 14.97465 19.40515 17.18990
#
# Velocity S-wave (km/s) = 2.94621 3.35385 3.15661
# Velocity P-wave (km/s) = 6.34885 6.97184 6.66763
#
# Compressibility (1/GPa) = 0.02017283
#
# Stress axis : x y z
#
# Youngs Moduli (GPa) = 62.01186 82.54469 49.32846
#
# Poissons Ratio (x) = 0.54419 0.22475
# Poissons Ratio (y) = 0.40882 0.14903
# Poissons Ratio (z) = 0.28253 0.24939
#
# Static dielectric constant tensor:
#      x y z
#    x 3.190170 0.000000 0.108760 
#    y 0.000000 3.702210 0.000000 
#    z 0.108760 0.000000 2.805190 
# 
# 
# High freq. dielectric constant tensor:
#      x y z
#    x 1.666750 0.000000 0.003750 
#    y 0.000000 1.691730 0.000000 
#    z 0.003750 0.000000 1.603680 
# 
# From -- ./inp_files/42437.got.cif
#   From: 2010.06.25/outbox.cif.g09.slc.cpg/sg10_22_cif.got.tgz:42437.got - 2010.06.27 22:07:45.
