data_PCOD8057935
_publ_section_title
;
Structure prediction by ZEFSAII (Michael W. Deem and Ramdas Pophale) SiO2 
 PCOD8057935
Probable space group: P 2/M
;
_chemical_formula_sum "Si O2"
_cell_formula_units_Z 32
_cell_length_a 23.591339
_cell_length_b 8.883848
_cell_length_c 17.544185
_cell_angle_alpha 90.000000
_cell_angle_beta 30.527575
_cell_angle_gamma 90.000000
_cell_volume 1867.714219
_symmetry_space_group_name_H-M "P 2/M"
_symmetry_group_IT_number 10
_symmetry_cell_setting 'monoclinic'
loop_
_space_group_symop_operation_xyz
x,y,z
-x,y,-z
-x,-y,-z
x,-y,z
loop_
_atom_site_type_symbol
_atom_site_label
_atom_site_fract_x
_atom_site_fract_y
_atom_site_fract_z
Si Si1 0.972193 0.176219 0.444864
Si Si2 0.601767 0.172439 0.719328
Si Si3 0.644488 0.176599 0.940723
Si Si4 0.563133 0.827332 0.594245
Si Si5 0.628151 0.333055 0.376251
Si Si6 0.735233 0.322588 0.691423
Si Si7 0.333188 0.323954 0.830216
Si Si8 0.185243 0.676717 0.141102
O O1 0.851644 0.238762 0.565165
O O2 0.000000 0.211115 0.500000
O O3 0.059483 0.263422 0.290149
O O4 0.977160 0.000000 0.420931
O O5 0.625033 0.198071 0.602876
O O6 0.683520 0.283633 0.669288
O O7 0.625899 0.000000 0.715199
O O8 0.473634 0.213344 0.884827
O O9 0.649753 0.262310 0.854189
O O10 0.742403 0.234829 0.881138
O O11 0.662864 0.000000 0.905563
O O12 0.643866 0.767510 0.433364
O O13 0.443395 0.749586 0.737014
O O14 0.539030 0.000000 0.606194
O O15 0.500000 0.334175 0.500000
O O16 0.670147 0.500000 0.348563
O O17 0.694032 0.268810 0.225227
O O18 0.752535 0.500000 0.679357
O O19 0.359744 0.500000 0.795580
O O20 0.229183 0.287530 0.005153
O O21 0.190706 0.500000 0.153369
#
# Coordination Sequence:
#
# PCOD8057935 Si02
#       8
#     4   4   4   4   4   4   4   4
#     4  11  23  39  58  75  99 136 171 210 264 315
#     4  10  22  37  52  73 106 142 174 210 255 310
#     4  11  21  36  54  74 104 141 173 207 258 310
#     4  10  18  29  47  73 102 136 174 209 246 296
#     4   8  15  28  44  66 100 139 169 199 249 305
#     4  12  25  38  55  77 100 131 176 223 257 299
#     4   9  18  31  47  71 105 138 167 206 256 304
#     4  11  21  33  54  80 104 133 174 219 255 298
#
# _framework density 17.133243
#
# number of rings (size 3 to 8) (size 9 to 14) (size 15 to 20)
#    0.000    1.750    2.500    3.750    0.000    6.750 
#    0.000    0.000    0.000    0.000    0.000    0.875 
#    0.000    7.000    0.000    0.000    0.000    0.000 
#
# Total GULP energy -396810.002193 kJ/mol
# GULP energy per Si atom -12400.312569 kJ/mol
# Density = 1.709425 g / cm^3
# Si number density = 17.133243 Si / 1000 Ang^3
#
#
#
# Elastic Constant Matrix: (Units=GPa)
#
#
# Indices 1 2 3 4 5 6 
#
# 1 75.7321 24.1634 39.7842 0.0000 17.7638 0.0000
# 2 24.1634 40.9940 28.2685 0.0000 12.4258 0.0000
# 3 39.7842 28.2685 71.4968 0.0000 19.6806 0.0000
# 4 0.0000 0.0000 0.0000 25.1452 0.0000 4.7859
# 5 17.7638 12.4258 19.6806 0.0000 30.0565 0.0000
# 6 0.0000 0.0000 0.0000 4.7859 0.0000 22.1201
#
#
#
# Elastic Compliance Matrix: (Units=1/GPa)
#
#
# Indices 1 2 3 4 5 6 
#
# 1 0.020022 -0.004946 -0.007919 0.000000 -0.004604 0.000000
# 2 -0.004946 0.035774 -0.009912 0.000000 -0.005376 0.000000
# 3 -0.007919 -0.009912 0.024270 0.000000 -0.007114 0.000000
# 4 0.000000 0.000000 0.000000 0.041477 0.000000 -0.008974
# 5 -0.004604 -0.005376 -0.007114 0.000000 0.042872 0.000000
# 6 0.000000 0.000000 0.000000 -0.008974 0.000000 0.047149
#
#
# Mechanical properties :
#
#
# Convention : Reuss Voigt Hill
#
# Bulk Modulus (GPa) = 28.97480 41.40612 35.19046
# Shear Modulus (GPa) = 18.61344 21.86481 20.23912
#
# Velocity S-wave (km/s) = 3.29962 3.57622 3.44070
# Velocity P-wave (km/s) = 5.60935 6.42433 6.03063
#
# Compressibility (1/GPa) = 0.03451275
#
# Stress axis : x y z
#
# Youngs Moduli (GPa) = 49.94456 27.95323 41.20269
#
# Poissons Ratio (x) = 0.13826 0.32626
# Poissons Ratio (y) = 0.24702 0.40842
# Poissons Ratio (z) = 0.39549 0.27708
#
# Static dielectric constant tensor:
#      x y z
#    x 3.244700 0.000000 0.389650 
#    y 0.000000 3.289270 0.000000 
#    z 0.389650 0.000000 3.372320 
# 
# 
# High freq. dielectric constant tensor:
#      x y z
#    x 1.644050 0.000000 0.026680 
#    y 0.000000 1.670940 0.000000 
#    z 0.026680 0.000000 1.647840 
# 
# From -- ./inp_files/52738.got.cif
#   From: 2010.06.25/outbox.cif.g09.slc.cpg/sg10_27_cif.got.tgz:52738.got - 2010.06.27 22:07:45.
