data_PCOD8057352
_publ_section_title
;
Structure prediction by ZEFSAII (Michael W. Deem and Ramdas Pophale) SiO2 
 PCOD8057352
Probable space group: P 2/M
;
_chemical_formula_sum "Si O2"
_cell_formula_units_Z 32
_cell_length_a 12.657693
_cell_length_b 8.865650
_cell_length_c 27.521470
_cell_angle_alpha 90.000000
_cell_angle_beta 140.782068
_cell_angle_gamma 90.000000
_cell_volume 1952.722746
_symmetry_space_group_name_H-M "P 2/M"
_symmetry_group_IT_number 10
_symmetry_cell_setting 'monoclinic'
loop_
_space_group_symop_operation_xyz
x,y,z
-x,y,-z
-x,-y,-z
x,-y,z
loop_
_atom_site_type_symbol
_atom_site_label
_atom_site_fract_x
_atom_site_fract_y
_atom_site_fract_z
Si Si1 0.098431 0.178738 0.423904
Si Si2 0.742520 0.178397 0.326015
Si Si3 0.607535 0.821233 0.831528
Si Si4 0.682045 0.677799 0.689826
Si Si5 0.863970 0.822160 0.838241
Si Si6 0.124348 0.178797 0.004068
Si Si7 0.336019 0.177932 0.593475
Si Si8 0.321538 0.177257 0.414483
O O1 0.212637 0.241980 0.508253
O O2 0.177295 0.226269 0.400702
O O3 0.910807 0.245774 0.361639
O O4 0.093562 0.000000 0.427488
O O5 0.578084 0.248831 0.241152
O O6 0.743183 0.220287 0.383041
O O7 0.741094 0.000000 0.319168
O O8 0.724146 0.773774 0.827853
O O9 0.592292 0.000000 0.825735
O O10 0.689530 0.766391 0.912673
O O11 0.672300 0.500000 0.686322
O O12 0.835067 0.732607 0.778127
O O13 0.513570 0.744291 0.651753
O O14 0.715458 0.733791 0.647522
O O15 0.050183 0.774304 0.924858
O O16 0.854913 0.000000 0.824476
O O17 0.119863 0.000000 0.005457
O O18 0.000000 0.245618 0.000000
O O19 0.365720 0.000000 0.598535
O O20 0.500000 0.224658 0.500000
O O21 0.319144 0.000000 0.402499
#
# Coordination Sequence:
#
# PCOD8057352 Si02
#       8
#     4   4   4   4   4   4   4   4
#     4   9  17  28  45  69  91 114 151 192 224 262
#     4   9  15  23  43  74  99 116 142 184 225 263
#     4   8  12  20  39  69  97 117 140 176 221 265
#     4  12  23  31  44  67  93 120 154 192 230 263
#     4   9  15  27  45  65  89 120 152 179 216 268
#     4   7  11  19  36  63  92 117 143 174 211 265
#     4  10  17  30  48  67  92 122 153 180 219 268
#     4  10  19  34  52  66  84 115 155 194 230 268
#
# _framework density 16.387374999999999
#
# number of rings (size 3 to 8) (size 9 to 14) (size 15 to 20)
#    0.000    2.750    2.500    3.000    0.000    1.750 
#    0.000    0.000    0.000    5.625    0.000    0.875 
#    0.000    7.000    0.000    0.000    0.000    0.000 
#
# Total GULP energy -396452.330147 kJ/mol
# GULP energy per Si atom -12389.135317 kJ/mol
# Density = 1.635008 g / cm^3
# Si number density = 16.387375 Si / 1000 Ang^3
#
#
#
# Elastic Constant Matrix: (Units=GPa)
#
#
# Indices 1 2 3 4 5 6 
#
# 1 80.2664 26.6757 52.2568 0.0000 -7.5940 0.0000
# 2 26.6757 29.2003 31.9599 0.0000 -2.9118 0.0000
# 3 52.2568 31.9599 150.1329 0.0000 -2.7457 0.0000
# 4 0.0000 0.0000 0.0000 0.4590 0.0000 1.1001
# 5 -7.5940 -2.9118 -2.7457 0.0000 15.0654 0.0000
# 6 0.0000 0.0000 0.0000 1.1001 0.0000 2.8488
#
#
#
# Elastic Compliance Matrix: (Units=1/GPa)
#
#
# Indices 1 2 3 4 5 6 
#
# 1 0.020173 -0.013295 -0.004066 0.000000 0.006858 0.000000
# 2 -0.013295 0.054142 -0.006852 0.000000 0.002514 0.000000
# 3 -0.004066 -0.006852 0.009505 0.000000 -0.001642 0.000000
# 4 0.000000 0.000000 0.000000 29.265493 0.000000-11.301573
# 5 0.006858 0.002514 -0.001642 0.000000 0.070021 0.000000
# 6 0.000000 0.000000 0.000000-11.301573 0.000000 4.715404
#
#
# Mechanical properties :
#
#
# Convention : Reuss Voigt Hill
#
# Bulk Modulus (GPa) = 28.25349 53.48717 40.87033
# Shear Modulus (GPa) = 0.14622 13.58844 6.86733
#
# Velocity S-wave (km/s) = 0.29903 2.88271 2.04932
# Velocity P-wave (km/s) = 4.17105 6.61741 5.53118
#
# Compressibility (1/GPa) = 0.03539386
#
# Stress axis : x y z
#
# Youngs Moduli (GPa) = 49.57165 18.46997 105.21148
#
# Poissons Ratio (x) = 0.24555 0.42779
# Poissons Ratio (y) = 0.65904 0.72092
# Poissons Ratio (z) = 0.20156 0.12656
#
# Static dielectric constant tensor:
#      x y z
#    x 3.027360 0.000000 0.192400 
#    y 0.000000 2.578460 0.000000 
#    z 0.192400 0.000000 3.678010 
# 
# 
# High freq. dielectric constant tensor:
#      x y z
#    x 1.594450 0.000000 0.003640 
#    y 0.000000 1.576310 0.000000 
#    z 0.003640 0.000000 1.650030 
# 
# From -- ./inp_files/79995.got.cif
#   From: 2010.06.25/outbox.cif.g09.slc.cpg/sg10_40_cif.got.tgz:79995.got - 2010.06.27 22:07:45.
