data_PCOD8057811
_publ_section_title
;
Structure prediction by ZEFSAII (Michael W. Deem and Ramdas Pophale) SiO2 
 PCOD8057811
Probable space group: P 2/M
;
_chemical_formula_sum "Si O2"
_cell_formula_units_Z 32
_cell_length_a 12.899417
_cell_length_b 9.414444
_cell_length_c 25.937739
_cell_angle_alpha 90.000000
_cell_angle_beta 36.046271
_cell_angle_gamma 90.000000
_cell_volume 1853.522602
_symmetry_space_group_name_H-M "P 2/M"
_symmetry_group_IT_number 10
_symmetry_cell_setting 'monoclinic'
loop_
_space_group_symop_operation_xyz
x,y,z
-x,y,-z
-x,-y,-z
x,-y,z
loop_
_atom_site_type_symbol
_atom_site_label
_atom_site_fract_x
_atom_site_fract_y
_atom_site_fract_z
Si Si1 0.296549 0.341914 0.945102
Si Si2 0.226384 0.831489 0.596847
Si Si3 0.393105 0.834004 0.736880
Si Si4 0.587492 0.341651 0.913817
Si Si5 0.544766 0.830788 0.401225
Si Si6 0.831745 0.832514 0.745825
Si Si7 0.451915 0.165139 0.222480
Si Si8 0.022751 0.835892 0.930267
O O1 0.245921 0.500000 0.945808
O O2 0.434802 0.353170 0.934406
O O3 0.382005 0.252745 0.864521
O O4 0.126672 0.260542 0.036153
O O5 0.360914 0.773904 0.499184
O O6 0.293785 0.782455 0.626490
O O7 0.031069 0.773185 0.662818
O O8 0.223806 0.000000 0.595943
O O9 0.432648 0.763441 0.665147
O O10 0.552281 0.803740 0.714019
O O11 0.209440 0.778335 0.834373
O O12 0.374860 0.000000 0.734993
O O13 0.663888 0.500000 0.894350
O O14 0.741773 0.240520 0.831208
O O15 0.500000 0.274485 0.000000
O O16 0.538541 0.000000 0.401309
O O17 0.730676 0.793055 0.732814
O O18 0.827135 0.000000 0.757393
O O19 0.495786 0.000000 0.194749
O O20 0.993886 0.000000 0.927112
O O21 0.000000 0.810604 0.000000
#
# Coordination Sequence:
#
# PCOD8057811 Si02
#       8
#     4   4   4   4   4   4   4   4
#     4  10  19  30  45  64  86 117 155 187 220 265
#     4   8  14  26  42  65  94 116 141 183 230 265
#     4   9  16  26  41  60  84 120 155 175 212 275
#     4   9  19  34  47  62  90 124 153 183 224 271
#     4   8  14  25  42  63  91 121 143 175 225 275
#     4   9  17  28  47  70  89 113 148 189 226 260
#     4   9  16  29  44  61  89 119 146 180 221 266
#     4  10  18  29  44  63  89 120 152 185 221 264
#
# _framework density 17.264424999999999
#
# number of rings (size 3 to 8) (size 9 to 14) (size 15 to 20)
#    0.000    3.000    1.250    1.125    0.000    2.000 
#    0.000    1.875    0.000    3.750    0.000    3.500 
#    0.000    4.000    0.000    0.000    0.000    0.000 
#
# Total GULP energy -396505.582837 kJ/mol
# GULP energy per Si atom -12390.799464 kJ/mol
# Density = 1.722513 g / cm^3
# Si number density = 17.264425 Si / 1000 Ang^3
#
#
#
# Elastic Constant Matrix: (Units=GPa)
#
#
# Indices 1 2 3 4 5 6 
#
# 1 98.5325 21.1096 84.4028 0.0000 0.4310 0.0000
# 2 21.1096 33.9029 25.5301 0.0000 -4.9097 0.0000
# 3 84.4028 25.5301 130.2328 0.0000 1.4220 0.0000
# 4 0.0000 0.0000 0.0000 2.8952 0.0000 2.2332
# 5 0.4310 -4.9097 1.4220 0.0000 35.3931 0.0000
# 6 0.0000 0.0000 0.0000 2.2332 0.0000 12.2488
#
#
#
# Elastic Compliance Matrix: (Units=1/GPa)
#
#
# Indices 1 2 3 4 5 6 
#
# 1 0.023198 -0.003703 -0.014306 0.000000 -0.000221 0.000000
# 2 -0.003703 0.036131 -0.004740 0.000000 0.005248 0.000000
# 3 -0.014306 -0.004740 0.017892 0.000000 -0.001202 0.000000
# 4 0.000000 0.000000 0.000000 0.401920 0.000000 -0.073278
# 5 -0.000221 0.005248 -0.001202 0.000000 0.029033 0.000000
# 6 0.000000 0.000000 0.000000 -0.073278 0.000000 0.095001
#
#
# Mechanical properties :
#
#
# Convention : Reuss Voigt Hill
#
# Bulk Modulus (GPa) = 31.52305 58.30589 44.91447
# Shear Modulus (GPa) = 7.58440 18.88248 13.23344
#
# Velocity S-wave (km/s) = 2.09824 3.31073 2.77160
# Velocity P-wave (km/s) = 4.91617 6.96134 6.02615
#
# Compressibility (1/GPa) = 0.03172282
#
# Stress axis : x y z
#
# Youngs Moduli (GPa) = 43.10792 27.67679 55.88964
#
# Poissons Ratio (x) = 0.10249 0.79955
# Poissons Ratio (y) = 0.15964 0.26493
# Poissons Ratio (z) = 0.61669 0.13119
#
# Static dielectric constant tensor:
#      x y z
#    x 3.449070 0.000000 0.034210 
#    y 0.000000 3.064380 0.000000 
#    z 0.034210 0.000000 3.460400 
# 
# 
# High freq. dielectric constant tensor:
#      x y z
#    x 1.672400 0.000000 -0.001670 
#    y 0.000000 1.623050 0.000000 
#    z -0.001670 0.000000 1.652690 
# 
# From -- ./inp_files/93123.got.cif
#   From: 2010.06.25/outbox.cif.g09.slc.cpg/sg10_47_cif.got.tgz:93123.got - 2010.06.27 22:07:45.
