data_PCOD8057330
_publ_section_title
;
Structure prediction by ZEFSAII (Michael W. Deem and Ramdas Pophale) SiO2 
 PCOD8057330
Probable space group: P 2/M
;
_chemical_formula_sum "Si O2"
_cell_formula_units_Z 32
_cell_length_a 14.392059
_cell_length_b 9.105893
_cell_length_c 14.538910
_cell_angle_alpha 90.000000
_cell_angle_beta 119.654947
_cell_angle_gamma 90.000000
_cell_volume 1655.798601
_symmetry_space_group_name_H-M "P 2/M"
_symmetry_group_IT_number 10
_symmetry_cell_setting 'monoclinic'
loop_
_space_group_symop_operation_xyz
x,y,z
-x,y,-z
-x,-y,-z
x,-y,z
loop_
_atom_site_type_symbol
_atom_site_label
_atom_site_fract_x
_atom_site_fract_y
_atom_site_fract_z
Si Si1 0.315827 0.164360 0.278252
Si Si2 0.893247 0.173781 0.495002
Si Si3 0.732990 0.835891 0.946890
Si Si4 0.518652 0.327787 0.404362
Si Si5 0.491285 0.175035 0.099995
Si Si6 0.340366 0.173257 0.666894
Si Si7 0.038326 0.176125 0.920043
Si Si8 0.872041 0.175005 0.690192
O O1 0.245000 0.159884 0.151608
O O2 0.411948 0.273986 0.301352
O O3 0.242917 0.224998 0.325864
O O4 0.359590 0.000000 0.321181
O O5 0.785756 0.214009 0.384528
O O6 0.885389 0.239300 0.594347
O O7 0.000000 0.240622 0.500000
O O8 0.905107 0.000000 0.507673
O O9 0.620947 0.757045 0.917815
O O10 0.721846 0.000000 0.981260
O O11 0.840733 0.764484 0.041835
O O12 0.500000 0.277594 0.500000
O O13 0.534865 0.500000 0.402102
O O14 0.619545 0.247922 0.407830
O O15 0.591160 0.231693 0.211705
O O16 0.492766 0.000000 0.106199
O O17 0.500000 0.231939 0.000000
O O18 0.354696 0.000000 0.661391
O O19 0.965104 0.237675 0.801690
O O20 0.038769 0.000000 0.922518
O O21 0.000000 0.237627 0.000000
O O22 0.876290 0.000000 0.693151
#
# Coordination Sequence:
#
# PCOD8057330 Si02
#       8
#     4   4   4   4   4   4   4   4
#     4  10  17  29  50  73  99 130 168 207 247 302
#     4   9  18  30  44  67  99 132 166 203 246 295
#     4   9  15  24  40  65  96 128 160 199 244 292
#     4  11  23  35  49  74 105 134 167 211 261 307
#     4   9  17  28  44  70 101 129 162 205 251 296
#     4  10  19  34  55  75 100 137 173 207 250 302
#     4   9  14  21  35  59  93 124 150 192 245 285
#     4   9  16  25  41  67  98 131 167 205 244 294
#
# _framework density 19.326021999999998
#
# number of rings (size 3 to 8) (size 9 to 14) (size 15 to 20)
#    0.000    2.500    2.500    1.125    0.000    3.000 
#    0.000    5.000    0.000    0.750    0.000    1.750 
#    0.000    0.000    0.000    0.000    0.000    0.000 
#
# Total GULP energy -396520.719143 kJ/mol
# GULP energy per Si atom -12391.272473 kJ/mol
# Density = 1.928204 g / cm^3
# Si number density = 19.326022 Si / 1000 Ang^3
#
#
#
# Elastic Constant Matrix: (Units=GPa)
#
#
# Indices 1 2 3 4 5 6 
#
# 1 155.1826 13.0512 62.3965 0.0000 7.8150 0.0000
# 2 13.0512 16.6928 10.0597 0.0000 0.4836 0.0000
# 3 62.3965 10.0597 106.8726 0.0000 6.0091 0.0000
# 4 0.0000 0.0000 0.0000 4.0313 0.0000 -3.1170
# 5 7.8150 0.4836 6.0091 0.0000 37.0390 0.0000
# 6 0.0000 0.0000 0.0000 -3.1170 0.0000 6.5399
#
#
#
# Elastic Compliance Matrix: (Units=1/GPa)
#
#
# Indices 1 2 3 4 5 6 
#
# 1 0.008698 -0.003971 -0.004647 0.000000 -0.001030 0.000000
# 2 -0.003971 0.065322 -0.003865 0.000000 0.000612 0.000000
# 3 -0.004647 -0.003865 0.012490 0.000000 -0.000995 0.000000
# 4 0.000000 0.000000 0.000000 0.392826 0.000000 0.187226
# 5 -0.001030 0.000612 -0.000995 0.000000 0.027369 0.000000
# 6 0.000000 0.000000 0.000000 0.187226 0.000000 0.242143
#
#
# Mechanical properties :
#
#
# Convention : Reuss Voigt Hill
#
# Bulk Modulus (GPa) = 16.24816 49.97365 33.11090
# Shear Modulus (GPa) = 6.29464 22.40473 14.34969
#
# Velocity S-wave (km/s) = 1.80670 3.40855 2.72785
# Velocity P-wave (km/s) = 3.57461 6.43469 5.20496
#
# Compressibility (1/GPa) = 0.06154543
#
# Stress axis : x y z
#
# Youngs Moduli (GPa) = 114.96659 15.30882 80.06638
#
# Poissons Ratio (x) = 0.06078 0.37205
# Poissons Ratio (y) = 0.45648 0.30944
# Poissons Ratio (z) = 0.53422 0.05917
#
# Static dielectric constant tensor:
#      x y z
#    x 3.738800 0.000000 0.080760 
#    y 0.000000 2.705370 0.000000 
#    z 0.080760 0.000000 3.760730 
# 
# 
# High freq. dielectric constant tensor:
#      x y z
#    x 1.761880 0.000000 0.011180 
#    y 0.000000 1.658900 0.000000 
#    z 0.011180 0.000000 1.759870 
# 
# From -- ./inp_files/66620.got.cif
#   From: 2010.06.25/outbox.cif.g09.slc.cpg/sg10_34_cif.got.tgz:66620.got - 2010.06.27 22:07:45.
