data_PCOD8057830
_publ_section_title
;
Structure prediction by ZEFSAII (Michael W. Deem and Ramdas Pophale) SiO2 
 PCOD8057830
Probable space group: P 2/M
;
_chemical_formula_sum "Si O2"
_cell_formula_units_Z 32
_cell_length_a 29.023789
_cell_length_b 8.925155
_cell_length_c 13.316462
_cell_angle_alpha 90.000000
_cell_angle_beta 35.237505
_cell_angle_gamma 90.000000
_cell_volume 1990.259780
_symmetry_space_group_name_H-M "P 2/M"
_symmetry_group_IT_number 10
_symmetry_cell_setting 'monoclinic'
loop_
_space_group_symop_operation_xyz
x,y,z
-x,y,-z
-x,-y,-z
x,-y,z
loop_
_atom_site_type_symbol
_atom_site_label
_atom_site_fract_x
_atom_site_fract_y
_atom_site_fract_z
Si Si1 0.161653 0.324112 0.104880
Si Si2 0.544162 0.827609 0.615667
Si Si3 0.004900 0.164973 0.372244
Si Si4 0.691465 0.827898 0.233185
Si Si5 0.592996 0.330488 0.241365
Si Si6 0.317427 0.330424 0.127673
Si Si7 0.539085 0.824089 0.033023
Si Si8 0.829921 0.822639 0.693961
O O1 0.165595 0.500000 0.112532
O O2 0.181474 0.249543 0.176196
O O3 0.074787 0.278891 0.215676
O O4 0.228533 0.272034 0.905781
O O5 0.639064 0.803942 0.427996
O O6 0.497039 0.725207 0.619133
O O7 0.522129 0.781485 0.768412
O O8 0.519916 0.000000 0.639206
O O9 0.917184 0.218447 0.491994
O O10 0.000000 0.156027 0.500000
O O11 0.025332 0.000000 0.292509
O O12 0.635800 0.781912 0.239984
O O13 0.716931 0.000000 0.174838
O O14 0.591068 0.500000 0.287231
O O15 0.641242 0.322881 0.052926
O O16 0.299307 0.500000 0.192911
O O17 0.234364 0.240149 0.270132
O O18 0.375598 0.255847 0.105894
O O19 0.555539 0.000000 0.999367
O O20 0.500000 0.765022 0.000000
O O21 0.820597 0.000000 0.723521
#
# Coordination Sequence:
#
# PCOD8057830 Si02
#       8
#     4   4   4   4   4   4   4   4
#     4  11  20  28  40  60  86 118 153 186 221 256
#     4   9  19  32  45  63  83 110 148 182 220 265
#     4   8  16  29  42  58  81 114 152 184 217 255
#     4  11  20  29  42  58  84 119 151 184 215 255
#     4  10  19  29  41  60  86 115 146 182 220 256
#     4  10  19  29  44  67  92 117 147 184 222 262
#     4   9  18  34  53  68  86 113 145 184 228 272
#     4  10  18  29  45  62  85 117 152 186 217 257
#
# _framework density 16.078302999999998
#
# number of rings (size 3 to 8) (size 9 to 14) (size 15 to 20)
#    0.000    2.250    1.250    3.750    0.000    6.500 
#    0.000    0.000    0.000    0.000    0.000    0.000 
#    0.000    1.000    0.000   11.500    0.000    3.250 
#
# Total GULP energy -396726.676563 kJ/mol
# GULP energy per Si atom -12397.708643 kJ/mol
# Density = 1.604171 g / cm^3
# Si number density = 16.078303 Si / 1000 Ang^3
#
#
#
# Elastic Constant Matrix: (Units=GPa)
#
#
# Indices 1 2 3 4 5 6 
#
# 1 67.3294 35.1935 42.3429 0.0000 -19.6604 0.0000
# 2 35.1935 91.6541 47.7928 0.0000 -16.4001 0.0000
# 3 42.3429 47.7928 101.3271 0.0000 -29.3231 0.0000
# 4 0.0000 0.0000 0.0000 18.4977 0.0000 -4.6468
# 5 -19.6604 -16.4001 -29.3231 0.0000 22.8293 0.0000
# 6 0.0000 0.0000 0.0000 -4.6468 0.0000 14.0780
#
#
#
# Elastic Compliance Matrix: (Units=1/GPa)
#
#
# Indices 1 2 3 4 5 6 
#
# 1 0.023257 -0.004707 -0.004267 0.000000 0.011166 0.000000
# 2 -0.004707 0.015519 -0.005252 0.000000 0.000349 0.000000
# 3 -0.004267 -0.005252 0.019058 0.000000 0.017032 0.000000
# 4 0.000000 0.000000 0.000000 0.058948 0.000000 0.019457
# 5 0.011166 0.000349 0.017032 0.000000 0.075547 0.000000
# 6 0.000000 0.000000 0.000000 0.019457 0.000000 0.077455
#
#
# Mechanical properties :
#
#
# Convention : Reuss Voigt Hill
#
# Bulk Modulus (GPa) = 34.03426 56.77433 45.40429
# Shear Modulus (GPa) = 16.23217 20.07977 18.15597
#
# Velocity S-wave (km/s) = 3.18082 3.53778 3.36404
# Velocity P-wave (km/s) = 5.89100 7.21634 6.58709
#
# Compressibility (1/GPa) = 0.02938216
#
# Stress axis : x y z
#
# Youngs Moduli (GPa) = 42.99800 64.43696 52.47131
#
# Poissons Ratio (x) = 0.30332 0.22389
# Poissons Ratio (y) = 0.20240 0.27557
# Poissons Ratio (z) = 0.18347 0.33841
#
# Static dielectric constant tensor:
#      x y z
#    x 2.779840 0.000000 -0.293600 
#    y 0.000000 3.147020 0.000000 
#    z -0.293600 0.000000 3.319660 
# 
# 
# High freq. dielectric constant tensor:
#      x y z
#    x 1.562260 0.000000 -0.028840 
#    y 0.000000 1.628860 0.000000 
#    z -0.028840 0.000000 1.615810 
# 
# From -- ./inp_files/68199.got.cif
#   From: 2010.06.25/outbox.cif.g09.slc.cpg/sg10_35_cif.got.tgz:68199.got - 2010.06.27 22:07:45.
