data_PCOD8057273
_publ_section_title
;
Structure prediction by ZEFSAII (Michael W. Deem and Ramdas Pophale) SiO2 
 PCOD8057273
Probable space group: P 2/M
;
_chemical_formula_sum "Si O2"
_cell_formula_units_Z 28
_cell_length_a 15.335991
_cell_length_b 10.233496
_cell_length_c 17.043536
_cell_angle_alpha 90.000000
_cell_angle_beta 141.682792
_cell_angle_gamma 90.000000
_cell_volume 1658.431577
_symmetry_space_group_name_H-M "P 2/M"
_symmetry_group_IT_number 10
_symmetry_cell_setting 'monoclinic'
loop_
_space_group_symop_operation_xyz
x,y,z
-x,y,-z
-x,-y,-z
x,-y,z
loop_
_atom_site_type_symbol
_atom_site_label
_atom_site_fract_x
_atom_site_fract_y
_atom_site_fract_z
Si Si1 0.169514 0.846758 0.927756
Si Si2 0.649618 0.850143 0.631277
Si Si3 0.872919 0.150284 0.652337
Si Si4 0.879846 0.646076 0.527652
Si Si5 0.841482 0.843936 0.905961
Si Si6 0.195147 0.645186 0.697926
Si Si7 0.337307 0.143634 0.897942
O O1 0.293853 0.807797 0.954900
O O2 0.020883 0.794884 0.789636
O O3 0.154472 0.000000 0.927997
O O4 0.200968 0.790852 0.037121
O O5 0.500000 0.783355 0.500000
O O6 0.756111 0.836108 0.635377
O O7 0.726274 0.787050 0.762313
O O8 0.617214 0.000000 0.628781
O O9 0.824821 0.243110 0.547426
O O10 0.885471 0.000000 0.632118
O O11 0.862457 0.500000 0.551398
O O12 0.790263 0.656964 0.385165
O O13 0.040137 0.673642 0.619080
O O14 0.840328 0.000000 0.898733
O O15 0.000000 0.793778 0.000000
O O16 0.242841 0.500000 0.757984
O O17 0.294468 0.753653 0.803056
O O18 0.266557 0.000000 0.834581
O O19 0.500000 0.127913 0.000000
#
# Coordination Sequence:
#
# PCOD8057273 Si02
#       7
#     4   4   4   4   4   4   4
#     4   9  16  27  44  66  92 125 162 194 232 290
#     4   9  17  28  42  68 102 126 153 200 247 288
#     4  10  17  28  49  73  96 124 160 199 244 294
#     4   9  18  32  50  72  95 122 162 207 246 289
#     4   9  14  24  43  64  90 126 161 191 232 289
#     4   9  18  33  51  69  92 126 166 203 243 293
#     4  10  20  33  47  69 103 132 159 202 251 293
#
# _framework density 16.883421999999999
#
# number of rings (size 3 to 8) (size 9 to 14) (size 15 to 20)
#    0.000    2.714    2.857    0.857    0.000    0.857 
#    2.571    1.429    0.000    0.429    0.000    3.000 
#    0.000    0.000    0.000    0.000    0.000    0.000 
#
# Total GULP energy -346953.648972 kJ/mol
# GULP energy per Si atom -12391.201749 kJ/mol
# Density = 1.684499 g / cm^3
# Si number density = 16.883422 Si / 1000 Ang^3
#
#
#
# Elastic Constant Matrix: (Units=GPa)
#
#
# Indices 1 2 3 4 5 6 
#
# 1 88.5263 26.0843 47.6922 0.0000 -3.7354 0.0000
# 2 26.0843 64.0940 34.0844 0.0000 -14.2076 0.0000
# 3 47.6922 34.0844 99.6117 0.0000 -7.0322 0.0000
# 4 0.0000 0.0000 0.0000 13.6103 0.0000 -2.7299
# 5 -3.7354 -14.2076 -7.0322 0.0000 25.7540 0.0000
# 6 0.0000 0.0000 0.0000 -2.7299 0.0000 -3.7924
#
#
#
# Elastic Compliance Matrix: (Units=1/GPa)
#
#
# Indices 1 2 3 4 5 6 
#
# 1 0.015692 -0.003209 -0.006505 0.000000 -0.001270 0.000000
# 2 -0.003209 0.021970 -0.005260 0.000000 0.010219 0.000000
# 3 -0.006505 -0.005260 0.014970 0.000000 0.000242 0.000000
# 4 0.000000 0.000000 0.000000 0.064204 0.000000 -0.046216
# 5 -0.001270 0.010219 0.000242 0.000000 0.044348 0.000000
# 6 0.000000 0.000000 0.000000 -0.046216 0.000000 -0.230416
#
#
# Mechanical properties :
#
#
# Convention : Reuss Voigt Hill
#
# Bulk Modulus (GPa) = 44.08046 51.99489 48.03768
# Shear Modulus (GPa) = -157.62353 16.73909 -70.44222
#
# Velocity S-wave (km/s) = -9.67278 3.15215 -6.46632
# Velocity P-wave (km/s) = 9.92899 6.64164 5.21888
#
# Compressibility (1/GPa) = 0.02268579
#
# Stress axis : x y z
#
# Youngs Moduli (GPa) = 63.72523 45.51610 66.79845
#
# Poissons Ratio (x) = 0.14604 0.43452
# Poissons Ratio (y) = 0.20447 0.35136
# Poissons Ratio (z) = 0.41453 0.23941
#
# Static dielectric constant tensor:
#      x y z
#    x 3.188850 0.000000 -0.167530 
#    y 0.000000 2.895210 0.000000 
#    z -0.167530 0.000000 3.337850 
# 
# 
# High freq. dielectric constant tensor:
#      x y z
#    x 1.653450 0.000000 -0.009490 
#    y 0.000000 1.602770 0.000000 
#    z -0.009490 0.000000 1.642830 
# 
# From -- ./inp_files/55518.got.cif
#   From: 2010.06.25/outbox.cif.g09.slc.cpg/sg10_28_cif.got.tgz:55518.got - 2010.06.27 22:07:45.
