data_PCOD8057843
_publ_section_title
;
Structure prediction by ZEFSAII (Michael W. Deem and Ramdas Pophale) SiO2 
 PCOD8057843
Probable space group: P 2/M
;
_chemical_formula_sum "Si O2"
_cell_formula_units_Z 32
_cell_length_a 20.244329
_cell_length_b 8.831493
_cell_length_c 20.351616
_cell_angle_alpha 90.000000
_cell_angle_beta 150.076092
_cell_angle_gamma 90.000000
_cell_volume 1815.122311
_symmetry_space_group_name_H-M "P 2/M"
_symmetry_group_IT_number 10
_symmetry_cell_setting 'monoclinic'
loop_
_space_group_symop_operation_xyz
x,y,z
-x,y,-z
-x,-y,-z
x,-y,z
loop_
_atom_site_type_symbol
_atom_site_label
_atom_site_fract_x
_atom_site_fract_y
_atom_site_fract_z
Si Si1 0.580725 0.678534 0.932189
Si Si2 0.826137 0.674898 0.888877
Si Si3 0.962183 0.174431 0.746612
Si Si4 0.233271 0.323375 0.021813
Si Si5 0.904343 0.825325 0.838324
Si Si6 0.072509 0.679417 0.416540
Si Si7 0.787365 0.680527 0.216826
Si Si8 0.288803 0.680771 0.704979
O O1 0.572306 0.500000 0.934457
O O2 0.637694 0.720279 0.909378
O O3 0.677111 0.744810 0.071655
O O4 0.433918 0.747416 0.813031
O O5 0.817630 0.500000 0.862412
O O6 0.789450 0.772026 0.791149
O O7 0.733658 0.711414 0.872689
O O8 0.972778 0.717685 0.039213
O O9 0.868992 0.199045 0.731064
O O10 0.896818 0.265679 0.630676
O O11 0.110708 0.227712 0.889427
O O12 0.968255 0.000000 0.731962
O O13 0.196267 0.500000 0.980564
O O14 0.941195 0.000000 0.882784
O O15 0.073057 0.500000 0.417630
O O16 0.185601 0.743405 0.562296
O O17 0.930678 0.742511 0.318379
O O18 0.788522 0.500000 0.216751
O O19 0.754736 0.741528 0.261247
O O20 0.289719 0.500000 0.705362
#
# Coordination Sequence:
#
# PCOD8057843 Si02
#       8
#     4   4   4   4   4   4   4   4
#     4   9  15  25  42  66  94 120 145 180 223 263
#     4   9  15  22  36  59  87 115 141 173 216 264
#     4  10  19  29  43  63  87 118 153 185 219 264
#     4   9  16  27  43  65  91 118 148 182 221 262
#     4   9  16  25  37  56  84 114 144 179 216 256
#     4  10  18  29  45  67  92 117 147 187 227 262
#     4   9  15  25  43  66  92 118 144 182 228 266
#     4   9  17  26  41  68  95 116 146 185 224 266
#
# _framework density 17.629666
#
# number of rings (size 3 to 8) (size 9 to 14) (size 15 to 20)
#    0.000    2.750    1.250    2.625    0.000    5.000 
#    0.000    0.000    0.000    2.250    0.000    1.750 
#    0.000    7.000    0.000    0.000    0.000    0.000 
#
# Total GULP energy -396524.257119 kJ/mol
# GULP energy per Si atom -12391.383035 kJ/mol
# Density = 1.758954 g / cm^3
# Si number density = 17.629666 Si / 1000 Ang^3
#
#
#
# Elastic Constant Matrix: (Units=GPa)
#
#
# Indices 1 2 3 4 5 6 
#
# 1 165.0560 23.9196 74.5382 0.0000 -27.8917 0.0000
# 2 23.9196 20.4268 15.0196 0.0000 -3.0914 0.0000
# 3 74.5382 15.0196 105.5675 0.0000 -2.3462 0.0000
# 4 0.0000 0.0000 0.0000 5.1945 0.0000 -3.8269
# 5 -27.8917 -3.0914 -2.3462 0.0000 16.9955 0.0000
# 6 0.0000 0.0000 0.0000 -3.8269 0.0000 11.6472
#
#
#
# Elastic Compliance Matrix: (Units=1/GPa)
#
#
# Indices 1 2 3 4 5 6 
#
# 1 0.014877 -0.007542 -0.008946 0.000000 0.021808 0.000000
# 2 -0.007542 0.059874 -0.003236 0.000000 -0.001934 0.000000
# 3 -0.008946 -0.003236 0.015959 0.000000 -0.013068 0.000000
# 4 0.000000 0.000000 0.000000 0.253996 0.000000 0.083455
# 5 0.021808 -0.001934 -0.013068 0.000000 0.092473 0.000000
# 6 0.000000 0.000000 0.000000 0.083455 0.000000 0.113278
#
#
# Mechanical properties :
#
#
# Convention : Reuss Voigt Hill
#
# Bulk Modulus (GPa) = 19.50814 57.55612 38.53213
# Shear Modulus (GPa) = 8.23733 18.60562 13.42147
#
# Velocity S-wave (km/s) = 2.16392 3.25215 2.76216
# Velocity P-wave (km/s) = 4.16329 6.84253 5.66362
#
# Compressibility (1/GPa) = 0.05126064
#
# Stress axis : x y z
#
# Youngs Moduli (GPa) = 67.21870 16.70179 62.65886
#
# Poissons Ratio (x) = 0.12597 0.56057
# Poissons Ratio (y) = 0.50697 0.20278
# Poissons Ratio (z) = 0.60137 0.05405
#
# Static dielectric constant tensor:
#      x y z
#    x 3.978420 0.000000 -0.216890 
#    y 0.000000 2.891380 0.000000 
#    z -0.216890 0.000000 3.054440 
# 
# 
# High freq. dielectric constant tensor:
#      x y z
#    x 1.705750 0.000000 -0.023290 
#    y 0.000000 1.644270 0.000000 
#    z -0.023290 0.000000 1.631880 
# 
# From -- ./inp_files/86169.got.cif
#   From: 2010.06.25/outbox.cif.g09.slc.cpg/sg10_44_cif.got.tgz:86169.got - 2010.06.27 22:07:45.
