data_PCOD8057715
_publ_section_title
;
Structure prediction by ZEFSAII (Michael W. Deem and Ramdas Pophale) SiO2 
 PCOD8057715
Probable space group: P 2/M
;
_chemical_formula_sum "Si O2"
_cell_formula_units_Z 32
_cell_length_a 14.388305
_cell_length_b 9.718292
_cell_length_c 22.647055
_cell_angle_alpha 90.000000
_cell_angle_beta 36.189138
_cell_angle_gamma 90.000000
_cell_volume 1869.805396
_symmetry_space_group_name_H-M "P 2/M"
_symmetry_group_IT_number 10
_symmetry_cell_setting 'monoclinic'
loop_
_space_group_symop_operation_xyz
x,y,z
-x,y,-z
-x,-y,-z
x,-y,z
loop_
_atom_site_type_symbol
_atom_site_label
_atom_site_fract_x
_atom_site_fract_y
_atom_site_fract_z
Si Si1 0.343288 0.652180 0.717181
Si Si2 0.957074 0.662556 0.317307
Si Si3 0.597020 0.156572 0.212028
Si Si4 0.982011 0.163116 0.605284
Si Si5 0.977959 0.344266 0.173777
Si Si6 0.094642 0.842874 0.009498
Si Si7 0.753963 0.837569 0.619493
Si Si8 0.607731 0.658254 0.494358
O O1 0.329547 0.500000 0.752360
O O2 0.312826 0.763872 0.782542
O O3 0.211711 0.669469 0.733690
O O4 0.517681 0.673769 0.602302
O O5 0.966883 0.500000 0.327277
O O6 0.049641 0.751223 0.318636
O O7 0.025797 0.692783 0.216619
O O8 0.779710 0.723292 0.411526
O O9 0.715863 0.166909 0.095918
O O10 0.424498 0.222502 0.288040
O O11 0.576532 0.000000 0.243449
O O12 0.148913 0.205161 0.489134
O O13 0.843690 0.212057 0.632174
O O14 0.975523 0.000000 0.621750
O O15 0.030895 0.500000 0.132210
O O16 0.060890 0.245362 0.084744
O O17 0.042867 0.000000 0.048073
O O18 0.000000 0.788732 0.000000
O O19 0.747326 0.000000 0.625605
O O20 0.500000 0.732567 0.500000
O O21 0.632019 0.500000 0.462906
#
# Coordination Sequence:
#
# PCOD8057715 Si02
#       8
#     4   4   4   4   4   4   4   4
#     4  10  18  28  45  69  94 125 161 192 225 275
#     4  10  19  31  48  71  98 130 163 195 235 282
#     4  10  19  32  50  69  94 125 155 195 244 286
#     4   9  17  32  53  75  98 125 158 194 237 288
#     4  10  20  32  47  67  95 131 165 193 230 284
#     4  10  20  33  48  69  95 124 161 204 245 277
#     4   8  16  32  53  74  97 126 158 193 237 291
#     4   9  15  26  43  63  92 127 158 185 217 269
#
# _framework density 17.114080000000001
#
# number of rings (size 3 to 8) (size 9 to 14) (size 15 to 20)
#    0.000    2.500    2.500    1.500    0.000    1.250 
#    0.000    1.875    0.000    1.500    0.000    5.250 
#    0.000    0.000    0.000    0.000    0.000    0.000 
#
# Total GULP energy -396593.859390 kJ/mol
# GULP energy per Si atom -12393.558106 kJ/mol
# Density = 1.707513 g / cm^3
# Si number density = 17.114080 Si / 1000 Ang^3
#
#
#
# Elastic Constant Matrix: (Units=GPa)
#
#
# Indices 1 2 3 4 5 6 
#
# 1 80.2455 37.6422 40.3730 0.0000 17.3572 0.0000
# 2 37.6422 58.0330 38.9704 0.0000 17.2552 0.0000
# 3 40.3730 38.9704 80.0715 0.0000 10.5937 0.0000
# 4 0.0000 0.0000 0.0000 22.1639 0.0000 7.3247
# 5 17.3572 17.2552 10.5937 0.0000 29.5095 0.0000
# 6 0.0000 0.0000 0.0000 7.3247 0.0000 24.4311
#
#
#
# Elastic Compliance Matrix: (Units=1/GPa)
#
#
# Indices 1 2 3 4 5 6 
#
# 1 0.020041 -0.007589 -0.005710 0.000000 -0.005301 0.000000
# 2 -0.007589 0.032409 -0.010530 0.000000 -0.010707 0.000000
# 3 -0.005710 -0.010530 0.020193 0.000000 0.002267 0.000000
# 4 0.000000 0.000000 0.000000 0.050080 0.000000 -0.015015
# 5 -0.005301 -0.010707 0.002267 0.000000 0.042452 0.000000
# 6 0.000000 0.000000 0.000000 -0.015015 0.000000 0.045433
#
#
# Mechanical properties :
#
#
# Convention : Reuss Voigt Hill
#
# Bulk Modulus (GPa) = 40.02518 50.25791 45.14154
# Shear Modulus (GPa) = 18.75508 21.97851 20.36680
#
# Velocity S-wave (km/s) = 3.31401 3.58751 3.45347
# Velocity P-wave (km/s) = 6.17103 6.82572 6.50661
#
# Compressibility (1/GPa) = 0.02498427
#
# Stress axis : x y z
#
# Youngs Moduli (GPa) = 49.89775 30.85600 49.52181
#
# Poissons Ratio (x) = 0.23416 0.28278
# Poissons Ratio (y) = 0.37866 0.52148
# Poissons Ratio (z) = 0.28493 0.32492
#
# Static dielectric constant tensor:
#      x y z
#    x 3.241540 0.000000 -0.157670 
#    y 0.000000 2.923430 0.000000 
#    z -0.157670 0.000000 3.164350 
# 
# 
# High freq. dielectric constant tensor:
#      x y z
#    x 1.645530 0.000000 0.001660 
#    y 0.000000 1.634540 0.000000 
#    z 0.001660 0.000000 1.652620 
# 
# From -- ./inp_files/70007.got.cif
#   From: 2010.06.25/outbox.cif.g09.slc.cpg/sg10_36_cif.got.tgz:70007.got - 2010.06.27 22:07:45.
