data_PCOD8057052
_publ_section_title
;
Structure prediction by ZEFSAII (Michael W. Deem and Ramdas Pophale) SiO2 
 PCOD8057052
Probable space group: P 2/M
;
_chemical_formula_sum "Si O2"
_cell_formula_units_Z 32
_cell_length_a 21.797311
_cell_length_b 8.902809
_cell_length_c 29.955329
_cell_angle_alpha 90.000000
_cell_angle_beta 161.356058
_cell_angle_gamma 90.000000
_cell_volume 1858.351277
_symmetry_space_group_name_H-M "P 2/M"
_symmetry_group_IT_number 10
_symmetry_cell_setting 'monoclinic'
loop_
_space_group_symop_operation_xyz
x,y,z
-x,y,-z
-x,-y,-z
x,-y,z
loop_
_atom_site_type_symbol
_atom_site_label
_atom_site_fract_x
_atom_site_fract_y
_atom_site_fract_z
Si Si1 0.823655 0.322523 0.408749
Si Si2 0.494760 0.825171 0.434682
Si Si3 0.488383 0.177300 0.863125
Si Si4 0.927548 0.176786 0.158678
Si Si5 0.210728 0.172206 0.433328
Si Si6 0.062304 0.676611 0.414593
Si Si7 0.787193 0.321963 0.704584
Si Si8 0.337653 0.177555 0.854197
O O1 0.806085 0.500000 0.392840
O O2 0.624179 0.251227 0.255400
O O3 0.855708 0.267967 0.481453
O O4 0.000000 0.263289 0.500000
O O5 0.575278 0.806658 0.439916
O O6 0.282522 0.752910 0.296138
O O7 0.638062 0.732727 0.564730
O O8 0.495297 0.000000 0.448721
O O9 0.392879 0.234778 0.843067
O O10 0.473080 0.000000 0.848341
O O11 0.709176 0.228478 0.014762
O O12 0.047820 0.223325 0.285571
O O13 0.005048 0.261983 0.167843
O O14 0.948195 0.000000 0.164502
O O15 0.204556 0.273287 0.473249
O O16 0.174632 0.000000 0.421991
O O17 0.038366 0.500000 0.398026
O O18 0.857698 0.749482 0.264090
O O19 0.790583 0.500000 0.711744
O O20 0.313961 0.000000 0.839383
O O21 0.500000 0.232431 0.000000
#
# Coordination Sequence:
#
# PCOD8057052 Si02
#       8
#     4   4   4   4   4   4   4   4
#     4  10  21  38  53  67  95 128 160 204 254 295
#     4   9  16  28  45  65  95 135 167 195 240 286
#     4  10  20  33  53  75  92 122 168 208 240 283
#     4   9  18  33  49  70 102 133 161 197 247 295
#     4   9  18  32  50  71 100 133 162 199 242 289
#     4  11  22  34  50  71  95 128 163 200 246 292
#     4  10  17  25  42  70 100 131 166 199 232 280
#     4  10  20  34  51  71  97 126 157 196 242 290
#
# _framework density 17.219564999999999
#
# number of rings (size 3 to 8) (size 9 to 14) (size 15 to 20)
#    0.000    2.250    1.250    4.125    0.000    6.500 
#    0.000    1.250    0.000    0.000    0.000    0.875 
#    0.000    7.000    0.000    0.000    0.000    0.000 
#
# Total GULP energy -396723.750819 kJ/mol
# GULP energy per Si atom -12397.617213 kJ/mol
# Density = 1.718037 g / cm^3
# Si number density = 17.219565 Si / 1000 Ang^3
#
#
#
# Elastic Constant Matrix: (Units=GPa)
#
#
# Indices 1 2 3 4 5 6 
#
# 1 120.4768 35.7207 47.3924 0.0000 10.4483 0.0000
# 2 35.7207 43.2953 23.0553 0.0000 2.5841 0.0000
# 3 47.3924 23.0553 41.9966 0.0000 -3.3773 0.0000
# 4 0.0000 0.0000 0.0000 18.3357 0.0000 2.0289
# 5 10.4483 2.5841 -3.3773 0.0000 28.2432 0.0000
# 6 0.0000 0.0000 0.0000 2.0289 0.0000 28.0071
#
#
#
# Elastic Compliance Matrix: (Units=1/GPa)
#
#
# Indices 1 2 3 4 5 6 
#
# 1 0.017278 -0.004295 -0.017794 0.000000 -0.008127 0.000000
# 2 -0.004295 0.034474 -0.014343 0.000000 -0.003280 0.000000
# 3 -0.017794 -0.014343 0.052909 0.000000 0.014222 0.000000
# 4 0.000000 0.000000 0.000000 0.054979 0.000000 -0.003983
# 5 -0.008127 -0.003280 0.014222 0.000000 0.040414 0.000000
# 6 0.000000 0.000000 0.000000 -0.003983 0.000000 0.035994
#
#
# Mechanical properties :
#
#
# Convention : Reuss Voigt Hill
#
# Bulk Modulus (GPa) = 31.44812 46.45616 38.95214
# Shear Modulus (GPa) = 15.64892 21.55721 18.60307
#
# Velocity S-wave (km/s) = 3.01788 3.54206 3.29043
# Velocity P-wave (km/s) = 5.51780 6.61555 6.09146
#
# Compressibility (1/GPa) = 0.03179841
#
# Stress axis : x y z
#
# Youngs Moduli (GPa) = 57.87660 29.00724 18.90031
#
# Poissons Ratio (x) = 0.12458 0.33631
# Poissons Ratio (y) = 0.24857 0.27109
# Poissons Ratio (z) = 1.02985 0.41605
#
# Static dielectric constant tensor:
#      x y z
#    x 3.603180 0.000000 0.385250 
#    y 0.000000 3.103930 0.000000 
#    z 0.385250 0.000000 3.140470 
# 
# 
# High freq. dielectric constant tensor:
#      x y z
#    x 1.666720 0.000000 0.027320 
#    y 0.000000 1.663020 0.000000 
#    z 0.027320 0.000000 1.632820 
# 
# From -- ./inp_files/54846.got.cif
#   From: 2010.06.25/outbox.cif.g09.slc.cpg/sg10_28_cif.got.tgz:54846.got - 2010.06.27 22:07:45.
