data_PCOD8057077
_publ_section_title
;
Structure prediction by ZEFSAII (Michael W. Deem and Ramdas Pophale) SiO2 
 PCOD8057077
Probable space group: P 2/M
;
_chemical_formula_sum "Si O2"
_cell_formula_units_Z 32
_cell_length_a 16.347415
_cell_length_b 9.212529
_cell_length_c 23.136058
_cell_angle_alpha 90.000000
_cell_angle_beta 142.803613
_cell_angle_gamma 90.000000
_cell_volume 2106.438312
_symmetry_space_group_name_H-M "P 2/M"
_symmetry_group_IT_number 10
_symmetry_cell_setting 'monoclinic'
loop_
_space_group_symop_operation_xyz
x,y,z
-x,y,-z
-x,-y,-z
x,-y,z
loop_
_atom_site_type_symbol
_atom_site_label
_atom_site_fract_x
_atom_site_fract_y
_atom_site_fract_z
Si Si1 0.006602 0.168690 0.070862
Si Si2 0.300070 0.163265 0.849215
Si Si3 0.573958 0.837241 0.953643
Si Si4 0.813222 0.668925 0.046070
Si Si5 0.061905 0.669560 0.759171
Si Si6 0.789982 0.830645 0.615631
Si Si7 0.727859 0.832791 0.713430
Si Si8 0.529699 0.335882 0.449131
O O1 0.890474 0.258361 0.036751
O O2 0.153994 0.215288 0.176665
O O3 0.980854 0.000000 0.069568
O O4 0.000000 0.205459 0.000000
O O5 0.416046 0.211939 0.868505
O O6 0.174229 0.273949 0.776772
O O7 0.249901 0.000000 0.806733
O O8 0.364831 0.165753 0.948463
O O9 0.583172 0.000000 0.933428
O O10 0.660061 0.730463 0.961455
O O11 0.803366 0.500000 0.028471
O O12 0.891966 0.703682 0.149590
O O13 0.038342 0.500000 0.735843
O O14 0.925097 0.755188 0.668605
O O15 0.780021 0.803700 0.678280
O O16 0.663960 0.756964 0.511738
O O17 0.792857 0.000000 0.601810
O O18 0.597001 0.736458 0.655067
O O19 0.686501 0.000000 0.698144
O O20 0.500000 0.333070 0.500000
O O21 0.549396 0.500000 0.437793
#
# Coordination Sequence:
#
# PCOD8057077 Si02
#       8
#     4   4   4   4   4   4   4   4
#     4  10  20  33  47  61  78 104 140 179 214 246
#     4   8  14  24  37  54  74 101 134 166 197 233
#     4   8  14  25  40  54  72  99 134 168 198 237
#     4  10  19  28  40  57  78 104 134 170 211 248
#     4  10  18  25  36  56  82 109 135 166 202 241
#     4  10  17  26  41  58  78 106 137 169 199 238
#     4   9  17  29  43  58  75 100 134 170 206 245
#     4   9  17  27  40  58  79 101 127 163 203 245
#
# _framework density 15.191519
#
# number of rings (size 3 to 8) (size 9 to 14) (size 15 to 20)
#    0.000    2.750    1.250    2.250    0.000    4.250 
#    0.000    2.500    0.000    0.000    0.000    0.000 
#    0.000    0.000    0.000    1.125    0.000   22.500 
#
# Total GULP energy -396717.471712 kJ/mol
# GULP energy per Si atom -12397.420991 kJ/mol
# Density = 1.515694 g / cm^3
# Si number density = 15.191519 Si / 1000 Ang^3
#
#
#
# Elastic Constant Matrix: (Units=GPa)
#
#
# Indices 1 2 3 4 5 6 
#
# 1 80.0846 60.4436 50.8912 0.0000 30.4594 0.0000
# 2 60.4436 101.2050 47.2610 0.0000 27.6437 0.0000
# 3 50.8912 47.2610 72.2856 0.0000 25.3574 0.0000
# 4 0.0000 0.0000 0.0000 17.2670 0.0000 6.7665
# 5 30.4594 27.6437 25.3574 0.0000 27.4416 0.0000
# 6 0.0000 0.0000 0.0000 6.7665 0.0000 18.9084
#
#
#
# Elastic Compliance Matrix: (Units=1/GPa)
#
#
# Indices 1 2 3 4 5 6 
#
# 1 0.033755 -0.010411 -0.011087 0.000000 -0.016734 0.000000
# 2 -0.010411 0.018909 -0.003558 0.000000 -0.004204 0.000000
# 3 -0.011087 -0.003558 0.027213 0.000000 -0.009255 0.000000
# 4 0.000000 0.000000 0.000000 0.067360 0.000000 -0.024105
# 5 -0.016734 -0.004204 -0.009255 0.000000 0.067802 0.000000
# 6 0.000000 0.000000 0.000000 -0.024105 0.000000 0.061513
#
#
# Mechanical properties :
#
#
# Convention : Reuss Voigt Hill
#
# Bulk Modulus (GPa) = 33.59898 63.41854 48.50876
# Shear Modulus (GPa) = 14.85503 19.05536 16.95519
#
# Velocity S-wave (km/s) = 3.13045 3.54551 3.34443
# Velocity P-wave (km/s) = 5.93559 7.65490 6.84941
#
# Compressibility (1/GPa) = 0.02976281
#
# Stress axis : x y z
#
# Youngs Moduli (GPa) = 29.62525 52.88502 36.74750
#
# Poissons Ratio (x) = 0.55061 0.40743
# Poissons Ratio (y) = 0.30844 0.13075
# Poissons Ratio (z) = 0.32846 0.18817
#
# Static dielectric constant tensor:
#      x y z
#    x 2.804480 0.000000 0.405060 
#    y 0.000000 3.016660 0.000000 
#    z 0.405060 0.000000 2.755280 
# 
# 
# High freq. dielectric constant tensor:
#      x y z
#    x 1.550150 0.000000 0.046160 
#    y 0.000000 1.591830 0.000000 
#    z 0.046160 0.000000 1.547610 
# 
# From -- ./inp_files/66181.got.cif
#   From: 2010.06.25/outbox.cif.g09.slc.cpg/sg10_34_cif.got.tgz:66181.got - 2010.06.27 22:07:45.
