data_PCOD8057245
_publ_section_title
;
Structure prediction by ZEFSAII (Michael W. Deem and Ramdas Pophale) SiO2 
 PCOD8057245
Probable space group: P 2/M
;
_chemical_formula_sum "Si O2"
_cell_formula_units_Z 24
_cell_length_a 5.224877
_cell_length_b 16.734050
_cell_length_c 20.654721
_cell_angle_alpha 90.000000
_cell_angle_beta 120.858808
_cell_angle_gamma 90.000000
_cell_volume 1550.255639
_symmetry_space_group_name_H-M "P 2/M"
_symmetry_group_IT_number 10
_symmetry_cell_setting 'monoclinic'
loop_
_space_group_symop_operation_xyz
x,y,z
-x,y,-z
-x,-y,-z
x,-y,z
loop_
_atom_site_type_symbol
_atom_site_label
_atom_site_fract_x
_atom_site_fract_y
_atom_site_fract_z
Si Si1 0.660068 0.594951 0.330161
Si Si2 0.330606 0.595345 0.414613
Si Si3 0.248787 0.407408 0.160094
Si Si4 0.592507 0.345904 0.083628
Si Si5 0.050410 0.906423 0.916654
Si Si6 0.453974 0.838272 0.084606
O O1 0.670520 0.500000 0.334178
O O2 0.498618 0.628691 0.373170
O O3 0.484203 0.623602 0.243772
O O4 0.994721 0.629400 0.370762
O O5 0.500000 0.627595 0.500000
O O6 0.327616 0.500000 0.413903
O O7 0.168546 0.500000 0.159708
O O8 0.400019 0.397248 0.109458
O O9 0.947175 0.358000 0.133765
O O10 0.506820 0.255133 0.086452
O O11 0.500000 0.373105 0.000000
O O12 0.228472 0.884959 0.873988
O O13 0.727602 0.862467 0.874059
O O14 0.007553 0.000000 0.920937
O O15 0.250230 0.869239 0.999480
#
# Coordination Sequence:
#
# PCOD8057245 Si02
#       6
#     4   4   4   4   4   4
#     4   9  17  30  43  58  83 104 128 167 209 264
#     4   9  15  24  43  67  85 101 119 148 202 265
#     4  11  24  37  48  60  76 110 152 191 240 274
#     4  12  23  35  50  60  79 106 145 200 244 269
#     4  10  17  28  47  67  85 103 121 150 215 280
#     4  10  18  29  43  64  84 102 125 164 220 271
#
# _framework density 15.481318999999999
#
# number of rings (size 3 to 8) (size 9 to 14) (size 15 to 20)
#    0.000    1.833    1.667    6.000    2.333    6.667 
#    0.000    0.000    0.000    0.000    0.000    0.000 
#    0.000    0.000    0.000    0.000    0.000    0.000 
#
# Total GULP energy -297458.624466 kJ/mol
# GULP energy per Si atom -12394.109353 kJ/mol
# Density = 1.544608 g / cm^3
# Si number density = 15.481319 Si / 1000 Ang^3
#
#
#
# Elastic Constant Matrix: (Units=GPa)
#
#
# Indices 1 2 3 4 5 6 
#
# 1 160.8425 18.2431 43.1440 0.0000 5.4053 0.0000
# 2 18.2431 32.0282 24.3941 0.0000 -3.8223 0.0000
# 3 43.1440 24.3941 75.4073 0.0000 4.4708 0.0000
# 4 0.0000 0.0000 0.0000 0.4584 0.0000 3.4749
# 5 5.4053 -3.8223 4.4708 0.0000 21.5328 0.0000
# 6 0.0000 0.0000 0.0000 3.4749 0.0000 25.4637
#
#
#
# Elastic Compliance Matrix: (Units=1/GPa)
#
#
# Indices 1 2 3 4 5 6 
#
# 1 0.007425 -0.001623 -0.003640 0.000000 -0.001396 0.000000
# 2 -0.001623 0.044154 -0.014016 0.000000 0.011155 0.000000
# 3 -0.003640 -0.014016 0.020221 0.000000 -0.005773 0.000000
# 4 0.000000 0.000000 0.000000-63.340581 0.000000 8.643667
# 5 -0.001396 0.011155 -0.005773 0.000000 0.049970 0.000000
# 6 0.000000 0.000000 0.000000 8.643667 0.000000 -1.140272
#
#
# Mechanical properties :
#
#
# Convention : Reuss Voigt Hill
#
# Bulk Modulus (GPa) = 30.08453 48.87116 39.47784
# Shear Modulus (GPa) = -0.07775 21.65743 10.78984
#
# Velocity S-wave (km/s) = -0.22434 3.74430 2.64286
# Velocity P-wave (km/s) = 4.40544 7.09432 5.90497
#
# Compressibility (1/GPa) = 0.03323967
#
# Stress axis : x y z
#
# Youngs Moduli (GPa) = 134.68534 22.64810 49.45471
#
# Poissons Ratio (x) = 0.03676 0.18002
# Poissons Ratio (y) = 0.21862 0.69317
# Poissons Ratio (z) = 0.49028 0.31744
#
# Static dielectric constant tensor:
#      x y z
#    x 1.654500 0.000000 -0.240140 
#    y 0.000000 2.641820 0.000000 
#    z -0.240140 0.000000 2.752000 
# 
# 
# High freq. dielectric constant tensor:
#      x y z
#    x 1.634490 0.000000 0.005450 
#    y 0.000000 1.549100 0.000000 
#    z 0.005450 0.000000 1.548520 
# 
# From -- ./inp_files/11189.got.cif
#   From: 2010.06.25/outbox.cif.g09.slc.cpg/sg10_6_cif.got.tgz:11189.got - 2010.06.27 22:07:45.
