data_PCOD8057134
_publ_section_title
;
Structure prediction by ZEFSAII (Michael W. Deem and Ramdas Pophale) SiO2 
 PCOD8057134
Probable space group: P 2/M
;
_chemical_formula_sum "Si O2"
_cell_formula_units_Z 20
_cell_length_a 7.566616
_cell_length_b 8.510620
_cell_length_c 21.470383
_cell_angle_alpha 90.000000
_cell_angle_beta 44.837950
_cell_angle_gamma 90.000000
_cell_volume 974.890615
_symmetry_space_group_name_H-M "P 2/M"
_symmetry_group_IT_number 10
_symmetry_cell_setting 'monoclinic'
loop_
_space_group_symop_operation_xyz
x,y,z
-x,y,-z
-x,-y,-z
x,-y,z
loop_
_atom_site_type_symbol
_atom_site_label
_atom_site_fract_x
_atom_site_fract_y
_atom_site_fract_z
Si Si1 0.862182 0.817969 0.406299
Si Si2 0.202524 0.313281 0.901334
Si Si3 0.164904 0.686774 0.772206
Si Si4 0.548309 0.681494 0.579416
Si Si5 0.235210 0.314203 0.227455
O O1 0.796708 0.778585 0.495405
O O2 0.676899 0.708942 0.412798
O O3 0.140891 0.767801 0.315387
O O4 0.812943 0.000000 0.405313
O O5 0.179095 0.500000 0.905022
O O6 0.148096 0.243673 0.846026
O O7 0.478402 0.262677 0.855282
O O8 0.000000 0.242042 0.000000
O O9 0.153966 0.500000 0.776463
O O10 0.432899 0.738024 0.674687
O O11 0.928840 0.747519 0.790230
O O12 0.622767 0.500000 0.563040
O O13 0.213608 0.500000 0.241775
#
# Coordination Sequence:
#
# PCOD8057134 Si02
#       5
#     4   4   4   4   4
#     4  10  17  26  44  70  98 127 161 196 229 273
#     4   9  17  29  47  72  97 119 152 201 246 280
#     4   8  15  27  44  69  97 124 155 189 231 283
#     4   9  15  26  45  69  99 130 158 190 231 279
#     4   9  17  30  48  69  96 128 157 190 235 282
#
# _framework density 20.515121000000001
#
# number of rings (size 3 to 8) (size 9 to 14) (size 15 to 20)
#    0.000    3.000    0.000    4.800    0.000    0.800 
#    0.000    5.000    0.000   12.600    0.000    5.600 
#    0.000    0.000    0.000    0.000    0.000    0.000 
#
# Total GULP energy -247784.734083 kJ/mol
# GULP energy per Si atom -12389.236704 kJ/mol
# Density = 2.046843 g / cm^3
# Si number density = 20.515121 Si / 1000 Ang^3
#
#
#
# Elastic Constant Matrix: (Units=GPa)
#
#
# Indices 1 2 3 4 5 6 
#
# 1 77.0869 12.0343 67.5128 0.0000 9.9982 0.0000
# 2 12.0343 32.0628 27.5346 0.0000 -1.7913 0.0000
# 3 67.5128 27.5346 219.3213 0.0000 7.4618 0.0000
# 4 0.0000 0.0000 0.0000 5.7313 0.0000 -2.1538
# 5 9.9982 -1.7913 7.4618 0.0000 19.8744 0.0000
# 6 0.0000 0.0000 0.0000 -2.1538 0.0000 3.1215
#
#
#
# Elastic Compliance Matrix: (Units=1/GPa)
#
#
# Indices 1 2 3 4 5 6 
#
# 1 0.019039 -0.003123 -0.005200 0.000000 -0.007907 0.000000
# 2 -0.003123 0.035940 -0.003763 0.000000 0.006223 0.000000
# 3 -0.005200 -0.003763 0.006640 0.000000 -0.000216 0.000000
# 4 0.000000 0.000000 0.000000 0.235558 0.000000 0.162530
# 5 -0.007907 0.006223 -0.000216 0.000000 0.054936 0.000000
# 6 0.000000 0.000000 0.000000 0.162530 0.000000 0.432499
#
#
# Mechanical properties :
#
#
# Convention : Reuss Voigt Hill
#
# Bulk Modulus (GPa) = 26.70285 60.29271 43.49778
# Shear Modulus (GPa) = 6.08817 20.50472 13.29645
#
# Velocity S-wave (km/s) = 1.72456 3.16491 2.54860
# Velocity P-wave (km/s) = 4.12431 6.54284 5.46894
#
# Compressibility (1/GPa) = 0.03744918
#
# Stress axis : x y z
#
# Youngs Moduli (GPa) = 52.52260 27.82442 150.60544
#
# Poissons Ratio (x) = 0.08688 0.78311
# Poissons Ratio (y) = 0.16401 0.56666
# Poissons Ratio (z) = 0.27311 0.10469
#
# Static dielectric constant tensor:
#      x y z
#    x 3.517070 0.000000 0.093290 
#    y 0.000000 3.111960 0.000000 
#    z 0.093290 0.000000 4.597620 
# 
# 
# High freq. dielectric constant tensor:
#      x y z
#    x 1.767700 0.000000 -0.002830 
#    y 0.000000 1.749320 0.000000 
#    z -0.002830 0.000000 1.819750 
# 
# From -- ./inp_files/26786.got.cif
#   From: 2010.06.25/outbox.cif.g09.slc.cpg/sg10_14_cif.got.tgz:26786.got - 2010.06.27 22:07:45.
