data_PCOD8057931
_publ_section_title
;
Structure prediction by ZEFSAII (Michael W. Deem and Ramdas Pophale) SiO2 
 PCOD8057931
Probable space group: P 2/M
;
_chemical_formula_sum "Si O2"
_cell_formula_units_Z 28
_cell_length_a 15.771361
_cell_length_b 9.500060
_cell_length_c 21.181616
_cell_angle_alpha 90.000000
_cell_angle_beta 27.441016
_cell_angle_gamma 90.000000
_cell_volume 1462.514823
_symmetry_space_group_name_H-M "P 2/M"
_symmetry_group_IT_number 10
_symmetry_cell_setting 'monoclinic'
loop_
_space_group_symop_operation_xyz
x,y,z
-x,y,-z
-x,-y,-z
x,-y,z
loop_
_atom_site_type_symbol
_atom_site_label
_atom_site_fract_x
_atom_site_fract_y
_atom_site_fract_z
Si Si1 0.657889 0.839274 0.257723
Si Si2 0.610966 0.334581 0.989190
Si Si3 0.017384 0.161736 0.265987
Si Si4 0.103442 0.841836 0.788866
Si Si5 0.441927 0.656651 0.230134
Si Si6 0.286477 0.164726 0.437482
Si Si7 0.825720 0.657371 0.046491
O O1 0.700068 0.821135 0.304925
O O2 0.451770 0.792082 0.376106
O O3 0.811423 0.743807 0.121255
O O4 0.687974 0.000000 0.216039
O O5 0.652477 0.500000 0.967931
O O6 0.804597 0.256604 0.859939
O O7 0.500000 0.296026 0.000000
O O8 0.486657 0.283920 0.130611
O O9 0.878543 0.180451 0.298159
O O10 0.903575 0.208537 0.403078
O O11 0.080948 0.000000 0.229973
O O12 0.030081 0.000000 0.851075
O O13 0.956994 0.730812 0.910020
O O14 0.356218 0.500000 0.281953
O O15 0.298413 0.755936 0.362302
O O16 0.626914 0.653111 0.147215
O O17 0.291650 0.000000 0.419518
O O18 0.896827 0.500000 0.013851
#
# Coordination Sequence:
#
# PCOD8057931 Si02
#       7
#     4   4   4   4   4   4   4
#     4   9  18  31  47  70 103 143 183 219 256 302
#     4  10  21  39  62  85 107 133 171 218 268 323
#     4  10  21  36  55  81 110 140 177 219 267 318
#     4  10  19  30  47  72 104 141 179 219 262 307
#     4   9  18  34  55  79 104 136 176 216 262 317
#     4   9  19  35  54  77 108 146 182 216 257 309
#     4  10  18  29  47  72 103 137 177 223 266 306
#
# _framework density 19.145104
#
# number of rings (size 3 to 8) (size 9 to 14) (size 15 to 20)
#    0.000    2.429    1.429    0.857    0.000    4.857 
#    0.000    3.571    0.000    4.286    0.000    6.000 
#    0.000    0.000    0.000    0.000    0.000    0.000 
#
# Total GULP energy -347078.059186 kJ/mol
# GULP energy per Si atom -12395.644971 kJ/mol
# Density = 1.910153 g / cm^3
# Si number density = 19.145104 Si / 1000 Ang^3
#
#
#
# Elastic Constant Matrix: (Units=GPa)
#
#
# Indices 1 2 3 4 5 6 
#
# 1 103.0273 34.5085 50.3872 0.0000 24.5224 0.0000
# 2 34.5085 72.7908 40.9261 0.0000 12.8130 0.0000
# 3 50.3872 40.9261 83.9688 0.0000 28.4639 0.0000
# 4 0.0000 0.0000 0.0000 23.1736 0.0000 5.6650
# 5 24.5224 12.8130 28.4639 0.0000 24.7304 0.0000
# 6 0.0000 0.0000 0.0000 5.6650 0.0000 20.7501
#
#
#
# Elastic Compliance Matrix: (Units=1/GPa)
#
#
# Indices 1 2 3 4 5 6 
#
# 1 0.014916 -0.002960 -0.004942 0.000000 -0.007569 0.000000
# 2 -0.002960 0.019538 -0.008707 0.000000 0.002834 0.000000
# 3 -0.004942 -0.008707 0.026119 0.000000 -0.020650 0.000000
# 4 0.000000 0.000000 0.000000 0.046239 0.000000 -0.012624
# 5 -0.007569 0.002834 -0.020650 0.000000 0.070240 0.000000
# 6 0.000000 0.000000 0.000000 -0.012624 0.000000 0.051639
#
#
# Mechanical properties :
#
#
# Convention : Reuss Voigt Hill
#
# Bulk Modulus (GPa) = 36.55858 56.82558 46.69208
# Shear Modulus (GPa) = 18.44828 22.66182 20.55505
#
# Velocity S-wave (km/s) = 3.10756 3.44421 3.28021
# Velocity P-wave (km/s) = 5.65800 6.75002 6.22799
#
# Compressibility (1/GPa) = 0.02735336
#
# Stress axis : x y z
#
# Youngs Moduli (GPa) = 67.04058 51.18210 38.28680
#
# Poissons Ratio (x) = 0.15152 0.18923
# Poissons Ratio (y) = 0.19847 0.33337
# Poissons Ratio (z) = 0.33134 0.44565
#
# Static dielectric constant tensor:
#      x y z
#    x 3.600440 0.000000 0.182150 
#    y 0.000000 3.638290 0.000000 
#    z 0.182150 0.000000 3.305110 
# 
# 
# High freq. dielectric constant tensor:
#      x y z
#    x 1.742340 0.000000 0.012080 
#    y 0.000000 1.740190 0.000000 
#    z 0.012080 0.000000 1.722000 
# 
# From -- ./inp_files/84887.got.cif
#   From: 2010.06.25/outbox.cif.g09.slc.cpg/sg10_43_cif.got.tgz:84887.got - 2010.06.27 22:07:45.
