data_PCOD8057237
_publ_section_title
;
Structure prediction by ZEFSAII (Michael W. Deem and Ramdas Pophale) SiO2 
 PCOD8057237
Probable space group: P 2/M
;
_chemical_formula_sum "Si O2"
_cell_formula_units_Z 32
_cell_length_a 24.212179
_cell_length_b 12.591016
_cell_length_c 16.751480
_cell_angle_alpha 90.000000
_cell_angle_beta 157.327907
_cell_angle_gamma 90.000000
_cell_volume 1968.445456
_symmetry_space_group_name_H-M "P 2/M"
_symmetry_group_IT_number 10
_symmetry_cell_setting 'monoclinic'
loop_
_space_group_symop_operation_xyz
x,y,z
-x,y,-z
-x,-y,-z
x,-y,z
loop_
_atom_site_type_symbol
_atom_site_label
_atom_site_fract_x
_atom_site_fract_y
_atom_site_fract_z
Si Si1 0.731079 0.881145 0.190558
Si Si2 0.758076 0.789808 0.062541
Si Si3 0.843994 0.219476 0.486350
Si Si4 0.644964 0.875743 0.655100
Si Si5 0.594793 0.877392 0.242098
Si Si6 0.983449 0.622732 0.382832
Si Si7 0.894554 0.879504 0.096359
Si Si8 0.542589 0.121535 0.350376
O O1 0.836279 0.868789 0.405820
O O2 0.722327 0.000000 0.148099
O O3 0.796460 0.816623 0.204620
O O4 0.568765 0.845605 0.996163
O O5 0.587202 0.793360 0.821221
O O6 0.834807 0.675581 0.152620
O O7 0.824719 0.874978 0.090801
O O8 0.691049 0.212549 0.327025
O O9 0.883016 0.328477 0.491197
O O10 0.960514 0.189255 0.708752
O O11 0.500000 0.826442 0.500000
O O12 0.649065 0.851931 0.565777
O O13 0.647523 0.000000 0.678303
O O14 0.786119 0.827715 0.886222
O O15 0.626335 0.868069 0.378943
O O16 0.627430 0.000000 0.257481
O O17 0.976747 0.500000 0.351496
O O18 0.000000 0.639018 0.500000
O O19 0.933869 0.000000 0.126686
O O20 0.483832 0.000000 0.281560
#
# Coordination Sequence:
#
# PCOD8057237 Si02
#       8
#     4   4   4   4   4   4   4   4
#     4  10  18  28  45  69  99 129 153 179 219 272
#     4  10  17  28  45  70  88 119 156 188 229 276
#     4  11  20  31  46  66  89 126 162 192 228 272
#     4   9  15  25  41  64  97 135 159 181 222 269
#     4   9  18  30  45  66  98 132 159 186 217 266
#     4  10  21  37  50  63  88 120 155 199 249 287
#     4  10  18  25  40  67 100 125 154 193 225 270
#     4   9  16  28  47  70 100 131 158 183 219 272
#
# _framework density 16.256481999999998
#
# number of rings (size 3 to 8) (size 9 to 14) (size 15 to 20)
#    0.000    2.250    2.500    3.375    0.000    1.000 
#    0.000    2.500    0.000    7.500    0.000    7.000 
#    0.000    4.000    0.000    0.000    0.000    0.000 
#
# Total GULP energy -396424.879782 kJ/mol
# GULP energy per Si atom -12388.277493 kJ/mol
# Density = 1.621948 g / cm^3
# Si number density = 16.256482 Si / 1000 Ang^3
#
#
#
# Elastic Constant Matrix: (Units=GPa)
#
#
# Indices 1 2 3 4 5 6 
#
# 1 61.3060 32.8377 25.9520 0.0000 -0.4484 0.0000
# 2 32.8377 66.5825 28.5318 0.0000 6.7533 0.0000
# 3 25.9520 28.5318 86.5685 0.0000 -17.4587 0.0000
# 4 0.0000 0.0000 0.0000 12.5769 0.0000 2.7843
# 5 -0.4484 6.7533 -17.4587 0.0000 26.9460 0.0000
# 6 0.0000 0.0000 0.0000 2.7843 0.0000 17.0578
#
#
#
# Elastic Compliance Matrix: (Units=1/GPa)
#
#
# Indices 1 2 3 4 5 6 
#
# 1 0.023149 -0.009960 -0.003538 0.000000 0.000589 0.000000
# 2 -0.009960 0.024087 -0.007136 0.000000 -0.010826 0.000000
# 3 -0.003538 -0.007136 0.017615 0.000000 0.013143 0.000000
# 4 0.000000 0.000000 0.000000 0.082492 0.000000 -0.013465
# 5 0.000589 -0.010826 0.013143 0.000000 0.048350 0.000000
# 6 0.000000 0.000000 0.000000 -0.013465 0.000000 0.060822
#
#
# Mechanical properties :
#
#
# Convention : Reuss Voigt Hill
#
# Bulk Modulus (GPa) = 42.40613 43.23334 42.81974
# Shear Modulus (GPa) = 16.35888 19.79184 18.07536
#
# Velocity S-wave (km/s) = 3.17566 3.49302 3.33811
# Velocity P-wave (km/s) = 6.29196 6.55137 6.42298
#
# Compressibility (1/GPa) = 0.02358150
#
# Stress axis : x y z
#
# Youngs Moduli (GPa) = 43.19889 41.51545 56.77050
#
# Poissons Ratio (x) = 0.41351 0.20086
# Poissons Ratio (y) = 0.43027 0.40513
# Poissons Ratio (z) = 0.15284 0.29627
#
# Static dielectric constant tensor:
#      x y z
#    x 3.115180 0.000000 -0.092810 
#    y 0.000000 2.608400 0.000000 
#    z -0.092810 0.000000 3.233840 
# 
# 
# High freq. dielectric constant tensor:
#      x y z
#    x 1.626980 0.000000 -0.008890 
#    y 0.000000 1.558110 0.000000 
#    z -0.008890 0.000000 1.628390 
# 
# From -- ./inp_files/53524.got.cif
#   From: 2010.06.25/outbox.cif.g09.slc.cpg/sg10_27_cif.got.tgz:53524.got - 2010.06.27 22:07:45.
