data_PCOD8057148
_publ_section_title
;
Structure prediction by ZEFSAII (Michael W. Deem and Ramdas Pophale) SiO2 
 PCOD8057148
Probable space group: P 2/M
;
_chemical_formula_sum "Si O2"
_cell_formula_units_Z 28
_cell_length_a 25.741799
_cell_length_b 9.446534
_cell_length_c 12.716976
_cell_angle_alpha 90.000000
_cell_angle_beta 33.863735
_cell_angle_gamma 90.000000
_cell_volume 1723.144344
_symmetry_space_group_name_H-M "P 2/M"
_symmetry_group_IT_number 10
_symmetry_cell_setting 'monoclinic'
loop_
_space_group_symop_operation_xyz
x,y,z
-x,y,-z
-x,-y,-z
x,-y,z
loop_
_atom_site_type_symbol
_atom_site_label
_atom_site_fract_x
_atom_site_fract_y
_atom_site_fract_z
Si Si1 0.091309 0.168369 0.065732
Si Si2 0.397891 0.336348 0.046390
Si Si3 0.112719 0.832157 0.639952
Si Si4 0.096826 0.831868 0.291441
Si Si5 0.389754 0.336186 0.301845
Si Si6 0.234818 0.167364 0.238439
Si Si7 0.777807 0.832073 0.339760
O O1 0.172520 0.218730 0.850818
O O2 0.085838 0.000000 0.075241
O O3 0.113322 0.225920 0.145732
O O4 0.991843 0.229472 0.193824
O O5 0.372550 0.500000 0.073483
O O6 0.379682 0.290556 0.197306
O O7 0.334875 0.242853 0.074761
O O8 0.505147 0.308321 0.836043
O O9 0.172947 0.778867 0.440144
O O10 0.158747 0.777846 0.670210
O O11 0.108407 0.000000 0.646640
O O12 0.183228 0.784172 0.218523
O O13 0.000000 0.769686 0.500000
O O14 0.089256 0.000000 0.303506
O O15 0.363275 0.500000 0.360000
O O16 0.322691 0.241328 0.486287
O O17 0.250615 0.000000 0.215545
O O18 0.763533 0.000000 0.367594
#
# Coordination Sequence:
#
# PCOD8057148 Si02
#       7
#     4   4   4   4   4   4   4
#     4   9  16  26  41  64  96 129 154 177 215 268
#     4   9  18  32  48  66  89 119 149 181 229 280
#     4   9  15  24  39  66  97 121 145 178 220 263
#     4   9  15  25  42  66  94 123 154 185 216 256
#     4   9  18  32  48  65  89 120 150 180 224 282
#     4  10  17  26  46  72  94 115 148 191 224 254
#     4  10  18  27  44  70  96 120 148 186 226 261
#
# _framework density 16.249365000000001
#
# number of rings (size 3 to 8) (size 9 to 14) (size 15 to 20)
#    0.000    2.714    2.857    1.286    0.000    2.286 
#    0.000    1.429    0.000    4.714    0.000    6.000 
#    0.000    0.000    0.000    0.000    0.000    0.000 
#
# Total GULP energy -347138.630579 kJ/mol
# GULP energy per Si atom -12397.808235 kJ/mol
# Density = 1.621238 g / cm^3
# Si number density = 16.249365 Si / 1000 Ang^3
#
#
#
# Elastic Constant Matrix: (Units=GPa)
#
#
# Indices 1 2 3 4 5 6 
#
# 1 118.9627 30.4618 70.8111 0.0000 -2.3005 0.0000
# 2 30.4618 27.7195 34.4339 0.0000 -7.8286 0.0000
# 3 70.8111 34.4339 121.6878 0.0000 -1.9067 0.0000
# 4 0.0000 0.0000 0.0000 7.3995 0.0000 2.9986
# 5 -2.3005 -7.8286 -1.9067 0.0000 30.7015 0.0000
# 6 0.0000 0.0000 0.0000 2.9986 0.0000 8.9678
#
#
#
# Elastic Compliance Matrix: (Units=1/GPa)
#
#
# Indices 1 2 3 4 5 6 
#
# 1 0.014010 -0.008747 -0.005701 0.000000 -0.001535 0.000000
# 2 -0.008747 0.067024 -0.013632 0.000000 0.015589 0.000000
# 3 -0.005701 -0.013632 0.015347 0.000000 -0.002950 0.000000
# 4 0.000000 0.000000 0.000000 0.156327 0.000000 -0.052272
# 5 -0.001535 0.015589 -0.002950 0.000000 0.036248 0.000000
# 6 0.000000 0.000000 0.000000 -0.052272 0.000000 0.128989
#
#
# Mechanical properties :
#
#
# Convention : Reuss Voigt Hill
#
# Bulk Modulus (GPa) = 24.86282 59.97594 42.41938
# Shear Modulus (GPa) = 10.25619 18.25797 14.25708
#
# Velocity S-wave (km/s) = 2.51504 3.35567 2.96530
# Velocity P-wave (km/s) = 4.87524 7.21137 6.15515
#
# Compressibility (1/GPa) = 0.04022069
#
# Stress axis : x y z
#
# Youngs Moduli (GPa) = 71.37924 14.92005 65.16132
#
# Poissons Ratio (x) = 0.13050 0.37151
# Poissons Ratio (y) = 0.62433 0.88826
# Poissons Ratio (z) = 0.40696 0.20338
#
# Static dielectric constant tensor:
#      x y z
#    x 3.162250 0.000000 0.005040 
#    y 0.000000 2.594280 0.000000 
#    z 0.005040 0.000000 3.081760 
# 
# 
# High freq. dielectric constant tensor:
#      x y z
#    x 1.620370 0.000000 -0.008810 
#    y 0.000000 1.576890 0.000000 
#    z -0.008810 0.000000 1.621510 
# 
# From -- ./inp_files/50405.got.cif
#   From: 2010.06.25/outbox.cif.g09.slc.cpg/sg10_26_cif.got.tgz:50405.got - 2010.06.27 22:07:45.
