data_PCOD8057235
_publ_section_title
;
Structure prediction by ZEFSAII (Michael W. Deem and Ramdas Pophale) SiO2 
 PCOD8057235
Probable space group: P 2/M
;
_chemical_formula_sum "Si O2"
_cell_formula_units_Z 32
_cell_length_a 20.478894
_cell_length_b 9.116450
_cell_length_c 20.074485
_cell_angle_alpha 90.000000
_cell_angle_beta 29.611335
_cell_angle_gamma 90.000000
_cell_volume 1851.841069
_symmetry_space_group_name_H-M "P 2/M"
_symmetry_group_IT_number 10
_symmetry_cell_setting 'monoclinic'
loop_
_space_group_symop_operation_xyz
x,y,z
-x,y,-z
-x,-y,-z
x,-y,z
loop_
_atom_site_type_symbol
_atom_site_label
_atom_site_fract_x
_atom_site_fract_y
_atom_site_fract_z
Si Si1 0.089540 0.174521 0.123442
Si Si2 0.389215 0.174032 0.378158
Si Si3 0.803336 0.174191 0.334947
Si Si4 0.643935 0.174918 0.351603
Si Si5 0.231583 0.673450 0.408966
Si Si6 0.146197 0.670955 0.347484
Si Si7 0.671353 0.174251 0.179034
Si Si8 0.063069 0.673572 0.283427
O O1 0.114501 0.241695 0.173605
O O2 0.951200 0.232497 0.216026
O O3 0.090683 0.000000 0.128881
O O4 0.204478 0.232918 0.973009
O O5 0.292223 0.232516 0.522076
O O6 0.347184 0.244589 0.345607
O O7 0.536433 0.228839 0.264444
O O8 0.381883 0.000000 0.378137
O O9 0.751336 0.232959 0.309790
O O10 0.800662 0.000000 0.337400
O O11 0.500000 0.234413 0.500000
O O12 0.681500 0.236254 0.245336
O O13 0.641274 0.000000 0.353205
O O14 0.254655 0.500000 0.392157
O O15 0.240481 0.731023 0.323457
O O16 0.089459 0.713853 0.566666
O O17 0.170475 0.500000 0.322369
O O18 0.157397 0.730127 0.261462
O O19 0.000000 0.706647 0.500000
O O20 0.671933 0.000000 0.181038
O O21 0.077785 0.500000 0.259806
#
# Coordination Sequence:
#
# PCOD8057235 Si02
#       8
#     4   4   4   4   4   4   4   4
#     4  10  19  30  43  67  98 121 147 188 230 265
#     4  10  17  28  45  67  93 120 149 184 227 270
#     4   9  16  25  42  65  90 117 147 187 226 259
#     4   9  14  24  42  64  89 118 152 187 224 267
#     4   9  16  27  46  71  93 115 148 190 227 263
#     4   7  12  24  42  65  91 115 145 185 224 260
#     4   9  18  29  43  64  93 125 152 183 228 273
#     4   9  16  28  47  68  91 122 152 180 222 273
#
# _framework density 17.280100000000001
#
# number of rings (size 3 to 8) (size 9 to 14) (size 15 to 20)
#    0.000    3.000    2.500    1.500    0.000    0.500 
#    0.000    3.750    0.000    3.000    0.000   10.500 
#    0.000    0.000    0.000    0.000    0.000    0.000 
#
# Total GULP energy -396478.597715 kJ/mol
# GULP energy per Si atom -12389.956179 kJ/mol
# Density = 1.724077 g / cm^3
# Si number density = 17.280100 Si / 1000 Ang^3
#
#
#
# Elastic Constant Matrix: (Units=GPa)
#
#
# Indices 1 2 3 4 5 6 
#
# 1 197.9267 23.7961 79.2157 0.0000 11.1031 0.0000
# 2 23.7961 14.3119 15.3933 0.0000 2.0693 0.0000
# 3 79.2157 15.3933 117.9002 0.0000 3.2601 0.0000
# 4 0.0000 0.0000 0.0000 10.4556 0.0000 -0.4076
# 5 11.1031 2.0693 3.2601 0.0000 26.0398 0.0000
# 6 0.0000 0.0000 0.0000 -0.4076 0.0000 -5.6638
#
#
#
# Elastic Compliance Matrix: (Units=1/GPa)
#
#
# Indices 1 2 3 4 5 6 
#
# 1 0.007811 -0.008254 -0.004111 0.000000 -0.002160 0.000000
# 2 -0.008254 0.090701 -0.006216 0.000000 -0.002910 0.000000
# 3 -0.004111 -0.006216 0.012035 0.000000 0.000740 0.000000
# 4 0.000000 0.000000 0.000000 0.095374 0.000000 -0.006864
# 5 -0.002160 -0.002910 0.000740 0.000000 0.039462 0.000000
# 6 0.000000 0.000000 0.000000 -0.006864 0.000000 -0.176067
#
#
# Mechanical properties :
#
#
# Convention : Reuss Voigt Hill
#
# Bulk Modulus (GPa) = 13.62655 62.99434 38.31044
# Shear Modulus (GPa) = 38.18512 20.28192 29.23352
#
# Velocity S-wave (km/s) = 4.70592 3.42967 4.11754
# Velocity P-wave (km/s) = 6.11804 7.22617 6.69507
#
# Compressibility (1/GPa) = 0.07338617
#
# Stress axis : x y z
#
# Youngs Moduli (GPa) = 128.02237 11.02518 83.09145
#
# Poissons Ratio (x) = 0.09100 0.34158
# Poissons Ratio (y) = 1.05665 0.51651
# Poissons Ratio (z) = 0.52628 0.06853
#
# Static dielectric constant tensor:
#      x y z
#    x 3.704230 0.000000 0.088990 
#    y 0.000000 2.637140 0.000000 
#    z 0.088990 0.000000 3.125640 
# 
# 
# High freq. dielectric constant tensor:
#      x y z
#    x 1.693310 0.000000 0.007550 
#    y 0.000000 1.607330 0.000000 
#    z 0.007550 0.000000 1.639080 
# 
# From -- ./inp_files/36041.got.cif
#   From: 2010.06.25/outbox.cif.g09.slc.cpg/sg10_19_cif.got.tgz:36041.got - 2010.06.27 22:07:45.
