data_PCOD8057163
_publ_section_title
;
Structure prediction by ZEFSAII (Michael W. Deem and Ramdas Pophale) SiO2 
 PCOD8057163
Probable space group: P 2/M
;
_chemical_formula_sum "Si O2"
_cell_formula_units_Z 28
_cell_length_a 13.869836
_cell_length_b 8.839173
_cell_length_c 14.591429
_cell_angle_alpha 90.000000
_cell_angle_beta 76.713862
_cell_angle_gamma 90.000000
_cell_volume 1740.998042
_symmetry_space_group_name_H-M "P 2/M"
_symmetry_group_IT_number 10
_symmetry_cell_setting 'monoclinic'
loop_
_space_group_symop_operation_xyz
x,y,z
-x,y,-z
-x,-y,-z
x,-y,z
loop_
_atom_site_type_symbol
_atom_site_label
_atom_site_fract_x
_atom_site_fract_y
_atom_site_fract_z
Si Si1 0.613032 0.680509 0.975146
Si Si2 0.247810 0.330079 0.209517
Si Si3 0.766556 0.177111 0.070440
Si Si4 0.865701 0.319435 0.600526
Si Si5 0.918435 0.320490 0.394611
Si Si6 0.088128 0.330164 0.094127
Si Si7 0.871233 0.322015 0.205765
O O1 0.623491 0.500000 0.976147
O O2 0.666112 0.747589 0.871115
O O3 0.500000 0.734823 0.000000
O O4 0.667627 0.745411 0.052349
O O5 0.284319 0.500000 0.218781
O O6 0.223076 0.254049 0.314391
O O7 0.143904 0.325773 0.178624
O O8 0.784387 0.237231 0.169649
O O9 0.749261 0.000000 0.076083
O O10 0.862227 0.216535 0.988314
O O11 0.866612 0.500000 0.610090
O O12 0.850217 0.272701 0.497239
O O13 0.971224 0.255726 0.612934
O O14 0.925569 0.500000 0.386355
O O15 0.871897 0.258463 0.310117
O O16 0.094796 0.500000 0.051190
O O17 0.975434 0.282191 0.134969
O O18 0.850576 0.500000 0.208654
#
# Coordination Sequence:
#
# PCOD8057163 Si02
#       7
#     4   4   4   4   4   4   4
#     4   9  18  33  51  68  84 105 137 177 219 262
#     4   8  12  21  39  62  87 111 135 168 211 255
#     4  11  22  31  41  60  86 115 144 177 215 255
#     4   8  11  18  33  59  90 113 137 171 209 248
#     4   8  13  19  33  59  89 116 141 172 207 242
#     4   9  16  27  42  60  84 117 151 178 205 244
#     4  10  17  27  42  61  86 119 152 178 206 245
#
# _framework density 16.082729
#
# number of rings (size 3 to 8) (size 9 to 14) (size 15 to 20)
#    0.000    3.000    1.429    3.429    0.000    2.571 
#    0.000    0.000    0.000    0.000    0.000    7.000 
#    0.000    8.000    0.000    0.000    0.000    0.000 
#
# Total GULP energy -346877.400213 kJ/mol
# GULP energy per Si atom -12388.478579 kJ/mol
# Density = 1.604612 g / cm^3
# Si number density = 16.082729 Si / 1000 Ang^3
#
#
#
# Elastic Constant Matrix: (Units=GPa)
#
#
# Indices 1 2 3 4 5 6 
#
# 1 92.4423 20.3187 62.5444 0.0000 1.5934 0.0000
# 2 20.3187 28.8499 23.1371 0.0000 3.3165 0.0000
# 3 62.5444 23.1371 128.1145 0.0000 11.7327 0.0000
# 4 0.0000 0.0000 0.0000 -0.1496 0.0000 0.5762
# 5 1.5934 3.3165 11.7327 0.0000 18.5123 0.0000
# 6 0.0000 0.0000 0.0000 0.5762 0.0000 7.5929
#
#
#
# Elastic Compliance Matrix: (Units=1/GPa)
#
#
# Indices 1 2 3 4 5 6 
#
# 1 0.017420 -0.006594 -0.007733 0.000000 0.004583 0.000000
# 2 -0.006594 0.043164 -0.004162 0.000000 -0.004528 0.000000
# 3 -0.007733 -0.004162 0.012955 0.000000 -0.006800 0.000000
# 4 0.000000 0.000000 0.000000 -5.171769 0.000000 0.392476
# 5 0.004583 -0.004528 -0.006800 0.000000 0.058744 0.000000
# 6 0.000000 0.000000 0.000000 0.392476 0.000000 0.101918
#
#
# Mechanical properties :
#
#
# Convention : Reuss Voigt Hill
#
# Bulk Modulus (GPa) = 27.35075 51.26744 39.30909
# Shear Modulus (GPa) = -1.02283 14.75154 6.86435
#
# Velocity S-wave (km/s) = -0.79835 3.03186 2.06819
# Velocity P-wave (km/s) = 4.02410 6.64852 5.49528
#
# Compressibility (1/GPa) = 0.03656208
#
# Stress axis : x y z
#
# Youngs Moduli (GPa) = 57.40546 23.16736 77.18987
#
# Poissons Ratio (x) = 0.15276 0.59692
# Poissons Ratio (y) = 0.37851 0.32124
# Poissons Ratio (z) = 0.44393 0.09642
#
# Static dielectric constant tensor:
#      x y z
#    x 2.823390 0.000000 0.025350 
#    y 0.000000 2.553310 0.000000 
#    z 0.025350 0.000000 3.459130 
# 
# 
# High freq. dielectric constant tensor:
#      x y z
#    x 1.576630 0.000000 0.006450 
#    y 0.000000 1.567830 0.000000 
#    z 0.006450 0.000000 1.628400 
# 
# From -- ./inp_files/65709.got.cif
#   From: 2010.06.25/outbox.cif.g09.slc.cpg/sg10_33_cif.got.tgz:65709.got - 2010.06.27 22:07:45.
