data_PCOD8057189
_publ_section_title
;
Structure prediction by ZEFSAII (Michael W. Deem and Ramdas Pophale) SiO2 
 PCOD8057189
Probable space group: P 2/M
;
_chemical_formula_sum "Si O2"
_cell_formula_units_Z 20
_cell_length_a 15.593561
_cell_length_b 9.117730
_cell_length_c 22.503085
_cell_angle_alpha 90.000000
_cell_angle_beta 23.977632
_cell_angle_gamma 90.000000
_cell_volume 1300.188689
_symmetry_space_group_name_H-M "P 2/M"
_symmetry_group_IT_number 10
_symmetry_cell_setting 'monoclinic'
loop_
_space_group_symop_operation_xyz
x,y,z
-x,y,-z
-x,-y,-z
x,-y,z
loop_
_atom_site_type_symbol
_atom_site_label
_atom_site_fract_x
_atom_site_fract_y
_atom_site_fract_z
Si Si1 0.698985 0.827224 0.913961
Si Si2 0.961816 0.828792 0.091982
Si Si3 0.493852 0.828859 0.572783
Si Si4 0.101435 0.664426 0.659031
Si Si5 0.830302 0.335570 0.937911
O O1 0.665445 0.756639 0.001147
O O2 0.730716 0.000000 0.900341
O O3 0.500000 0.785748 0.000000
O O4 0.909526 0.756893 0.750201
O O5 0.726767 0.781372 0.258769
O O6 0.997272 0.000000 0.081405
O O7 0.000000 0.785360 0.000000
O O8 0.133878 0.742325 0.021861
O O9 0.500000 0.785865 0.500000
O O10 0.675160 0.741844 0.493401
O O11 0.538474 0.000000 0.553256
O O12 0.107377 0.500000 0.628558
O O13 0.052616 0.659782 0.760992
O O14 0.742849 0.500000 0.003825
#
# Coordination Sequence:
#
# PCOD8057189 Si02
#       5
#     4   4   4   4   4
#     4   9  16  27  45  68  93 119 148 187 233 276
#     4  10  20  32  46  66  93 125 158 190 225 267
#     4  10  17  27  45  64  86 119 154 189 225 265
#     4   9  18  27  41  65  91 116 146 184 225 266
#     4   9  18  29  43  65  93 121 150 186 225 268
#
# _framework density 15.382382
#
# number of rings (size 3 to 8) (size 9 to 14) (size 15 to 20)
#    1.200    1.400    2.000    1.200    0.000    3.200 
#    0.000    0.000    0.000    0.000    0.000    1.400 
#    0.000   11.200    0.000    0.000    0.000    0.000 
#
# Total GULP energy -247818.890789 kJ/mol
# GULP energy per Si atom -12390.944539 kJ/mol
# Density = 1.534737 g / cm^3
# Si number density = 15.382382 Si / 1000 Ang^3
#
#
#
# Elastic Constant Matrix: (Units=GPa)
#
#
# Indices 1 2 3 4 5 6 
#
# 1 97.7468 58.6378 52.5475 0.0000 -18.0493 0.0000
# 2 58.6378 99.8488 43.7049 0.0000 -23.2606 0.0000
# 3 52.5475 43.7049 73.9713 0.0000 -12.6207 0.0000
# 4 0.0000 0.0000 0.0000 13.4469 0.0000 -1.1926
# 5 -18.0493 -23.2606 -12.6207 0.0000 29.1188 0.0000
# 6 0.0000 0.0000 0.0000 -1.1926 0.0000 14.9947
#
#
#
# Elastic Compliance Matrix: (Units=1/GPa)
#
#
# Indices 1 2 3 4 5 6 
#
# 1 0.020120 -0.006918 -0.009741 0.000000 0.002724 0.000000
# 2 -0.006918 0.017819 -0.004230 0.000000 0.008113 0.000000
# 3 -0.009741 -0.004230 0.023034 0.000000 0.000567 0.000000
# 4 0.000000 0.000000 0.000000 0.074895 0.000000 0.005957
# 5 0.002724 0.008113 0.000567 0.000000 0.042757 0.000000
# 6 0.000000 0.000000 0.000000 0.005957 0.000000 0.067164
#
#
# Mechanical properties :
#
#
# Convention : Reuss Voigt Hill
#
# Bulk Modulus (GPa) = 52.09239 64.59413 58.34326
# Shear Modulus (GPa) = 17.00888 19.29052 18.14970
#
# Velocity S-wave (km/s) = 3.32887 3.54512 3.43870
# Velocity P-wave (km/s) = 6.97952 7.67076 7.33329
#
# Compressibility (1/GPa) = 0.01919666
#
# Stress axis : x y z
#
# Youngs Moduli (GPa) = 49.70237 56.11982 43.41363
#
# Poissons Ratio (x) = 0.38821 0.42288
# Poissons Ratio (y) = 0.34382 0.18363
# Poissons Ratio (z) = 0.48414 0.23738
#
# Static dielectric constant tensor:
#      x y z
#    x 2.656800 0.000000 -0.081970 
#    y 0.000000 2.967390 0.000000 
#    z -0.081970 0.000000 2.696780 
# 
# 
# High freq. dielectric constant tensor:
#      x y z
#    x 1.558150 0.000000 -0.018870 
#    y 0.000000 1.603130 0.000000 
#    z -0.018870 0.000000 1.559360 
# 
# From -- ./inp_files/57203.got.cif
#   From: 2010.06.25/outbox.cif.g09.slc.cpg/sg10_29_cif.got.tgz:57203.got - 2010.06.27 22:07:45.
