data_PCOD8057444
_publ_section_title
;
Structure prediction by ZEFSAII (Michael W. Deem and Ramdas Pophale) SiO2 
 PCOD8057444
Probable space group: P 2/M
;
_chemical_formula_sum "Si O2"
_cell_formula_units_Z 22
_cell_length_a 13.696268
_cell_length_b 16.224797
_cell_length_c 5.078679
_cell_angle_alpha 90.000000
_cell_angle_beta 81.520929
_cell_angle_gamma 90.000000
_cell_volume 1116.244206
_symmetry_space_group_name_H-M "P 2/M"
_symmetry_group_IT_number 10
_symmetry_cell_setting 'monoclinic'
loop_
_space_group_symop_operation_xyz
x,y,z
-x,y,-z
-x,-y,-z
x,-y,z
loop_
_atom_site_type_symbol
_atom_site_label
_atom_site_fract_x
_atom_site_fract_y
_atom_site_fract_z
Si Si1 0.343674 0.409540 0.046138
Si Si2 0.262155 0.196269 0.623882
Si Si3 0.064741 0.500000 0.726037
Si Si4 0.773037 0.377543 0.417320
Si Si5 0.609826 0.773605 0.915356
Si Si6 0.937494 0.902410 0.274584
O O1 0.398351 0.500000 0.050847
O O2 0.313420 0.400173 0.754309
O O3 0.251295 0.412244 0.282976
O O4 0.402935 0.326740 0.109170
O O5 0.206579 0.280939 0.583377
O O6 0.343452 0.183255 0.361436
O O7 0.175721 0.128825 0.671044
O O8 0.319902 0.199908 0.874994
O O9 0.127365 0.417460 0.718611
O O10 0.000000 0.500000 0.500000
O O11 0.000000 0.500000 0.000000
O O12 0.500000 0.809689 0.000000
O O13 0.000000 0.872071 0.500000
O O14 0.928135 0.000000 0.270099
O O15 0.000000 0.869608 0.000000
#
# Coordination Sequence:
#
# PCOD8057444 Si02
#       6
#     4   4   2   4   4   4
#     4  10  17  32  53  67  98 138 180 232 274 313
#     4  10  21  37  59  80 113 152 179 229 286 331
#     4  12  22  30  44  66  95 132 175 222 268 314
#     4  10  20  33  47  69  98 140 180 217 268 329
#     4  10  21  35  55  84 112 149 193 230 277 332
#     4  10  21  38  63  92 117 141 180 232 281 335
#
# _framework density 19.708947999999999
#
# number of rings (size 3 to 8) (size 9 to 14) (size 15 to 20)
#    0.000    1.818    1.818    2.727    0.000    1.818 
#    0.000    0.000    0.000    9.818    0.000    0.000 
#    0.000    0.000    0.000    0.000    0.000    0.000 
#
# Total GULP energy -272613.973644 kJ/mol
# GULP energy per Si atom -12391.544257 kJ/mol
# Density = 1.966409 g / cm^3
# Si number density = 19.708948 Si / 1000 Ang^3
#
#
#
# Elastic Constant Matrix: (Units=GPa)
#
#
# Indices 1 2 3 4 5 6 
#
# 1 85.9387 25.9306 35.8582 0.0000 -22.6007 0.0000
# 2 25.9306 44.3894 21.5683 0.0000 -5.7664 0.0000
# 3 35.8582 21.5683 136.8701 0.0000 -12.2465 0.0000
# 4 0.0000 0.0000 0.0000 24.4757 0.0000 -13.8642
# 5 -22.6007 -5.7664 -12.2465 0.0000 36.5085 0.0000
# 6 0.0000 0.0000 0.0000 -13.8642 0.0000 40.0118
#
#
#
# Elastic Compliance Matrix: (Units=1/GPa)
#
#
# Indices 1 2 3 4 5 6 
#
# 1 0.017307 -0.007754 -0.002539 0.000000 0.008637 0.000000
# 2 -0.007754 0.028120 -0.002507 0.000000 -0.001200 0.000000
# 3 -0.002539 -0.002507 0.008444 0.000000 0.000864 0.000000
# 4 0.000000 0.000000 0.000000 0.050835 0.000000 0.017614
# 5 0.008637 -0.001200 0.000864 0.000000 0.032838 0.000000
# 6 0.000000 0.000000 0.000000 0.017614 0.000000 0.031096
#
#
# Mechanical properties :
#
#
# Convention : Reuss Voigt Hill
#
# Bulk Modulus (GPa) = 35.37388 48.21249 41.79318
# Shear Modulus (GPa) = 24.55022 32.45527 28.50275
#
# Velocity S-wave (km/s) = 3.53319 4.06239 3.80700
# Velocity P-wave (km/s) = 5.88487 6.82051 6.36989
#
# Compressibility (1/GPa) = 0.02826945
#
# Stress axis : x y z
#
# Youngs Moduli (GPa) = 57.78012 35.56199 118.42852
#
# Poissons Ratio (x) = 0.27575 0.30074
# Poissons Ratio (y) = 0.44804 0.29691
# Poissons Ratio (z) = 0.14673 0.08916
#
# Static dielectric constant tensor:
#      x y z
#    x 3.346980 0.000000 0.022280 
#    y 0.000000 3.238150 0.000000 
#    z 0.022280 0.000000 3.896050 
# 
# 
# High freq. dielectric constant tensor:
#      x y z
#    x 1.750950 0.000000 0.002660 
#    y 0.000000 1.745730 0.000000 
#    z 0.002660 0.000000 1.792730 
# 
# From -- ./inp_files/7148.got.cif
#   From: 2010.06.25/outbox.cif.g09.slc.cpg/sg10_4_cif.got.tgz:7148.got - 2010.06.27 22:07:45.
