data_PCOD8057932
_publ_section_title
;
Structure prediction by ZEFSAII (Michael W. Deem and Ramdas Pophale) SiO2 
 PCOD8057932
Probable space group: P 2/M
;
_chemical_formula_sum "Si O2"
_cell_formula_units_Z 26
_cell_length_a 12.282555
_cell_length_b 8.980019
_cell_length_c 27.579245
_cell_angle_alpha 90.000000
_cell_angle_beta 153.163499
_cell_angle_gamma 90.000000
_cell_volume 1373.264630
_symmetry_space_group_name_H-M "P 2/M"
_symmetry_group_IT_number 10
_symmetry_cell_setting 'monoclinic'
loop_
_space_group_symop_operation_xyz
x,y,z
-x,y,-z
-x,-y,-z
x,-y,z
loop_
_atom_site_type_symbol
_atom_site_label
_atom_site_fract_x
_atom_site_fract_y
_atom_site_fract_z
Si Si1 0.000000 0.256416 0.500000
Si Si2 0.721012 0.171674 0.152942
Si Si3 0.175384 0.171678 0.915318
Si Si4 0.284885 0.677627 0.230911
Si Si5 0.414443 0.166189 0.728128
Si Si6 0.685603 0.339288 0.457959
Si Si7 0.883941 0.677634 0.311209
O O1 0.185866 0.150367 0.601961
O O2 0.137942 0.363858 0.517816
O O3 0.830470 0.208318 0.144003
O O4 0.858433 0.276443 0.245373
O O5 0.765283 0.000000 0.184146
O O6 0.437350 0.207356 0.040958
O O7 0.989607 0.276358 0.869626
O O8 0.106979 0.000000 0.896846
O O9 0.310600 0.500000 0.238229
O O10 0.371275 0.746040 0.214116
O O11 0.445991 0.741484 0.340957
O O12 0.337673 0.252527 0.746547
O O13 0.503344 0.000000 0.777176
O O14 0.606178 0.500000 0.446737
O O15 0.851868 0.259503 0.565213
O O16 0.876944 0.500000 0.314316
#
# Coordination Sequence:
#
# PCOD8057932 Si02
#       7
#     2   4   4   4   4   4   4
#     4   8  14  24  42  68  95 130 175 210 233 276
#     4   9  19  37  58  76  96 126 165 209 256 303
#     4   9  19  37  58  76  96 126 165 209 256 303
#     4  10  19  32  51  76 105 135 169 206 245 293
#     4  10  18  29  47  72 104 138 169 203 246 294
#     4   8  15  27  44  69 103 138 164 195 244 294
#     4  10  19  32  51  76 105 135 169 206 245 293
#
# _framework density 18.932986
#
# number of rings (size 3 to 8) (size 9 to 14) (size 15 to 20)
#    0.000    2.769    0.000    2.769    0.000    4.923 
#    0.000    5.385    0.000    9.231    0.000    0.000 
#    0.000    0.000    0.000    0.000    0.000    0.000 
#
# Total GULP energy -322126.400142 kJ/mol
# GULP energy per Si atom -12389.476929 kJ/mol
# Density = 1.888989 g / cm^3
# Si number density = 18.932986 Si / 1000 Ang^3
#
#
#
# Elastic Constant Matrix: (Units=GPa)
#
#
# Indices 1 2 3 4 5 6 
#
# 1 23.0169 6.6633 -9.2783 0.0000 2.3103 0.0000
# 2 6.6633 69.6421 0.6760 0.0000 0.6497 0.0000
# 3 -9.2783 0.6760 22.2437 0.0000 -5.1492 0.0000
# 4 0.0000 0.0000 0.0000 20.3679 0.0000 -3.3048
# 5 2.3103 0.6497 -5.1492 0.0000 34.4962 0.0000
# 6 0.0000 0.0000 0.0000 -3.3048 0.0000 27.6345
#
#
#
# Elastic Compliance Matrix: (Units=1/GPa)
#
#
# Indices 1 2 3 4 5 6 
#
# 1 0.054190 -0.005404 0.022737 0.000000 -0.000134 0.000000
# 2 -0.005404 0.014906 -0.002785 0.000000 -0.000334 0.000000
# 3 0.022737 -0.002785 0.056124 0.000000 0.006907 0.000000
# 4 0.000000 0.000000 0.000000 0.050068 0.000000 0.005988
# 5 -0.000134 -0.000334 0.006907 0.000000 0.030035 0.000000
# 6 0.000000 0.000000 0.000000 0.005988 0.000000 0.036903
#
#
# Mechanical properties :
#
#
# Convention : Reuss Voigt Hill
#
# Bulk Modulus (GPa) = 6.48019 12.33609 9.40814
# Shear Modulus (GPa) = 18.89865 24.28917 21.59391
#
# Velocity S-wave (km/s) = 3.16284 3.58565 3.38086
# Velocity P-wave (km/s) = 4.09490 4.86542 4.49669
#
# Compressibility (1/GPa) = 0.15431648
#
# Stress axis : x y z
#
# Youngs Moduli (GPa) = 18.45368 67.08548 17.81758
#
# Poissons Ratio (x) = 0.36255 -0.40512
# Poissons Ratio (y) = 0.09973 0.04962
# Poissons Ratio (z) = -0.41958 0.18681
#
# Static dielectric constant tensor:
#      x y z
#    x 3.242750 0.000000 -0.043230 
#    y 0.000000 3.174970 0.000000 
#    z -0.043230 0.000000 3.468280 
# 
# 
# High freq. dielectric constant tensor:
#      x y z
#    x 1.716500 0.000000 -0.002910 
#    y 0.000000 1.720250 0.000000 
#    z -0.002910 0.000000 1.726030 
# 
# From -- ./inp_files/92689.got.cif
#   From: 2010.06.25/outbox.cif.g09.slc.cpg/sg10_47_cif.got.tgz:92689.got - 2010.06.27 22:07:45.
