data_PCOD8057924
_publ_section_title
;
Structure prediction by ZEFSAII (Michael W. Deem and Ramdas Pophale) SiO2 
 PCOD8057924
Probable space group: P 2/M
;
_chemical_formula_sum "Si O2"
_cell_formula_units_Z 28
_cell_length_a 14.401137
_cell_length_b 8.923394
_cell_length_c 14.581226
_cell_angle_alpha 90.000000
_cell_angle_beta 60.599373
_cell_angle_gamma 90.000000
_cell_volume 1632.461568
_symmetry_space_group_name_H-M "P 2/M"
_symmetry_group_IT_number 10
_symmetry_cell_setting 'monoclinic'
loop_
_space_group_symop_operation_xyz
x,y,z
-x,y,-z
-x,-y,-z
x,-y,z
loop_
_atom_site_type_symbol
_atom_site_label
_atom_site_fract_x
_atom_site_fract_y
_atom_site_fract_z
Si Si1 0.830795 0.333320 0.840022
Si Si2 0.890751 0.677516 0.099889
Si Si3 0.507350 0.176735 0.891061
Si Si4 0.710843 0.668006 0.714126
Si Si5 0.301706 0.677478 0.932567
Si Si6 0.938132 0.321426 0.275894
Si Si7 0.894560 0.321313 0.497750
O O1 0.847069 0.500000 0.873400
O O2 0.796288 0.339402 0.753019
O O3 0.943831 0.250393 0.791091
O O4 0.742534 0.260307 0.948414
O O5 0.896739 0.500000 0.090365
O O6 0.783300 0.733916 0.102039
O O7 0.876945 0.728911 0.213042
O O8 0.000000 0.741703 0.000000
O O9 0.616257 0.222541 0.788192
O O10 0.415572 0.242591 0.869421
O O11 0.498916 0.000000 0.896526
O O12 0.500000 0.239351 0.000000
O O13 0.666261 0.500000 0.715938
O O14 0.781822 0.733070 0.595944
O O15 0.321412 0.500000 0.918110
O O16 0.944709 0.500000 0.280252
O O17 0.888993 0.261230 0.395222
O O18 0.898296 0.500000 0.501064
O O19 0.000000 0.258710 0.500000
#
# Coordination Sequence:
#
# PCOD8057924 Si02
#       7
#     4   4   4   4   4   4   4
#     4   9  14  21  40  69  99 123 146 182 223 270
#     4   9  15  23  40  69 101 127 151 185 231 277
#     4  11  23  35  47  66  93 124 156 195 243 282
#     4  10  18  29  47  71  96 125 159 189 224 276
#     4  10  18  29  47  71  96 125 159 189 224 276
#     4   9  14  22  37  67 106 130 147 182 231 276
#     4   9  15  23  40  69 101 127 151 185 231 277
#
# _framework density 17.152011999999999
#
# number of rings (size 3 to 8) (size 9 to 14) (size 15 to 20)
#    0.000    2.429    4.286    0.429    0.000    0.571 
#    0.000    0.000    0.000    1.714    0.000    7.000 
#    0.000    0.000    0.000    0.000    0.000    0.000 
#
# Total GULP energy -346865.992634 kJ/mol
# GULP energy per Si atom -12388.071165 kJ/mol
# Density = 1.711297 g / cm^3
# Si number density = 17.152012 Si / 1000 Ang^3
#
#
#
# Elastic Constant Matrix: (Units=GPa)
#
#
# Indices 1 2 3 4 5 6 
#
# 1 111.1532 22.5038 52.6333 0.0000 -2.9661 0.0000
# 2 22.5038 23.9597 15.1184 0.0000 -3.8497 0.0000
# 3 52.6333 15.1184 125.5301 0.0000 2.2058 0.0000
# 4 0.0000 0.0000 0.0000 8.0825 0.0000 2.3939
# 5 -2.9661 -3.8497 2.2058 0.0000 29.5695 0.0000
# 6 0.0000 0.0000 0.0000 2.3939 0.0000 1.1181
#
#
#
# Elastic Compliance Matrix: (Units=1/GPa)
#
#
# Indices 1 2 3 4 5 6 
#
# 1 0.012944 -0.009377 -0.004305 0.000000 0.000399 0.000000
# 2 -0.009377 0.053164 -0.002580 0.000000 0.006173 0.000000
# 3 -0.004305 -0.002580 0.010109 0.000000 -0.001522 0.000000
# 4 0.000000 0.000000 0.000000 0.338203 0.000000 -0.724132
# 5 0.000399 0.006173 -0.001522 0.000000 0.034776 0.000000
# 6 0.000000 0.000000 0.000000 -0.724132 0.000000 2.444843
#
#
# Mechanical properties :
#
#
# Convention : Reuss Voigt Hill
#
# Bulk Modulus (GPa) = 22.88692 49.01710 35.95201
# Shear Modulus (GPa) = 1.70003 19.11319 10.40661
#
# Velocity S-wave (km/s) = 0.99665 3.34180 2.46586
# Velocity P-wave (km/s) = 3.83366 6.59774 5.39570
#
# Compressibility (1/GPa) = 0.04369307
#
# Stress axis : x y z
#
# Youngs Moduli (GPa) = 77.25459 18.80983 98.92495
#
# Poissons Ratio (x) = 0.17638 0.42587
# Poissons Ratio (y) = 0.72443 0.25519
# Poissons Ratio (z) = 0.33258 0.04852
#
# Static dielectric constant tensor:
#      x y z
#    x 3.207060 0.000000 0.065970 
#    y 0.000000 2.580000 0.000000 
#    z 0.065970 0.000000 3.414170 
# 
# 
# High freq. dielectric constant tensor:
#      x y z
#    x 1.655310 0.000000 -0.001300 
#    y 0.000000 1.593880 0.000000 
#    z -0.001300 0.000000 1.662530 
# 
# From -- ./inp_files/65921.got.cif
#   From: 2010.06.25/outbox.cif.g09.slc.cpg/sg10_33_cif.got.tgz:65921.got - 2010.06.27 22:07:45.
