data_PCOD8057207
_publ_section_title
;
Structure prediction by ZEFSAII (Michael W. Deem and Ramdas Pophale) SiO2 
 PCOD8057207
Probable space group: P 2/M
;
_chemical_formula_sum "Si O2"
_cell_formula_units_Z 32
_cell_length_a 24.228648
_cell_length_b 8.829690
_cell_length_c 17.979211
_cell_angle_alpha 90.000000
_cell_angle_beta 30.568456
_cell_angle_gamma 90.000000
_cell_volume 1956.112530
_symmetry_space_group_name_H-M "P 2/M"
_symmetry_group_IT_number 10
_symmetry_cell_setting 'monoclinic'
loop_
_space_group_symop_operation_xyz
x,y,z
-x,y,-z
-x,-y,-z
x,-y,z
loop_
_atom_site_type_symbol
_atom_site_label
_atom_site_fract_x
_atom_site_fract_y
_atom_site_fract_z
Si Si1 0.248640 0.178687 0.828552
Si Si2 0.325023 0.180498 0.336232
Si Si3 0.182713 0.820335 0.635167
Si Si4 0.438810 0.818933 0.896447
Si Si5 0.409358 0.819879 0.767563
Si Si6 0.357841 0.821340 0.549641
Si Si7 0.374673 0.833222 0.123578
Si Si8 0.978476 0.678993 0.941481
O O1 0.310559 0.235419 0.830715
O O2 0.324620 0.224276 0.671296
O O3 0.225127 0.000000 0.856372
O O4 0.136556 0.266325 0.954635
O O5 0.224477 0.229319 0.504697
O O6 0.436688 0.238502 0.244337
O O7 0.313268 0.247927 0.264952
O O8 0.331137 0.000000 0.323112
O O9 0.268128 0.757411 0.596723
O O10 0.067555 0.743417 0.781823
O O11 0.169424 0.000000 0.656996
O O12 0.388088 0.763996 0.876984
O O13 0.437384 0.000000 0.903425
O O14 0.369618 0.752216 0.047708
O O15 0.523708 0.752023 0.605433
O O16 0.416353 0.000000 0.755802
O O17 0.363216 0.000000 0.533049
O O18 0.323692 0.000000 0.173717
O O19 0.500000 0.846309 0.000000
O O20 0.983043 0.500000 0.934888
O O21 0.000000 0.741102 0.000000
#
# Coordination Sequence:
#
# PCOD8057207 Si02
#       8
#     4   4   4   4   4   4   4   4
#     4  10  19  30  46  65  85 112 148 182 210 248
#     4   8  12  19  33  58  88 115 141 168 201 246
#     4  10  17  27  47  68  86 111 144 179 212 248
#     4   8  11  17  30  54  90 122 139 158 200 253
#     4   9  15  23  38  64  92 115 141 173 208 249
#     4   9  15  24  40  64  90 112 136 172 213 249
#     4   7  10  15  26  48  85 124 142 153 191 252
#     4  11  23  36  47  59  81 112 146 184 223 257
#
# _framework density 16.358978
#
# number of rings (size 3 to 8) (size 9 to 14) (size 15 to 20)
#    0.000    3.000    2.500    2.250    0.000    2.000 
#    0.000    0.000    0.000    2.250    0.000    0.875 
#    0.000   12.500    0.000    0.000    0.000    0.000 
#
# Total GULP energy -396423.503921 kJ/mol
# GULP energy per Si atom -12388.234498 kJ/mol
# Density = 1.632174 g / cm^3
# Si number density = 16.358978 Si / 1000 Ang^3
#
#
#
# Elastic Constant Matrix: (Units=GPa)
#
#
# Indices 1 2 3 4 5 6 
#
# 1 123.0657 14.4890 73.8412 0.0000 19.5338 0.0000
# 2 14.4890 15.0411 19.5900 0.0000 2.2788 0.0000
# 3 73.8412 19.5900 100.7452 0.0000 19.5514 0.0000
# 4 0.0000 0.0000 0.0000 -3.3895 0.0000 2.1463
# 5 19.5338 2.2788 19.5514 0.0000 33.1256 0.0000
# 6 0.0000 0.0000 0.0000 2.1463 0.0000 6.0115
#
#
#
# Elastic Compliance Matrix: (Units=1/GPa)
#
#
# Indices 1 2 3 4 5 6 
#
# 1 0.014705 -0.000528 -0.010163 0.000000 -0.002636 0.000000
# 2 -0.000528 0.089683 -0.017974 0.000000 0.004750 0.000000
# 3 -0.010163 -0.017974 0.021985 0.000000 -0.005747 0.000000
# 4 0.000000 0.000000 0.000000 -0.240624 0.000000 0.085912
# 5 -0.002636 0.004750 -0.005747 0.000000 0.034808 0.000000
# 6 0.000000 0.000000 0.000000 0.085912 0.000000 0.135675
#
#
# Mechanical properties :
#
#
# Convention : Reuss Voigt Hill
#
# Bulk Modulus (GPa) = 14.48383 50.52136 32.50260
# Shear Modulus (GPa) = 36.60962 15.87829 26.24396
#
# Velocity S-wave (km/s) = 4.73577 3.11885 4.00966
# Velocity P-wave (km/s) = 6.22706 6.62719 6.43024
#
# Compressibility (1/GPa) = 0.06904250
#
# Stress axis : x y z
#
# Youngs Moduli (GPa) = 68.00623 11.15038 45.48462
#
# Poissons Ratio (x) = 0.00589 0.46228
# Poissons Ratio (y) = 0.03593 0.81752
# Poissons Ratio (z) = 0.69117 0.20041
#
# Static dielectric constant tensor:
#      x y z
#    x 3.318350 0.000000 0.388890 
#    y 0.000000 2.470310 0.000000 
#    z 0.388890 0.000000 3.211710 
# 
# 
# High freq. dielectric constant tensor:
#      x y z
#    x 1.621360 0.000000 0.027710 
#    y 0.000000 1.563700 0.000000 
#    z 0.027710 0.000000 1.622410 
# 
# From -- ./inp_files/52755.got.cif
#   From: 2010.06.25/outbox.cif.g09.slc.cpg/sg10_27_cif.got.tgz:52755.got - 2010.06.27 22:07:45.
