data_PCOD8057846
_publ_section_title
;
Structure prediction by ZEFSAII (Michael W. Deem and Ramdas Pophale) SiO2 
 PCOD8057846
Probable space group: P 2/M
;
_chemical_formula_sum "Si O2"
_cell_formula_units_Z 32
_cell_length_a 12.687384
_cell_length_b 9.097979
_cell_length_c 16.930289
_cell_angle_alpha 90.000000
_cell_angle_beta 89.739166
_cell_angle_gamma 90.000000
_cell_volume 1954.235444
_symmetry_space_group_name_H-M "P 2/M"
_symmetry_group_IT_number 10
_symmetry_cell_setting 'monoclinic'
loop_
_space_group_symop_operation_xyz
x,y,z
-x,y,-z
-x,-y,-z
x,-y,z
loop_
_atom_site_type_symbol
_atom_site_label
_atom_site_fract_x
_atom_site_fract_y
_atom_site_fract_z
Si Si1 0.998287 0.825110 0.911189
Si Si2 0.103349 0.829949 0.343351
Si Si3 0.125061 0.661923 0.493173
Si Si4 0.204061 0.169771 0.180209
Si Si5 0.201302 0.174526 0.814028
Si Si6 0.624545 0.328698 0.088104
Si Si7 0.618016 0.330029 0.908409
Si Si8 0.882357 0.325733 0.333164
O O1 0.895001 0.762777 0.867533
O O2 0.101990 0.769676 0.865582
O O3 0.996880 0.000000 0.911058
O O4 0.000000 0.762188 0.000000
O O5 0.158250 0.775371 0.424445
O O6 0.187429 0.805610 0.273478
O O7 0.998862 0.740093 0.322715
O O8 0.071564 0.000000 0.351682
O O9 0.168660 0.500000 0.470885
O O10 0.165948 0.710564 0.579706
O O11 0.000000 0.655725 0.500000
O O12 0.312208 0.244777 0.154990
O O13 0.214208 0.000000 0.158876
O O14 0.307293 0.225978 0.855874
O O15 0.196084 0.250840 0.728640
O O16 0.202291 0.000000 0.803581
O O17 0.651304 0.500000 0.101437
O O18 0.503477 0.296034 0.109386
O O19 0.646963 0.282744 0.997538
O O20 0.641903 0.500000 0.897511
O O21 0.889354 0.500000 0.319734
#
# Coordination Sequence:
#
# PCOD8057846 Si02
#       8
#     4   4   4   4   4   4   4   4
#     4   9  17  29  43  62  94 129 155 187 233 280
#     4  10  18  29  45  68  98 129 159 197 239 282
#     4   8  16  29  44  64  91 126 163 194 231 280
#     4  10  19  31  46  69 100 128 158 198 241 283
#     4  11  20  31  49  72  97 127 163 197 238 290
#     4   9  19  36  52  69  95 124 160 207 250 281
#     4   9  19  35  53  70  92 125 164 205 244 285
#     4  10  19  31  46  66  97 131 160 196 237 281
#
# _framework density 16.374690000000001
#
# number of rings (size 3 to 8) (size 9 to 14) (size 15 to 20)
#    0.000    2.500    1.250    3.375    0.000    5.750 
#    0.000    1.250    0.000    2.625    0.000    0.875 
#    0.000    7.000    0.000    0.000    0.000    0.000 
#
# Total GULP energy -396751.045583 kJ/mol
# GULP energy per Si atom -12398.470174 kJ/mol
# Density = 1.633742 g / cm^3
# Si number density = 16.374690 Si / 1000 Ang^3
#
#
#
# Elastic Constant Matrix: (Units=GPa)
#
#
# Indices 1 2 3 4 5 6 
#
# 1 71.5283 40.0286 50.7780 0.0000 -1.5201 0.0000
# 2 40.0286 77.0827 59.3480 0.0000 0.0223 0.0000
# 3 50.7780 59.3480 130.8574 0.0000 3.9541 0.0000
# 4 0.0000 0.0000 0.0000 29.1769 0.0000 0.8505
# 5 -1.5201 0.0223 3.9541 0.0000 18.2614 0.0000
# 6 0.0000 0.0000 0.0000 0.8505 0.0000 25.2083
#
#
#
# Elastic Compliance Matrix: (Units=1/GPa)
#
#
# Indices 1 2 3 4 5 6 
#
# 1 0.021867 -0.007305 -0.005262 0.000000 0.002969 0.000000
# 2 -0.007305 0.022443 -0.007373 0.000000 0.000961 0.000000
# 3 -0.005262 -0.007373 0.013127 0.000000 -0.003271 0.000000
# 4 0.000000 0.000000 0.000000 0.034307 0.000000 -0.001158
# 5 0.002969 0.000961 -0.003271 0.000000 0.055714 0.000000
# 6 0.000000 0.000000 0.000000 -0.001158 0.000000 0.039709
#
#
# Mechanical properties :
#
#
# Convention : Reuss Voigt Hill
#
# Bulk Modulus (GPa) = 56.95862 64.41973 60.68917
# Shear Modulus (GPa) = 21.46854 23.15023 22.30938
#
# Velocity S-wave (km/s) = 3.62481 3.76411 3.69512
# Velocity P-wave (km/s) = 7.23734 7.63661 7.43965
#
# Compressibility (1/GPa) = 0.01755661
#
# Stress axis : x y z
#
# Youngs Moduli (GPa) = 45.73094 44.55757 76.18174
#
# Poissons Ratio (x) = 0.32549 0.40087
# Poissons Ratio (y) = 0.33406 0.56169
# Poissons Ratio (z) = 0.24064 0.32852
#
# Static dielectric constant tensor:
#      x y z
#    x 2.795850 0.000000 0.045670 
#    y 0.000000 3.013460 0.000000 
#    z 0.045670 0.000000 3.398460 
# 
# 
# High freq. dielectric constant tensor:
#      x y z
#    x 1.592370 0.000000 0.002500 
#    y 0.000000 1.626310 0.000000 
#    z 0.002500 0.000000 1.638590 
# 
# From -- ./inp_files/54813.got.cif
#   From: 2010.06.25/outbox.cif.g09.slc.cpg/sg10_28_cif.got.tgz:54813.got - 2010.06.27 22:07:45.
