data_PCOD8057255
_publ_section_title
;
Structure prediction by ZEFSAII (Michael W. Deem and Ramdas Pophale) SiO2 
 PCOD8057255
Probable space group: P 2/M
;
_chemical_formula_sum "Si O2"
_cell_formula_units_Z 16
_cell_length_a 10.066979
_cell_length_b 16.887314
_cell_length_c 5.216737
_cell_angle_alpha 90.000000
_cell_angle_beta 122.043887
_cell_angle_gamma 90.000000
_cell_volume 751.745994
_symmetry_space_group_name_H-M "P 2/M"
_symmetry_group_IT_number 10
_symmetry_cell_setting 'monoclinic'
loop_
_space_group_symop_operation_xyz
x,y,z
-x,y,-z
-x,-y,-z
x,-y,z
loop_
_atom_site_type_symbol
_atom_site_label
_atom_site_fract_x
_atom_site_fract_y
_atom_site_fract_z
Si Si1 0.324754 0.408389 0.250715
Si Si2 0.821358 0.160163 0.536898
Si Si3 0.169475 0.907477 0.951676
Si Si4 0.824963 0.342194 0.404269
O O1 0.500000 0.382779 0.500000
O O2 0.313429 0.500000 0.162355
O O3 0.216432 0.394119 0.388775
O O4 0.281099 0.358541 0.953176
O O5 0.739812 0.111736 0.219703
O O6 0.804336 0.252423 0.471633
O O7 0.002186 0.135191 0.751146
O O8 0.737671 0.132928 0.715653
O O9 0.147708 0.000000 0.976986
O O10 0.000000 0.363112 0.500000
#
# Coordination Sequence:
#
# PCOD8057255 Si02
#       4
#     4   4   4   4
#     4  11  26  46  64  85 120 164 208 249 299 373
#     4  10  18  29  46  80 119 154 180 243 296 347
#     4  10  17  28  47  74 123 167 187 222 299 363
#     4  12  23  38  66  94 125 157 193 262 316 353
#
# _framework density 21.283783
#
# number of rings (size 3 to 8) (size 9 to 14) (size 15 to 20)
#    0.000    1.250    2.500    7.500    3.500    5.000 
#    0.000    0.000    0.000    0.000    0.000    0.000 
#    0.000  116.000    0.000    0.000    0.000    0.000 
#
# Total GULP energy -198300.522121 kJ/mol
# GULP energy per Si atom -12393.782633 kJ/mol
# Density = 2.123534 g / cm^3
# Si number density = 21.283783 Si / 1000 Ang^3
#
#
#
# Elastic Constant Matrix: (Units=GPa)
#
#
# Indices 1 2 3 4 5 6 
#
# 1 57.1838 34.4439 54.3546 0.0000 -30.4857 0.0000
# 2 34.4439 121.4436 73.2196 0.0000 -0.0486 0.0000
# 3 54.3546 73.2196 164.9942 0.0000 -49.4646 0.0000
# 4 0.0000 0.0000 0.0000 42.8099 0.0000 -18.1495
# 5 -30.4857 -0.0486 -49.4646 0.0000 46.2984 0.0000
# 6 0.0000 0.0000 0.0000 -18.1495 0.0000 7.1259
#
#
#
# Elastic Compliance Matrix: (Units=1/GPa)
#
#
# Indices 1 2 3 4 5 6 
#
# 1 0.036572 -0.010023 -0.000565 0.000000 0.023467 0.000000
# 2 -0.010023 0.016314 -0.008697 0.000000 -0.015874 0.000000
# 3 -0.000565 -0.008697 0.014701 0.000000 0.015325 0.000000
# 4 0.000000 0.000000 0.000000 -0.292700 0.000000 -0.745498
# 5 0.023467 -0.015874 0.015325 0.000000 0.053407 0.000000
# 6 0.000000 0.000000 0.000000 -0.745498 0.000000 -1.758428
#
#
# Mechanical properties :
#
#
# Convention : Reuss Voigt Hill
#
# Bulk Modulus (GPa) = 34.46130 74.18421 54.32275
# Shear Modulus (GPa) = -2.65690 31.35375 14.34842
#
# Velocity S-wave (km/s) = -1.11850 3.84230 2.59925
# Velocity P-wave (km/s) = 3.81555 7.39018 5.88104
#
# Compressibility (1/GPa) = 0.02901806
#
# Stress axis : x y z
#
# Youngs Moduli (GPa) = 27.34308 61.29731 68.02424
#
# Poissons Ratio (x) = 0.61436 0.03843
# Poissons Ratio (y) = 0.27405 0.59159
# Poissons Ratio (z) = 0.01545 0.53309
#
# Static dielectric constant tensor:
#      x y z
#    x 5.151640 0.000000 -2.620330 
#    y 0.000000 3.814520 0.000000 
#    z -2.620330 0.000000 7.115060 
# 
# 
# High freq. dielectric constant tensor:
#      x y z
#    x 1.802360 0.000000 -0.053620 
#    y 0.000000 1.844750 0.000000 
#    z -0.053620 0.000000 1.847260 
# 
# From -- ./inp_files/4240.got.cif
#   From: 2010.06.25/outbox.cif.g09.slc.cpg/sg10_3_cif.got.tgz:4240.got - 2010.06.27 22:07:45.
