data_PCOD8057583
_publ_section_title
;
Structure prediction by ZEFSAII (Michael W. Deem and Ramdas Pophale) SiO2 
 PCOD8057583
Probable space group: P 2/M
;
_chemical_formula_sum "Si O2"
_cell_formula_units_Z 32
_cell_length_a 16.282047
_cell_length_b 12.977514
_cell_length_c 9.869504
_cell_angle_alpha 90.000000
_cell_angle_beta 107.217693
_cell_angle_gamma 90.000000
_cell_volume 1991.976641
_symmetry_space_group_name_H-M "P 2/M"
_symmetry_group_IT_number 10
_symmetry_cell_setting 'monoclinic'
loop_
_space_group_symop_operation_xyz
x,y,z
-x,y,-z
-x,-y,-z
x,-y,z
loop_
_atom_site_type_symbol
_atom_site_label
_atom_site_fract_x
_atom_site_fract_y
_atom_site_fract_z
Si Si1 0.510467 0.111859 0.849480
Si Si2 0.389091 0.296593 0.787550
Si Si3 0.877534 0.380192 0.691178
Si Si4 0.636528 0.718146 0.917182
Si Si5 0.191028 0.619740 0.060284
Si Si6 0.790720 0.378687 0.369707
Si Si7 0.517130 0.615383 0.654765
Si Si8 0.065768 0.381986 0.761405
O O1 0.432678 0.187428 0.763495
O O2 0.604740 0.164549 0.873605
O O3 0.506847 0.000000 0.771774
O O4 0.500000 0.088620 0.000000
O O5 0.288774 0.304504 0.704069
O O6 0.436382 0.381145 0.718173
O O7 0.402676 0.315982 0.955423
O O8 0.894217 0.500000 0.726495
O O9 0.831679 0.336567 0.802619
O O10 0.813292 0.360928 0.536703
O O11 0.971504 0.328261 0.711809
O O12 0.738127 0.697185 0.968299
O O13 0.600779 0.655107 0.772909
O O14 0.223100 0.500000 0.074629
O O15 0.105238 0.630285 0.929696
O O16 0.770855 0.500000 0.328231
O O17 0.869848 0.335378 0.319191
O O18 0.500000 0.671956 0.500000
O O19 0.539944 0.500000 0.628420
O O20 0.053879 0.500000 0.713026
#
# Coordination Sequence:
#
# PCOD8057583 Si02
#       8
#     4   4   4   4   4   4   4   4
#     4   8  16  32  52  69  86 107 139 190 238 276
#     4  10  19  31  47  67  88 115 150 186 225 267
#     4   9  18  28  40  59  89 128 158 183 217 250
#     4  10  19  31  47  67  88 115 150 186 225 267
#     4  10  18  27  42  64  91 122 156 186 214 255
#     4  10  18  27  42  64  91 122 156 186 214 255
#     4  10  21  31  42  61  90 123 151 178 214 262
#     4   9  16  28  42  59  87 122 158 191 217 250
#
# _framework density 16.064446
#
# number of rings (size 3 to 8) (size 9 to 14) (size 15 to 20)
#    0.000    2.500    1.250    2.625    1.750    5.000 
#    0.000    0.000    0.000    6.000    0.000    0.000 
#    0.000    6.000    0.000    0.000    0.000    0.000 
#
# Total GULP energy -396420.790607 kJ/mol
# GULP energy per Si atom -12388.149706 kJ/mol
# Density = 1.602788 g / cm^3
# Si number density = 16.064446 Si / 1000 Ang^3
#
#
#
# Elastic Constant Matrix: (Units=GPa)
#
#
# Indices 1 2 3 4 5 6 
#
# 1 74.5770 23.6210 6.9686 0.0000 6.7253 0.0000
# 2 23.6210 58.7295 11.5455 0.0000 7.6259 0.0000
# 3 6.9686 11.5455 81.0458 0.0000 -1.5735 0.0000
# 4 0.0000 0.0000 0.0000 6.6737 0.0000 1.1391
# 5 6.7253 7.6259 -1.5735 0.0000 25.3146 0.0000
# 6 0.0000 0.0000 0.0000 1.1391 0.0000 19.8078
#
#
#
# Elastic Compliance Matrix: (Units=1/GPa)
#
#
# Indices 1 2 3 4 5 6 
#
# 1 0.015521 -0.005822 -0.000552 0.000000 -0.002404 0.000000
# 2 -0.005822 0.020483 -0.002510 0.000000 -0.004780 0.000000
# 3 -0.000552 -0.002510 0.012777 0.000000 0.001697 0.000000
# 4 0.000000 0.000000 0.000000 0.151327 0.000000 -0.008702
# 5 -0.002404 -0.004780 0.001697 0.000000 0.041687 0.000000
# 6 0.000000 0.000000 0.000000 -0.008702 0.000000 0.050986
#
#
# Mechanical properties :
#
#
# Convention : Reuss Voigt Hill
#
# Bulk Modulus (GPa) = 32.24467 33.18030 32.71248
# Shear Modulus (GPa) = 15.58186 21.84038 18.71112
#
# Velocity S-wave (km/s) = 3.11780 3.69120 3.41655
# Velocity P-wave (km/s) = 5.75122 6.23426 5.99760
#
# Compressibility (1/GPa) = 0.03101288
#
# Stress axis : x y z
#
# Youngs Moduli (GPa) = 64.42742 48.82118 78.26763
#
# Poissons Ratio (x) = 0.28424 0.04319
# Poissons Ratio (y) = 0.37510 0.19646
# Poissons Ratio (z) = 0.03556 0.12255
#
# Static dielectric constant tensor:
#      x y z
#    x 3.168520 0.000000 -0.049010 
#    y 0.000000 2.721380 0.000000 
#    z -0.049010 0.000000 3.158800 
# 
# 
# High freq. dielectric constant tensor:
#      x y z
#    x 1.623740 0.000000 -0.001360 
#    y 0.000000 1.544340 0.000000 
#    z -0.001360 0.000000 1.628930 
# 
# From -- ./inp_files/29144.got.cif
#   From: 2010.06.25/outbox.cif.g09.slc.cpg/sg10_15_cif.got.tgz:29144.got - 2010.06.27 22:07:45.
