data_PCOD8057825
_publ_section_title
;
Structure prediction by ZEFSAII (Michael W. Deem and Ramdas Pophale) SiO2 
 PCOD8057825
Probable space group: P 2/M
;
_chemical_formula_sum "Si O2"
_cell_formula_units_Z 30
_cell_length_a 11.812248
_cell_length_b 13.807321
_cell_length_c 20.818104
_cell_angle_alpha 90.000000
_cell_angle_beta 28.977942
_cell_angle_gamma 90.000000
_cell_volume 1644.949665
_symmetry_space_group_name_H-M "P 2/M"
_symmetry_group_IT_number 10
_symmetry_cell_setting 'monoclinic'
loop_
_space_group_symop_operation_xyz
x,y,z
-x,y,-z
-x,-y,-z
x,-y,z
loop_
_atom_site_type_symbol
_atom_site_label
_atom_site_fract_x
_atom_site_fract_y
_atom_site_fract_z
Si Si1 0.087832 0.609512 0.528114
Si Si2 0.246160 0.769002 0.003434
Si Si3 0.000000 0.723963 0.000000
Si Si4 0.217281 0.609820 0.117643
Si Si5 0.252001 0.265293 0.216525
Si Si6 0.222152 0.892143 0.134901
Si Si7 0.704361 0.389946 0.358258
Si Si8 0.622407 0.386247 0.260943
O O1 0.069575 0.500000 0.565871
O O2 0.353216 0.646629 0.393986
O O3 0.000000 0.609822 0.500000
O O4 0.933654 0.683488 0.645872
O O5 0.219868 0.662190 0.047411
O O6 0.150264 0.848762 0.101394
O O7 0.095464 0.785910 0.013356
O O8 0.527940 0.776725 0.852026
O O9 0.773278 0.660770 0.129621
O O10 0.303550 0.500000 0.065158
O O11 0.353842 0.660137 0.110264
O O12 0.947039 0.614454 0.276043
O O13 0.128145 0.176594 0.239212
O O14 0.116598 0.000000 0.194809
O O15 0.500000 0.893738 0.000000
O O16 0.500000 0.336233 0.500000
O O17 0.620824 0.500000 0.387611
O O18 0.729264 0.345496 0.274698
O O19 0.644949 0.500000 0.239292
#
# Coordination Sequence:
#
# PCOD8057825 Si02
#       8
#     4   4   2   4   4   4   4   4
#     4  10  20  33  47  70 105 146 185 214 251 301
#     4  10  21  32  48  76 104 134 171 208 256 315
#     4  12  21  34  49  70 108 140 176 218 254 306
#     4  10  18  29  44  68 100 130 169 215 256 294
#     4  10  19  32  52  77 101 131 172 219 261 309
#     4   8  16  34  58  81 103 126 163 217 273 320
#     4   9  16  27  42  61  88 124 169 212 248 289
#     4  10  20  32  46  65  97 146 188 214 245 293
#
# _framework density 18.237639999999999
#
# number of rings (size 3 to 8) (size 9 to 14) (size 15 to 20)
#    0.000    2.267    1.333    3.400    0.000    4.267 
#    0.000    0.333    0.000    0.400    0.000    2.800 
#    0.000    0.000    0.000    0.000    0.000    0.000 
#
# Total GULP energy -371763.468645 kJ/mol
# GULP energy per Si atom -12392.115621 kJ/mol
# Density = 1.819613 g / cm^3
# Si number density = 18.237640 Si / 1000 Ang^3
#
#
#
# Elastic Constant Matrix: (Units=GPa)
#
#
# Indices 1 2 3 4 5 6 
#
# 1 118.4467 25.4140 21.8810 0.0000 1.6917 0.0000
# 2 25.4140 100.4996 26.5971 0.0000 11.5226 0.0000
# 3 21.8810 26.5971 91.5008 0.0000 1.4072 0.0000
# 4 0.0000 0.0000 0.0000 15.9248 0.0000 4.2447
# 5 1.6917 11.5226 1.4072 0.0000 24.2389 0.0000
# 6 0.0000 0.0000 0.0000 4.2447 0.0000 13.0863
#
#
#
# Elastic Compliance Matrix: (Units=1/GPa)
#
#
# Indices 1 2 3 4 5 6 
#
# 1 0.009152 -0.001924 -0.001635 0.000000 0.000371 0.000000
# 2 -0.001924 0.011811 -0.002891 0.000000 -0.005313 0.000000
# 3 -0.001635 -0.002891 0.012148 0.000000 0.000783 0.000000
# 4 0.000000 0.000000 0.000000 0.068738 0.000000 -0.022296
# 5 0.000371 -0.005313 0.000783 0.000000 0.043710 0.000000
# 6 0.000000 0.000000 0.000000 -0.022296 0.000000 0.083648
#
#
# Mechanical properties :
#
#
# Convention : Reuss Voigt Hill
#
# Bulk Modulus (GPa) = 49.47925 50.91459 50.19692
# Shear Modulus (GPa) = 20.09271 26.42032 23.25651
#
# Velocity S-wave (km/s) = 3.32281 3.81027 3.57486
# Velocity P-wave (km/s) = 6.47384 6.88008 6.68005
#
# Compressibility (1/GPa) = 0.02021049
#
# Stress axis : x y z
#
# Youngs Moduli (GPa) = 109.26319 84.66552 82.31628
#
# Poissons Ratio (x) = 0.16291 0.13459
# Poissons Ratio (y) = 0.21024 0.23801
# Poissons Ratio (z) = 0.17864 0.24480
#
# Static dielectric constant tensor:
#      x y z
#    x 3.503850 0.000000 -0.070440 
#    y 0.000000 3.188050 0.000000 
#    z -0.070440 0.000000 3.342480 
# 
# 
# High freq. dielectric constant tensor:
#      x y z
#    x 1.717220 0.000000 -0.004370 
#    y 0.000000 1.651700 0.000000 
#    z -0.004370 0.000000 1.702350 
# 
# From -- ./inp_files/47440.got.cif
#   From: 2010.06.25/outbox.cif.g09.slc.cpg/sg10_24_cif.got.tgz:47440.got - 2010.06.27 22:07:45.
