data_PCOD8057637
_publ_section_title
;
Structure prediction by ZEFSAII (Michael W. Deem and Ramdas Pophale) SiO2 
 PCOD8057637
Probable space group: P 2/M
;
_chemical_formula_sum "Si O2"
_cell_formula_units_Z 32
_cell_length_a 16.713406
_cell_length_b 8.821832
_cell_length_c 23.276715
_cell_angle_alpha 90.000000
_cell_angle_beta 36.855972
_cell_angle_gamma 90.000000
_cell_volume 2058.523885
_symmetry_space_group_name_H-M "P 2/M"
_symmetry_group_IT_number 10
_symmetry_cell_setting 'monoclinic'
loop_
_space_group_symop_operation_xyz
x,y,z
-x,y,-z
-x,-y,-z
x,-y,z
loop_
_atom_site_type_symbol
_atom_site_label
_atom_site_fract_x
_atom_site_fract_y
_atom_site_fract_z
Si Si1 0.790816 0.323636 0.382343
Si Si2 0.062383 0.821573 0.232656
Si Si3 0.475812 0.171096 0.446400
Si Si4 0.988005 0.175525 0.074086
Si Si5 0.441911 0.330515 0.947379
Si Si6 0.702174 0.328243 0.848197
Si Si7 0.822014 0.318464 0.947870
Si Si8 0.256815 0.323410 0.723760
O O1 0.806149 0.500000 0.387372
O O2 0.659558 0.261471 0.489842
O O3 0.782419 0.292489 0.319340
O O4 0.916364 0.233060 0.335930
O O5 0.165811 0.774709 0.223889
O O6 0.066003 0.000000 0.221940
O O7 0.094372 0.741988 0.154023
O O8 0.500000 0.172689 0.500000
O O9 0.598651 0.254030 0.344601
O O10 0.464085 0.000000 0.429815
O O11 0.849189 0.243881 0.174551
O O12 0.992811 0.000000 0.088157
O O13 0.113518 0.259110 0.030837
O O14 0.000000 0.202918 0.000000
O O15 0.473368 0.500000 0.909323
O O16 0.589873 0.254818 0.868943
O O17 0.333535 0.258741 0.965287
O O18 0.365829 0.332035 0.051105
O O19 0.741412 0.500000 0.807652
O O20 0.827249 0.500000 0.942437
O O21 0.260125 0.500000 0.735945
#
# Coordination Sequence:
#
# PCOD8057637 Si02
#       8
#     4   4   4   4   4   4   4   4
#     4  10  18  28  42  61  83 110 144 176 204 246
#     4  11  19  25  37  58  85 112 139 172 209 246
#     4   9  17  28  43  62  84 107 133 169 211 252
#     4  11  23  35  46  62  84 109 140 181 225 260
#     4   7  12  23  40  56  72  98 134 171 204 242
#     4   8  13  24  38  53  75 104 136 167 200 241
#     4  10  18  30  45  59  75 103 141 177 213 253
#     4  10  19  31  47  62  79 106 141 177 210 252
#
# _framework density 15.545120000000001
#
# number of rings (size 3 to 8) (size 9 to 14) (size 15 to 20)
#    0.000    2.500    1.250    4.500    0.000    3.500 
#    0.000    5.625    0.000    0.000    0.000    0.000 
#    0.000    0.000    0.000    1.125    0.000   21.750 
#
# Total GULP energy -396523.510492 kJ/mol
# GULP energy per Si atom -12391.359703 kJ/mol
# Density = 1.550974 g / cm^3
# Si number density = 15.545120 Si / 1000 Ang^3
#
#
#
# Elastic Constant Matrix: (Units=GPa)
#
#
# Indices 1 2 3 4 5 6 
#
# 1 74.8059 47.6682 55.9162 0.0000 -30.4213 0.0000
# 2 47.6682 96.5731 42.3784 0.0000 -19.3526 0.0000
# 3 55.9162 42.3784 70.3206 0.0000 -29.0392 0.0000
# 4 0.0000 0.0000 0.0000 20.5446 0.0000 -3.3625
# 5 -30.4213 -19.3526 -29.0392 0.0000 25.6491 0.0000
# 6 0.0000 0.0000 0.0000 -3.3625 0.0000 7.8767
#
#
#
# Elastic Compliance Matrix: (Units=1/GPa)
#
#
# Indices 1 2 3 4 5 6 
#
# 1 0.041615 -0.007629 -0.019696 0.000000 0.021302 0.000000
# 2 -0.007629 0.015526 -0.004112 0.000000 -0.001989 0.000000
# 3 -0.019696 -0.004112 0.040251 0.000000 0.019108 0.000000
# 4 0.000000 0.000000 0.000000 0.052331 0.000000 0.022340
# 5 0.021302 -0.001989 0.019108 0.000000 0.084385 0.000000
# 6 0.000000 0.000000 0.000000 0.022340 0.000000 0.136494
#
#
# Mechanical properties :
#
#
# Convention : Reuss Voigt Hill
#
# Bulk Modulus (GPa) = 28.97076 59.29166 44.13121
# Shear Modulus (GPa) = 11.23642 17.19653 14.21647
#
# Velocity S-wave (km/s) = 2.69146 3.32962 3.02740
# Velocity P-wave (km/s) = 5.32312 7.28054 6.37738
#
# Compressibility (1/GPa) = 0.03451756
#
# Stress axis : x y z
#
# Youngs Moduli (GPa) = 24.03005 64.40665 24.84428
#
# Poissons Ratio (x) = 0.49136 0.48933
# Poissons Ratio (y) = 0.18333 0.10216
# Poissons Ratio (z) = 0.47330 0.26484
#
# Static dielectric constant tensor:
#      x y z
#    x 3.155940 0.000000 -0.563990 
#    y 0.000000 3.010050 0.000000 
#    z -0.563990 0.000000 2.810370 
# 
# 
# High freq. dielectric constant tensor:
#      x y z
#    x 1.571870 0.000000 -0.054250 
#    y 0.000000 1.599540 0.000000 
#    z -0.054250 0.000000 1.560250 
# 
# From -- ./inp_files/68200.got.cif
#   From: 2010.06.25/outbox.cif.g09.slc.cpg/sg10_35_cif.got.tgz:68200.got - 2010.06.27 22:07:45.
