data_PCOD8057823
_publ_section_title
;
Structure prediction by ZEFSAII (Michael W. Deem and Ramdas Pophale) SiO2 
 PCOD8057823
Probable space group: P 2/M
;
_chemical_formula_sum "Si O2"
_cell_formula_units_Z 32
_cell_length_a 12.296720
_cell_length_b 8.962903
_cell_length_c 18.559449
_cell_angle_alpha 90.000000
_cell_angle_beta 121.307108
_cell_angle_gamma 90.000000
_cell_volume 1747.678077
_symmetry_space_group_name_H-M "P 2/M"
_symmetry_group_IT_number 10
_symmetry_cell_setting 'monoclinic'
loop_
_space_group_symop_operation_xyz
x,y,z
-x,y,-z
-x,-y,-z
x,-y,z
loop_
_atom_site_type_symbol
_atom_site_label
_atom_site_fract_x
_atom_site_fract_y
_atom_site_fract_z
Si Si1 0.816495 0.826741 0.231934
Si Si2 0.521663 0.675039 0.786305
Si Si3 0.243673 0.674237 0.642010
Si Si4 0.897328 0.171957 0.699872
Si Si5 0.574509 0.677550 0.096097
Si Si6 0.467472 0.338918 0.568494
Si Si7 0.287591 0.674155 0.260658
Si Si8 0.218044 0.825762 0.489853
O O1 0.819251 0.754779 0.311695
O O2 0.714561 0.748584 0.144408
O O3 0.952599 0.802095 0.241585
O O4 0.783237 0.000000 0.228748
O O5 0.534965 0.500000 0.797788
O O6 0.396894 0.710777 0.693440
O O7 0.501322 0.739422 0.859699
O O8 0.655083 0.733423 0.796849
O O9 0.216672 0.500000 0.641462
O O10 0.173270 0.736772 0.546185
O O11 0.836503 0.244942 0.750651
O O12 0.848833 0.237466 0.605978
O O13 0.859000 0.000000 0.688015
O O14 0.589717 0.500000 0.103239
O O15 0.500000 0.732262 0.000000
O O16 0.500000 0.379380 0.500000
O O17 0.418936 0.500000 0.586626
O O18 0.598049 0.285609 0.647473
O O19 0.367863 0.204780 0.536908
O O20 0.254875 0.500000 0.245768
O O21 0.189303 0.000000 0.490505
#
# Coordination Sequence:
#
# PCOD8057823 Si02
#       8
#     4   4   4   4   4   4   4   4
#     4  10  21  38  55  74 104 138 173 211 258 314
#     4   8  15  29  50  77 105 129 157 206 262 303
#     4  10  19  34  53  73 101 134 175 226 271 306
#     4  10  23  37  47  67 104 145 180 219 260 303
#     4   9  18  35  61  89 111 130 158 203 260 318
#     4  10  18  29  44  66  96 132 175 227 271 299
#     4  10  18  30  50  72  98 135 177 217 258 307
#     4  11  21  31  46  69  98 138 183 223 267 311
#
# _framework density 18.310008
#
# number of rings (size 3 to 8) (size 9 to 14) (size 15 to 20)
#    0.000    2.250    2.500    1.875    0.000    3.000 
#    0.000    3.125    0.000    0.750    0.000    5.250 
#    0.000    0.000    0.000    0.000    0.000    0.000 
#
# Total GULP energy -396485.215074 kJ/mol
# GULP energy per Si atom -12390.162971 kJ/mol
# Density = 1.826833 g / cm^3
# Si number density = 18.310008 Si / 1000 Ang^3
#
#
#
# Elastic Constant Matrix: (Units=GPa)
#
#
# Indices 1 2 3 4 5 6 
#
# 1 111.3846 38.3838 45.8294 0.0000 -4.0048 0.0000
# 2 38.3838 53.8718 29.0132 0.0000 0.4901 0.0000
# 3 45.8294 29.0132 94.4681 0.0000 -11.2421 0.0000
# 4 0.0000 0.0000 0.0000 18.6429 0.0000 0.9004
# 5 -4.0048 0.4901 -11.2421 0.0000 16.8118 0.0000
# 6 0.0000 0.0000 0.0000 0.9004 0.0000 28.9669
#
#
#
# Elastic Compliance Matrix: (Units=1/GPa)
#
#
# Indices 1 2 3 4 5 6 
#
# 1 0.013162 -0.007168 -0.004113 0.000000 0.000594 0.000000
# 2 -0.007168 0.026654 -0.005437 0.000000 -0.006120 0.000000
# 3 -0.004113 -0.005437 0.015377 0.000000 0.009461 0.000000
# 4 0.000000 0.000000 0.000000 0.053720 0.000000 -0.001670
# 5 0.000594 -0.006120 0.009461 0.000000 0.066129 0.000000
# 6 0.000000 0.000000 0.000000 -0.001670 0.000000 0.034574
#
#
# Mechanical properties :
#
#
# Convention : Reuss Voigt Hill
#
# Bulk Modulus (GPa) = 45.96391 54.01968 49.99180
# Shear Modulus (GPa) = 19.97584 22.65087 21.31335
#
# Velocity S-wave (km/s) = 3.30658 3.52102 3.41549
# Velocity P-wave (km/s) = 6.30362 6.78948 6.55106
#
# Compressibility (1/GPa) = 0.02175620
#
# Stress axis : x y z
#
# Youngs Moduli (GPa) = 75.97792 37.51851 65.03396
#
# Poissons Ratio (x) = 0.26893 0.26749
# Poissons Ratio (y) = 0.54461 0.35357
# Poissons Ratio (z) = 0.31250 0.20398
#
# Static dielectric constant tensor:
#      x y z
#    x 3.527100 0.000000 -0.258530 
#    y 0.000000 3.188320 0.000000 
#    z -0.258530 0.000000 3.270460 
# 
# 
# High freq. dielectric constant tensor:
#      x y z
#    x 1.712580 0.000000 -0.017380 
#    y 0.000000 1.694860 0.000000 
#    z -0.017380 0.000000 1.678720 
# 
# From -- ./inp_files/83389.got.cif
#   From: 2010.06.25/outbox.cif.g09.slc.cpg/sg10_42_cif.got.tgz:83389.got - 2010.06.27 22:07:45.
