data_PCOD8057900
_publ_section_title
;
Structure prediction by ZEFSAII (Michael W. Deem and Ramdas Pophale) SiO2 
 PCOD8057900
Probable space group: P 2/M
;
_chemical_formula_sum "Si O2"
_cell_formula_units_Z 28
_cell_length_a 23.794182
_cell_length_b 11.848959
_cell_length_c 18.007444
_cell_angle_alpha 90.000000
_cell_angle_beta 19.093935
_cell_angle_gamma 90.000000
_cell_volume 1660.761693
_symmetry_space_group_name_H-M "P 2/M"
_symmetry_group_IT_number 10
_symmetry_cell_setting 'monoclinic'
loop_
_space_group_symop_operation_xyz
x,y,z
-x,y,-z
-x,-y,-z
x,-y,z
loop_
_atom_site_type_symbol
_atom_site_label
_atom_site_fract_x
_atom_site_fract_y
_atom_site_fract_z
Si Si1 0.159040 0.761584 0.505349
Si Si2 0.136938 0.371679 0.048154
Si Si3 0.227244 0.000000 0.369125
Si Si4 0.507109 0.628328 0.307836
Si Si5 0.322978 0.626091 0.177013
Si Si6 0.661655 0.632917 0.338314
Si Si7 0.512161 0.238406 0.152251
Si Si8 0.580040 0.000000 0.016359
O O1 0.180101 0.689001 0.404146
O O2 0.325531 0.751693 0.348935
O O3 0.997548 0.716453 0.751963
O O4 0.122513 0.890130 0.526293
O O5 0.064647 0.500000 0.143414
O O6 0.314304 0.363221 0.871390
O O7 0.167778 0.336084 0.922474
O O8 0.255743 0.000000 0.244251
O O9 0.412933 0.000000 0.174157
O O10 0.480774 0.500000 0.311198
O O11 0.348235 0.663848 0.561559
O O12 0.503344 0.716416 0.246199
O O13 0.257691 0.500000 0.242291
O O14 0.500000 0.626176 0.000000
O O15 0.348645 0.688966 0.067070
O O16 0.500000 0.692492 0.500000
O O17 0.637063 0.500000 0.362848
O O18 0.579898 0.109883 0.068920
#
# Coordination Sequence:
#
# PCOD8057900 Si02
#       8
#     4   4   2   4   4   4   4   2
#     4  10  18  29  47  68  91 119 155 194 226 263
#     4   9  17  30  48  70  95 121 149 183 228 279
#     4   9  16  30  49  66  85 120 166 197 219 258
#     4   9  17  30  48  70  95 121 149 183 228 279
#     4   9  16  25  40  64  91 117 144 177 220 270
#     4   7  12  26  47  66  87 120 154 179 214 275
#     4  10  18  29  47  68  91 119 155 194 226 263
#     4   9  16  30  49  66  85 120 166 197 219 258
#
# _framework density 16.859734
#
# number of rings (size 3 to 8) (size 9 to 14) (size 15 to 20)
#    0.000    3.000    1.429    2.571    0.000    1.714 
#    0.000    2.143    0.000    6.857    0.000    6.000 
#    0.000    0.000    0.000    0.000    0.000    0.000 
#
# Total GULP energy -346922.575448 kJ/mol
# GULP energy per Si atom -12390.091980 kJ/mol
# Density = 1.682136 g / cm^3
# Si number density = 16.859734 Si / 1000 Ang^3
#
#
#
# Elastic Constant Matrix: (Units=GPa)
#
#
# Indices 1 2 3 4 5 6 
#
# 1 68.4295 48.3298 42.3814 0.0000 36.5495 0.0000
# 2 48.3298 138.3009 60.1654 0.0000 32.2704 0.0000
# 3 42.3814 60.1654 97.2446 0.0000 41.8985 0.0000
# 4 0.0000 0.0000 0.0000 13.8613 0.0000 -1.8670
# 5 36.5495 32.2704 41.8985 0.0000 34.2262 0.0000
# 6 0.0000 0.0000 0.0000 -1.8670 0.0000 14.5275
#
#
#
# Elastic Compliance Matrix: (Units=1/GPa)
#
#
# Indices 1 2 3 4 5 6 
#
# 1 0.037014 -0.005606 0.004422 0.000000 -0.039655 0.000000
# 2 -0.005606 0.010992 -0.005230 0.000000 0.002025 0.000000
# 3 0.004422 -0.005230 0.024340 0.000000 -0.029587 0.000000
# 4 0.000000 0.000000 0.000000 0.073414 0.000000 0.009435
# 5 -0.039655 0.002025 -0.029587 0.000000 0.105874 0.000000
# 6 0.000000 0.000000 0.000000 0.009435 0.000000 0.070048
#
#
# Mechanical properties :
#
#
# Convention : Reuss Voigt Hill
#
# Bulk Modulus (GPa) = 16.80137 67.30313 42.05225
# Shear Modulus (GPa) = 14.11036 22.72957 18.41996
#
# Velocity S-wave (km/s) = 2.89611 3.67571 3.30895
# Velocity P-wave (km/s) = 4.60112 7.61712 6.29249
#
# Compressibility (1/GPa) = 0.05951897
#
# Stress axis : x y z
#
# Youngs Moduli (GPa) = 27.01653 90.97125 41.08517
#
# Poissons Ratio (x) = 0.50996 -0.18169
# Poissons Ratio (y) = 0.15145 0.21489
# Poissons Ratio (z) = -0.11947 0.47581
#
# Static dielectric constant tensor:
#      x y z
#    x 3.009160 0.000000 0.435740 
#    y 0.000000 3.177750 0.000000 
#    z 0.435740 0.000000 3.168570 
# 
# 
# High freq. dielectric constant tensor:
#      x y z
#    x 1.626250 0.000000 0.031960 
#    y 0.000000 1.633980 0.000000 
#    z 0.031960 0.000000 1.637930 
# 
# From -- ./inp_files/80225.got.cif
#   From: 2010.06.25/outbox.cif.g09.slc.cpg/sg10_41_cif.got.tgz:80225.got - 2010.06.27 22:07:45.
