data_PCOD8057509
_publ_section_title
;
Structure prediction by ZEFSAII (Michael W. Deem and Ramdas Pophale) SiO2 
 PCOD8057509
Probable space group: P 2/M
;
_chemical_formula_sum "Si O2"
_cell_formula_units_Z 32
_cell_length_a 20.321642
_cell_length_b 9.242781
_cell_length_c 12.000692
_cell_angle_alpha 90.000000
_cell_angle_beta 114.476343
_cell_angle_gamma 90.000000
_cell_volume 2051.503830
_symmetry_space_group_name_H-M "P 2/M"
_symmetry_group_IT_number 10
_symmetry_cell_setting 'monoclinic'
loop_
_space_group_symop_operation_xyz
x,y,z
-x,y,-z
-x,-y,-z
x,-y,z
loop_
_atom_site_type_symbol
_atom_site_label
_atom_site_fract_x
_atom_site_fract_y
_atom_site_fract_z
Si Si1 0.514909 0.660488 0.142325
Si Si2 0.993928 0.666169 0.814464
Si Si3 0.186930 0.332067 0.783788
Si Si4 0.615305 0.165334 0.913126
Si Si5 0.769625 0.168532 0.961883
Si Si6 0.882164 0.334140 0.920022
Si Si7 0.341622 0.665704 0.841880
Si Si8 0.045143 0.167585 0.642560
O O1 0.499659 0.500000 0.174389
O O2 0.459844 0.758142 0.176278
O O3 0.600918 0.699563 0.218227
O O4 0.500000 0.677675 0.000000
O O5 0.989791 0.500000 0.772335
O O6 0.922328 0.707802 0.833662
O O7 0.998445 0.769534 0.711481
O O8 0.064239 0.690361 0.939125
O O9 0.166988 0.500000 0.789764
O O10 0.204523 0.261543 0.914703
O O11 0.256961 0.317269 0.750399
O O12 0.120388 0.251949 0.679400
O O13 0.594941 0.000000 0.912558
O O14 0.683374 0.188408 0.877260
O O15 0.642651 0.223625 0.049390
O O16 0.787721 0.000000 0.995163
O O17 0.812942 0.229410 0.885451
O O18 0.856320 0.500000 0.897567
O O19 0.356013 0.500000 0.893085
O O20 0.000000 0.191219 0.500000
O O21 0.061544 0.000000 0.677045
#
# Coordination Sequence:
#
# PCOD8057509 Si02
#       8
#     4   4   4   4   4   4   4   4
#     4   8  13  22  33  46  67  97 132 165 198 236
#     4   9  18  32  48  66  84 105 137 175 213 253
#     4  10  18  29  44  59  77 104 140 177 211 249
#     4   9  16  22  30  49  76 103 133 165 195 234
#     4  10  18  26  38  59  85 111 138 170 208 247
#     4   9  17  29  46  66  86 106 135 177 214 247
#     4   8  15  25  36  50  69  96 131 170 205 237
#     4  11  23  35  46  63  87 111 138 175 214 253
#
# _framework density 15.598314
#
# number of rings (size 3 to 8) (size 9 to 14) (size 15 to 20)
#    0.000    2.750    1.250    3.000    0.000    5.750 
#    0.000    1.250    0.000    0.000    0.000    0.000 
#    0.000    0.000    0.000    1.125    0.000   22.125 
#
# Total GULP energy -396450.618148 kJ/mol
# GULP energy per Si atom -12389.081817 kJ/mol
# Density = 1.556281 g / cm^3
# Si number density = 15.598314 Si / 1000 Ang^3
#
#
#
# Elastic Constant Matrix: (Units=GPa)
#
#
# Indices 1 2 3 4 5 6 
#
# 1 157.7156 80.3723 31.9085 0.0000 13.5608 0.0000
# 2 80.3723 108.5940 28.6681 0.0000 3.9585 0.0000
# 3 31.9085 28.6681 32.6529 0.0000 -1.2155 0.0000
# 4 0.0000 0.0000 0.0000 13.4033 0.0000 -0.2366
# 5 13.5608 3.9585 -1.2155 0.0000 11.8581 0.0000
# 6 0.0000 0.0000 0.0000 -0.2366 0.0000 24.9778
#
#
#
# Elastic Compliance Matrix: (Units=1/GPa)
#
#
# Indices 1 2 3 4 5 6 
#
# 1 0.012196 -0.006914 -0.006305 0.000000 -0.012285 0.000000
# 2 -0.006914 0.016222 -0.007421 0.000000 0.001731 0.000000
# 3 -0.006305 -0.007421 0.043830 0.000000 0.014180 0.000000
# 4 0.000000 0.000000 0.000000 0.074621 0.000000 0.000707
# 5 -0.012285 0.001731 0.014180 0.000000 0.099255 0.000000
# 6 0.000000 0.000000 0.000000 0.000707 0.000000 0.040042
#
#
# Mechanical properties :
#
#
# Convention : Reuss Voigt Hill
#
# Bulk Modulus (GPa) = 32.29244 64.54004 48.41624
# Shear Modulus (GPa) = 14.80301 20.58207 17.69254
#
# Velocity S-wave (km/s) = 3.08395 3.63644 3.37153
# Velocity P-wave (km/s) = 5.78173 7.68750 6.80170
#
# Compressibility (1/GPa) = 0.03096700
#
# Stress axis : x y z
#
# Youngs Moduli (GPa) = 81.99504 61.64476 22.81556
#
# Poissons Ratio (x) = 0.42622 0.14385
# Poissons Ratio (y) = 0.56692 0.16932
# Poissons Ratio (z) = 0.51696 0.45749
#
# Static dielectric constant tensor:
#      x y z
#    x 3.701710 0.000000 0.205300 
#    y 0.000000 3.074280 0.000000 
#    z 0.205300 0.000000 2.328250 
# 
# 
# High freq. dielectric constant tensor:
#      x y z
#    x 1.625990 0.000000 0.015800 
#    y 0.000000 1.610470 0.000000 
#    z 0.015800 0.000000 1.506220 
# 
# From -- ./inp_files/54938.got.cif
#   From: 2010.06.25/outbox.cif.g09.slc.cpg/sg10_28_cif.got.tgz:54938.got - 2010.06.27 22:07:45.
