data_PCOD8057953
_publ_section_title
;
Structure prediction by ZEFSAII (Michael W. Deem and Ramdas Pophale) SiO2 
 PCOD8057953
Probable space group: P 2/M
;
_chemical_formula_sum "Si O2"
_cell_formula_units_Z 32
_cell_length_a 20.189657
_cell_length_b 9.286354
_cell_length_c 14.377493
_cell_angle_alpha 90.000000
_cell_angle_beta 137.330895
_cell_angle_gamma 90.000000
_cell_volume 1826.986691
_symmetry_space_group_name_H-M "P 2/M"
_symmetry_group_IT_number 10
_symmetry_cell_setting 'monoclinic'
loop_
_space_group_symop_operation_xyz
x,y,z
-x,y,-z
-x,-y,-z
x,-y,z
loop_
_atom_site_type_symbol
_atom_site_label
_atom_site_fract_x
_atom_site_fract_y
_atom_site_fract_z
Si Si1 0.170933 0.162338 0.454167
Si Si2 0.309249 0.665310 0.482876
Si Si3 0.801448 0.839769 0.779230
Si Si4 0.876335 0.333516 0.110260
Si Si5 0.987061 0.839312 0.872301
Si Si6 0.029123 0.666568 0.427448
Si Si7 0.705003 0.837438 0.877388
Si Si8 0.479962 0.334385 0.374478
O O1 0.272072 0.243596 0.533035
O O2 0.102676 0.169285 0.293370
O O3 0.121564 0.240666 0.490708
O O4 0.194908 0.000000 0.509096
O O5 0.279649 0.500000 0.466976
O O6 0.257985 0.718489 0.335755
O O7 0.424950 0.683629 0.591252
O O8 0.921725 0.811382 0.901371
O O9 0.766626 0.834866 0.847389
O O10 0.781982 0.000000 0.716259
O O11 0.853919 0.500000 0.070417
O O12 0.934130 0.278272 0.078107
O O13 0.937431 0.304229 0.266059
O O14 0.773492 0.250612 0.019631
O O15 0.034193 0.000000 0.918293
O O16 0.059994 0.500000 0.457389
O O17 0.000000 0.717492 0.500000
O O18 0.601195 0.762220 0.758186
O O19 0.687782 0.000000 0.895228
O O20 0.500000 0.278409 0.500000
O O21 0.444782 0.500000 0.342389
#
# Coordination Sequence:
#
# PCOD8057953 Si02
#       8
#     4   4   4   4   4   4   4   4
#     4   9  17  29  47  73 103 130 159 196 240 292
#     4  10  18  29  48  69  95 129 165 209 252 286
#     4   9  18  30  44  64  90 125 166 206 244 282
#     4  10  20  33  48  68  96 126 157 198 243 289
#     4   8  15  29  45  61  88 124 161 197 233 278
#     4   9  18  34  56  80 103 128 160 196 239 296
#     4  11  22  33  47  66  93 130 169 207 246 291
#     4  10  20  34  49  69  95 127 170 218 257 287
#
# _framework density 17.515180000000001
#
# number of rings (size 3 to 8) (size 9 to 14) (size 15 to 20)
#    0.000    2.500    1.250    2.250    0.000    6.000 
#    0.000    2.500    0.000    0.000    0.000    0.875 
#    0.000    7.000    0.000    0.000    0.000    0.000 
#
# Total GULP energy -396792.431696 kJ/mol
# GULP energy per Si atom -12399.763491 kJ/mol
# Density = 1.747531 g / cm^3
# Si number density = 17.515180 Si / 1000 Ang^3
#
#
#
# Elastic Constant Matrix: (Units=GPa)
#
#
# Indices 1 2 3 4 5 6 
#
# 1 86.1393 54.5678 34.8050 0.0000 4.0581 0.0000
# 2 54.5678 120.6548 45.0665 0.0000 12.5337 0.0000
# 3 34.8050 45.0665 54.8962 0.0000 14.3472 0.0000
# 4 0.0000 0.0000 0.0000 24.1072 0.0000 6.0692
# 5 4.0581 12.5337 14.3472 0.0000 26.1834 0.0000
# 6 0.0000 0.0000 0.0000 6.0692 0.0000 27.0909
#
#
#
# Elastic Compliance Matrix: (Units=1/GPa)
#
#
# Indices 1 2 3 4 5 6 
#
# 1 0.018263 -0.005714 -0.008011 0.000000 0.004294 0.000000
# 2 -0.005714 0.013745 -0.007205 0.000000 -0.001746 0.000000
# 3 -0.008011 -0.007205 0.032661 0.000000 -0.013206 0.000000
# 4 0.000000 0.000000 0.000000 0.043961 0.000000 -0.009849
# 5 0.004294 -0.001746 -0.013206 0.000000 0.045599 0.000000
# 6 0.000000 0.000000 0.000000 -0.009849 0.000000 0.039119
#
#
# Mechanical properties :
#
#
# Convention : Reuss Voigt Hill
#
# Bulk Modulus (GPa) = 43.83881 58.95209 51.39545
# Shear Modulus (GPa) = 20.59227 23.95969 22.27598
#
# Velocity S-wave (km/s) = 3.43254 3.70258 3.57011
# Velocity P-wave (km/s) = 6.38695 7.21177 6.81185
#
# Compressibility (1/GPa) = 0.02281084
#
# Stress axis : x y z
#
# Youngs Moduli (GPa) = 54.75520 72.75578 30.61739
#
# Poissons Ratio (x) = 0.41570 0.24527
# Poissons Ratio (y) = 0.31285 0.22059
# Poissons Ratio (z) = 0.43863 0.52418
#
# Static dielectric constant tensor:
#      x y z
#    x 3.247450 0.000000 0.150820 
#    y 0.000000 3.431010 0.000000 
#    z 0.150820 0.000000 3.125450 
# 
# 
# High freq. dielectric constant tensor:
#      x y z
#    x 1.663470 0.000000 0.021780 
#    y 0.000000 1.686490 0.000000 
#    z 0.021780 0.000000 1.650880 
# 
# From -- ./inp_files/70022.got.cif
#   From: 2010.06.25/outbox.cif.g09.slc.cpg/sg10_36_cif.got.tgz:70022.got - 2010.06.27 22:07:45.
