data_PCOD8057959
_publ_section_title
;
Structure prediction by ZEFSAII (Michael W. Deem and Ramdas Pophale) SiO2 
 PCOD8057959
Probable space group: P 2/M
;
_chemical_formula_sum "Si O2"
_cell_formula_units_Z 28
_cell_length_a 14.910622
_cell_length_b 12.670348
_cell_length_c 9.706510
_cell_angle_alpha 90.000000
_cell_angle_beta 65.322903
_cell_angle_gamma 90.000000
_cell_volume 1666.310982
_symmetry_space_group_name_H-M "P 2/M"
_symmetry_group_IT_number 10
_symmetry_cell_setting 'monoclinic'
loop_
_space_group_symop_operation_xyz
x,y,z
-x,y,-z
-x,-y,-z
x,-y,z
loop_
_atom_site_type_symbol
_atom_site_label
_atom_site_fract_x
_atom_site_fract_y
_atom_site_fract_z
Si Si1 0.036886 0.739654 0.828442
Si Si2 0.064569 0.879786 0.325640
Si Si3 0.782548 0.879330 0.305974
Si Si4 0.552495 0.122924 0.828021
Si Si5 0.904527 0.379251 0.467632
Si Si6 0.576161 0.123026 0.345463
Si Si7 0.763120 0.193467 0.623124
O O1 0.127861 0.813349 0.811176
O O2 0.069815 0.643327 0.709143
O O3 0.957985 0.809058 0.793305
O O4 0.000000 0.695971 0.000000
O O5 0.179278 0.867206 0.291735
O O6 0.000000 0.842949 0.500000
O O7 0.039619 0.000000 0.302926
O O8 0.684783 0.828959 0.298348
O O9 0.776775 0.872134 0.474647
O O10 0.798464 0.000000 0.252310
O O11 0.464344 0.144437 0.779037
O O12 0.647542 0.196132 0.737189
O O13 0.585415 0.000000 0.805851
O O14 0.500000 0.158561 0.000000
O O15 0.871762 0.500000 0.503318
O O16 0.810323 0.310130 0.576643
O O17 0.000000 0.354697 0.500000
O O18 0.500000 0.177125 0.500000
O O19 0.585559 0.000000 0.376440
#
# Coordination Sequence:
#
# PCOD8057959 Si02
#       7
#     4   4   4   4   4   4   4
#     4  11  22  34  48  77 110 135 165 208 263 320
#     4  11  19  30  49  75 107 143 177 205 243 306
#     4  10  18  29  48  71 101 142 178 205 238 295
#     4  10  20  31  46  74 110 141 171 207 246 296
#     4  10  20  39  61  77  95 126 176 228 269 316
#     4   9  16  28  45  66  93 134 179 206 232 277
#     4  11  18  32  53  77  97 135 179 217 256 299
#
# _framework density 16.803585999999999
#
# number of rings (size 3 to 8) (size 9 to 14) (size 15 to 20)
#    0.000    1.714    5.714    1.714    0.000    2.571 
#    0.000    1.429    0.000    0.429    0.000    8.000 
#    0.000    0.000    0.000    0.000    0.000    0.000 
#
# Total GULP energy -347105.340254 kJ/mol
# GULP energy per Si atom -12396.619295 kJ/mol
# Density = 1.676534 g / cm^3
# Si number density = 16.803586 Si / 1000 Ang^3
#
#
#
# Elastic Constant Matrix: (Units=GPa)
#
#
# Indices 1 2 3 4 5 6 
#
# 1 113.8299 22.7899 24.5195 0.0000 -4.4254 0.0000
# 2 22.7899 69.2528 19.0080 0.0000 -3.8933 0.0000
# 3 24.5195 19.0080 87.0880 0.0000 3.2064 0.0000
# 4 0.0000 0.0000 0.0000 12.0252 0.0000 -3.9597
# 5 -4.4254 -3.8933 3.2064 0.0000 24.8017 0.0000
# 6 0.0000 0.0000 0.0000 -3.9597 0.0000 12.4321
#
#
#
# Elastic Compliance Matrix: (Units=1/GPa)
#
#
# Indices 1 2 3 4 5 6 
#
# 1 0.009846 -0.002520 -0.002283 0.000000 0.001656 0.000000
# 2 -0.002520 0.016210 -0.002919 0.000000 0.002472 0.000000
# 3 -0.002283 -0.002919 0.012856 0.000000 -0.002528 0.000000
# 4 0.000000 0.000000 0.000000 0.092902 0.000000 0.029590
# 5 0.001656 0.002472 -0.002528 0.000000 0.041330 0.000000
# 6 0.000000 0.000000 0.000000 0.029590 0.000000 0.089861
#
#
# Mechanical properties :
#
#
# Convention : Reuss Voigt Hill
#
# Bulk Modulus (GPa) = 42.61549 44.75619 43.68584
# Shear Modulus (GPa) = 17.46593 23.44203 20.45398
#
# Velocity S-wave (km/s) = 3.22750 3.73910 3.49268
# Velocity P-wave (km/s) = 6.26937 6.73305 6.50534
#
# Compressibility (1/GPa) = 0.02346565
#
# Stress axis : x y z
#
# Youngs Moduli (GPa) = 101.56626 61.69206 77.78685
#
# Poissons Ratio (x) = 0.15549 0.17758
# Poissons Ratio (y) = 0.25598 0.22709
# Poissons Ratio (z) = 0.23187 0.18010
#
# Static dielectric constant tensor:
#      x y z
#    x 3.596890 0.000000 -0.030810 
#    y 0.000000 2.800760 0.000000 
#    z -0.030810 0.000000 3.006470 
# 
# 
# High freq. dielectric constant tensor:
#      x y z
#    x 1.664000 0.000000 0.008360 
#    y 0.000000 1.600490 0.000000 
#    z 0.008360 0.000000 1.633580 
# 
# From -- ./inp_files/28191.got.cif
#   From: 2010.06.25/outbox.cif.g09.slc.cpg/sg10_15_cif.got.tgz:28191.got - 2010.06.27 22:07:45.
