data_PCOD8057032
_publ_section_title
;
Structure prediction by ZEFSAII (Michael W. Deem and Ramdas Pophale) SiO2 
 PCOD8057032
Probable space group: P 2/M
;
_chemical_formula_sum "Si O2"
_cell_formula_units_Z 24
_cell_length_a 16.620547
_cell_length_b 8.789642
_cell_length_c 23.122505
_cell_angle_alpha 90.000000
_cell_angle_beta 23.856919
_cell_angle_gamma 90.000000
_cell_volume 1366.219750
_symmetry_space_group_name_H-M "P 2/M"
_symmetry_group_IT_number 10
_symmetry_cell_setting 'monoclinic'
loop_
_space_group_symop_operation_xyz
x,y,z
-x,y,-z
-x,-y,-z
x,-y,z
loop_
_atom_site_type_symbol
_atom_site_label
_atom_site_fract_x
_atom_site_fract_y
_atom_site_fract_z
Si Si1 0.639849 0.825304 0.574926
Si Si2 0.013499 0.320385 0.924510
Si Si3 0.619460 0.820646 0.144861
Si Si4 0.025437 0.822834 0.563181
Si Si5 0.296169 0.679482 0.287629
Si Si6 0.558846 0.679660 0.398880
O O1 0.492615 0.769180 0.722738
O O2 0.604161 0.729545 0.540810
O O3 0.870893 0.801428 0.442284
O O4 0.595401 0.000000 0.589974
O O5 0.985245 0.500000 0.935775
O O6 0.223258 0.261047 0.762036
O O7 0.000000 0.271202 0.000000
O O8 0.845329 0.235454 0.998372
O O9 0.516053 0.743538 0.156744
O O10 0.607983 0.000000 0.144192
O O11 0.800242 0.755700 0.707375
O O12 0.156482 0.727253 0.432296
O O13 0.029025 0.000000 0.543300
O O14 0.305316 0.500000 0.273570
O O15 0.500000 0.747882 0.500000
O O16 0.558861 0.500000 0.400939
#
# Coordination Sequence:
#
# PCOD8057032 Si02
#       6
#     4   4   4   4   4   4
#     4   9  18  30  46  68  94 127 163 200 239 285
#     4  10  19  32  50  72  95 126 164 203 241 286
#     4  10  19  30  46  69  97 128 161 200 245 288
#     4   9  16  27  41  62  94 128 160 197 242 288
#     4  10  17  25  40  65  95 127 160 196 240 290
#     4  10  21  35  50  70  98 129 162 202 246 287
#
# _framework density 17.56672
#
# number of rings (size 3 to 8) (size 9 to 14) (size 15 to 20)
#    0.000    2.333    1.667    4.500    0.000    4.667 
#    0.000    0.000    0.000    0.000    0.000    1.167 
#    0.000    9.333    0.000    0.000    0.000    0.000 
#
# Total GULP energy -297487.523091 kJ/mol
# GULP energy per Si atom -12395.313462 kJ/mol
# Density = 1.752674 g / cm^3
# Si number density = 17.566720 Si / 1000 Ang^3
#
#
#
# Elastic Constant Matrix: (Units=GPa)
#
#
# Indices 1 2 3 4 5 6 
#
# 1 134.8331 42.1532 66.1252 0.0000 -32.2774 0.0000
# 2 42.1532 58.1791 28.9859 0.0000 -12.4683 0.0000
# 3 66.1252 28.9859 73.2714 0.0000 -11.2921 0.0000
# 4 0.0000 0.0000 0.0000 15.6129 0.0000 -11.6108
# 5 -32.2774 -12.4683 -11.2921 0.0000 31.7989 0.0000
# 6 0.0000 0.0000 0.0000 -11.6108 0.0000 31.4486
#
#
#
# Elastic Compliance Matrix: (Units=1/GPa)
#
#
# Indices 1 2 3 4 5 6 
#
# 1 0.017657 -0.004006 -0.012515 0.000000 0.011908 0.000000
# 2 -0.004006 0.023339 -0.005114 0.000000 0.003269 0.000000
# 3 -0.012515 -0.005114 0.026129 0.000000 -0.005430 0.000000
# 4 0.000000 0.000000 0.000000 0.088291 0.000000 0.032597
# 5 0.011908 0.003269 -0.005430 0.000000 0.042888 0.000000
# 6 0.000000 0.000000 0.000000 0.032597 0.000000 0.043833
#
#
# Mechanical properties :
#
#
# Convention : Reuss Voigt Hill
#
# Bulk Modulus (GPa) = 41.91990 60.09023 51.00506
# Shear Modulus (GPa) = 17.04394 24.37336 20.70865
#
# Velocity S-wave (km/s) = 3.11825 3.72892 3.43717
# Velocity P-wave (km/s) = 6.07286 7.26780 6.69704
#
# Compressibility (1/GPa) = 0.02385502
#
# Stress axis : x y z
#
# Youngs Moduli (GPa) = 56.63325 42.84631 38.27216
#
# Poissons Ratio (x) = 0.17165 0.47899
# Poissons Ratio (y) = 0.22689 0.19571
# Poissons Ratio (z) = 0.70878 0.21910
#
# Static dielectric constant tensor:
#      x y z
#    x 3.666050 0.000000 -0.478430 
#    y 0.000000 3.157190 0.000000 
#    z -0.478430 0.000000 3.117600 
# 
# 
# High freq. dielectric constant tensor:
#      x y z
#    x 1.682080 0.000000 -0.045830 
#    y 0.000000 1.681620 0.000000 
#    z -0.045830 0.000000 1.628050 
# 
# From -- ./inp_files/63104.got.cif
#   From: 2010.06.25/outbox.cif.g09.slc.cpg/sg10_32_cif.got.tgz:63104.got - 2010.06.27 22:07:45.
