data_PCOD8057083
_publ_section_title
;
Structure prediction by ZEFSAII (Michael W. Deem and Ramdas Pophale) SiO2 
 PCOD8057083
Probable space group: P 2/M
;
_chemical_formula_sum "Si O2"
_cell_formula_units_Z 28
_cell_length_a 11.930245
_cell_length_b 11.694430
_cell_length_c 23.422622
_cell_angle_alpha 90.000000
_cell_angle_beta 146.357478
_cell_angle_gamma 90.000000
_cell_volume 1810.427679
_symmetry_space_group_name_H-M "P 2/M"
_symmetry_group_IT_number 10
_symmetry_cell_setting 'monoclinic'
loop_
_space_group_symop_operation_xyz
x,y,z
-x,y,-z
-x,-y,-z
x,-y,z
loop_
_atom_site_type_symbol
_atom_site_label
_atom_site_fract_x
_atom_site_fract_y
_atom_site_fract_z
Si Si1 0.251242 0.000000 0.679034
Si Si2 0.789667 0.365333 0.882478
Si Si3 0.708632 0.247433 0.429909
Si Si4 0.726127 0.366171 0.606390
Si Si5 0.311583 0.632179 0.285294
Si Si6 0.189501 0.000000 0.518827
Si Si7 0.611334 0.754963 0.257790
Si Si8 0.975981 0.363853 0.364926
O O1 0.382052 0.109839 0.754078
O O2 0.186353 0.000000 0.585825
O O3 0.022702 0.000000 0.606923
O O4 0.744164 0.500000 0.870304
O O5 0.804627 0.329213 0.821660
O O6 0.616442 0.293680 0.841473
O O7 0.000000 0.330302 0.000000
O O8 0.525501 0.308125 0.383442
O O9 0.697170 0.261215 0.357409
O O10 0.915281 0.311020 0.533705
O O11 0.697242 0.117413 0.448890
O O12 0.500000 0.313877 0.500000
O O13 0.710992 0.500000 0.588141
O O14 0.805106 0.340777 0.704884
O O15 0.899233 0.317888 0.637483
O O16 0.361776 0.500000 0.301580
O O17 0.747625 0.685956 0.269628
O O18 0.964942 0.500000 0.363364
#
# Coordination Sequence:
#
# PCOD8057083 Si02
#       8
#     2   4   4   4   4   2   4   4
#     4   9  16  28  41  57  86 121 147 173 209 259
#     4   9  18  32  49  68  90 112 137 180 232 271
#     4  10  17  26  41  61  88 119 147 177 210 256
#     4   9  16  26  39  59  90 123 150 172 200 250
#     4   9  16  28  46  65  86 118 152 176 212 258
#     4   9  16  26  38  56  87 125 150 166 209 258
#     4  10  19  29  43  64  87 113 147 182 221 260
#     4  11  19  25  39  63  91 117 142 179 213 251
#
# _framework density 15.465958000000001
#
# number of rings (size 3 to 8) (size 9 to 14) (size 15 to 20)
#    0.000    2.429    2.857    1.286    0.000    2.286 
#    0.000    0.357    0.000    3.429    0.000    5.000 
#    0.000    1.143    0.000    0.000    0.000    0.000 
#
# Total GULP energy -346890.053197 kJ/mol
# GULP energy per Si atom -12388.930471 kJ/mol
# Density = 1.543076 g / cm^3
# Si number density = 15.465958 Si / 1000 Ang^3
#
#
#
# Elastic Constant Matrix: (Units=GPa)
#
#
# Indices 1 2 3 4 5 6 
#
# 1 90.6934 23.4135 37.1566 0.0000 12.8636 0.0000
# 2 23.4135 46.8338 23.0901 0.0000 6.6440 0.0000
# 3 37.1566 23.0901 81.2166 0.0000 11.7824 0.0000
# 4 0.0000 0.0000 0.0000 13.1755 0.0000 0.2391
# 5 12.8636 6.6440 11.7824 0.0000 15.4105 0.0000
# 6 0.0000 0.0000 0.0000 0.2391 0.0000 5.1566
#
#
#
# Elastic Compliance Matrix: (Units=1/GPa)
#
#
# Indices 1 2 3 4 5 6 
#
# 1 0.015032 -0.004209 -0.004638 0.000000 -0.007187 0.000000
# 2 -0.004209 0.026509 -0.005020 0.000000 -0.004078 0.000000
# 3 -0.004638 -0.005020 0.016856 0.000000 -0.006852 0.000000
# 4 0.000000 0.000000 0.000000 0.075962 0.000000 -0.003522
# 5 -0.007187 -0.004078 -0.006852 0.000000 0.077887 0.000000
# 6 0.000000 0.000000 0.000000 -0.003522 0.000000 0.194088
#
#
# Mechanical properties :
#
#
# Convention : Reuss Voigt Hill
#
# Bulk Modulus (GPa) = 32.61070 42.89602 37.75336
# Shear Modulus (GPa) = 11.25391 15.75410 13.50401
#
# Velocity S-wave (km/s) = 2.70044 3.19506 2.95811
# Velocity P-wave (km/s) = 5.55467 6.43484 6.01089
#
# Compressibility (1/GPa) = 0.03066478
#
# Stress axis : x y z
#
# Youngs Moduli (GPa) = 66.52351 37.72234 59.32698
#
# Poissons Ratio (x) = 0.15877 0.27516
# Poissons Ratio (y) = 0.27998 0.29780
# Poissons Ratio (z) = 0.30854 0.18935
#
# Static dielectric constant tensor:
#      x y z
#    x 3.141910 0.000000 0.060780 
#    y 0.000000 2.998250 0.000000 
#    z 0.060780 0.000000 2.722200 
# 
# 
# High freq. dielectric constant tensor:
#      x y z
#    x 1.584660 0.000000 0.007570 
#    y 0.000000 1.582800 0.000000 
#    z 0.007570 0.000000 1.555110 
# 
# From -- ./inp_files/46066.got.cif
#   From: 2010.06.25/outbox.cif.g09.slc.cpg/sg10_24_cif.got.tgz:46066.got - 2010.06.27 22:07:45.
