data_PCOD8057192
_publ_section_title
;
Structure prediction by ZEFSAII (Michael W. Deem and Ramdas Pophale) SiO2 
 PCOD8057192
Probable space group: P 2/M
;
_chemical_formula_sum "Si O2"
_cell_formula_units_Z 16
_cell_length_a 17.782042
_cell_length_b 8.435475
_cell_length_c 11.607215
_cell_angle_alpha 90.000000
_cell_angle_beta 150.775136
_cell_angle_gamma 90.000000
_cell_volume 850.063090
_symmetry_space_group_name_H-M "P 2/M"
_symmetry_group_IT_number 10
_symmetry_cell_setting 'monoclinic'
loop_
_space_group_symop_operation_xyz
x,y,z
-x,y,-z
-x,-y,-z
x,-y,z
loop_
_atom_site_type_symbol
_atom_site_label
_atom_site_fract_x
_atom_site_fract_y
_atom_site_fract_z
Si Si1 0.351507 0.685648 0.733511
Si Si2 0.045781 0.185546 0.433215
Si Si3 0.099729 0.684231 0.971489
Si Si4 0.792930 0.184706 0.667656
O O1 0.363981 0.500000 0.727564
O O2 0.200462 0.722525 0.606313
O O3 0.350693 0.772939 0.607079
O O4 0.500000 0.749924 0.000000
O O5 0.000000 0.236263 0.500000
O O6 0.903974 0.234701 0.159566
O O7 0.078136 0.000000 0.465374
O O8 0.135506 0.500000 0.005594
O O9 0.933552 0.712556 0.806098
O O10 0.230114 0.763176 0.229382
O O11 0.832634 0.000000 0.713687
#
# Coordination Sequence:
#
# PCOD8057192 Si02
#       4
#     4   4   4   4
#     4  10  20  33  50  73 100 129 162 199 240 287
#     4  10  20  33  50  73 100 129 162 199 240 287
#     4  10  17  27  45  68  95 124 158 199 241 282
#     4  10  17  27  45  68  95 124 158 199 241 282
#
# _framework density 18.822133000000001
#
# number of rings (size 3 to 8) (size 9 to 14) (size 15 to 20)
#    0.000    2.000    0.000   10.500    0.000    4.000 
#    0.000    0.000    0.000    1.500    0.000   10.500 
#    0.000    0.000    0.000    0.000    0.000    0.000 
#
# Total GULP energy -198316.066372 kJ/mol
# GULP energy per Si atom -12394.754148 kJ/mol
# Density = 1.877929 g / cm^3
# Si number density = 18.822133 Si / 1000 Ang^3
#
#
#
# Elastic Constant Matrix: (Units=GPa)
#
#
# Indices 1 2 3 4 5 6 
#
# 1 87.1730 19.0902 55.5531 0.0000 -44.3515 0.0000
# 2 19.0902 61.7739 28.9543 0.0000 -15.4831 0.0000
# 3 55.5531 28.9543 138.4429 0.0000 -49.9245 0.0000
# 4 0.0000 0.0000 0.0000 14.9728 0.0000 -10.7334
# 5 -44.3515 -15.4831 -49.9245 0.0000 41.0378 0.0000
# 6 0.0000 0.0000 0.0000 -10.7334 0.0000 19.1227
#
#
#
# Elastic Compliance Matrix: (Units=1/GPa)
#
#
# Indices 1 2 3 4 5 6 
#
# 1 0.025560 -0.001006 -0.000394 0.000000 0.026765 0.000000
# 2 -0.001006 0.018350 -0.002369 0.000000 0.002955 0.000000
# 3 -0.000394 -0.002369 0.013185 0.000000 0.014721 0.000000
# 4 0.000000 0.000000 0.000000 0.111755 0.000000 0.062727
# 5 0.026765 0.002955 0.014721 0.000000 0.072317 0.000000
# 6 0.000000 0.000000 0.000000 0.062727 0.000000 0.087502
#
#
# Mechanical properties :
#
#
# Convention : Reuss Voigt Hill
#
# Bulk Modulus (GPa) = 20.17843 54.95388 37.56616
# Shear Modulus (GPa) = 14.17527 27.27946 20.72736
#
# Velocity S-wave (km/s) = 2.74727 3.81114 3.32207
# Velocity P-wave (km/s) = 4.56149 6.97324 5.89209
#
# Compressibility (1/GPa) = 0.04955786
#
# Stress axis : x y z
#
# Youngs Moduli (GPa) = 39.12287 54.49701 75.84172
#
# Poissons Ratio (x) = 0.05481 0.02991
# Poissons Ratio (y) = 0.03935 0.17964
# Poissons Ratio (z) = 0.01543 0.12908
#
# Static dielectric constant tensor:
#      x y z
#    x 3.435280 0.000000 -0.929910 
#    y 0.000000 3.422270 0.000000 
#    z -0.929910 0.000000 4.067870 
# 
# 
# High freq. dielectric constant tensor:
#      x y z
#    x 1.689150 0.000000 -0.061750 
#    y 0.000000 1.746970 0.000000 
#    z -0.061750 0.000000 1.724050 
# 
# From -- ./inp_files/21719.got.cif
#   From: 2010.06.25/outbox.cif.g09.slc.cpg/sg10_11_cif.got.tgz:21719.got - 2010.06.27 22:07:45.
