data_PCOD8057236
_publ_section_title
;
Structure prediction by ZEFSAII (Michael W. Deem and Ramdas Pophale) SiO2 
 PCOD8057236
Probable space group: P 2/M
;
_chemical_formula_sum "Si O2"
_cell_formula_units_Z 28
_cell_length_a 19.423774
_cell_length_b 8.403587
_cell_length_c 13.020332
_cell_angle_alpha 90.000000
_cell_angle_beta 48.071046
_cell_angle_gamma 90.000000
_cell_volume 1581.168356
_symmetry_space_group_name_H-M "P 2/M"
_symmetry_group_IT_number 10
_symmetry_cell_setting 'monoclinic'
loop_
_space_group_symop_operation_xyz
x,y,z
-x,y,-z
-x,-y,-z
x,-y,z
loop_
_atom_site_type_symbol
_atom_site_label
_atom_site_fract_x
_atom_site_fract_y
_atom_site_fract_z
Si Si1 0.590458 0.814725 0.292088
Si Si2 0.103017 0.189097 0.512137
Si Si3 0.780412 0.810797 0.413834
Si Si4 0.398183 0.683977 0.497249
Si Si5 0.783408 0.810419 0.020012
Si Si6 0.895867 0.810639 0.102598
Si Si7 0.104629 0.189349 0.283126
O O1 0.499533 0.717858 0.348413
O O2 0.615230 0.787497 0.386740
O O3 0.676944 0.755069 0.137321
O O4 0.571242 0.000000 0.294243
O O5 0.172875 0.255514 0.528388
O O6 0.135213 0.246685 0.366580
O O7 0.999002 0.251206 0.638108
O O8 0.101961 0.000000 0.517984
O O9 0.678848 0.734121 0.508386
O O10 0.842388 0.751033 0.256944
O O11 0.771279 0.000000 0.424022
O O12 0.389955 0.500000 0.534270
O O13 0.843758 0.742663 0.054387
O O14 0.788318 0.000000 0.017765
O O15 0.824637 0.741662 0.872340
O O16 0.898111 0.000000 0.098252
O O17 0.000000 0.742274 0.000000
O O18 0.105053 0.000000 0.278444
#
# Coordination Sequence:
#
# PCOD8057236 Si02
#       7
#     4   4   4   4   4   4   4
#     4  10  18  31  49  69  91 118 152 192 230 272
#     4   8  14  23  40  65  97 128 150 183 224 266
#     4  10  17  28  45  68  94 122 155 186 224 270
#     4  11  21  32  46  66  91 122 153 189 233 278
#     4   9  15  23  39  64  92 120 146 181 225 269
#     4   9  15  22  36  63  94 119 145 179 219 264
#     4   8  13  23  38  66 100 123 148 184 229 267
#
# _framework density 17.708425999999999
#
# number of rings (size 3 to 8) (size 9 to 14) (size 15 to 20)
#    0.000    2.714    1.429    4.286    0.000    3.429 
#    0.000    0.000    0.000    1.286    0.000   10.000 
#    0.000    0.000    0.000    0.000    0.000    0.000 
#
# Total GULP energy -347087.512044 kJ/mol
# GULP energy per Si atom -12395.982573 kJ/mol
# Density = 1.766812 g / cm^3
# Si number density = 17.708426 Si / 1000 Ang^3
#
#
#
# Elastic Constant Matrix: (Units=GPa)
#
#
# Indices 1 2 3 4 5 6 
#
# 1 151.1755 11.8450 89.0013 0.0000 -4.1853 0.0000
# 2 11.8450 20.8226 9.1201 0.0000 -2.8445 0.0000
# 3 89.0013 9.1201 149.2239 0.0000 -3.9420 0.0000
# 4 0.0000 0.0000 0.0000 0.2246 0.0000 1.2541
# 5 -4.1853 -2.8445 -3.9420 0.0000 28.4855 0.0000
# 6 0.0000 0.0000 0.0000 1.2541 0.0000 1.8949
#
#
#
# Elastic Compliance Matrix: (Units=1/GPa)
#
#
# Indices 1 2 3 4 5 6 
#
# 1 0.010413 -0.003243 -0.006003 0.000000 0.000375 0.000000
# 2 -0.003243 0.050944 -0.001061 0.000000 0.004464 0.000000
# 3 -0.006003 -0.001061 0.010358 0.000000 0.000446 0.000000
# 4 0.000000 0.000000 0.000000 -1.651644 0.000000 1.093099
# 5 0.000375 0.004464 0.000446 0.000000 0.035668 0.000000
# 6 0.000000 0.000000 0.000000 1.093099 0.000000 -0.195720
#
#
# Mechanical properties :
#
#
# Convention : Reuss Voigt Hill
#
# Bulk Modulus (GPa) = 19.56894 60.12830 39.84862
# Shear Modulus (GPa) = -2.93715 20.20471 8.63378
#
# Velocity S-wave (km/s) = -1.28927 3.38148 2.21045
# Velocity P-wave (km/s) = 2.97630 7.01956 5.39132
#
# Compressibility (1/GPa) = 0.05110138
#
# Stress axis : x y z
#
# Youngs Moduli (GPa) = 96.03161 19.62929 96.54282
#
# Poissons Ratio (x) = 0.06366 0.57951
# Poissons Ratio (y) = 0.31145 0.10246
# Poissons Ratio (z) = 0.57644 0.02083
#
# Static dielectric constant tensor:
#      x y z
#    x 3.460000 0.000000 -0.057800 
#    y 0.000000 2.700960 0.000000 
#    z -0.057800 0.000000 3.514800 
# 
# 
# High freq. dielectric constant tensor:
#      x y z
#    x 1.681710 0.000000 -0.011180 
#    y 0.000000 1.634170 0.000000 
#    z -0.011180 0.000000 1.676120 
# 
# From -- ./inp_files/54679.got.cif
#   From: 2010.06.25/outbox.cif.g09.slc.cpg/sg10_28_cif.got.tgz:54679.got - 2010.06.27 22:07:45.
