data_PCOD8057628
_publ_section_title
;
Structure prediction by ZEFSAII (Michael W. Deem and Ramdas Pophale) SiO2 
 PCOD8057628
Probable space group: P 2/M
;
_chemical_formula_sum "Si O2"
_cell_formula_units_Z 32
_cell_length_a 16.256029
_cell_length_b 8.925478
_cell_length_c 18.129592
_cell_angle_alpha 90.000000
_cell_angle_beta 56.040700
_cell_angle_gamma 90.000000
_cell_volume 2181.805942
_symmetry_space_group_name_H-M "P 2/M"
_symmetry_group_IT_number 10
_symmetry_cell_setting 'monoclinic'
loop_
_space_group_symop_operation_xyz
x,y,z
-x,y,-z
-x,-y,-z
x,-y,z
loop_
_atom_site_type_symbol
_atom_site_label
_atom_site_fract_x
_atom_site_fract_y
_atom_site_fract_z
Si Si1 0.893700 0.677810 0.969652
Si Si2 0.480049 0.823464 0.839086
Si Si3 0.594493 0.334401 0.900324
Si Si4 0.700538 0.322116 0.986985
Si Si5 0.507018 0.325189 0.323690
Si Si6 0.401083 0.831514 0.502000
Si Si7 0.701198 0.324722 0.320393
Si Si8 0.112353 0.678091 0.862124
O O1 0.892736 0.500000 0.972868
O O2 0.809817 0.735878 0.955205
O O3 0.003318 0.731439 0.888858
O O4 0.870378 0.738998 0.063484
O O5 0.574075 0.778118 0.843294
O O6 0.500972 0.765614 0.747313
O O7 0.469682 0.000000 0.844016
O O8 0.378732 0.753356 0.919587
O O9 0.617690 0.500000 0.856522
O O10 0.683867 0.278042 0.909133
O O11 0.500000 0.343547 0.000000
O O12 0.688397 0.500000 0.003460
O O13 0.492255 0.500000 0.315465
O O14 0.418313 0.267959 0.420644
O O15 0.613061 0.291559 0.307308
O O16 0.500000 0.830879 0.500000
O O17 0.313756 0.759789 0.594711
O O18 0.371283 0.000000 0.494098
O O19 0.707590 0.500000 0.334728
O O20 0.802402 0.259218 0.234303
O O21 0.119619 0.500000 0.859372
#
# Coordination Sequence:
#
# PCOD8057628 Si02
#       8
#     4   4   4   4   4   4   4   4
#     4   8  13  22  37  58  81 104 132 168 201 223
#     4  11  20  27  38  57  80 104 131 163 199 237
#     4   8  15  27  40  54  74 101 132 164 195 230
#     4   9  16  27  42  57  76 105 138 166 195 231
#     4  10  18  28  42  58  78 104 134 164 193 230
#     4   9  17  28  40  56  79 104 130 162 197 231
#     4   9  16  26  41  59  78 105 137 164 193 230
#     4   8  13  21  36  59  83 103 130 168 200 224
#
# _framework density 14.66675
#
# number of rings (size 3 to 8) (size 9 to 14) (size 15 to 20)
#    0.000    3.000    0.000    4.125    0.000    6.250 
#    0.000    0.000    0.000    0.750    0.000    2.625 
#    0.000    1.000    0.000   11.750    0.000    2.250 
#
# Total GULP energy -396595.188644 kJ/mol
# GULP energy per Si atom -12393.599645 kJ/mol
# Density = 1.463337 g / cm^3
# Si number density = 14.666750 Si / 1000 Ang^3
#
#
#
# Elastic Constant Matrix: (Units=GPa)
#
#
# Indices 1 2 3 4 5 6 
#
# 1 101.3830 27.1323 46.5534 0.0000 -0.4506 0.0000
# 2 27.1323 48.6355 29.5579 0.0000 3.6731 0.0000
# 3 46.5534 29.5579 99.1549 0.0000 -7.6117 0.0000
# 4 0.0000 0.0000 0.0000 10.9234 0.0000 4.1086
# 5 -0.4506 3.6731 -7.6117 0.0000 18.1066 0.0000
# 6 0.0000 0.0000 0.0000 4.1086 0.0000 8.6254
#
#
#
# Elastic Compliance Matrix: (Units=1/GPa)
#
#
# Indices 1 2 3 4 5 6 
#
# 1 0.013327 -0.004299 -0.005046 0.000000 -0.000918 0.000000
# 2 -0.004299 0.027835 -0.006945 0.000000 -0.008673 0.000000
# 3 -0.005046 -0.006945 0.015111 0.000000 0.007636 0.000000
# 4 0.000000 0.000000 0.000000 0.111529 0.000000 -0.053125
# 5 -0.000918 -0.008673 0.007636 0.000000 0.060175 0.000000
# 6 0.000000 0.000000 0.000000 -0.053125 0.000000 0.141242
#
#
# Mechanical properties :
#
#
# Convention : Reuss Voigt Hill
#
# Bulk Modulus (GPa) = 42.20629 50.62894 46.41761
# Shear Modulus (GPa) = 12.20417 17.25973 14.73195
#
# Velocity S-wave (km/s) = 2.88774 3.43416 3.17274
# Velocity P-wave (km/s) = 6.32124 7.09360 6.71853
#
# Compressibility (1/GPa) = 0.02369315
#
# Stress axis : x y z
#
# Youngs Moduli (GPa) = 75.03565 35.92583 66.17768
#
# Poissons Ratio (x) = 0.15444 0.33394
# Poissons Ratio (y) = 0.32256 0.45961
# Poissons Ratio (z) = 0.37863 0.24951
#
# Static dielectric constant tensor:
#      x y z
#    x 3.125340 0.000000 0.020130 
#    y 0.000000 2.699340 0.000000 
#    z 0.020130 0.000000 2.843390 
# 
# 
# High freq. dielectric constant tensor:
#      x y z
#    x 1.539540 0.000000 0.008340 
#    y 0.000000 1.545030 0.000000 
#    z 0.008340 0.000000 1.542680 
# 
# From -- ./inp_files/78524.got.cif
#   From: 2010.06.25/outbox.cif.g09.slc.cpg/sg10_40_cif.got.tgz:78524.got - 2010.06.27 22:07:45.
