data_PCOD8057716
_publ_section_title
;
Structure prediction by ZEFSAII (Michael W. Deem and Ramdas Pophale) SiO2 
 PCOD8057716
Probable space group: P 2/M
;
_chemical_formula_sum "Si O2"
_cell_formula_units_Z 32
_cell_length_a 21.551431
_cell_length_b 8.894408
_cell_length_c 17.343184
_cell_angle_alpha 90.000000
_cell_angle_beta 146.716621
_cell_angle_gamma 90.000000
_cell_volume 1824.401965
_symmetry_space_group_name_H-M "P 2/M"
_symmetry_group_IT_number 10
_symmetry_cell_setting 'monoclinic'
loop_
_space_group_symop_operation_xyz
x,y,z
-x,y,-z
-x,-y,-z
x,-y,z
loop_
_atom_site_type_symbol
_atom_site_label
_atom_site_fract_x
_atom_site_fract_y
_atom_site_fract_z
Si Si1 0.873690 0.826396 0.653717
Si Si2 0.356351 0.176620 0.653562
Si Si3 0.756628 0.324710 0.154096
Si Si4 0.775538 0.324570 0.951310
Si Si5 0.616502 0.325773 0.155916
Si Si6 0.396580 0.176846 0.134156
Si Si7 0.978526 0.677629 0.063086
Si Si8 0.079067 0.173854 0.768700
O O1 0.748990 0.761746 0.506470
O O2 0.927883 0.741972 0.782110
O O3 0.946973 0.804749 0.650769
O O4 0.869792 0.000000 0.673298
O O5 0.350850 0.243398 0.732525
O O6 0.471199 0.220074 0.728386
O O7 0.343331 0.000000 0.650067
O O8 0.771470 0.500000 0.151405
O O9 0.717909 0.298249 0.201298
O O10 0.877644 0.236683 0.269201
O O11 0.661002 0.258551 0.998034
O O12 0.747256 0.500000 0.921060
O O13 0.849493 0.277515 0.953046
O O14 0.852394 0.282165 0.103391
O O15 0.657647 0.233845 0.840531
O O16 0.598978 0.500000 0.156981
O O17 0.500000 0.259590 0.000000
O O18 0.378352 0.000000 0.106687
O O19 0.992807 0.500000 0.080477
O O20 0.000000 0.742186 0.000000
O O21 0.114856 0.000000 0.816182
#
# Coordination Sequence:
#
# PCOD8057716 Si02
#       8
#     4   4   4   4   4   4   4   4
#     4   9  19  35  51  72 100 128 161 197 236 286
#     4  10  21  34  49  69  96 130 165 202 242 286
#     4  10  18  29  46  67  93 121 157 206 249 285
#     4   9  16  27  46  71  98 124 152 191 235 278
#     4  10  20  33  47  67  95 126 164 208 248 287
#     4  10  18  28  45  69  95 124 161 201 238 279
#     4   9  18  33  54  80 104 125 154 193 235 281
#     4   9  16  28  47  67  91 122 157 198 239 283
#
# _framework density 17.539995000000001
#
# number of rings (size 3 to 8) (size 9 to 14) (size 15 to 20)
#    0.000    2.500    1.250    3.000    0.000    3.500 
#    0.000    0.625    0.000    4.500    0.000    5.250 
#    0.000    0.000    0.000    0.000    0.000    0.000 
#
# Total GULP energy -396529.337101 kJ/mol
# GULP energy per Si atom -12391.541784 kJ/mol
# Density = 1.750007 g / cm^3
# Si number density = 17.539995 Si / 1000 Ang^3
#
#
#
# Elastic Constant Matrix: (Units=GPa)
#
#
# Indices 1 2 3 4 5 6 
#
# 1 146.5440 45.3981 66.5362 0.0000 14.3257 0.0000
# 2 45.3981 46.6476 32.0785 0.0000 5.4536 0.0000
# 3 66.5362 32.0785 91.6535 0.0000 13.6929 0.0000
# 4 0.0000 0.0000 0.0000 10.5766 0.0000 -8.8750
# 5 14.3257 5.4536 13.6929 0.0000 24.4580 0.0000
# 6 0.0000 0.0000 0.0000 -8.8750 0.0000 0.4232
#
#
#
# Elastic Compliance Matrix: (Units=1/GPa)
#
#
# Indices 1 2 3 4 5 6 
#
# 1 0.011942 -0.007415 -0.005758 0.000000 -0.002118 0.000000
# 2 -0.007415 0.032852 -0.006187 0.000000 0.000482 0.000000
# 3 -0.005758 -0.006187 0.018056 0.000000 -0.005357 0.000000
# 4 0.000000 0.000000 0.000000 -0.005696 0.000000 -0.119464
# 5 -0.002118 0.000482 -0.005357 0.000000 0.045019 0.000000
# 6 0.000000 0.000000 0.000000 -0.119464 0.000000 -0.142369
#
#
# Mechanical properties :
#
#
# Convention : Reuss Voigt Hill
#
# Bulk Modulus (GPa) = 41.44102 63.65229 52.54665
# Shear Modulus (GPa) = 761.21538 16.48037 388.84787
#
# Velocity S-wave (km/s) = 20.85499 3.06860 14.90548
# Velocity P-wave (km/s) = 24.56797 6.99454 18.06251
#
# Compressibility (1/GPa) = 0.02413068
#
# Stress axis : x y z
#
# Youngs Moduli (GPa) = 83.73497 30.43911 55.38221
#
# Poissons Ratio (x) = 0.22572 0.31888
# Poissons Ratio (y) = 0.62093 0.34265
# Poissons Ratio (z) = 0.48213 0.18833
#
# Static dielectric constant tensor:
#      x y z
#    x 3.952940 0.000000 0.418850 
#    y 0.000000 3.253880 0.000000 
#    z 0.418850 0.000000 3.034660 
# 
# 
# High freq. dielectric constant tensor:
#      x y z
#    x 1.690950 0.000000 0.027620 
#    y 0.000000 1.682400 0.000000 
#    z 0.027620 0.000000 1.631590 
# 
# From -- ./inp_files/79975.got.cif
#   From: 2010.06.25/outbox.cif.g09.slc.cpg/sg10_40_cif.got.tgz:79975.got - 2010.06.27 22:07:45.
