data_PCOD8057156
_publ_section_title
;
Structure prediction by ZEFSAII (Michael W. Deem and Ramdas Pophale) SiO2 
 PCOD8057156
Probable space group: P 2/M
;
_chemical_formula_sum "Si O2"
_cell_formula_units_Z 32
_cell_length_a 29.811158
_cell_length_b 14.722724
_cell_length_c 15.235583
_cell_angle_alpha 90.000000
_cell_angle_beta 19.321381
_cell_angle_gamma 90.000000
_cell_volume 2212.478094
_symmetry_space_group_name_H-M "P 2/M"
_symmetry_group_IT_number 10
_symmetry_cell_setting 'monoclinic'
loop_
_space_group_symop_operation_xyz
x,y,z
-x,y,-z
-x,-y,-z
x,-y,z
loop_
_atom_site_type_symbol
_atom_site_label
_atom_site_fract_x
_atom_site_fract_y
_atom_site_fract_z
Si Si1 0.961018 0.399164 0.470859
Si Si2 0.778958 0.895161 0.689982
Si Si3 0.081400 0.103236 0.113891
Si Si4 0.745631 0.258891 0.893864
Si Si5 0.178630 0.260452 0.050282
Si Si6 0.479482 0.107193 0.941630
Si Si7 0.653647 0.105073 0.463540
Si Si8 0.461199 0.220397 0.475748
O O1 0.948712 0.500000 0.452185
O O2 0.818047 0.347105 0.717570
O O3 0.000000 0.407732 0.500000
O O4 0.082033 0.343732 0.200222
O O5 0.765074 0.831299 0.800306
O O6 0.925674 0.881909 0.372941
O O7 0.758323 0.000000 0.758222
O O8 0.669117 0.867056 0.819908
O O9 0.105315 0.000000 0.101360
O O10 0.117491 0.166816 0.128255
O O11 0.184676 0.125043 0.842286
O O12 0.820441 0.243138 0.847769
O O13 0.585807 0.278792 0.205470
O O14 0.327434 0.283047 0.735503
O O15 0.593131 0.148070 0.664975
O O16 0.497317 0.000000 0.916953
O O17 0.500000 0.151780 0.000000
O O18 0.573151 0.139697 0.527005
O O19 0.619730 0.000000 0.528777
O O20 0.500000 0.179360 0.500000
#
# Coordination Sequence:
#
# PCOD8057156 Si02
#       8
#     4   4   4   4   4   4   4   4
#     4   9  17  29  43  57  78 111 146 176 208 247
#     4  10  18  27  41  61  84 111 142 176 210 245
#     4   9  17  27  39  59  86 113 139 170 209 247
#     4  10  17  27  41  60  84 111 143 178 208 240
#     4   9  17  28  40  58  84 115 144 170 205 249
#     4   9  17  29  43  58  79 112 150 179 207 246
#     4   9  16  27  40  56  82 116 146 172 206 244
#     4   9  17  26  39  59  84 111 140 172 210 248
#
# _framework density 14.463419999999999
#
# number of rings (size 3 to 8) (size 9 to 14) (size 15 to 20)
#    0.000    2.750    2.500    0.000    0.000    0.750 
#    0.000    5.000    0.000    7.500    0.000    0.000 
#    0.000    0.500    0.000    4.750    0.000    0.500 
#
# Total GULP energy -396471.952340 kJ/mol
# GULP energy per Si atom -12389.748511 kJ/mol
# Density = 1.443050 g / cm^3
# Si number density = 14.463420 Si / 1000 Ang^3
#
#
#
# Elastic Constant Matrix: (Units=GPa)
#
#
# Indices 1 2 3 4 5 6 
#
# 1 65.8041 30.9510 51.3479 0.0000 4.8568 0.0000
# 2 30.9510 67.4516 46.7394 0.0000 -2.3846 0.0000
# 3 51.3479 46.7394 140.8031 0.0000 -6.3415 0.0000
# 4 0.0000 0.0000 0.0000 12.5584 0.0000 -2.8416
# 5 4.8568 -2.3846 -6.3415 0.0000 17.8800 0.0000
# 6 0.0000 0.0000 0.0000 -2.8416 0.0000 2.9286
#
#
#
# Elastic Compliance Matrix: (Units=1/GPa)
#
#
# Indices 1 2 3 4 5 6 
#
# 1 0.024770 -0.006687 -0.007273 0.000000 -0.010199 0.000000
# 2 -0.006687 0.021061 -0.004415 0.000000 0.003059 0.000000
# 3 -0.007273 -0.004415 0.011465 0.000000 0.005453 0.000000
# 4 0.000000 0.000000 0.000000 0.102027 0.000000 0.098994
# 5 -0.010199 0.003059 0.005453 0.000000 0.061041 0.000000
# 6 0.000000 0.000000 0.000000 0.098994 0.000000 0.437508
#
#
# Mechanical properties :
#
#
# Convention : Reuss Voigt Hill
#
# Bulk Modulus (GPa) = 48.66816 59.12616 53.89716
# Shear Modulus (GPa) = 7.12788 16.34144 11.73466
#
# Velocity S-wave (km/s) = 2.22237 3.36497 2.85148
# Velocity P-wave (km/s) = 6.34881 7.48771 6.94166
#
# Compressibility (1/GPa) = 0.02054731
#
# Stress axis : x y z
#
# Youngs Moduli (GPa) = 40.37222 47.48067 87.21932
#
# Poissons Ratio (x) = 0.31750 0.63430
# Poissons Ratio (y) = 0.26997 0.38506
# Poissons Ratio (z) = 0.29361 0.20962
#
# Static dielectric constant tensor:
#      x y z
#    x 2.669500 0.000000 -0.027150 
#    y 0.000000 2.644670 0.000000 
#    z -0.027150 0.000000 3.308610 
# 
# 
# High freq. dielectric constant tensor:
#      x y z
#    x 1.515530 0.000000 -0.007140 
#    y 0.000000 1.511290 0.000000 
#    z -0.007140 0.000000 1.579710 
# 
# From -- ./inp_files/72692.got.cif
#   From: 2010.06.25/outbox.cif.g09.slc.cpg/sg10_37_cif.got.tgz:72692.got - 2010.06.27 22:07:45.
