data_PCOD8057034
_publ_section_title
;
Structure prediction by ZEFSAII (Michael W. Deem and Ramdas Pophale) SiO2 
 PCOD8057034
Probable space group: P 2/M
;
_chemical_formula_sum "Si O2"
_cell_formula_units_Z 32
_cell_length_a 12.365178
_cell_length_b 13.117163
_cell_length_c 16.957623
_cell_angle_alpha 90.000000
_cell_angle_beta 119.371689
_cell_angle_gamma 90.000000
_cell_volume 2396.905228
_symmetry_space_group_name_H-M "P 2/M"
_symmetry_group_IT_number 10
_symmetry_cell_setting 'monoclinic'
loop_
_space_group_symop_operation_xyz
x,y,z
-x,y,-z
-x,-y,-z
x,-y,z
loop_
_atom_site_type_symbol
_atom_site_label
_atom_site_fract_x
_atom_site_fract_y
_atom_site_fract_z
Si Si1 0.876362 0.118040 0.907637
Si Si2 0.257469 0.192766 0.885843
Si Si3 0.015381 0.881288 0.219258
Si Si4 0.939275 0.879592 0.593451
Si Si5 0.598775 0.882111 0.211016
Si Si6 0.188658 0.878821 0.603500
Si Si7 0.657201 0.213193 0.918454
Si Si8 0.640343 0.386320 0.021982
O O1 0.895962 0.142241 0.822461
O O2 0.765646 0.191274 0.894987
O O3 0.840014 0.000000 0.908250
O O4 0.000000 0.145264 0.000000
O O5 0.322917 0.129680 0.840825
O O6 0.110629 0.181057 0.833155
O O7 0.314040 0.151839 0.989583
O O8 0.285103 0.314771 0.889067
O O9 0.086601 0.847522 0.325188
O O10 0.978978 0.000000 0.208743
O O11 0.831441 0.840768 0.494513
O O12 0.073561 0.836958 0.614531
O O13 0.943256 0.000000 0.586828
O O14 0.682127 0.838580 0.313509
O O15 0.472642 0.819202 0.165488
O O16 0.565297 0.000000 0.210738
O O17 0.191589 0.000000 0.610073
O O18 0.650381 0.333872 0.938409
O O19 0.697668 0.500000 0.039256
O O20 0.500000 0.390524 0.000000
#
# Coordination Sequence:
#
# PCOD8057034 Si02
#       8
#     4   4   4   4   4   4   4   4
#     4  10  18  27  38  54  81 116 142 161 188 225
#     4  10  17  27  39  61  80 104 132 162 199 236
#     4  10  17  25  41  59  83 113 140 166 188 224
#     4   8  13  23  36  53  75 107 141 165 188 221
#     4  11  18  24  36  60  88 109 125 159 205 240
#     4   8  14  22  35  53  79 107 133 164 196 226
#     4  10  19  29  38  57  80 108 135 165 194 239
#     4   9  17  31  43  54  77 106 134 164 201 241
#
# _framework density 13.350548
#
# number of rings (size 3 to 8) (size 9 to 14) (size 15 to 20)
#    0.750    1.750    3.750    1.875    0.000    2.000 
#    0.000    0.000    0.000    4.125    0.000    4.375 
#    0.000    3.000    0.000    1.125    0.000    0.125 
#
# Total GULP energy -396440.922966 kJ/mol
# GULP energy per Si atom -12388.778843 kJ/mol
# Density = 1.332016 g / cm^3
# Si number density = 13.350548 Si / 1000 Ang^3
#
#
#
# Elastic Constant Matrix: (Units=GPa)
#
#
# Indices 1 2 3 4 5 6 
#
# 1 69.6260 19.1970 36.4638 0.0000 -2.2087 0.0000
# 2 19.1970 44.2201 13.4678 0.0000 0.3890 0.0000
# 3 36.4638 13.4678 109.7760 0.0000 -3.1039 0.0000
# 4 0.0000 0.0000 0.0000 1.8670 0.0000 2.6024
# 5 -2.2087 0.3890 -3.1039 0.0000 19.8515 0.0000
# 6 0.0000 0.0000 0.0000 2.6024 0.0000 11.2353
#
#
#
# Elastic Compliance Matrix: (Units=1/GPa)
#
#
# Indices 1 2 3 4 5 6 
#
# 1 0.019115 -0.006637 -0.005496 0.000000 0.001398 0.000000
# 2 -0.006637 0.025813 -0.001002 0.000000 -0.001401 0.000000
# 3 -0.005496 -0.001002 0.011090 0.000000 0.001142 0.000000
# 4 0.000000 0.000000 0.000000 0.791020 0.000000 -0.183220
# 5 0.001398 -0.001401 0.001142 0.000000 0.050735 0.000000
# 6 0.000000 0.000000 0.000000 -0.183220 0.000000 0.131444
#
#
# Mechanical properties :
#
#
# Convention : Reuss Voigt Hill
#
# Bulk Modulus (GPa) = 33.61432 40.20883 36.91157
# Shear Modulus (GPa) = 4.69307 16.89031 10.79169
#
# Velocity S-wave (km/s) = 1.87694 3.56074 2.84620
# Velocity P-wave (km/s) = 5.47084 6.86209 6.20558
#
# Compressibility (1/GPa) = 0.02974923
#
# Stress axis : x y z
#
# Youngs Moduli (GPa) = 52.31576 38.74043 90.17058
#
# Poissons Ratio (x) = 0.25711 0.49553
# Poissons Ratio (y) = 0.34721 0.09035
# Poissons Ratio (z) = 0.28750 0.03882
#
# Static dielectric constant tensor:
#      x y z
#    x 2.555480 0.000000 -0.041890 
#    y 0.000000 2.386060 0.000000 
#    z -0.041890 0.000000 2.948740 
# 
# 
# High freq. dielectric constant tensor:
#      x y z
#    x 1.494920 0.000000 0.000300 
#    y 0.000000 1.457120 0.000000 
#    z 0.000300 0.000000 1.509820 
# 
# From -- ./inp_files/76437.got.cif
#   From: 2010.06.25/outbox.cif.g09.slc.cpg/sg10_39_cif.got.tgz:76437.got - 2010.06.27 22:07:45.
