data_PCOD8057019
_publ_section_title
;
Structure prediction by ZEFSAII (Michael W. Deem and Ramdas Pophale) SiO2 
 PCOD8057019
Probable space group: P 2/M
;
_chemical_formula_sum "Si O2"
_cell_formula_units_Z 32
_cell_length_a 33.318999
_cell_length_b 8.941571
_cell_length_c 22.316006
_cell_angle_alpha 90.000000
_cell_angle_beta 162.335868
_cell_angle_gamma 90.000000
_cell_volume 2017.391740
_symmetry_space_group_name_H-M "P 2/M"
_symmetry_group_IT_number 10
_symmetry_cell_setting 'monoclinic'
loop_
_space_group_symop_operation_xyz
x,y,z
-x,y,-z
-x,-y,-z
x,-y,z
loop_
_atom_site_type_symbol
_atom_site_label
_atom_site_fract_x
_atom_site_fract_y
_atom_site_fract_z
Si Si1 0.699444 0.175294 0.052776
Si Si2 0.177715 0.326277 0.233313
Si Si3 0.764100 0.325926 0.506674
Si Si4 0.189306 0.175686 0.661317
Si Si5 0.977098 0.822666 0.878380
Si Si6 0.057944 0.331303 0.648643
Si Si7 0.426800 0.671125 0.657320
Si Si8 0.652880 0.326418 0.218728
O O1 0.732659 0.225828 0.167830
O O2 0.799871 0.251029 0.148551
O O3 0.714145 0.000000 0.065826
O O4 0.551931 0.223631 0.826646
O O5 0.136885 0.500000 0.178024
O O6 0.108746 0.235675 0.188422
O O7 0.335285 0.309856 0.467620
O O8 0.124469 0.251565 0.095431
O O9 0.797268 0.500000 0.561698
O O10 0.900881 0.234022 0.710502
O O11 0.653059 0.278617 0.396990
O O12 0.709960 0.286077 0.364639
O O13 0.272584 0.226997 0.723260
O O14 0.044032 0.249596 0.451959
O O15 0.169003 0.000000 0.630639
O O16 0.989969 0.000000 0.895977
O O17 0.076603 0.500000 0.697730
O O18 0.000000 0.323137 0.500000
O O19 0.474234 0.500000 0.731893
O O20 0.672793 0.500000 0.230998
O O21 0.500000 0.281944 0.000000
#
# Coordination Sequence:
#
# PCOD8057019 Si02
#       8
#     4   4   4   4   4   4   4   4
#     4  10  19  29  43  64  90 116 140 174 221 266
#     4   9  16  27  41  57  81 112 143 175 213 255
#     4   9  18  31  44  59  83 116 151 185 218 252
#     4  10  20  32  45  63  88 115 144 181 224 262
#     4  10  17  25  40  60  81 107 142 180 216 257
#     4   9  17  30  48  65  81 107 144 181 215 257
#     4   9  17  28  43  62  85 115 148 179 212 255
#     4  10  20  33  48  64  84 115 155 190 216 249
#
# _framework density 15.862064999999999
#
# number of rings (size 3 to 8) (size 9 to 14) (size 15 to 20)
#    0.000    2.500    0.000    4.875    0.000    7.250 
#    0.000    0.000    0.000    0.000    0.000    0.000 
#    0.000    1.000    0.000   10.500    0.000    5.250 
#
# Total GULP energy -396690.305149 kJ/mol
# GULP energy per Si atom -12396.572036 kJ/mol
# Density = 1.582596 g / cm^3
# Si number density = 15.862065 Si / 1000 Ang^3
#
#
#
# Elastic Constant Matrix: (Units=GPa)
#
#
# Indices 1 2 3 4 5 6 
#
# 1 47.0442 31.7665 46.7615 0.0000 3.2137 0.0000
# 2 31.7665 86.5630 58.4367 0.0000 1.1300 0.0000
# 3 46.7615 58.4367 120.7012 0.0000 -2.8361 0.0000
# 4 0.0000 0.0000 0.0000 20.2390 0.0000 0.1840
# 5 3.2137 1.1300 -2.8361 0.0000 22.5055 0.0000
# 6 0.0000 0.0000 0.0000 0.1840 0.0000 20.2709
#
#
#
# Elastic Compliance Matrix: (Units=1/GPa)
#
#
# Indices 1 2 3 4 5 6 
#
# 1 0.037299 -0.005561 -0.011912 0.000000 -0.006548 0.000000
# 2 -0.005561 0.018073 -0.006618 0.000000 -0.000947 0.000000
# 3 -0.011912 -0.006618 0.016199 0.000000 0.004075 0.000000
# 4 0.000000 0.000000 0.000000 0.049414 0.000000 -0.000449
# 5 -0.006548 -0.000947 0.004075 0.000000 0.045930 0.000000
# 6 0.000000 0.000000 0.000000 -0.000449 0.000000 0.049336
#
#
# Mechanical properties :
#
#
# Convention : Reuss Voigt Hill
#
# Bulk Modulus (GPa) = 42.75253 58.69305 50.72279
# Shear Modulus (GPa) = 18.36693 20.42600 19.39647
#
# Velocity S-wave (km/s) = 3.40651 3.59238 3.50068
# Velocity P-wave (km/s) = 6.51794 7.36814 6.95604
#
# Compressibility (1/GPa) = 0.02339043
#
# Stress axis : x y z
#
# Youngs Moduli (GPa) = 26.81021 55.33162 61.73073
#
# Poissons Ratio (x) = 0.30770 0.73532
# Poissons Ratio (y) = 0.14909 0.40851
# Poissons Ratio (z) = 0.31936 0.36617
#
# Static dielectric constant tensor:
#      x y z
#    x 2.723740 0.000000 -0.199890 
#    y 0.000000 3.037770 0.000000 
#    z -0.199890 0.000000 3.421720 
# 
# 
# High freq. dielectric constant tensor:
#      x y z
#    x 1.554230 0.000000 -0.006030 
#    y 0.000000 1.619750 0.000000 
#    z -0.006030 0.000000 1.615100 
# 
# From -- ./inp_files/87210.got.cif
#   From: 2010.06.25/outbox.cif.g09.slc.cpg/sg10_44_cif.got.tgz:87210.got - 2010.06.27 22:07:45.
