data_PCOD8057767
_publ_section_title
;
Structure prediction by ZEFSAII (Michael W. Deem and Ramdas Pophale) SiO2 
 PCOD8057767
Probable space group: P 2/M
;
_chemical_formula_sum "Si O2"
_cell_formula_units_Z 30
_cell_length_a 18.170287
_cell_length_b 13.105593
_cell_length_c 14.689874
_cell_angle_alpha 90.000000
_cell_angle_beta 149.631642
_cell_angle_gamma 90.000000
_cell_volume 1768.507760
_symmetry_space_group_name_H-M "P 2/M"
_symmetry_group_IT_number 10
_symmetry_cell_setting 'monoclinic'
loop_
_space_group_symop_operation_xyz
x,y,z
-x,y,-z
-x,-y,-z
x,-y,z
loop_
_atom_site_type_symbol
_atom_site_label
_atom_site_fract_x
_atom_site_fract_y
_atom_site_fract_z
Si Si1 0.500000 0.748998 0.500000
Si Si2 0.762771 0.382373 0.727629
Si Si3 0.798006 0.880380 0.434188
Si Si4 0.197721 0.117982 0.763287
Si Si5 0.492195 0.882841 0.161250
Si Si6 0.071675 0.799692 0.806534
Si Si7 0.974152 0.382638 0.118834
Si Si8 0.654597 0.880743 0.813633
O O1 0.387613 0.680513 0.438443
O O2 0.598895 0.820112 0.667827
O O3 0.721837 0.500000 0.669805
O O4 0.875308 0.347729 0.768886
O O5 0.839460 0.366568 0.906850
O O6 0.852941 0.847489 0.391513
O O7 0.642572 0.828159 0.292281
O O8 0.911644 0.849921 0.633526
O O9 0.774907 0.000000 0.405640
O O10 0.131299 0.194196 0.767097
O O11 0.151163 0.000000 0.736260
O O12 0.373140 0.127704 0.954090
O O13 0.430933 0.836427 0.189989
O O14 0.524215 0.000000 0.216672
O O15 0.055070 0.683195 0.821810
O O16 0.173403 0.861291 0.985634
O O17 0.984605 0.500000 0.160335
O O18 0.630144 0.000000 0.770509
#
# Coordination Sequence:
#
# PCOD8057767 Si02
#       8
#     2   4   4   4   4   4   4   4
#     4  12  20  32  56  76  98 132 170 200 240 310
#     4   9  19  36  57  78  96 117 160 218 263 295
#     4  10  18  28  48  75  99 131 172 211 241 285
#     4   9  17  30  48  72 103 134 165 205 250 286
#     4   8  16  30  46  66  97 133 168 204 239 278
#     4  11  19  31  50  72  99 132 169 201 245 300
#     4   9  19  37  55  73  99 125 155 210 269 302
#     4  10  21  34  45  68 108 145 165 195 242 290
#
# _framework density 16.963453999999999
#
# number of rings (size 3 to 8) (size 9 to 14) (size 15 to 20)
#    0.000    2.400    1.333    4.000    1.867    2.667 
#    0.000    0.000    0.000    2.400    0.000    0.000 
#    0.000    3.467    0.000    0.000    0.000    0.000 
#
# Total GULP energy -371828.826258 kJ/mol
# GULP energy per Si atom -12394.294209 kJ/mol
# Density = 1.692484 g / cm^3
# Si number density = 16.963454 Si / 1000 Ang^3
#
#
#
# Elastic Constant Matrix: (Units=GPa)
#
#
# Indices 1 2 3 4 5 6 
#
# 1 70.9930 47.1649 34.7948 0.0000 0.7766 0.0000
# 2 47.1649 60.8232 33.0404 0.0000 1.0062 0.0000
# 3 34.7948 33.0404 101.6199 0.0000 1.1415 0.0000
# 4 0.0000 0.0000 0.0000 18.8369 0.0000 -0.6747
# 5 0.7766 1.0062 1.1415 0.0000 26.8359 0.0000
# 6 0.0000 0.0000 0.0000 -0.6747 0.0000 21.4285
#
#
#
# Elastic Compliance Matrix: (Units=1/GPa)
#
#
# Indices 1 2 3 4 5 6 
#
# 1 0.029928 -0.021426 -0.003282 0.000000 0.000077 0.000000
# 2 -0.021426 0.035313 -0.004139 0.000000 -0.000528 0.000000
# 3 -0.003282 -0.004139 0.012313 0.000000 -0.000274 0.000000
# 4 0.000000 0.000000 0.000000 0.053147 0.000000 0.001673
# 5 0.000077 -0.000528 -0.000274 0.000000 0.037293 0.000000
# 6 0.000000 0.000000 0.000000 0.001673 0.000000 0.046719
#
#
# Mechanical properties :
#
#
# Convention : Reuss Voigt Hill
#
# Bulk Modulus (GPa) = 50.35275 51.49290 50.92283
# Shear Modulus (GPa) = 17.91933 21.31601 19.61767
#
# Velocity S-wave (km/s) = 3.25368 3.54868 3.40438
# Velocity P-wave (km/s) = 6.62290 6.87109 6.74814
#
# Compressibility (1/GPa) = 0.01985989
#
# Stress axis : x y z
#
# Youngs Moduli (GPa) = 33.41335 28.31818 81.21333
#
# Poissons Ratio (x) = 0.60675 0.26654
# Poissons Ratio (y) = 0.71591 0.33617
# Poissons Ratio (z) = 0.10966 0.11722
#
# Static dielectric constant tensor:
#      x y z
#    x 3.207530 0.000000 0.165630 
#    y 0.000000 2.829290 0.000000 
#    z 0.165630 0.000000 3.337140 
# 
# 
# High freq. dielectric constant tensor:
#      x y z
#    x 1.647610 0.000000 0.012770 
#    y 0.000000 1.608340 0.000000 
#    z 0.012770 0.000000 1.668770 
# 
# From -- ./inp_files/32442.got.cif
#   From: 2010.06.25/outbox.cif.g09.slc.cpg/sg10_17_cif.got.tgz:32442.got - 2010.06.27 22:07:45.
