data_PCOD8057733
_publ_section_title
;
Structure prediction by ZEFSAII (Michael W. Deem and Ramdas Pophale) SiO2 
 PCOD8057733
Probable space group: P 2/M
;
_chemical_formula_sum "Si O2"
_cell_formula_units_Z 28
_cell_length_a 13.756642
_cell_length_b 8.961316
_cell_length_c 14.485768
_cell_angle_alpha 90.000000
_cell_angle_beta 103.894092
_cell_angle_gamma 90.000000
_cell_volume 1733.521515
_symmetry_space_group_name_H-M "P 2/M"
_symmetry_group_IT_number 10
_symmetry_cell_setting 'monoclinic'
loop_
_space_group_symop_operation_xyz
x,y,z
-x,y,-z
-x,-y,-z
x,-y,z
loop_
_atom_site_type_symbol
_atom_site_label
_atom_site_fract_x
_atom_site_fract_y
_atom_site_fract_z
Si Si1 0.616880 0.171920 0.718355
Si Si2 0.716627 0.827534 0.560579
Si Si3 0.638270 0.674039 0.109786
Si Si4 0.268698 0.174001 0.711106
Si Si5 0.587892 0.325943 0.894973
Si Si6 0.890147 0.174114 0.471945
Si Si7 0.580819 0.676788 0.390852
O O1 0.712960 0.189249 0.671240
O O2 0.641964 0.235523 0.825309
O O3 0.529646 0.264054 0.650577
O O4 0.585416 0.000000 0.720537
O O5 0.820126 0.764229 0.539806
O O6 0.623001 0.738441 0.496830
O O7 0.704406 0.000000 0.527574
O O8 0.658642 0.500000 0.128972
O O9 0.724961 0.768556 0.181696
O O10 0.528965 0.717560 0.124458
O O11 0.643732 0.715150 0.002880
O O12 0.160819 0.205921 0.639478
O O13 0.351366 0.269345 0.677635
O O14 0.294862 0.000000 0.711724
O O15 0.597932 0.500000 0.875803
O O16 0.000000 0.251818 0.500000
O O17 0.904435 0.000000 0.491815
O O18 0.578404 0.500000 0.393387
#
# Coordination Sequence:
#
# PCOD8057733 Si02
#       7
#     4   4   4   4   4   4   4
#     4  11  20  29  42  63  91 120 149 185 223 256
#     4   9  19  32  45  64  89 115 147 186 225 264
#     4   9  17  30  45  63  89 121 154 187 220 256
#     4  10  18  28  46  70  92 116 149 187 226 265
#     4   9  18  30  44  62  88 123 158 185 214 257
#     4   8  15  30  50  69  89 114 144 180 225 274
#     4  11  20  29  42  61  88 123 157 182 210 259
#
# _framework density 16.152093000000001
#
# number of rings (size 3 to 8) (size 9 to 14) (size 15 to 20)
#    0.000    2.429    1.429    4.286    0.000    3.429 
#    0.000    1.429    0.000   10.714    0.000    1.000 
#    0.000    8.000    0.000    0.000    0.000    0.000 
#
# Total GULP energy -347024.470149 kJ/mol
# GULP energy per Si atom -12393.731077 kJ/mol
# Density = 1.611533 g / cm^3
# Si number density = 16.152093 Si / 1000 Ang^3
#
#
#
# Elastic Constant Matrix: (Units=GPa)
#
#
# Indices 1 2 3 4 5 6 
#
# 1 63.6533 26.7017 48.6761 0.0000 0.6171 0.0000
# 2 26.7017 74.3744 45.4904 0.0000 -3.2380 0.0000
# 3 48.6761 45.4904 127.4270 0.0000 -8.5544 0.0000
# 4 0.0000 0.0000 0.0000 29.6568 0.0000 -1.0556
# 5 0.6171 -3.2380 -8.5544 0.0000 16.8450 0.0000
# 6 0.0000 0.0000 0.0000 -1.0556 0.0000 4.3715
#
#
#
# Elastic Compliance Matrix: (Units=1/GPa)
#
#
# Indices 1 2 3 4 5 6 
#
# 1 0.023462 -0.003781 -0.007991 0.000000 -0.005645 0.000000
# 2 -0.003781 0.017811 -0.004840 0.000000 0.001104 0.000000
# 3 -0.007991 -0.004840 0.013030 0.000000 0.005979 0.000000
# 4 0.000000 0.000000 0.000000 0.034011 0.000000 0.008213
# 5 -0.005645 0.001104 0.005979 0.000000 0.062820 0.000000
# 6 0.000000 0.000000 0.000000 0.008213 0.000000 0.230740
#
#
# Mechanical properties :
#
#
# Convention : Reuss Voigt Hill
#
# Bulk Modulus (GPa) = 47.44326 56.35459 51.89892
# Shear Modulus (GPa) = 11.84481 19.81375 15.82928
#
# Velocity S-wave (km/s) = 2.71094 3.50623 3.13391
# Velocity P-wave (km/s) = 6.26383 7.16639 6.73026
#
# Compressibility (1/GPa) = 0.02107781
#
# Stress axis : x y z
#
# Youngs Moduli (GPa) = 42.62202 56.14375 76.74876
#
# Poissons Ratio (x) = 0.21229 0.61333
# Poissons Ratio (y) = 0.16116 0.37147
# Poissons Ratio (z) = 0.34061 0.27174
#
# Static dielectric constant tensor:
#      x y z
#    x 2.940930 0.000000 -0.057260 
#    y 0.000000 2.964440 0.000000 
#    z -0.057260 0.000000 3.268440 
# 
# 
# High freq. dielectric constant tensor:
#      x y z
#    x 1.572290 0.000000 -0.009520 
#    y 0.000000 1.615280 0.000000 
#    z -0.009520 0.000000 1.627100 
# 
# From -- ./inp_files/65724.got.cif
#   From: 2010.06.25/outbox.cif.g09.slc.cpg/sg10_33_cif.got.tgz:65724.got - 2010.06.27 22:07:45.
