data_PCOD8057568
_publ_section_title
;
Structure prediction by ZEFSAII (Michael W. Deem and Ramdas Pophale) SiO2 
 PCOD8057568
Probable space group: P 2/M
;
_chemical_formula_sum "Si O2"
_cell_formula_units_Z 28
_cell_length_a 23.050310
_cell_length_b 8.649435
_cell_length_c 16.605567
_cell_angle_alpha 90.000000
_cell_angle_beta 149.255648
_cell_angle_gamma 90.000000
_cell_volume 1692.451266
_symmetry_space_group_name_H-M "P 2/M"
_symmetry_group_IT_number 10
_symmetry_cell_setting 'monoclinic'
loop_
_space_group_symop_operation_xyz
x,y,z
-x,y,-z
-x,-y,-z
x,-y,z
loop_
_atom_site_type_symbol
_atom_site_label
_atom_site_fract_x
_atom_site_fract_y
_atom_site_fract_z
Si Si1 0.337280 0.681061 0.339348
Si Si2 0.087315 0.177250 0.862855
Si Si3 0.832880 0.320692 0.282726
Si Si4 0.040509 0.822798 0.439858
Si Si5 0.901337 0.180964 0.941366
Si Si6 0.458116 0.180740 0.333385
Si Si7 0.704364 0.319303 0.977557
O O1 0.347239 0.500000 0.333762
O O2 0.211295 0.725501 0.216323
O O3 0.424163 0.728317 0.513719
O O4 0.367984 0.773657 0.294872
O O5 0.971939 0.200963 0.671617
O O6 0.129405 0.000000 0.906514
O O7 0.058602 0.220815 0.920177
O O8 0.187862 0.283535 0.950110
O O9 0.825441 0.500000 0.293372
O O10 0.838644 0.230947 0.376359
O O11 0.945753 0.283547 0.367494
O O12 0.728166 0.271303 0.099474
O O13 0.018513 0.000000 0.436568
O O14 0.876877 0.000000 0.900779
O O15 0.000000 0.238663 0.000000
O O16 0.405622 0.226051 0.184298
O O17 0.483024 0.000000 0.367042
O O18 0.679157 0.500000 0.940563
#
# Coordination Sequence:
#
# PCOD8057568 Si02
#       7
#     4   4   4   4   4   4   4
#     4  11  21  33  48  67  90 116 151 190 230 269
#     4   9  17  28  42  60  84 116 151 187 224 265
#     4   9  16  24  35  54  82 113 143 174 215 260
#     4   9  15  23  36  54  78 110 147 180 214 256
#     4  10  20  34  50  67  90 121 157 193 229 268
#     4  11  20  31  48  67  90 119 151 185 225 273
#     4  10  18  27  41  63  89 117 147 182 221 265
#
# _framework density 16.544049999999999
#
# number of rings (size 3 to 8) (size 9 to 14) (size 15 to 20)
#    0.000    2.143    1.429    5.571    0.000    2.571 
#    0.000    0.000    0.000    0.000    0.000    0.000 
#    0.000    1.143    0.000   13.143    0.000    3.286 
#
# Total GULP energy -346989.636082 kJ/mol
# GULP energy per Si atom -12392.487003 kJ/mol
# Density = 1.650639 g / cm^3
# Si number density = 16.544050 Si / 1000 Ang^3
#
#
#
# Elastic Constant Matrix: (Units=GPa)
#
#
# Indices 1 2 3 4 5 6 
#
# 1 49.0399 15.4902 46.3103 0.0000 -7.3314 0.0000
# 2 15.4902 51.7476 31.5658 0.0000 -4.8697 0.0000
# 3 46.3103 31.5658 130.1836 0.0000 -26.6166 0.0000
# 4 0.0000 0.0000 0.0000 28.5958 0.0000 -3.4827
# 5 -7.3314 -4.8697 -26.6166 0.0000 26.0587 0.0000
# 6 0.0000 0.0000 0.0000 -3.4827 0.0000 5.6199
#
#
#
# Elastic Compliance Matrix: (Units=1/GPa)
#
#
# Indices 1 2 3 4 5 6 
#
# 1 0.031286 -0.002915 -0.011040 0.000000 -0.003019 0.000000
# 2 -0.002915 0.023013 -0.004843 0.000000 -0.001466 0.000000
# 3 -0.011040 -0.004843 0.015121 0.000000 0.011433 0.000000
# 4 0.000000 0.000000 0.000000 0.037825 0.000000 0.023441
# 5 -0.003019 -0.001466 0.011433 0.000000 0.048930 0.000000
# 6 0.000000 0.000000 0.000000 0.023441 0.000000 0.192466
#
#
# Mechanical properties :
#
#
# Convention : Reuss Voigt Hill
#
# Bulk Modulus (GPa) = 31.42229 46.41152 38.91691
# Shear Modulus (GPa) = 12.59937 21.22852 16.91395
#
# Velocity S-wave (km/s) = 2.76264 3.58600 3.20090
# Velocity P-wave (km/s) = 5.40468 6.72756 6.10207
#
# Compressibility (1/GPa) = 0.03182454
#
# Stress axis : x y z
#
# Youngs Moduli (GPa) = 31.96268 43.45306 66.13528
#
# Poissons Ratio (x) = 0.12667 0.73013
# Poissons Ratio (y) = 0.09318 0.32028
# Poissons Ratio (z) = 0.35287 0.21044
#
# Static dielectric constant tensor:
#      x y z
#    x 2.794040 0.000000 -0.583260 
#    y 0.000000 3.146730 0.000000 
#    z -0.583260 0.000000 3.665440 
# 
# 
# High freq. dielectric constant tensor:
#      x y z
#    x 1.565850 0.000000 -0.046000 
#    y 0.000000 1.648590 0.000000 
#    z -0.046000 0.000000 1.647870 
# 
# From -- ./inp_files/79870.got.cif
#   From: 2010.06.25/outbox.cif.g09.slc.cpg/sg10_40_cif.got.tgz:79870.got - 2010.06.27 22:07:45.
