data_PCOD8057124
_publ_section_title
;
Structure prediction by ZEFSAII (Michael W. Deem and Ramdas Pophale) SiO2 
 PCOD8057124
Probable space group: P 2/M
;
_chemical_formula_sum "Si O2"
_cell_formula_units_Z 30
_cell_length_a 12.412539
_cell_length_b 14.754524
_cell_length_c 17.068031
_cell_angle_alpha 90.000000
_cell_angle_beta 34.532160
_cell_angle_gamma 90.000000
_cell_volume 1771.951177
_symmetry_space_group_name_H-M "P 2/M"
_symmetry_group_IT_number 10
_symmetry_cell_setting 'monoclinic'
loop_
_space_group_symop_operation_xyz
x,y,z
-x,y,-z
-x,-y,-z
x,-y,z
loop_
_atom_site_type_symbol
_atom_site_label
_atom_site_fract_x
_atom_site_fract_y
_atom_site_fract_z
Si Si1 0.289038 0.901023 0.201943
Si Si2 0.000000 0.857152 0.500000
Si Si3 0.914782 0.104308 0.834452
Si Si4 0.332870 0.896258 0.538603
Si Si5 0.520242 0.399045 0.080178
Si Si6 0.391471 0.214358 0.912813
Si Si7 0.339255 0.228230 0.386373
Si Si8 0.788379 0.601891 0.607346
O O1 0.134382 0.915548 0.363192
O O2 0.176680 0.866924 0.193271
O O3 0.455605 0.829681 0.118818
O O4 0.382996 0.000000 0.132550
O O5 0.139011 0.798293 0.469456
O O6 0.137769 0.126838 0.699989
O O7 0.880218 0.000000 0.874964
O O8 0.809962 0.162712 0.964287
O O9 0.500000 0.887306 0.500000
O O10 0.368818 0.820510 0.451250
O O11 0.324239 0.000000 0.509285
O O12 0.606655 0.500000 0.044900
O O13 0.650294 0.318796 0.037858
O O14 0.318213 0.389585 0.245102
O O15 0.500000 0.384450 0.000000
O O16 0.476107 0.202241 0.775360
O O17 0.316029 0.337978 0.397987
O O18 0.786340 0.500000 0.575602
O O19 0.000000 0.635135 0.500000
#
# Coordination Sequence:
#
# PCOD8057124 Si02
#       8
#     4   2   4   4   4   4   4   4
#     4  10  18  26  40  65 100 132 158 191 242 299
#     4  10  17  26  43  72  98 128 163 202 237 296
#     4  10  19  32  48  69  96 128 161 200 249 298
#     4  10  22  39  56  72  95 134 180 217 252 298
#     4   9  17  28  42  63  97 139 172 195 231 291
#     4  10  20  29  45  73 103 130 158 204 252 306
#     4  10  19  32  51  73 102 132 171 206 253 305
#     4   9  17  29  47  74 107 138 168 205 252 307
#
# _framework density 16.930489000000001
#
# number of rings (size 3 to 8) (size 9 to 14) (size 15 to 20)
#    0.000    2.267    2.000    1.800    0.000    4.800 
#    0.000    0.667    0.000    2.800    0.000    0.000 
#    0.000    4.267    0.000    0.000    0.000    0.000 
#
# Total GULP energy -371723.264852 kJ/mol
# GULP energy per Si atom -12390.775495 kJ/mol
# Density = 1.689195 g / cm^3
# Si number density = 16.930489 Si / 1000 Ang^3
#
#
#
# Elastic Constant Matrix: (Units=GPa)
#
#
# Indices 1 2 3 4 5 6 
#
# 1 50.3750 37.0660 37.2632 0.0000 0.2495 0.0000
# 2 37.0660 104.5624 56.4803 0.0000 5.1065 0.0000
# 3 37.2632 56.4803 110.2572 0.0000 -1.0548 0.0000
# 4 0.0000 0.0000 0.0000 23.6895 0.0000 4.7530
# 5 0.2495 5.1065 -1.0548 0.0000 14.5752 0.0000
# 6 0.0000 0.0000 0.0000 4.7530 0.0000 17.6101
#
#
#
# Elastic Compliance Matrix: (Units=1/GPa)
#
#
# Indices 1 2 3 4 5 6 
#
# 1 0.029878 -0.007218 -0.006385 0.000000 0.001555 0.000000
# 2 -0.007218 0.015360 -0.005483 0.000000 -0.005655 0.000000
# 3 -0.006385 -0.005483 0.014066 0.000000 0.003048 0.000000
# 4 0.000000 0.000000 0.000000 0.044630 0.000000 -0.012046
# 5 0.001555 -0.005655 0.003048 0.000000 0.070785 0.000000
# 6 0.000000 0.000000 0.000000 -0.012046 0.000000 0.060037
#
#
# Mechanical properties :
#
#
# Convention : Reuss Voigt Hill
#
# Bulk Modulus (GPa) = 47.32437 58.53484 52.92961
# Shear Modulus (GPa) = 17.85896 20.13396 18.99646
#
# Velocity S-wave (km/s) = 3.25135 3.45224 3.35330
# Velocity P-wave (km/s) = 6.48906 7.10910 6.80614
#
# Compressibility (1/GPa) = 0.02113076
#
# Stress axis : x y z
#
# Youngs Moduli (GPa) = 33.46963 65.10295 71.09554
#
# Poissons Ratio (x) = 0.46993 0.45396
# Poissons Ratio (y) = 0.24159 0.38982
# Poissons Ratio (z) = 0.21371 0.35696
#
# Static dielectric constant tensor:
#      x y z
#    x 2.983560 0.000000 0.429120 
#    y 0.000000 3.473190 0.000000 
#    z 0.429120 0.000000 3.690710 
# 
# 
# High freq. dielectric constant tensor:
#      x y z
#    x 1.589820 0.000000 0.014910 
#    y 0.000000 1.661740 0.000000 
#    z 0.014910 0.000000 1.666940 
# 
# From -- ./inp_files/76911.got.cif
#   From: 2010.06.25/outbox.cif.g09.slc.cpg/sg10_39_cif.got.tgz:76911.got - 2010.06.27 22:07:45.
