data_PCOD8057520
_publ_section_title
;
Structure prediction by ZEFSAII (Michael W. Deem and Ramdas Pophale) SiO2 
 PCOD8057520
Probable space group: P 2/M
;
_chemical_formula_sum "Si O2"
_cell_formula_units_Z 24
_cell_length_a 23.455113
_cell_length_b 8.964296
_cell_length_c 12.281892
_cell_angle_alpha 90.000000
_cell_angle_beta 144.853076
_cell_angle_gamma 90.000000
_cell_volume 1486.607919
_symmetry_space_group_name_H-M "P 2/M"
_symmetry_group_IT_number 10
_symmetry_cell_setting 'monoclinic'
loop_
_space_group_symop_operation_xyz
x,y,z
-x,y,-z
-x,-y,-z
x,-y,z
loop_
_atom_site_type_symbol
_atom_site_label
_atom_site_fract_x
_atom_site_fract_y
_atom_site_fract_z
Si Si1 0.442571 0.176506 0.807185
Si Si2 0.227006 0.177148 0.417373
Si Si3 0.831317 0.328756 0.894248
Si Si4 0.020628 0.834173 0.160267
Si Si5 0.509474 0.177230 0.675549
Si Si6 0.358463 0.326293 0.277150
O O1 0.329346 0.236261 0.629324
O O2 0.499811 0.222452 0.786687
O O3 0.439769 0.000000 0.814162
O O4 0.500000 0.247631 0.000000
O O5 0.215944 0.243502 0.280553
O O6 0.134436 0.223204 0.351318
O O7 0.227915 0.000000 0.402989
O O8 0.840865 0.500000 0.876045
O O9 0.758657 0.305716 0.883938
O O10 0.940992 0.269665 0.097147
O O11 0.008975 0.000000 0.190405
O O12 0.000000 0.833728 0.000000
O O13 0.419032 0.250419 0.469409
O O14 0.612744 0.244542 0.791005
O O15 0.506593 0.000000 0.654447
O O16 0.386979 0.500000 0.315449
#
# Coordination Sequence:
#
# PCOD8057520 Si02
#       6
#     4   4   4   4   4   4
#     4   9  17  29  46  67  89 114 146 182 217 254
#     4   9  16  28  43  60  86 116 143 175 214 256
#     4  10  18  26  40  62  87 116 143 172 215 259
#     4   8  15  25  39  59  84 113 141 172 213 258
#     4  10  18  28  45  65  84 113 149 179 211 256
#     4  10  19  29  42  61  90 119 141 175 221 259
#
# _framework density 16.144136
#
# number of rings (size 3 to 8) (size 9 to 14) (size 15 to 20)
#    0.000    2.667    1.667    3.500    0.000    5.000 
#    0.000    0.000    0.000    4.500    0.000    1.167 
#    0.000    9.333    0.000    0.000    0.000    0.000 
#
# Total GULP energy -297415.075018 kJ/mol
# GULP energy per Si atom -12392.294792 kJ/mol
# Density = 1.610739 g / cm^3
# Si number density = 16.144136 Si / 1000 Ang^3
#
#
#
# Elastic Constant Matrix: (Units=GPa)
#
#
# Indices 1 2 3 4 5 6 
#
# 1 128.4376 43.5618 65.1166 0.0000 22.8886 0.0000
# 2 43.5618 60.6569 24.4402 0.0000 8.4935 0.0000
# 3 65.1166 24.4402 83.8108 0.0000 13.6384 0.0000
# 4 0.0000 0.0000 0.0000 6.8130 0.0000 9.1613
# 5 22.8886 8.4935 13.6384 0.0000 29.7215 0.0000
# 6 0.0000 0.0000 0.0000 9.1613 0.0000 21.3080
#
#
#
# Elastic Compliance Matrix: (Units=1/GPa)
#
#
# Indices 1 2 3 4 5 6 
#
# 1 0.015945 -0.006813 -0.009424 0.000000 -0.006008 0.000000
# 2 -0.006813 0.021855 -0.000991 0.000000 -0.000544 0.000000
# 3 -0.009424 -0.000991 0.019794 0.000000 -0.001542 0.000000
# 4 0.000000 0.000000 0.000000 0.347926 0.000000 -0.149590
# 5 -0.006008 -0.000544 -0.001542 0.000000 0.039136 0.000000
# 6 0.000000 0.000000 0.000000 -0.149590 0.000000 0.111246
#
#
# Mechanical properties :
#
#
# Convention : Reuss Voigt Hill
#
# Bulk Modulus (GPa) = 43.22124 59.90473 51.56299
# Shear Modulus (GPa) = 8.36022 20.88761 14.62391
#
# Velocity S-wave (km/s) = 2.27810 3.60087 3.01297
# Velocity P-wave (km/s) = 5.80946 7.38073 6.64172
#
# Compressibility (1/GPa) = 0.02313677
#
# Stress axis : x y z
#
# Youngs Moduli (GPa) = 62.71452 45.75714 50.52092
#
# Poissons Ratio (x) = 0.31174 0.47612
# Poissons Ratio (y) = 0.42726 0.05008
# Poissons Ratio (z) = 0.59104 0.04536
#
# Static dielectric constant tensor:
#      x y z
#    x 3.363060 0.000000 0.436480 
#    y 0.000000 3.008540 0.000000 
#    z 0.436480 0.000000 3.104010 
# 
# 
# High freq. dielectric constant tensor:
#      x y z
#    x 1.622820 0.000000 0.036730 
#    y 0.000000 1.615000 0.000000 
#    z 0.036730 0.000000 1.574350 
# 
# From -- ./inp_files/56261.got.cif
#   From: 2010.06.25/outbox.cif.g09.slc.cpg/sg10_29_cif.got.tgz:56261.got - 2010.06.27 22:07:45.
