data_PCOD8057112
_publ_section_title
;
Structure prediction by ZEFSAII (Michael W. Deem and Ramdas Pophale) SiO2 
 PCOD8057112
Probable space group: P 2/M
;
_chemical_formula_sum "Si O2"
_cell_formula_units_Z 24
_cell_length_a 24.542745
_cell_length_b 8.514562
_cell_length_c 18.076081
_cell_angle_alpha 90.000000
_cell_angle_beta 20.050007
_cell_angle_gamma 90.000000
_cell_volume 1295.034745
_symmetry_space_group_name_H-M "P 2/M"
_symmetry_group_IT_number 10
_symmetry_cell_setting 'monoclinic'
loop_
_space_group_symop_operation_xyz
x,y,z
-x,y,-z
-x,-y,-z
x,-y,z
loop_
_atom_site_type_symbol
_atom_site_label
_atom_site_fract_x
_atom_site_fract_y
_atom_site_fract_z
Si Si1 0.230311 0.685574 0.171767
Si Si2 0.773118 0.685091 0.297451
Si Si3 0.431707 0.685097 0.311460
Si Si4 0.859582 0.685459 0.416783
Si Si5 0.928549 0.183549 0.485256
Si Si6 0.046643 0.815159 0.053338
O O1 0.236614 0.500000 0.176686
O O2 0.198121 0.769499 0.290647
O O3 0.093499 0.724651 0.287242
O O4 0.396533 0.754292 0.928546
O O5 0.793148 0.500000 0.263255
O O6 0.610311 0.728376 0.549124
O O7 0.912280 0.750999 0.170866
O O8 0.785432 0.764286 0.199905
O O9 0.435524 0.500000 0.297855
O O10 0.295608 0.747952 0.429351
O O11 0.859127 0.500000 0.429098
O O12 0.855184 0.770740 0.500660
O O13 0.019369 0.735436 0.168191
O O14 0.963464 0.000000 0.445280
O O15 0.039156 0.000000 0.072208
#
# Coordination Sequence:
#
# PCOD8057112 Si02
#       6
#     4   4   4   4   4   4
#     4  10  19  36  57  75  95 130 170 205 244 296
#     4   9  15  27  45  68  98 134 167 200 239 290
#     4   8  17  31  52  78 101 125 167 212 245 284
#     4  10  19  34  53  75 100 132 167 206 249 294
#     4  11  22  36  51  74 102 131 165 205 247 298
#     4  10  17  26  42  70 102 132 163 202 244 290
#
# _framework density 18.532321
#
# number of rings (size 3 to 8) (size 9 to 14) (size 15 to 20)
#    0.000    2.333    0.000    7.500    0.000    0.667 
#    0.000   13.333    0.000    1.000    0.000    7.000 
#    0.000    0.000    0.000    0.000    0.000    0.000 
#
# Total GULP energy -297438.337152 kJ/mol
# GULP energy per Si atom -12393.264048 kJ/mol
# Density = 1.849014 g / cm^3
# Si number density = 18.532321 Si / 1000 Ang^3
#
#
#
# Elastic Constant Matrix: (Units=GPa)
#
#
# Indices 1 2 3 4 5 6 
#
# 1 31.8783 10.3542 47.8240 0.0000 1.2330 0.0000
# 2 10.3542 64.3120 20.2197 0.0000 8.0607 0.0000
# 3 47.8240 20.2197 154.9461 0.0000 14.4335 0.0000
# 4 0.0000 0.0000 0.0000 4.8581 0.0000 15.8461
# 5 1.2330 8.0607 14.4335 0.0000 12.2253 0.0000
# 6 0.0000 0.0000 0.0000 15.8461 0.0000 3.1395
#
#
#
# Elastic Compliance Matrix: (Units=1/GPa)
#
#
# Indices 1 2 3 4 5 6 
#
# 1 0.064283 -0.006567 -0.021104 0.000000 0.022763 0.000000
# 2 -0.006567 0.017863 0.000822 0.000000 -0.012086 0.000000
# 3 -0.021104 0.000822 0.014283 0.000000 -0.015277 0.000000
# 4 0.000000 0.000000 0.000000 -0.013312 0.000000 0.067188
# 5 0.022763 -0.012086 -0.015277 0.000000 0.105507 0.000000
# 6 0.000000 0.000000 0.000000 0.067188 0.000000 -0.020599
#
#
# Mechanical properties :
#
#
# Convention : Reuss Voigt Hill
#
# Bulk Modulus (GPa) = 23.40302 45.32580 34.36441
# Shear Modulus (GPa) = 21.18930 15.56049 18.37489
#
# Velocity S-wave (km/s) = 3.38504 2.90080 3.15223
# Velocity P-wave (km/s) = 5.28523 5.97748 5.64198
#
# Compressibility (1/GPa) = 0.04272952
#
# Stress axis : x y z
#
# Youngs Moduli (GPa) = 15.55632 55.98172 70.01112
#
# Poissons Ratio (x) = 0.36765 1.47753
# Poissons Ratio (y) = 0.10216 -0.05753
# Poissons Ratio (z) = 0.32830 -0.04601
#
# Static dielectric constant tensor:
#      x y z
#    x 3.240110 0.000000 0.443640 
#    y 0.000000 3.327460 0.000000 
#    z 0.443640 0.000000 4.253550 
# 
# 
# High freq. dielectric constant tensor:
#      x y z
#    x 1.680890 0.000000 0.033840 
#    y 0.000000 1.718970 0.000000 
#    z 0.033840 0.000000 1.728030 
# 
# From -- ./inp_files/80422.got.cif
#   From: 2010.06.25/outbox.cif.g09.slc.cpg/sg10_41_cif.got.tgz:80422.got - 2010.06.27 22:07:45.
