data_PCOD8057511
_publ_section_title
;
Structure prediction by ZEFSAII (Michael W. Deem and Ramdas Pophale) SiO2 
 PCOD8057511
Probable space group: P 2/M
;
_chemical_formula_sum "Si O2"
_cell_formula_units_Z 28
_cell_length_a 22.447753
_cell_length_b 8.967331
_cell_length_c 14.148030
_cell_angle_alpha 90.000000
_cell_angle_beta 140.892218
_cell_angle_gamma 90.000000
_cell_volume 1796.432041
_symmetry_space_group_name_H-M "P 2/M"
_symmetry_group_IT_number 10
_symmetry_cell_setting 'monoclinic'
loop_
_space_group_symop_operation_xyz
x,y,z
-x,y,-z
-x,-y,-z
x,-y,z
loop_
_atom_site_type_symbol
_atom_site_label
_atom_site_fract_x
_atom_site_fract_y
_atom_site_fract_z
Si Si1 0.200905 0.324722 0.333269
Si Si2 0.649854 0.821636 0.362268
Si Si3 0.724134 0.177031 0.253294
Si Si4 0.025302 0.675280 0.248015
Si Si5 0.459153 0.163877 0.054486
Si Si6 0.910008 0.831604 0.956335
Si Si7 0.064809 0.824945 0.491781
O O1 0.210642 0.500000 0.332639
O O2 0.300883 0.255751 0.487885
O O3 0.122017 0.281693 0.313762
O O4 0.175078 0.254638 0.200058
O O5 0.706372 0.768736 0.338401
O O6 0.540723 0.760901 0.220206
O O7 0.652891 0.000000 0.377055
O O8 0.828648 0.226405 0.350846
O O9 0.711489 0.000000 0.234677
O O10 0.643787 0.245617 0.082253
O O11 0.009181 0.500000 0.228943
O O12 0.027125 0.735849 0.355983
O O13 0.935873 0.749572 0.085707
O O14 0.442639 0.000000 0.077159
O O15 0.500000 0.149468 0.000000
O O16 0.878003 0.000000 0.939097
O O17 0.000000 0.828231 0.000000
O O18 0.000000 0.782543 0.500000
O O19 0.061843 0.000000 0.464294
#
# Coordination Sequence:
#
# PCOD8057511 Si02
#       7
#     4   4   4   4   4   4   4
#     4  10  18  26  38  59  86 111 135 163 201 247
#     4   9  14  22  39  58  77 105 139 168 198 239
#     4   8  13  23  38  55  78 104 134 174 209 235
#     4  10  19  30  42  56  80 111 139 169 207 245
#     4   7  11  19  34  56  75  98 134 169 200 237
#     4   9  17  28  43  60  78 104 138 170 201 240
#     4  10  19  29  43  62  81 106 143 180 209 238
#
# _framework density 15.586452
#
# number of rings (size 3 to 8) (size 9 to 14) (size 15 to 20)
#    0.000    3.000    1.429    3.000    0.000    3.143 
#    0.000    0.000    0.000    4.714    0.000    0.000 
#    0.000    1.143    0.000   13.429    0.000    2.571 
#
# Total GULP energy -346917.496679 kJ/mol
# GULP energy per Si atom -12389.910596 kJ/mol
# Density = 1.555098 g / cm^3
# Si number density = 15.586452 Si / 1000 Ang^3
#
#
#
# Elastic Constant Matrix: (Units=GPa)
#
#
# Indices 1 2 3 4 5 6 
#
# 1 48.4930 17.8612 45.5792 0.0000 8.9332 0.0000
# 2 17.8612 55.0825 51.5977 0.0000 -0.0238 0.0000
# 3 45.5792 51.5977 170.4044 0.0000 20.4150 0.0000
# 4 0.0000 0.0000 0.0000 10.2375 0.0000 -6.2419
# 5 8.9332 -0.0238 20.4150 0.0000 18.3866 0.0000
# 6 0.0000 0.0000 0.0000 -6.2419 0.0000 8.4880
#
#
#
# Elastic Compliance Matrix: (Units=1/GPa)
#
#
# Indices 1 2 3 4 5 6 
#
# 1 0.028773 -0.004204 -0.005476 0.000000 -0.007905 0.000000
# 2 -0.004204 0.027610 -0.008633 0.000000 0.011664 0.000000
# 3 -0.005476 -0.008633 0.011107 0.000000 -0.009683 0.000000
# 4 0.000000 0.000000 0.000000 0.177075 0.000000 0.130218
# 5 -0.007905 0.011664 -0.009683 0.000000 0.068995 0.000000
# 6 0.000000 0.000000 0.000000 0.130218 0.000000 0.213573
#
#
# Mechanical properties :
#
#
# Convention : Reuss Voigt Hill
#
# Bulk Modulus (GPa) = 32.40004 56.00623 44.20314
# Shear Modulus (GPa) = 8.71009 18.01854 13.36431
#
# Velocity S-wave (km/s) = 2.36651 3.40374 2.93137
# Velocity P-wave (km/s) = 5.31974 7.17342 6.31496
#
# Compressibility (1/GPa) = 0.03086416
#
# Stress axis : x y z
#
# Youngs Moduli (GPa) = 34.75438 36.21934 90.03102
#
# Poissons Ratio (x) = 0.15225 0.49304
# Poissons Ratio (y) = 0.14610 0.77724
# Poissons Ratio (z) = 0.19033 0.31268
#
# Static dielectric constant tensor:
#      x y z
#    x 2.583170 0.000000 0.289170 
#    y 0.000000 2.735560 0.000000 
#    z 0.289170 0.000000 3.340280 
# 
# 
# High freq. dielectric constant tensor:
#      x y z
#    x 1.529280 0.000000 0.018940 
#    y 0.000000 1.576580 0.000000 
#    z 0.018940 0.000000 1.617600 
# 
# From -- ./inp_files/54970.got.cif
#   From: 2010.06.25/outbox.cif.g09.slc.cpg/sg10_28_cif.got.tgz:54970.got - 2010.06.27 22:07:45.
