data_PCOD8057958
_publ_section_title
;
Structure prediction by ZEFSAII (Michael W. Deem and Ramdas Pophale) SiO2 
 PCOD8057958
Probable space group: P 2/M
;
_chemical_formula_sum "Si O2"
_cell_formula_units_Z 28
_cell_length_a 22.361228
_cell_length_b 13.690840
_cell_length_c 18.765997
_cell_angle_alpha 90.000000
_cell_angle_beta 17.025982
_cell_angle_gamma 90.000000
_cell_volume 1682.195116
_symmetry_space_group_name_H-M "P 2/M"
_symmetry_group_IT_number 10
_symmetry_cell_setting 'monoclinic'
loop_
_space_group_symop_operation_xyz
x,y,z
-x,y,-z
-x,-y,-z
x,-y,z
loop_
_atom_site_type_symbol
_atom_site_label
_atom_site_fract_x
_atom_site_fract_y
_atom_site_fract_z
Si Si1 0.572924 0.612367 0.843137
Si Si2 0.609286 0.612780 0.094057
Si Si3 0.029703 0.615232 0.684169
Si Si4 0.328382 0.764242 0.749375
Si Si5 0.640536 0.729753 0.514967
Si Si6 0.010964 0.613925 0.106493
Si Si7 0.962113 0.113188 0.126818
O O1 0.622549 0.500000 0.803995
O O2 0.395133 0.622101 0.986508
O O3 0.778483 0.661625 0.576852
O O4 0.500000 0.663835 0.000000
O O5 0.561120 0.500000 0.171894
O O6 0.436771 0.684356 0.322415
O O7 0.829702 0.646559 0.869098
O O8 0.058385 0.500000 0.655267
O O9 0.016575 0.651058 0.780492
O O10 0.500000 0.801543 0.500000
O O11 0.438149 0.739263 0.698268
O O12 0.218092 0.666714 0.844109
O O13 0.157027 0.848926 0.950266
O O14 0.813243 0.653525 0.288260
O O15 0.755103 0.834012 0.390296
O O16 0.037821 0.500000 0.064276
O O17 0.931522 0.000000 0.177687
O O18 0.000000 0.134020 0.000000
#
# Coordination Sequence:
#
# PCOD8057958 Si02
#       7
#     4   4   4   4   4   4   4
#     4   9  17  28  42  64  96 133 174 213 240 271
#     4  10  18  29  48  70  97 137 172 199 240 287
#     4   9  16  27  43  64  90 128 172 202 233 276
#     4  11  22  35  51  75  99 125 166 211 250 292
#     4  11  20  33  53  72  97 127 167 207 244 301
#     4  10  20  32  48  69  98 136 173 205 238 285
#     4  10  22  39  57  75  95 122 158 205 262 315
#
# _framework density 16.644917
#
# number of rings (size 3 to 8) (size 9 to 14) (size 15 to 20)
#    0.000    2.000    4.286    0.429    0.000    2.286 
#    0.000    3.571    0.000    0.000    0.000    0.000 
#    0.000    0.571    0.000    2.714    0.000    0.143 
#
# Total GULP energy -346982.887338 kJ/mol
# GULP energy per Si atom -12392.245976 kJ/mol
# Density = 1.660703 g / cm^3
# Si number density = 16.644917 Si / 1000 Ang^3
#
#
#
# Elastic Constant Matrix: (Units=GPa)
#
#
# Indices 1 2 3 4 5 6 
#
# 1 68.4154 20.0188 25.0583 0.0000 -13.1846 0.0000
# 2 20.0188 85.7413 23.9094 0.0000 -7.6238 0.0000
# 3 25.0583 23.9094 70.6372 0.0000 -18.0739 0.0000
# 4 0.0000 0.0000 0.0000 16.7947 0.0000 -3.3288
# 5 -13.1846 -7.6238 -18.0739 0.0000 32.1777 0.0000
# 6 0.0000 0.0000 0.0000 -3.3288 0.0000 9.6117
#
#
#
# Elastic Compliance Matrix: (Units=1/GPa)
#
#
# Indices 1 2 3 4 5 6 
#
# 1 0.017777 -0.002559 -0.004358 0.000000 0.004230 0.000000
# 2 -0.002559 0.013261 -0.003556 0.000000 0.000096 0.000000
# 3 -0.004358 -0.003556 0.018959 0.000000 0.008021 0.000000
# 4 0.000000 0.000000 0.000000 0.063931 0.000000 0.022141
# 5 0.004230 0.000096 0.008021 0.000000 0.037338 0.000000
# 6 0.000000 0.000000 0.000000 0.022141 0.000000 0.111708
#
#
# Mechanical properties :
#
#
# Convention : Reuss Voigt Hill
#
# Bulk Modulus (GPa) = 34.42337 40.30741 37.36539
# Shear Modulus (GPa) = 17.02981 22.10399 19.56690
#
# Velocity S-wave (km/s) = 3.20210 3.64809 3.43235
# Velocity P-wave (km/s) = 5.86491 6.48177 6.18104
#
# Compressibility (1/GPa) = 0.02905004
#
# Stress axis : x y z
#
# Youngs Moduli (GPa) = 56.25361 75.41102 52.74625
#
# Poissons Ratio (x) = 0.19299 0.22985
# Poissons Ratio (y) = 0.14396 0.18757
# Poissons Ratio (z) = 0.24513 0.26817
#
# Static dielectric constant tensor:
#      x y z
#    x 3.206350 0.000000 -0.115230 
#    y 0.000000 2.772880 0.000000 
#    z -0.115230 0.000000 3.367610 
# 
# 
# High freq. dielectric constant tensor:
#      x y z
#    x 1.636890 0.000000 -0.022210 
#    y 0.000000 1.588350 0.000000 
#    z -0.022210 0.000000 1.650220 
# 
# From -- ./inp_files/79648.got.cif
#   From: 2010.06.25/outbox.cif.g09.slc.cpg/sg10_40_cif.got.tgz:79648.got - 2010.06.27 22:07:45.
