data_PCOD8057470
_publ_section_title
;
Structure prediction by ZEFSAII (Michael W. Deem and Ramdas Pophale) SiO2 
 PCOD8057470
Probable space group: P 2/M
;
_chemical_formula_sum "Si O2"
_cell_formula_units_Z 32
_cell_length_a 9.220646
_cell_length_b 14.586153
_cell_length_c 24.042155
_cell_angle_alpha 90.000000
_cell_angle_beta 149.290031
_cell_angle_gamma 90.000000
_cell_volume 1651.334297
_symmetry_space_group_name_H-M "P 2/M"
_symmetry_group_IT_number 10
_symmetry_cell_setting 'monoclinic'
loop_
_space_group_symop_operation_xyz
x,y,z
-x,y,-z
-x,-y,-z
x,-y,z
loop_
_atom_site_type_symbol
_atom_site_label
_atom_site_fract_x
_atom_site_fract_y
_atom_site_fract_z
Si Si1 0.288676 0.236241 0.064113
Si Si2 0.336186 0.794567 0.288301
Si Si3 0.242696 0.597820 0.243503
Si Si4 0.156881 0.400447 0.607703
Si Si5 0.794110 0.106619 0.065406
Si Si6 0.291979 0.221169 0.700175
Si Si7 0.832948 0.897237 0.502510
Si Si8 0.340969 0.397125 0.003520
O O1 0.531390 0.203048 0.186164
O O2 0.222593 0.154591 0.999826
O O3 0.417871 0.326324 0.077231
O O4 0.000000 0.263247 0.000000
O O5 0.267277 0.690860 0.288307
O O6 0.496606 0.788268 0.282330
O O7 0.535257 0.843266 0.399360
O O8 0.045465 0.850584 0.185451
O O9 0.196232 0.500000 0.261890
O O10 0.515165 0.585186 0.295752
O O11 0.992658 0.610989 0.116894
O O12 0.028754 0.500000 0.584729
O O13 0.134683 0.321025 0.646748
O O14 0.000000 0.365721 0.500000
O O15 0.860847 0.000000 0.077561
O O16 0.500000 0.121950 0.000000
O O17 0.038818 0.147166 0.616381
O O18 0.000000 0.895372 0.500000
O O19 0.761507 0.000000 0.497837
O O20 0.432166 0.500000 0.051449
O O21 0.500000 0.366875 0.000000
#
# Coordination Sequence:
#
# PCOD8057470 Si02
#       8
#     4   4   4   4   4   4   4   4
#     4  12  22  37  55  85 120 153 182 235 294 347
#     4  10  17  34  55  79 110 143 187 236 279 334
#     4   9  16  27  48  77 105 135 175 221 268 322
#     4   9  16  28  47  75 111 145 180 227 277 325
#     4  11  24  40  58  81 109 149 197 240 285 341
#     4  10  19  31  50  79 115 143 180 228 289 343
#     4   9  18  31  50  76 105 143 186 235 287 334
#     4  10  21  37  57  82 116 158 196 227 269 336
#
# _framework density 19.378267999999998
#
# number of rings (size 3 to 8) (size 9 to 14) (size 15 to 20)
#    0.000    2.000    2.500    3.375    0.000    2.000 
#    0.000    0.000    0.000    0.750    0.000    2.625 
#    0.000    8.000    0.000    0.000    0.000    0.000 
#
# Total GULP energy -396575.355419 kJ/mol
# GULP energy per Si atom -12392.979857 kJ/mol
# Density = 1.933416 g / cm^3
# Si number density = 19.378268 Si / 1000 Ang^3
#
#
#
# Elastic Constant Matrix: (Units=GPa)
#
#
# Indices 1 2 3 4 5 6 
#
# 1 47.7803 28.4224 24.6861 0.0000 -1.4533 0.0000
# 2 28.4224 171.7663 59.8167 0.0000 -0.4110 0.0000
# 3 24.6861 59.8167 146.2638 0.0000 -5.0682 0.0000
# 4 0.0000 0.0000 0.0000 28.7242 0.0000 3.3081
# 5 -1.4533 -0.4110 -5.0682 0.0000 15.7982 0.0000
# 6 0.0000 0.0000 0.0000 3.3081 0.0000 15.8136
#
#
#
# Elastic Compliance Matrix: (Units=1/GPa)
#
#
# Indices 1 2 3 4 5 6 
#
# 1 0.024218 -0.003027 -0.002806 0.000000 0.001249 0.000000
# 2 -0.003027 0.007175 -0.002454 0.000000 -0.000879 0.000000
# 3 -0.002806 -0.002454 0.008396 0.000000 0.002372 0.000000
# 4 0.000000 0.000000 0.000000 0.035673 0.000000 -0.007463
# 5 0.001249 -0.000879 0.002372 0.000000 0.064151 0.000000
# 6 0.000000 0.000000 0.000000 -0.007463 0.000000 0.064798
#
#
# Mechanical properties :
#
#
# Convention : Reuss Voigt Hill
#
# Bulk Modulus (GPa) = 43.07603 65.74008 54.40806
# Shear Modulus (GPa) = 21.86038 28.92621 25.39329
#
# Velocity S-wave (km/s) = 3.36234 3.86776 3.62387
# Velocity P-wave (km/s) = 6.11156 7.34468 6.75631
#
# Compressibility (1/GPa) = 0.02321477
#
# Stress axis : x y z
#
# Youngs Moduli (GPa) = 41.29221 139.36808 119.09948
#
# Poissons Ratio (x) = 0.42188 0.33421
# Poissons Ratio (y) = 0.12500 0.29227
# Poissons Ratio (z) = 0.11587 0.34200
#
# Static dielectric constant tensor:
#      x y z
#    x 3.115540 0.000000 -0.011240 
#    y 0.000000 4.203720 0.000000 
#    z -0.011240 0.000000 3.928100 
# 
# 
# High freq. dielectric constant tensor:
#      x y z
#    x 1.681130 0.000000 0.019920 
#    y 0.000000 1.780750 0.000000 
#    z 0.019920 0.000000 1.766620 
# 
# From -- ./inp_files/88274.got.cif
#   From: 2010.06.25/outbox.cif.g09.slc.cpg/sg10_45_cif.got.tgz:88274.got - 2010.06.27 22:07:45.
