data_PCOD8057609
_publ_section_title
;
Structure prediction by ZEFSAII (Michael W. Deem and Ramdas Pophale) SiO2 
 PCOD8057609
Probable space group: P 2/M
;
_chemical_formula_sum "Si O2"
_cell_formula_units_Z 24
_cell_length_a 20.845008
_cell_length_b 9.281645
_cell_length_c 11.927857
_cell_angle_alpha 90.000000
_cell_angle_beta 38.429585
_cell_angle_gamma 90.000000
_cell_volume 1434.389723
_symmetry_space_group_name_H-M "P 2/M"
_symmetry_group_IT_number 10
_symmetry_cell_setting 'monoclinic'
loop_
_space_group_symop_operation_xyz
x,y,z
-x,y,-z
-x,-y,-z
x,-y,z
loop_
_atom_site_type_symbol
_atom_site_label
_atom_site_fract_x
_atom_site_fract_y
_atom_site_fract_z
Si Si1 0.390973 0.334937 0.103146
Si Si2 0.651373 0.164204 0.060138
Si Si3 0.734771 0.168816 0.168893
Si Si4 0.579122 0.837158 0.565308
Si Si5 0.277922 0.665536 0.479936
Si Si6 0.882352 0.828913 0.159794
O O1 0.411276 0.500000 0.042259
O O2 0.298392 0.320062 0.319393
O O3 0.500000 0.269635 0.000000
O O4 0.348371 0.254909 0.052696
O O5 0.730669 0.229528 0.046138
O O6 0.542931 0.171779 0.273424
O O7 0.678130 0.000000 0.990343
O O8 0.629251 0.209075 0.378415
O O9 0.831987 0.222936 0.110294
O O10 0.743056 0.000000 0.141576
O O11 0.619057 0.727973 0.604739
O O12 0.615926 0.000000 0.545227
O O13 0.262794 0.500000 0.536153
O O14 0.177013 0.754876 0.655238
O O15 0.873140 0.000000 0.187623
O O16 0.000000 0.776553 0.000000
#
# Coordination Sequence:
#
# PCOD8057609 Si02
#       6
#     4   4   4   4   4   4
#     4  10  20  33  45  62  97 137 165 193 229 269
#     4  10  18  27  45  69  94 127 162 194 227 274
#     4   8  15  28  45  69  97 120 149 192 242 285
#     4   9  16  27  44  66  95 127 157 190 231 278
#     4  10  19  31  48  69  95 127 161 196 234 273
#     4   9  18  34  56  76  94 118 150 196 249 291
#
# _framework density 16.731854999999999
#
# number of rings (size 3 to 8) (size 9 to 14) (size 15 to 20)
#    0.000    2.667    1.667    2.000    0.000    4.000 
#    0.000    3.333    0.000    6.000    0.000    7.000 
#    0.000    0.000    0.000    0.000    0.000    0.000 
#
# Total GULP energy -297385.625305 kJ/mol
# GULP energy per Si atom -12391.067721 kJ/mol
# Density = 1.669377 g / cm^3
# Si number density = 16.731855 Si / 1000 Ang^3
#
#
#
# Elastic Constant Matrix: (Units=GPa)
#
#
# Indices 1 2 3 4 5 6 
#
# 1 115.7133 39.7908 56.2008 0.0000 19.4787 0.0000
# 2 39.7908 53.8576 31.0950 0.0000 9.9656 0.0000
# 3 56.2008 31.0950 64.2691 0.0000 6.5254 0.0000
# 4 0.0000 0.0000 0.0000 23.7348 0.0000 3.5816
# 5 19.4787 9.9656 6.5254 0.0000 26.8465 0.0000
# 6 0.0000 0.0000 0.0000 3.5816 0.0000 -0.6649
#
#
#
# Elastic Compliance Matrix: (Units=1/GPa)
#
#
# Indices 1 2 3 4 5 6 
#
# 1 0.017505 -0.004262 -0.012423 0.000000 -0.008099 0.000000
# 2 -0.004262 0.028033 -0.009324 0.000000 -0.005048 0.000000
# 3 -0.012423 -0.009324 0.030418 0.000000 0.005081 0.000000
# 4 0.000000 0.000000 0.000000 0.023241 0.000000 0.125188
# 5 -0.008099 -0.005048 0.005081 0.000000 0.043764 0.000000
# 6 0.000000 0.000000 0.000000 0.125188 0.000000 -0.829611
#
#
# Mechanical properties :
#
#
# Convention : Reuss Voigt Hill
#
# Bulk Modulus (GPa) = 41.77285 54.22369 47.99827
# Shear Modulus (GPa) = -7.97890 17.10017 4.56063
#
# Velocity S-wave (km/s) = -2.18610 3.20036 1.65277
# Velocity P-wave (km/s) = 4.31836 6.79222 5.69133
#
# Compressibility (1/GPa) = 0.02393900
#
# Stress axis : x y z
#
# Youngs Moduli (GPa) = 57.12814 35.67183 32.87507
#
# Poissons Ratio (x) = 0.15202 0.40840
# Poissons Ratio (y) = 0.24346 0.30653
# Poissons Ratio (z) = 0.70969 0.33261
#
# Static dielectric constant tensor:
#      x y z
#    x 3.253920 0.000000 0.082970 
#    y 0.000000 2.994720 0.000000 
#    z 0.082970 0.000000 2.988100 
# 
# 
# High freq. dielectric constant tensor:
#      x y z
#    x 1.636990 0.000000 0.015000 
#    y 0.000000 1.625720 0.000000 
#    z 0.015000 0.000000 1.624370 
# 
# From -- ./inp_files/48434.got.cif
#   From: 2010.06.25/outbox.cif.g09.slc.cpg/sg10_25_cif.got.tgz:48434.got - 2010.06.27 22:07:45.
