data_PCOD8057517
_publ_section_title
;
Structure prediction by ZEFSAII (Michael W. Deem and Ramdas Pophale) SiO2 
 PCOD8057517
Probable space group: P 2/M
;
_chemical_formula_sum "Si O2"
_cell_formula_units_Z 32
_cell_length_a 13.387583
_cell_length_b 9.897137
_cell_length_c 28.158854
_cell_angle_alpha 90.000000
_cell_angle_beta 149.820350
_cell_angle_gamma 90.000000
_cell_volume 1875.628419
_symmetry_space_group_name_H-M "P 2/M"
_symmetry_group_IT_number 10
_symmetry_cell_setting 'monoclinic'
loop_
_space_group_symop_operation_xyz
x,y,z
-x,y,-z
-x,-y,-z
x,-y,z
loop_
_atom_site_type_symbol
_atom_site_label
_atom_site_fract_x
_atom_site_fract_y
_atom_site_fract_z
Si Si1 0.240251 0.847070 0.138282
Si Si2 0.418583 0.256796 0.665429
Si Si3 0.975563 0.347214 0.088216
Si Si4 0.220913 0.350541 0.678269
Si Si5 0.490462 0.156149 0.441760
Si Si6 0.717812 0.350516 0.711387
Si Si7 0.857067 0.153764 0.526726
Si Si8 0.378232 0.347634 0.115173
O O1 0.435939 0.854679 0.251902
O O2 0.064189 0.765854 0.090507
O O3 0.281814 0.767710 0.107343
O O4 0.172463 0.000000 0.099415
O O5 0.324474 0.344687 0.669069
O O6 0.551324 0.347294 0.684554
O O7 0.241707 0.183588 0.564685
O O8 0.043698 0.500000 0.101687
O O9 0.061026 0.320633 0.176361
O O10 0.733772 0.336409 0.982474
O O11 0.128252 0.500000 0.645325
O O12 0.383457 0.324252 0.787087
O O13 0.048799 0.243438 0.614289
O O14 0.500000 0.202668 0.500000
O O15 0.321509 0.241791 0.345744
O O16 0.703668 0.183883 0.505988
O O17 0.428961 0.000000 0.411624
O O18 0.710610 0.500000 0.685799
O O19 0.929232 0.000000 0.557118
O O20 0.341785 0.500000 0.120750
#
# Coordination Sequence:
#
# PCOD8057517 Si02
#       8
#     4   4   4   4   4   4   4   4
#     4  10  18  26  39  61  86 114 155 201 232 257
#     4   9  18  30  44  61  92 130 157 180 221 271
#     4   9  17  29  43  59  85 120 152 184 226 273
#     4  10  20  31  44  63  89 124 162 192 217 253
#     4   9  19  36  54  71  94 121 143 170 222 287
#     4   9  17  29  48  73  94 115 150 192 226 259
#     4  10  20  32  47  66  88 117 151 185 223 267
#     4   9  18  31  42  54  81 123 160 186 222 269
#
# _framework density 17.060949000000001
#
# number of rings (size 3 to 8) (size 9 to 14) (size 15 to 20)
#    0.000    2.625    0.000    1.875    0.000   14.250 
#    0.000    0.000    0.000    0.000    0.000    0.875 
#    0.000    7.000    0.000    0.000    0.000    0.000 
#
# Total GULP energy -396451.997166 kJ/mol
# GULP energy per Si atom -12389.124911 kJ/mol
# Density = 1.702212 g / cm^3
# Si number density = 17.060949 Si / 1000 Ang^3
#
#
#
# Elastic Constant Matrix: (Units=GPa)
#
#
# Indices 1 2 3 4 5 6 
#
# 1 32.0228 22.0959 42.4327 0.0000 -7.5861 0.0000
# 2 22.0959 104.9880 69.1125 0.0000 -4.4535 0.0000
# 3 42.4327 69.1125 170.0274 0.0000 -5.0445 0.0000
# 4 0.0000 0.0000 0.0000 16.3235 0.0000 -1.5173
# 5 -7.5861 -4.4535 -5.0445 0.0000 13.9046 0.0000
# 6 0.0000 0.0000 0.0000 -1.5173 0.0000 14.3970
#
#
#
# Elastic Compliance Matrix: (Units=1/GPa)
#
#
# Indices 1 2 3 4 5 6 
#
# 1 0.054527 -0.002668 -0.011793 0.000000 0.024616 0.000000
# 2 -0.002668 0.013207 -0.004670 0.000000 0.001080 0.000000
# 3 -0.011793 -0.004670 0.010602 0.000000 -0.004084 0.000000
# 4 0.000000 0.000000 0.000000 0.061868 0.000000 0.006520
# 5 0.024616 0.001080 -0.004084 0.000000 0.084213 0.000000
# 6 0.000000 0.000000 0.000000 0.006520 0.000000 0.070146
#
#
# Mechanical properties :
#
#
# Convention : Reuss Voigt Hill
#
# Bulk Modulus (GPa) = 24.95500 63.81341 44.38420
# Shear Modulus (GPa) = 14.44321 20.48481 17.46401
#
# Velocity S-wave (km/s) = 2.91274 3.46885 3.20288
# Velocity P-wave (km/s) = 5.09615 7.31630 6.30472
#
# Compressibility (1/GPa) = 0.04007213
#
# Stress axis : x y z
#
# Youngs Moduli (GPa) = 18.33947 75.71920 94.32426
#
# Poissons Ratio (x) = 0.20205 1.11237
# Poissons Ratio (y) = 0.04894 0.44052
# Poissons Ratio (z) = 0.21628 0.35363
#
# Static dielectric constant tensor:
#      x y z
#    x 2.696400 0.000000 -0.056160 
#    y 0.000000 3.193750 0.000000 
#    z -0.056160 0.000000 3.537150 
# 
# 
# High freq. dielectric constant tensor:
#      x y z
#    x 1.584400 0.000000 -0.003530 
#    y 0.000000 1.666780 0.000000 
#    z -0.003530 0.000000 1.679710 
# 
# From -- ./inp_files/66013.got.cif
#   From: 2010.06.25/outbox.cif.g09.slc.cpg/sg10_34_cif.got.tgz:66013.got - 2010.06.27 22:07:45.
