data_PCOD8057220
_publ_section_title
;
Structure prediction by ZEFSAII (Michael W. Deem and Ramdas Pophale) SiO2 
 PCOD8057220
Probable space group: P 2/M
;
_chemical_formula_sum "Si O2"
_cell_formula_units_Z 32
_cell_length_a 13.965879
_cell_length_b 8.884641
_cell_length_c 17.086954
_cell_angle_alpha 90.000000
_cell_angle_beta 102.810858
_cell_angle_gamma 90.000000
_cell_volume 2067.403466
_symmetry_space_group_name_H-M "P 2/M"
_symmetry_group_IT_number 10
_symmetry_cell_setting 'monoclinic'
loop_
_space_group_symop_operation_xyz
x,y,z
-x,y,-z
-x,-y,-z
x,-y,z
loop_
_atom_site_type_symbol
_atom_site_label
_atom_site_fract_x
_atom_site_fract_y
_atom_site_fract_z
Si Si1 0.251884 0.822956 0.823806
Si Si2 0.611960 0.321004 0.032305
Si Si3 0.114810 0.830955 0.504653
Si Si4 0.095482 0.329109 0.900077
Si Si5 0.151709 0.323425 0.666339
Si Si6 0.117622 0.321063 0.180347
Si Si7 0.926951 0.323037 0.656412
Si Si8 0.235848 0.330417 0.063320
O O1 0.349573 0.751232 0.880138
O O2 0.158364 0.783018 0.859004
O O3 0.234054 0.755971 0.734355
O O4 0.266199 0.000000 0.820233
O O5 0.626621 0.500000 0.041222
O O6 0.500000 0.273563 0.000000
O O7 0.675157 0.254480 0.969816
O O8 0.168750 0.734626 0.581146
O O9 0.133514 0.758430 0.423108
O O10 0.000000 0.828571 0.500000
O O11 0.156668 0.000000 0.512878
O O12 0.103657 0.500000 0.866934
O O13 0.984591 0.269952 0.877279
O O14 0.135066 0.326454 0.995468
O O15 0.169315 0.500000 0.671161
O O16 0.042457 0.280667 0.677073
O O17 0.123934 0.500000 0.178601
O O18 0.121648 0.266184 0.270957
O O19 0.207205 0.254741 0.142444
O O20 0.914808 0.500000 0.642076
O O21 0.270015 0.500000 0.085654
#
# Coordination Sequence:
#
# PCOD8057220 Si02
#       8
#     4   4   4   4   4   4   4   4
#     4  11  20  28  42  64  87 112 142 176 216 257
#     4   9  18  33  50  65  83 109 142 180 221 260
#     4   9  17  27  38  55  80 111 145 178 212 246
#     4   9  15  26  40  57  81 112 145 176 208 243
#     4  10  17  28  43  59  81 110 146 181 209 244
#     4   9  14  22  38  61  84 109 144 180 208 242
#     4   9  16  25  38  56  80 113 148 177 207 243
#     4   8  14  23  41  64  82 103 139 182 216 246
#
# _framework density 15.478353
#
# number of rings (size 3 to 8) (size 9 to 14) (size 15 to 20)
#    0.000    2.750    1.250    3.000    0.000    3.750 
#    0.000    0.000    0.000    9.000    0.000    0.000 
#    0.000    1.000    0.000   11.750    0.000    2.250 
#
# Total GULP energy -396542.039651 kJ/mol
# GULP energy per Si atom -12391.938739 kJ/mol
# Density = 1.544312 g / cm^3
# Si number density = 15.478353 Si / 1000 Ang^3
#
#
#
# Elastic Constant Matrix: (Units=GPa)
#
#
# Indices 1 2 3 4 5 6 
#
# 1 67.0740 20.8996 56.1455 0.0000 -1.0394 0.0000
# 2 20.8996 56.7213 40.8113 0.0000 3.0703 0.0000
# 3 56.1455 40.8113 125.7585 0.0000 -6.6064 0.0000
# 4 0.0000 0.0000 0.0000 15.2863 0.0000 3.0253
# 5 -1.0394 3.0703 -6.6064 0.0000 17.2232 0.0000
# 6 0.0000 0.0000 0.0000 3.0253 0.0000 7.3609
#
#
#
# Elastic Compliance Matrix: (Units=1/GPa)
#
#
# Indices 1 2 3 4 5 6 
#
# 1 0.023988 -0.001197 -0.010444 0.000000 -0.002345 0.000000
# 2 -0.001197 0.023945 -0.007618 0.000000 -0.007263 0.000000
# 3 -0.010444 -0.007618 0.015436 0.000000 0.006649 0.000000
# 4 0.000000 0.000000 0.000000 0.071210 0.000000 -0.029267
# 5 -0.002345 -0.007263 0.006649 0.000000 0.061765 0.000000
# 6 0.000000 0.000000 0.000000 -0.029267 0.000000 0.147881
#
#
# Mechanical properties :
#
#
# Convention : Reuss Voigt Hill
#
# Bulk Modulus (GPa) = 40.23963 53.91850 47.07906
# Shear Modulus (GPa) = 12.78683 16.75392 14.77038
#
# Velocity S-wave (km/s) = 2.87733 3.29357 3.09246
# Velocity P-wave (km/s) = 6.09036 7.02665 6.57520
#
# Compressibility (1/GPa) = 0.02485113
#
# Stress axis : x y z
#
# Youngs Moduli (GPa) = 41.68713 41.76174 64.78301
#
# Poissons Ratio (x) = 0.04999 0.67662
# Poissons Ratio (y) = 0.04990 0.49351
# Poissons Ratio (z) = 0.43540 0.31814
#
# Static dielectric constant tensor:
#      x y z
#    x 2.706440 0.000000 -0.153900 
#    y 0.000000 2.752780 0.000000 
#    z -0.153900 0.000000 3.176500 
# 
# 
# High freq. dielectric constant tensor:
#      x y z
#    x 1.539710 0.000000 -0.012560 
#    y 0.000000 1.572100 0.000000 
#    z -0.012560 0.000000 1.599210 
# 
# From -- ./inp_files/72023.got.cif
#   From: 2010.06.25/outbox.cif.g09.slc.cpg/sg10_37_cif.got.tgz:72023.got - 2010.06.27 22:07:45.
