data_PCOD8057064
_publ_section_title
;
Structure prediction by ZEFSAII (Michael W. Deem and Ramdas Pophale) SiO2 
 PCOD8057064
Probable space group: P 2/M
;
_chemical_formula_sum "Si O2"
_cell_formula_units_Z 28
_cell_length_a 22.815395
_cell_length_b 8.477395
_cell_length_c 16.424081
_cell_angle_alpha 90.000000
_cell_angle_beta 148.833894
_cell_angle_gamma 90.000000
_cell_volume 1643.990857
_symmetry_space_group_name_H-M "P 2/M"
_symmetry_group_IT_number 10
_symmetry_cell_setting 'monoclinic'
loop_
_space_group_symop_operation_xyz
x,y,z
-x,y,-z
-x,-y,-z
x,-y,z
loop_
_atom_site_type_symbol
_atom_site_label
_atom_site_fract_x
_atom_site_fract_y
_atom_site_fract_z
Si Si1 0.341293 0.683287 0.353907
Si Si2 0.080058 0.816056 0.850572
Si Si3 0.840242 0.184775 0.285387
Si Si4 0.052145 0.684135 0.442343
Si Si5 0.899613 0.184124 0.939012
Si Si6 0.445801 0.184621 0.317678
Si Si7 0.709162 0.315404 0.993570
O O1 0.365117 0.500000 0.393687
O O2 0.211933 0.722089 0.220203
O O3 0.422081 0.776485 0.512811
O O4 0.369371 0.732011 0.295213
O O5 0.964988 0.762679 0.667028
O O6 0.103240 0.000000 0.863091
O O7 0.063672 0.775635 0.925482
O O8 0.186947 0.720621 0.943460
O O9 0.841866 0.237416 0.382475
O O10 0.938068 0.283346 0.356996
O O11 0.864310 0.000000 0.306466
O O12 0.725234 0.232143 0.101348
O O13 0.074571 0.500000 0.458905
O O14 0.874268 0.000000 0.898119
O O15 0.000000 0.241645 0.000000
O O16 0.405925 0.247356 0.182419
O O17 0.424307 0.000000 0.299247
O O18 0.697078 0.500000 0.992872
#
# Coordination Sequence:
#
# PCOD8057064 Si02
#       7
#     4   4   4   4   4   4   4
#     4  11  21  33  49  70  93 120 156 199 242 281
#     4  10  18  29  45  63  87 120 158 193 232 281
#     4  10  17  26  39  58  85 118 153 184 223 274
#     4  10  17  26  39  57  84 116 151 189 229 271
#     4  10  21  36  52  69  93 126 163 201 240 283
#     4  11  20  32  49  68  93 125 158 193 233 285
#     4  11  19  28  43  66  94 121 153 191 231 277
#
# _framework density 17.031724000000001
#
# number of rings (size 3 to 8) (size 9 to 14) (size 15 to 20)
#    0.000    1.571    1.429   10.286    0.000    0.857 
#    0.000    0.000    0.000    0.000    0.000    0.000 
#    0.000    1.143    0.000   12.286    0.000    5.429 
#
# Total GULP energy -347162.568255 kJ/mol
# GULP energy per Si atom -12398.663152 kJ/mol
# Density = 1.699296 g / cm^3
# Si number density = 17.031724 Si / 1000 Ang^3
#
#
#
# Elastic Constant Matrix: (Units=GPa)
#
#
# Indices 1 2 3 4 5 6 
#
# 1 45.6127 12.4591 41.4316 0.0000 -6.1045 0.0000
# 2 12.4591 66.6538 26.2600 0.0000 -2.8519 0.0000
# 3 41.4316 26.2600 133.6814 0.0000 -27.8925 0.0000
# 4 0.0000 0.0000 0.0000 30.9853 0.0000 -4.7582
# 5 -6.1045 -2.8519 -27.8925 0.0000 26.2553 0.0000
# 6 0.0000 0.0000 0.0000 -4.7582 0.0000 4.4210
#
#
#
# Elastic Compliance Matrix: (Units=1/GPa)
#
#
# Indices 1 2 3 4 5 6 
#
# 1 0.031060 -0.002028 -0.009979 0.000000 -0.003600 0.000000
# 2 -0.002028 0.016484 -0.002999 0.000000 -0.001867 0.000000
# 3 -0.009979 -0.002999 0.013632 0.000000 0.011836 0.000000
# 4 0.000000 0.000000 0.000000 0.038663 0.000000 0.041612
# 5 -0.003600 -0.001867 0.011836 0.000000 0.049622 0.000000
# 6 0.000000 0.000000 0.000000 0.041612 0.000000 0.270977
#
#
# Mechanical properties :
#
#
# Convention : Reuss Voigt Hill
#
# Bulk Modulus (GPa) = 32.08921 45.13883 38.61402
# Shear Modulus (GPa) = 10.84978 23.38546 17.11762
#
# Velocity S-wave (km/s) = 2.52669 3.70949 3.17368
# Velocity P-wave (km/s) = 5.23392 6.70130 6.01255
#
# Compressibility (1/GPa) = 0.03116313
#
# Stress axis : x y z
#
# Youngs Moduli (GPa) = 32.19528 60.66613 73.35685
#
# Poissons Ratio (x) = 0.12305 0.73204
# Poissons Ratio (y) = 0.06530 0.21999
# Poissons Ratio (z) = 0.32128 0.18193
#
# Static dielectric constant tensor:
#      x y z
#    x 2.881580 0.000000 -0.610840 
#    y 0.000000 3.247860 0.000000 
#    z -0.610840 0.000000 3.782930 
# 
# 
# High freq. dielectric constant tensor:
#      x y z
#    x 1.584600 0.000000 -0.045110 
#    y 0.000000 1.676000 0.000000 
#    z -0.045110 0.000000 1.667620 
# 
# From -- ./inp_files/79868.got.cif
#   From: 2010.06.25/outbox.cif.g09.slc.cpg/sg10_40_cif.got.tgz:79868.got - 2010.06.27 22:07:45.
