data_PCOD8057972
_publ_section_title
;
Structure prediction by ZEFSAII (Michael W. Deem and Ramdas Pophale) SiO2 
 PCOD8057972
Probable space group: P 2/M
;
_chemical_formula_sum "Si O2"
_cell_formula_units_Z 24
_cell_length_a 8.121409
_cell_length_b 9.242115
_cell_length_c 21.323277
_cell_angle_alpha 90.000000
_cell_angle_beta 125.181695
_cell_angle_gamma 90.000000
_cell_volume 1308.138166
_symmetry_space_group_name_H-M "P 2/M"
_symmetry_group_IT_number 10
_symmetry_cell_setting 'monoclinic'
loop_
_space_group_symop_operation_xyz
x,y,z
-x,y,-z
-x,-y,-z
x,-y,z
loop_
_atom_site_type_symbol
_atom_site_label
_atom_site_fract_x
_atom_site_fract_y
_atom_site_fract_z
Si Si1 0.177366 0.844208 0.992882
Si Si2 0.469156 0.336030 0.918765
Si Si3 0.686097 0.671533 0.414216
Si Si4 0.050640 0.671545 0.413153
Si Si5 0.774868 0.327007 0.681351
Si Si6 0.082940 0.829265 0.833595
O O1 0.085211 0.788292 0.907336
O O2 0.287173 0.000000 0.004641
O O3 0.324365 0.732769 0.061033
O O4 0.000000 0.872236 0.000000
O O5 0.443479 0.500000 0.890307
O O6 0.285312 0.243708 0.850054
O O7 0.500000 0.321361 0.000000
O O8 0.682382 0.500000 0.415851
O O9 0.791944 0.731043 0.500594
O O10 0.456312 0.727875 0.362813
O O11 0.822495 0.720730 0.383594
O O12 0.060676 0.500000 0.414530
O O13 0.121408 0.728759 0.360653
O O14 0.790524 0.500000 0.691343
O O15 0.889359 0.248854 0.762729
O O16 0.077399 0.000000 0.818290
#
# Coordination Sequence:
#
# PCOD8057972 Si02
#       6
#     4   4   4   4   4   4
#     4   9  18  34  54  73  95 128 169 204 242 297
#     4   9  17  31  52  74  95 120 157 203 246 288
#     4   8  14  26  46  72  99 128 163 207 249 294
#     4   8  14  26  46  72  99 127 165 205 249 298
#     4  10  18  29  48  73 102 130 163 207 254 296
#     4  10  20  34  50  69  98 133 165 199 246 302
#
# _framework density 18.346685999999998
#
# number of rings (size 3 to 8) (size 9 to 14) (size 15 to 20)
#    0.000    3.000    0.000    2.500    0.000    5.000 
#    3.000    0.000    0.000    2.000    0.000    2.333 
#    0.000    0.000    0.000    0.000    0.000    0.000 
#
# Total GULP energy -297325.927063 kJ/mol
# GULP energy per Si atom -12388.580294 kJ/mol
# Density = 1.830493 g / cm^3
# Si number density = 18.346686 Si / 1000 Ang^3
#
#
#
# Elastic Constant Matrix: (Units=GPa)
#
#
# Indices 1 2 3 4 5 6 
#
# 1 129.0931 33.4100 60.9678 0.0000 18.4253 0.0000
# 2 33.4100 59.5969 36.3842 0.0000 13.5940 0.0000
# 3 60.9678 36.3842 95.6096 0.0000 22.6349 0.0000
# 4 0.0000 0.0000 0.0000 12.5201 0.0000 2.8607
# 5 18.4253 13.5940 22.6349 0.0000 25.6582 0.0000
# 6 0.0000 0.0000 0.0000 2.8607 0.0000 13.0463
#
#
#
# Elastic Compliance Matrix: (Units=1/GPa)
#
#
# Indices 1 2 3 4 5 6 
#
# 1 0.011426 -0.002368 -0.005991 0.000000 -0.001666 0.000000
# 2 -0.002368 0.022948 -0.006000 0.000000 -0.005164 0.000000
# 3 -0.005991 -0.006000 0.018696 0.000000 -0.009012 0.000000
# 4 0.000000 0.000000 0.000000 0.084085 0.000000 -0.018437
# 5 -0.001666 -0.005164 -0.009012 0.000000 0.050857 0.000000
# 6 0.000000 0.000000 0.000000 -0.018437 0.000000 0.080693
#
#
# Mechanical properties :
#
#
# Convention : Reuss Voigt Hill
#
# Bulk Modulus (GPa) = 41.06333 60.64705 50.85519
# Shear Modulus (GPa) = 16.36447 20.48076 18.42261
#
# Velocity S-wave (km/s) = 2.98981 3.34476 3.17225
# Velocity P-wave (km/s) = 5.86081 6.93141 6.41847
#
# Compressibility (1/GPa) = 0.02435263
#
# Stress axis : x y z
#
# Youngs Moduli (GPa) = 87.51766 43.57660 53.48680
#
# Poissons Ratio (x) = 0.10320 0.32042
# Poissons Ratio (y) = 0.20727 0.32092
# Poissons Ratio (z) = 0.52429 0.26146
#
# Static dielectric constant tensor:
#      x y z
#    x 3.625570 0.000000 0.135120 
#    y 0.000000 3.084440 0.000000 
#    z 0.135120 0.000000 3.294130 
# 
# 
# High freq. dielectric constant tensor:
#      x y z
#    x 1.713640 0.000000 0.013940 
#    y 0.000000 1.675900 0.000000 
#    z 0.013940 0.000000 1.697570 
# 
# From -- ./inp_files/33514.got.cif
#   From: 2010.06.25/outbox.cif.g09.slc.cpg/sg10_17_cif.got.tgz:33514.got - 2010.06.27 22:07:45.
