data_PCOD8057501
_publ_section_title
;
Structure prediction by ZEFSAII (Michael W. Deem and Ramdas Pophale) SiO2 
 PCOD8057501
Probable space group: P 2/M
;
_chemical_formula_sum "Si O2"
_cell_formula_units_Z 32
_cell_length_a 18.618017
_cell_length_b 9.021703
_cell_length_c 24.190346
_cell_angle_alpha 90.000000
_cell_angle_beta 29.976072
_cell_angle_gamma 90.000000
_cell_volume 2030.110780
_symmetry_space_group_name_H-M "P 2/M"
_symmetry_group_IT_number 10
_symmetry_cell_setting 'monoclinic'
loop_
_space_group_symop_operation_xyz
x,y,z
-x,y,-z
-x,-y,-z
x,-y,z
loop_
_atom_site_type_symbol
_atom_site_label
_atom_site_fract_x
_atom_site_fract_y
_atom_site_fract_z
Si Si1 0.657757 0.674553 0.335932
Si Si2 0.342030 0.324452 0.539438
Si Si3 0.045110 0.674713 0.908625
Si Si4 0.356445 0.667239 0.981699
Si Si5 0.593237 0.832469 0.882458
Si Si6 0.112906 0.825709 0.085050
Si Si7 0.170608 0.332832 0.216008
Si Si8 0.931983 0.826079 0.313479
O O1 0.653456 0.500000 0.344193
O O2 0.679595 0.734330 0.383496
O O3 0.503770 0.723572 0.413061
O O4 0.789584 0.727521 0.209819
O O5 0.316283 0.500000 0.551097
O O6 0.228448 0.239675 0.576717
O O7 0.028548 0.500000 0.908892
O O8 0.942762 0.760108 0.935023
O O9 0.000000 0.720076 0.000000
O O10 0.385867 0.500000 0.941903
O O11 0.508132 0.748917 0.890325
O O12 0.267805 0.753817 0.993951
O O13 0.267981 0.667370 0.096986
O O14 0.744519 0.749921 0.791519
O O15 0.624539 0.000000 0.842613
O O16 0.500000 0.831390 0.000000
O O17 0.001571 0.785181 0.207936
O O18 0.133921 0.000000 0.065450
O O19 0.135882 0.500000 0.257994
O O20 0.022712 0.247266 0.302395
O O21 0.928619 0.000000 0.326018
#
# Coordination Sequence:
#
# PCOD8057501 Si02
#       8
#     4   4   4   4   4   4   4   4
#     4   8  15  27  43  62  79 100 133 168 207 249
#     4   9  15  26  44  59  77 105 134 168 204 246
#     4  10  19  31  47  63  80 104 136 174 211 250
#     4   9  16  25  38  53  71  99 136 173 202 237
#     4   9  15  23  34  50  74 102 132 167 204 240
#     4  10  19  29  40  56  79 105 134 170 210 250
#     4   9  16  24  35  51  73 104 138 167 198 240
#     4  10  18  26  37  57  81 105 134 171 209 242
#
# _framework density 15.762688000000001
#
# number of rings (size 3 to 8) (size 9 to 14) (size 15 to 20)
#    0.000    2.750    1.250    2.625    0.000    5.750 
#    0.000    1.875    0.000    0.000    0.000    0.000 
#    0.000    0.000    0.000    1.125    0.000   23.375 
#
# Total GULP energy -396703.863229 kJ/mol
# GULP energy per Si atom -12396.995726 kJ/mol
# Density = 1.572681 g / cm^3
# Si number density = 15.762688 Si / 1000 Ang^3
#
#
#
# Elastic Constant Matrix: (Units=GPa)
#
#
# Indices 1 2 3 4 5 6 
#
# 1 107.3144 60.1799 55.6765 0.0000 -41.3657 0.0000
# 2 60.1799 97.1296 33.3736 0.0000 -22.5009 0.0000
# 3 55.6765 33.3736 70.0989 0.0000 -21.8936 0.0000
# 4 0.0000 0.0000 0.0000 7.7899 0.0000 -4.8208
# 5 -41.3657 -22.5009 -21.8936 0.0000 31.4519 0.0000
# 6 0.0000 0.0000 0.0000 -4.8208 0.0000 23.5804
#
#
#
# Elastic Compliance Matrix: (Units=1/GPa)
#
#
# Indices 1 2 3 4 5 6 
#
# 1 0.029972 -0.008718 -0.011872 0.000000 0.024918 0.000000
# 2 -0.008718 0.015814 -0.000833 0.000000 -0.000733 0.000000
# 3 -0.011872 -0.000833 0.024315 0.000000 0.000715 0.000000
# 4 0.000000 0.000000 0.000000 0.146965 0.000000 0.030046
# 5 0.024918 -0.000733 0.000715 0.000000 0.064540 0.000000
# 6 0.000000 0.000000 0.000000 0.030046 0.000000 0.048551
#
#
# Mechanical properties :
#
#
# Convention : Reuss Voigt Hill
#
# Bulk Modulus (GPa) = 36.69266 63.66698 50.17982
# Shear Modulus (GPa) = 13.08596 20.91863 17.00229
#
# Velocity S-wave (km/s) = 2.88442 3.64689 3.28783
# Velocity P-wave (km/s) = 5.86702 7.62966 6.80564
#
# Compressibility (1/GPa) = 0.02725341
#
# Stress axis : x y z
#
# Youngs Moduli (GPa) = 33.36455 63.23627 41.12661
#
# Poissons Ratio (x) = 0.55132 0.48826
# Poissons Ratio (y) = 0.29089 0.03427
# Poissons Ratio (z) = 0.39611 0.05269
#
# Static dielectric constant tensor:
#      x y z
#    x 2.915770 0.000000 -0.401780 
#    y 0.000000 2.988180 0.000000 
#    z -0.401780 0.000000 2.834380 
# 
# 
# High freq. dielectric constant tensor:
#      x y z
#    x 1.591000 0.000000 -0.048490 
#    y 0.000000 1.607610 0.000000 
#    z -0.048490 0.000000 1.553730 
# 
# From -- ./inp_files/56397.got.cif
#   From: 2010.06.25/outbox.cif.g09.slc.cpg/sg10_29_cif.got.tgz:56397.got - 2010.06.27 22:07:45.
