data_PCOD8057413
_publ_section_title
;
Structure prediction by ZEFSAII (Michael W. Deem and Ramdas Pophale) SiO2 
 PCOD8057413
Probable space group: P 2/M
;
_chemical_formula_sum "Si O2"
_cell_formula_units_Z 24
_cell_length_a 12.703103
_cell_length_b 11.480016
_cell_length_c 13.456603
_cell_angle_alpha 90.000000
_cell_angle_beta 137.866432
_cell_angle_gamma 90.000000
_cell_volume 1316.498692
_symmetry_space_group_name_H-M "P 2/M"
_symmetry_group_IT_number 10
_symmetry_cell_setting 'monoclinic'
loop_
_space_group_symop_operation_xyz
x,y,z
-x,y,-z
-x,-y,-z
x,-y,z
loop_
_atom_site_type_symbol
_atom_site_label
_atom_site_fract_x
_atom_site_fract_y
_atom_site_fract_z
Si Si1 0.847611 0.223226 0.080305
Si Si2 0.814516 0.140801 0.647902
Si Si3 0.564145 0.363216 0.937310
Si Si4 0.661838 0.000000 0.240959
Si Si5 0.587366 0.196917 0.324715
Si Si6 0.693281 0.000000 0.052340
Si Si7 0.740434 0.130966 0.819608
O O1 0.016797 0.203488 0.246199
O O2 0.739132 0.112938 0.024737
O O3 0.750671 0.332760 0.057187
O O4 0.849474 0.220603 0.960349
O O5 0.706968 0.217746 0.499209
O O6 0.748333 0.167013 0.710540
O O7 0.820697 0.000000 0.630366
O O8 0.543136 0.500000 0.913818
O O9 0.464123 0.309327 0.775635
O O10 0.500000 0.318831 0.000000
O O11 0.689741 0.885697 0.325041
O O12 0.769940 0.000000 0.217327
O O13 0.491172 0.000000 0.075271
O O14 0.438995 0.134089 0.269986
O O15 0.806618 0.000000 0.878022
#
# Coordination Sequence:
#
# PCOD8057413 Si02
#       7
#     4   4   4   2   4   2   4
#     4  11  19  34  53  80 113 140 176 223 268 318
#     4  11  21  31  50  85 123 146 169 208 272 337
#     4  10  22  41  63  78  94 138 197 234 260 307
#     4  11  18  29  50  76 103 138 175 221 271 321
#     4  11  19  34  53  80 113 140 176 223 268 318
#     4  11  18  29  50  76 103 138 175 221 271 321
#     4  10  17  31  52  78 112 152 185 209 251 322
#
# _framework density 18.230174000000002
#
# number of rings (size 3 to 8) (size 9 to 14) (size 15 to 20)
#    0.000    1.333    6.667    2.000    0.000    2.667 
#    0.000    5.000    0.000   18.000    0.000    0.000 
#    0.000    0.000    0.000    0.000    0.000    0.000 
#
# Total GULP energy -297337.264311 kJ/mol
# GULP energy per Si atom -12389.052680 kJ/mol
# Density = 1.818868 g / cm^3
# Si number density = 18.230174 Si / 1000 Ang^3
#
#
#
# Elastic Constant Matrix: (Units=GPa)
#
#
# Indices 1 2 3 4 5 6 
#
# 1 70.1212 25.1496 46.4538 0.0000 -15.6296 0.0000
# 2 25.1496 59.0869 24.6074 0.0000 -6.7832 0.0000
# 3 46.4538 24.6074 112.9432 0.0000 -0.1341 0.0000
# 4 0.0000 0.0000 0.0000 18.0972 0.0000 -3.3029
# 5 -15.6296 -6.7832 -0.1341 0.0000 29.5020 0.0000
# 6 0.0000 0.0000 0.0000 -3.3029 0.0000 21.3872
#
#
#
# Elastic Compliance Matrix: (Units=1/GPa)
#
#
# Indices 1 2 3 4 5 6 
#
# 1 0.024830 -0.005455 -0.009010 0.000000 0.011859 0.000000
# 2 -0.005455 0.020363 -0.002191 0.000000 0.001782 0.000000
# 3 -0.009010 -0.002191 0.013031 0.000000 -0.005218 0.000000
# 4 0.000000 0.000000 0.000000 0.056860 0.000000 0.008781
# 5 0.011859 0.001782 -0.005218 0.000000 0.040565 0.000000
# 6 0.000000 0.000000 0.000000 0.008781 0.000000 0.048113
#
#
# Mechanical properties :
#
#
# Convention : Reuss Voigt Hill
#
# Bulk Modulus (GPa) = 40.14064 48.28588 44.21326
# Shear Modulus (GPa) = 20.37687 23.52666 21.95176
#
# Velocity S-wave (km/s) = 3.34691 3.59630 3.47384
# Velocity P-wave (km/s) = 6.08296 6.61731 6.35575
#
# Compressibility (1/GPa) = 0.02491241
#
# Stress axis : x y z
#
# Youngs Moduli (GPa) = 40.27446 49.10872 76.74017
#
# Poissons Ratio (x) = 0.26787 0.69143
# Poissons Ratio (y) = 0.21969 0.16813
# Poissons Ratio (z) = 0.36287 0.10759
#
# Static dielectric constant tensor:
#      x y z
#    x 3.645880 0.000000 -0.308890 
#    y 0.000000 2.962830 0.000000 
#    z -0.308890 0.000000 3.560820 
# 
# 
# High freq. dielectric constant tensor:
#      x y z
#    x 1.715660 0.000000 -0.020660 
#    y 0.000000 1.653680 0.000000 
#    z -0.020660 0.000000 1.711720 
# 
# From -- ./inp_files/46811.got.cif
#   From: 2010.06.25/outbox.cif.g09.slc.cpg/sg10_24_cif.got.tgz:46811.got - 2010.06.27 22:07:45.
