data_PCOD8057012
_publ_section_title
;
Structure prediction by ZEFSAII (Michael W. Deem and Ramdas Pophale) SiO2 
 PCOD8057012
Probable space group: P 2/M
;
_chemical_formula_sum "Si O2"
_cell_formula_units_Z 28
_cell_length_a 17.454399
_cell_length_b 9.261317
_cell_length_c 14.331572
_cell_angle_alpha 90.000000
_cell_angle_beta 128.710481
_cell_angle_gamma 90.000000
_cell_volume 1807.765118
_symmetry_space_group_name_H-M "P 2/M"
_symmetry_group_IT_number 10
_symmetry_cell_setting 'monoclinic'
loop_
_space_group_symop_operation_xyz
x,y,z
-x,y,-z
-x,-y,-z
x,-y,z
loop_
_atom_site_type_symbol
_atom_site_label
_atom_site_fract_x
_atom_site_fract_y
_atom_site_fract_z
Si Si1 0.034848 0.832297 0.813514
Si Si2 0.191559 0.333389 0.051348
Si Si3 0.454796 0.163243 0.863194
Si Si4 0.100410 0.840065 0.134031
Si Si5 0.077476 0.832918 0.637786
Si Si6 0.722338 0.330609 0.203530
Si Si7 0.370520 0.335491 0.064461
O O1 0.930803 0.791698 0.784643
O O2 0.025421 0.800062 0.696981
O O3 0.058635 0.000000 0.852009
O O4 0.123763 0.741105 0.922850
O O5 0.161875 0.500000 0.032685
O O6 0.178351 0.266866 0.144985
O O7 0.304257 0.312383 0.105808
O O8 0.354693 0.254663 0.785182
O O9 0.534055 0.234341 0.853640
O O10 0.433232 0.000000 0.814240
O O11 0.500000 0.167742 0.000000
O O12 0.147142 0.000000 0.170035
O O13 0.000000 0.837646 0.000000
O O14 0.171505 0.733703 0.694646
O O15 0.000000 0.791074 0.500000
O O16 0.109825 0.000000 0.655833
O O17 0.723015 0.500000 0.225117
O O18 0.694354 0.295910 0.075496
O O19 0.407263 0.500000 0.083852
#
# Coordination Sequence:
#
# PCOD8057012 Si02
#       7
#     4   4   4   4   4   4   4
#     4   9  17  29  42  55  79 111 141 175 214 251
#     4  10  17  25  39  61  85 110 140 171 204 246
#     4   9  17  27  41  61  81 107 142 173 204 247
#     4   8  15  26  38  55  78 108 140 168 205 251
#     4  10  20  32  46  63  82 109 148 188 218 246
#     4  10  18  30  44  58  82 113 141 174 215 253
#     4   9  17  27  39  59  86 113 139 168 206 250
#
# _framework density 15.488738
#
# number of rings (size 3 to 8) (size 9 to 14) (size 15 to 20)
#    0.000    2.714    1.429    2.143    0.000    6.286 
#    0.000    0.000    0.000    0.000    0.000    0.000 
#    0.000    1.143    0.000   13.143    0.000    3.286 
#
# Total GULP energy -347106.524867 kJ/mol
# GULP energy per Si atom -12396.661602 kJ/mol
# Density = 1.545348 g / cm^3
# Si number density = 15.488738 Si / 1000 Ang^3
#
#
#
# Elastic Constant Matrix: (Units=GPa)
#
#
# Indices 1 2 3 4 5 6 
#
# 1 130.7383 69.7908 43.8274 0.0000 5.7210 0.0000
# 2 69.7908 99.9717 34.0808 0.0000 9.2489 0.0000
# 3 43.8274 34.0808 45.3167 0.0000 1.9636 0.0000
# 4 0.0000 0.0000 0.0000 14.5195 0.0000 6.2737
# 5 5.7210 9.2489 1.9636 0.0000 15.7698 0.0000
# 6 0.0000 0.0000 0.0000 6.2737 0.0000 31.1988
#
#
#
# Elastic Compliance Matrix: (Units=1/GPa)
#
#
# Indices 1 2 3 4 5 6 
#
# 1 0.014264 -0.007070 -0.008480 0.000000 0.000027 0.000000
# 2 -0.007070 0.017690 -0.006162 0.000000 -0.007043 0.000000
# 3 -0.008480 -0.006162 0.034800 0.000000 0.002357 0.000000
# 4 0.000000 0.000000 0.000000 0.075426 0.000000 -0.015167
# 5 0.000027 -0.007043 0.002357 0.000000 0.067240 0.000000
# 6 0.000000 0.000000 0.000000 -0.015167 0.000000 0.035102
#
#
# Mechanical properties :
#
#
# Convention : Reuss Voigt Hill
#
# Bulk Modulus (GPa) = 42.85936 63.49165 53.17550
# Shear Modulus (GPa) = 16.90773 20.85283 18.88028
#
# Velocity S-wave (km/s) = 3.30754 3.67321 3.49516
# Velocity P-wave (km/s) = 6.50522 7.68577 7.12000
#
# Compressibility (1/GPa) = 0.02333213
#
# Stress axis : x y z
#
# Youngs Moduli (GPa) = 70.10488 56.52791 28.73573
#
# Poissons Ratio (x) = 0.39964 0.24368
# Poissons Ratio (y) = 0.49562 0.17706
# Poissons Ratio (z) = 0.59448 0.34830
#
# Static dielectric constant tensor:
#      x y z
#    x 3.322440 0.000000 -0.068750 
#    y 0.000000 3.060590 0.000000 
#    z -0.068750 0.000000 2.445060 
# 
# 
# High freq. dielectric constant tensor:
#      x y z
#    x 1.607630 0.000000 0.005120 
#    y 0.000000 1.604320 0.000000 
#    z 0.005120 0.000000 1.520260 
# 
# From -- ./inp_files/63366.got.cif
#   From: 2010.06.25/outbox.cif.g09.slc.cpg/sg10_32_cif.got.tgz:63366.got - 2010.06.27 22:07:45.
