data_PCOD8057497
_publ_section_title
;
Structure prediction by ZEFSAII (Michael W. Deem and Ramdas Pophale) SiO2 
 PCOD8057497
Probable space group: P 2/M
;
_chemical_formula_sum "Si O2"
_cell_formula_units_Z 32
_cell_length_a 22.818320
_cell_length_b 9.215200
_cell_length_c 16.393769
_cell_angle_alpha 90.000000
_cell_angle_beta 41.511580
_cell_angle_gamma 90.000000
_cell_volume 2284.709596
_symmetry_space_group_name_H-M "P 2/M"
_symmetry_group_IT_number 10
_symmetry_cell_setting 'monoclinic'
loop_
_space_group_symop_operation_xyz
x,y,z
-x,y,-z
-x,-y,-z
x,-y,z
loop_
_atom_site_type_symbol
_atom_site_label
_atom_site_fract_x
_atom_site_fract_y
_atom_site_fract_z
Si Si1 0.747494 0.336755 0.738233
Si Si2 0.369259 0.336965 0.690225
Si Si3 0.796030 0.664110 0.861200
Si Si4 0.431835 0.662813 0.454950
Si Si5 0.315632 0.832428 0.893791
Si Si6 0.902389 0.170566 0.630417
Si Si7 0.486676 0.832642 0.250596
Si Si8 0.437329 0.671491 0.138611
O O1 0.771970 0.500000 0.684380
O O2 0.725962 0.337631 0.858521
O O3 0.832263 0.231304 0.635670
O O4 0.662527 0.279052 0.778303
O O5 0.330971 0.500000 0.738560
O O6 0.468860 0.334962 0.617134
O O7 0.367927 0.287682 0.596355
O O8 0.311866 0.227594 0.805072
O O9 0.821418 0.500000 0.860327
O O10 0.883339 0.749668 0.737132
O O11 0.756217 0.745798 0.979699
O O12 0.406538 0.500000 0.453309
O O13 0.422275 0.770360 0.388340
O O14 0.411533 0.807716 0.832695
O O15 0.289066 0.000000 0.920031
O O16 0.000000 0.211073 0.500000
O O17 0.888824 0.000000 0.655266
O O18 0.468327 0.750108 0.186928
O O19 0.463502 0.000000 0.263532
O O20 0.443286 0.500000 0.145637
O O21 0.500000 0.722265 0.000000
#
# Coordination Sequence:
#
# PCOD8057497 Si02
#       8
#     4   4   4   4   4   4   4   4
#     4   8  17  29  42  59  77 103 137 171 202 233
#     4   8  14  24  39  54  70  94 130 166 201 240
#     4   9  17  28  42  57  77 102 132 165 195 233
#     4   8  14  26  40  53  68  95 131 168 202 239
#     4  10  18  26  36  55  80 105 132 165 206 245
#     4   9  17  29  45  63  82 104 128 160 205 251
#     4  10  20  28  37  55  77 103 135 171 209 242
#     4  10  19  31  43  56  76 106 143 176 205 237
#
# _framework density 14.006156000000001
#
# number of rings (size 3 to 8) (size 9 to 14) (size 15 to 20)
#    0.750    2.250    0.000    2.625    0.000    4.750 
#    0.000    2.500    0.000    0.000    0.000    0.000 
#    0.000    0.000    0.000    1.125    0.000   21.000 
#
# Total GULP energy -396483.406345 kJ/mol
# GULP energy per Si atom -12390.106448 kJ/mol
# Density = 1.397428 g / cm^3
# Si number density = 14.006156 Si / 1000 Ang^3
#
#
#
# Elastic Constant Matrix: (Units=GPa)
#
#
# Indices 1 2 3 4 5 6 
#
# 1 37.9962 31.0142 35.7944 0.0000 2.9012 0.0000
# 2 31.0142 87.3623 63.8830 0.0000 0.7938 0.0000
# 3 35.7944 63.8830 105.4116 0.0000 9.3373 0.0000
# 4 0.0000 0.0000 0.0000 22.9558 0.0000 0.1370
# 5 2.9012 0.7938 9.3373 0.0000 20.6318 0.0000
# 6 0.0000 0.0000 0.0000 0.1370 0.0000 13.4225
#
#
#
# Elastic Compliance Matrix: (Units=1/GPa)
#
#
# Indices 1 2 3 4 5 6 
#
# 1 0.041610 -0.008116 -0.009084 0.000000 -0.001427 0.000000
# 2 -0.008116 0.022657 -0.011458 0.000000 0.005455 0.000000
# 3 -0.009084 -0.011458 0.020172 0.000000 -0.007411 0.000000
# 4 0.000000 0.000000 0.000000 0.043565 0.000000 -0.000445
# 5 -0.001427 0.005455 -0.007411 0.000000 0.051814 0.000000
# 6 0.000000 0.000000 0.000000 -0.000445 0.000000 0.074506
#
#
# Mechanical properties :
#
#
# Convention : Reuss Voigt Hill
#
# Bulk Modulus (GPa) = 36.87076 54.68369 45.77722
# Shear Modulus (GPa) = 15.59183 18.07394 16.83288
#
# Velocity S-wave (km/s) = 3.34010 3.59615 3.47049
# Velocity P-wave (km/s) = 6.42315 7.50802 6.98668
#
# Compressibility (1/GPa) = 0.02712176
#
# Stress axis : x y z
#
# Youngs Moduli (GPa) = 24.03265 44.13666 49.57400
#
# Poissons Ratio (x) = 0.35821 0.45035
# Poissons Ratio (y) = 0.19505 0.56803
# Poissons Ratio (z) = 0.21832 0.50572
#
# Static dielectric constant tensor:
#      x y z
#    x 2.394390 0.000000 0.176020 
#    y 0.000000 2.838170 0.000000 
#    z 0.176020 0.000000 2.789130 
# 
# 
# High freq. dielectric constant tensor:
#      x y z
#    x 1.478770 0.000000 0.017000 
#    y 0.000000 1.545330 0.000000 
#    z 0.017000 0.000000 1.527020 
# 
# From -- ./inp_files/72020.got.cif
#   From: 2010.06.25/outbox.cif.g09.slc.cpg/sg10_37_cif.got.tgz:72020.got - 2010.06.27 22:07:45.
