data_PCOD8057665
_publ_section_title
;
Structure prediction by ZEFSAII (Michael W. Deem and Ramdas Pophale) SiO2 
 PCOD8057665
Probable space group: P 2/M
;
_chemical_formula_sum "Si O2"
_cell_formula_units_Z 26
_cell_length_a 12.291970
_cell_length_b 14.854204
_cell_length_c 8.107608
_cell_angle_alpha 90.000000
_cell_angle_beta 84.043111
_cell_angle_gamma 90.000000
_cell_volume 1472.353823
_symmetry_space_group_name_H-M "P 2/M"
_symmetry_group_IT_number 10
_symmetry_cell_setting 'monoclinic'
loop_
_space_group_symop_operation_xyz
x,y,z
-x,y,-z
-x,-y,-z
x,-y,z
loop_
_atom_site_type_symbol
_atom_site_label
_atom_site_fract_x
_atom_site_fract_y
_atom_site_fract_z
Si Si1 0.353328 0.215909 0.355594
Si Si2 0.122646 0.896043 0.928639
Si Si3 0.686965 0.230724 0.999050
Si Si4 0.583871 0.400517 0.136919
Si Si5 0.500000 0.348935 0.500000
Si Si6 0.447053 0.101279 0.781702
Si Si7 0.233812 0.901875 0.589254
O O1 0.325376 0.262341 0.187203
O O2 0.392931 0.289844 0.479470
O O3 0.445520 0.139351 0.322191
O O4 0.241476 0.170899 0.442154
O O5 0.133571 0.882583 0.729370
O O6 0.156615 0.000000 0.968375
O O7 0.198503 0.821631 0.002851
O O8 0.000000 0.875373 0.000000
O O9 0.675856 0.321484 0.112999
O O10 0.588174 0.162125 0.056619
O O11 0.635945 0.500000 0.103228
O O12 0.526812 0.403018 0.327400
O O13 0.500000 0.380483 0.000000
O O14 0.347218 0.104437 0.670435
O O15 0.470026 0.000000 0.838289
O O16 0.218700 0.000000 0.511088
#
# Coordination Sequence:
#
# PCOD8057665 Si02
#       7
#     4   4   4   4   2   4   4
#     4  12  19  28  48  74 112 144 172 213 263 323
#     4   9  19  37  57  74  99 139 186 235 282 322
#     4  11  20  34  50  75 104 139 184 223 264 322
#     4  11  22  37  55  79 112 148 186 222 263 322
#     4  12  19  34  51  76 110 152 179 218 257 322
#     4  10  18  28  43  67 104 143 172 200 248 313
#     4   9  17  28  43  68 100 137 176 212 253 311
#
# _framework density 17.658798999999998
#
# number of rings (size 3 to 8) (size 9 to 14) (size 15 to 20)
#    0.000    1.538    4.615    3.462    0.000    4.308 
#    0.000    0.769    0.000    3.231    0.000    0.000 
#    0.000    2.462    0.000    0.000    0.000    0.000 
#
# Total GULP energy -322178.444310 kJ/mol
# GULP energy per Si atom -12391.478627 kJ/mol
# Density = 1.761861 g / cm^3
# Si number density = 17.658799 Si / 1000 Ang^3
#
#
#
# Elastic Constant Matrix: (Units=GPa)
#
#
# Indices 1 2 3 4 5 6 
#
# 1 59.2216 36.1926 22.8246 0.0000 -21.9066 0.0000
# 2 36.1926 110.3186 30.8268 0.0000 -8.9574 0.0000
# 3 22.8246 30.8268 101.8914 0.0000 -9.4763 0.0000
# 4 0.0000 0.0000 0.0000 17.5991 0.0000 -1.6187
# 5 -21.9066 -8.9574 -9.4763 0.0000 26.6131 0.0000
# 6 0.0000 0.0000 0.0000 -1.6187 0.0000 16.1557
#
#
#
# Elastic Compliance Matrix: (Units=1/GPa)
#
#
# Indices 1 2 3 4 5 6 
#
# 1 0.030472 -0.007531 -0.002534 0.000000 0.021646 0.000000
# 2 -0.007531 0.011907 -0.002192 0.000000 -0.002972 0.000000
# 3 -0.002534 -0.002192 0.011152 0.000000 0.001147 0.000000
# 4 0.000000 0.000000 0.000000 0.057350 0.000000 0.005746
# 5 0.021646 -0.002972 0.001147 0.000000 0.054801 0.000000
# 6 0.000000 0.000000 0.000000 0.005746 0.000000 0.062473
#
#
# Mechanical properties :
#
#
# Convention : Reuss Voigt Hill
#
# Bulk Modulus (GPa) = 34.46378 50.12440 42.29409
# Shear Modulus (GPa) = 19.05912 24.17942 21.61927
#
# Velocity S-wave (km/s) = 3.28883 3.70436 3.50276
# Velocity P-wave (km/s) = 5.82930 6.83688 6.35310
#
# Compressibility (1/GPa) = 0.02901597
#
# Stress axis : x y z
#
# Youngs Moduli (GPa) = 32.81678 83.98713 89.67131
#
# Poissons Ratio (x) = 0.63254 0.22725
# Poissons Ratio (y) = 0.24716 0.19653
# Poissons Ratio (z) = 0.08317 0.18407
#
# Static dielectric constant tensor:
#      x y z
#    x 2.866760 0.000000 -0.171500 
#    y 0.000000 3.289290 0.000000 
#    z -0.171500 0.000000 3.512060 
# 
# 
# High freq. dielectric constant tensor:
#      x y z
#    x 1.623570 0.000000 -0.007960 
#    y 0.000000 1.670970 0.000000 
#    z -0.007960 0.000000 1.701880 
# 
# From -- ./inp_files/24627.got.cif
#   From: 2010.06.25/outbox.cif.g09.slc.cpg/sg10_13_cif.got.tgz:24627.got - 2010.06.27 22:07:45.
