data_PCOD8057040
_publ_section_title
;
Structure prediction by ZEFSAII (Michael W. Deem and Ramdas Pophale) SiO2 
 PCOD8057040
Probable space group: P 2/M
;
_chemical_formula_sum "Si O2"
_cell_formula_units_Z 32
_cell_length_a 30.669423
_cell_length_b 9.219658
_cell_length_c 21.197357
_cell_angle_alpha 90.000000
_cell_angle_beta 160.484811
_cell_angle_gamma 90.000000
_cell_volume 2002.268751
_symmetry_space_group_name_H-M "P 2/M"
_symmetry_group_IT_number 10
_symmetry_cell_setting 'monoclinic'
loop_
_space_group_symop_operation_xyz
x,y,z
-x,y,-z
-x,-y,-z
x,-y,z
loop_
_atom_site_type_symbol
_atom_site_label
_atom_site_fract_x
_atom_site_fract_y
_atom_site_fract_z
Si Si1 0.292936 0.828543 0.196322
Si Si2 0.618657 0.339532 0.112992
Si Si3 0.362301 0.169569 0.540286
Si Si4 0.454674 0.168722 0.800104
Si Si5 0.071998 0.168047 0.163966
Si Si6 0.769264 0.331395 0.433888
Si Si7 0.966084 0.669938 0.138555
Si Si8 0.539303 0.171449 0.456590
O O1 0.347830 0.786023 0.340151
O O2 0.397718 0.774480 0.287070
O O3 0.266242 0.000000 0.155295
O O4 0.160990 0.741356 0.003763
O O5 0.638943 0.500000 0.112261
O O6 0.745045 0.290973 0.326697
O O7 0.500000 0.337161 0.000000
O O8 0.586615 0.233144 0.011172
O O9 0.458277 0.199284 0.730057
O O10 0.218220 0.232809 0.357310
O O11 0.425635 0.240517 0.563820
O O12 0.343355 0.000000 0.502021
O O13 0.322989 0.238309 0.646940
O O14 0.449890 0.000000 0.809197
O O15 0.994721 0.259149 0.110293
O O16 0.072864 0.000000 0.186320
O O17 0.000000 0.188541 0.000000
O O18 0.732916 0.500000 0.395006
O O19 0.917928 0.298092 0.653913
O O20 0.944047 0.500000 0.098498
O O21 0.530920 0.000000 0.441063
#
# Coordination Sequence:
#
# PCOD8057040 Si02
#       8
#     4   4   4   4   4   4   4   4
#     4   9  17  31  52  70  85 113 157 197 225 261
#     4   8  15  28  43  57  81 118 154 179 212 264
#     4   9  16  26  42  67  94 116 143 184 228 265
#     4  10  17  25  41  66  92 115 143 184 227 263
#     4  10  19  31  47  65  89 123 157 183 214 266
#     4   9  18  31  43  58  86 125 154 176 213 268
#     4  11  21  31  45  66  95 123 149 185 229 269
#     4   8  15  30  50  69  87 114 153 192 227 267
#
# _framework density 15.981871
#
# number of rings (size 3 to 8) (size 9 to 14) (size 15 to 20)
#    0.000    2.750    1.250    3.000    0.000    5.000 
#    0.000    1.250    0.000    3.000    0.000    0.875 
#    0.000    7.000    0.000    0.000    0.000    0.000 
#
# Total GULP energy -396649.323709 kJ/mol
# GULP energy per Si atom -12395.291366 kJ/mol
# Density = 1.594550 g / cm^3
# Si number density = 15.981871 Si / 1000 Ang^3
#
#
#
# Elastic Constant Matrix: (Units=GPa)
#
#
# Indices 1 2 3 4 5 6 
#
# 1 70.1455 29.7435 47.8055 0.0000 -1.8864 0.0000
# 2 29.7435 57.8183 43.9197 0.0000 -4.1824 0.0000
# 3 47.8055 43.9197 106.5886 0.0000 -7.5543 0.0000
# 4 0.0000 0.0000 0.0000 24.0136 0.0000 -5.1778
# 5 -1.8864 -4.1824 -7.5543 0.0000 22.5697 0.0000
# 6 0.0000 0.0000 0.0000 -5.1778 0.0000 7.9157
#
#
#
# Elastic Compliance Matrix: (Units=1/GPa)
#
#
# Indices 1 2 3 4 5 6 
#
# 1 0.021729 -0.005542 -0.007586 0.000000 -0.001750 0.000000
# 2 -0.005542 0.026622 -0.008365 0.000000 0.001670 0.000000
# 3 -0.007586 -0.008365 0.016467 0.000000 0.003327 0.000000
# 4 0.000000 0.000000 0.000000 0.048481 0.000000 0.031712
# 5 -0.001750 0.001670 0.003327 0.000000 0.045584 0.000000
# 6 0.000000 0.000000 0.000000 0.031712 0.000000 0.147075
#
#
# Mechanical properties :
#
#
# Convention : Reuss Voigt Hill
#
# Bulk Modulus (GPa) = 45.80701 53.05442 49.43071
# Shear Modulus (GPa) = 14.03617 18.43871 16.23744
#
# Velocity S-wave (km/s) = 2.96675 3.40034 3.19092
# Velocity P-wave (km/s) = 6.36078 6.97747 6.67625
#
# Compressibility (1/GPa) = 0.02183072
#
# Stress axis : x y z
#
# Youngs Moduli (GPa) = 46.02140 37.56287 60.72754
#
# Poissons Ratio (x) = 0.20818 0.46067
# Poissons Ratio (y) = 0.25506 0.50801
# Poissons Ratio (z) = 0.34911 0.31423
#
# Static dielectric constant tensor:
#      x y z
#    x 3.129030 0.000000 -0.181900 
#    y 0.000000 2.870730 0.000000 
#    z -0.181900 0.000000 3.212350 
# 
# 
# High freq. dielectric constant tensor:
#      x y z
#    x 1.591390 0.000000 -0.018950 
#    y 0.000000 1.594370 0.000000 
#    z -0.018950 0.000000 1.612210 
# 
# From -- ./inp_files/54856.got.cif
#   From: 2010.06.25/outbox.cif.g09.slc.cpg/sg10_28_cif.got.tgz:54856.got - 2010.06.27 22:07:45.
