data_PCOD8057705
_publ_section_title
;
Structure prediction by ZEFSAII (Michael W. Deem and Ramdas Pophale) SiO2 
 PCOD8057705
Probable space group: P 2/M
;
_chemical_formula_sum "Si O2"
_cell_formula_units_Z 24
_cell_length_a 21.644380
_cell_length_b 8.683659
_cell_length_c 12.173440
_cell_angle_alpha 90.000000
_cell_angle_beta 142.237449
_cell_angle_gamma 90.000000
_cell_volume 1401.166207
_symmetry_space_group_name_H-M "P 2/M"
_symmetry_group_IT_number 10
_symmetry_cell_setting 'monoclinic'
loop_
_space_group_symop_operation_xyz
x,y,z
-x,y,-z
-x,-y,-z
x,-y,z
loop_
_atom_site_type_symbol
_atom_site_label
_atom_site_fract_x
_atom_site_fract_y
_atom_site_fract_z
Si Si1 0.725179 0.823797 0.776446
Si Si2 0.671839 0.319105 0.928408
Si Si3 0.541031 0.670742 0.434856
Si Si4 0.150786 0.819379 0.708142
Si Si5 0.997569 0.319695 0.659725
Si Si6 0.951893 0.821776 0.045954
O O1 0.716461 0.718550 0.871319
O O2 0.638125 0.781929 0.564876
O O3 0.712365 0.000000 0.795322
O O4 0.832219 0.793648 0.869996
O O5 0.684727 0.500000 0.965017
O O6 0.553529 0.270296 0.771887
O O7 0.733236 0.228318 0.108480
O O8 0.500000 0.664786 0.500000
O O9 0.574268 0.500000 0.443882
O O10 0.109199 0.730024 0.543113
O O11 0.086741 0.774193 0.725795
O O12 0.142279 0.000000 0.675506
O O13 0.015337 0.500000 0.666326
O O14 0.997387 0.279162 0.787458
O O15 0.976987 0.000000 0.103997
O O16 0.000000 0.764970 0.000000
#
# Coordination Sequence:
#
# PCOD8057705 Si02
#       6
#     4   4   4   4   4   4
#     4  10  18  28  45  67  93 126 162 200 237 281
#     4  10  18  29  45  68  97 128 157 192 239 290
#     4   8  16  28  42  62  93 127 155 189 238 288
#     4  11  20  31  49  71  98 129 159 195 242 293
#     4  11  21  33  49  70  96 127 163 201 240 287
#     4  10  21  36  51  69  97 132 167 203 242 282
#
# _framework density 17.128588000000001
#
# number of rings (size 3 to 8) (size 9 to 14) (size 15 to 20)
#    0.000    2.000    1.667    6.000    0.000    4.667 
#    0.000    0.000    0.000    0.000    0.000    1.167 
#    0.000    9.333    0.000    0.000    0.000    0.000 
#
# Total GULP energy -297568.018699 kJ/mol
# GULP energy per Si atom -12398.667446 kJ/mol
# Density = 1.708960 g / cm^3
# Si number density = 17.128588 Si / 1000 Ang^3
#
#
#
# Elastic Constant Matrix: (Units=GPa)
#
#
# Indices 1 2 3 4 5 6 
#
# 1 54.4071 18.7495 35.4035 0.0000 -1.2119 0.0000
# 2 18.7495 70.1260 33.6972 0.0000 0.7796 0.0000
# 3 35.4035 33.6972 136.5284 0.0000 9.9254 0.0000
# 4 0.0000 0.0000 0.0000 34.1041 0.0000 1.7080
# 5 -1.2119 0.7796 9.9254 0.0000 19.2996 0.0000
# 6 0.0000 0.0000 0.0000 1.7080 0.0000 9.3503
#
#
#
# Elastic Compliance Matrix: (Units=1/GPa)
#
#
# Indices 1 2 3 4 5 6 
#
# 1 0.023289 -0.003653 -0.005459 0.000000 0.004417 0.000000
# 2 -0.003653 0.016791 -0.003253 0.000000 0.000765 0.000000
# 3 -0.005459 -0.003253 0.009929 0.000000 -0.005318 0.000000
# 4 0.000000 0.000000 0.000000 0.029593 0.000000 -0.005406
# 5 0.004417 0.000765 -0.005318 0.000000 0.054796 0.000000
# 6 0.000000 0.000000 0.000000 -0.005406 0.000000 0.107936
#
#
# Mechanical properties :
#
#
# Convention : Reuss Voigt Hill
#
# Bulk Modulus (GPa) = 39.55501 48.52911 44.04206
# Shear Modulus (GPa) = 18.14945 24.09821 21.12383
#
# Velocity S-wave (km/s) = 3.25868 3.75494 3.51558
# Velocity P-wave (km/s) = 6.10752 6.86973 6.49980
#
# Compressibility (1/GPa) = 0.02528125
#
# Stress axis : x y z
#
# Youngs Moduli (GPa) = 42.93826 59.55502 100.71072
#
# Poissons Ratio (x) = 0.21755 0.54976
# Poissons Ratio (y) = 0.15685 0.32758
# Poissons Ratio (z) = 0.23439 0.19372
#
# Static dielectric constant tensor:
#      x y z
#    x 2.721370 0.000000 0.241970 
#    y 0.000000 3.256950 0.000000 
#    z 0.241970 0.000000 3.734770 
# 
# 
# High freq. dielectric constant tensor:
#      x y z
#    x 1.590380 0.000000 0.018570 
#    y 0.000000 1.670820 0.000000 
#    z 0.018570 0.000000 1.679800 
# 
# From -- ./inp_files/48883.got.cif
#   From: 2010.06.25/outbox.cif.g09.slc.cpg/sg10_25_cif.got.tgz:48883.got - 2010.06.27 22:07:45.
