data_PCOD8057707
_publ_section_title
;
Structure prediction by ZEFSAII (Michael W. Deem and Ramdas Pophale) SiO2 
 PCOD8057707
Probable space group: P 2/M
;
_chemical_formula_sum "Si O2"
_cell_formula_units_Z 32
_cell_length_a 14.141088
_cell_length_b 8.775436
_cell_length_c 21.063904
_cell_angle_alpha 90.000000
_cell_angle_beta 138.140034
_cell_angle_gamma 90.000000
_cell_volume 1744.293410
_symmetry_space_group_name_H-M "P 2/M"
_symmetry_group_IT_number 10
_symmetry_cell_setting 'monoclinic'
loop_
_space_group_symop_operation_xyz
x,y,z
-x,y,-z
-x,-y,-z
x,-y,z
loop_
_atom_site_type_symbol
_atom_site_label
_atom_site_fract_x
_atom_site_fract_y
_atom_site_fract_z
Si Si1 0.672466 0.819275 0.965187
Si Si2 0.351497 0.176482 0.812843
Si Si3 0.159117 0.818143 0.331279
Si Si4 0.648502 0.823518 0.461346
Si Si5 0.672467 0.819275 0.707280
Si Si6 0.624727 0.175001 0.312364
Si Si7 0.671727 0.322669 0.835864
Si Si8 0.159117 0.818143 0.827838
O O1 0.511735 0.758685 0.896596
O O2 0.737363 0.750342 0.932709
O O3 0.673870 0.000000 0.959611
O O4 0.768667 0.761517 0.071205
O O5 0.287830 0.202131 0.709312
O O6 0.247708 0.252488 0.812745
O O7 0.359189 0.000000 0.834036
O O8 0.247709 0.747512 0.434962
O O9 0.231332 0.761518 0.302537
O O10 0.000000 0.752742 0.255170
O O11 0.156483 0.000000 0.332633
O O12 0.488265 0.758685 0.384861
O O13 0.712170 0.797869 0.421482
O O14 0.640810 0.000000 0.474847
O O15 0.737363 0.750342 0.804655
O O16 0.673870 0.000000 0.714260
O O17 0.495211 0.290771 0.247606
O O18 0.565746 0.000000 0.282873
O O19 0.704527 0.500000 0.852263
O O20 0.156483 0.000000 0.823850
#
# Coordination Sequence:
#
# PCOD8057707 Si02
#       8
#     4   4   4   4   4   4   4   4
#     4   9  16  28  46  65  87 116 145 174 215 264
#     4   8  13  23  41  64  88 115 145 174 210 256
#     4   9  16  25  40  65  92 115 145 184 215 243
#     4   8  13  23  41  64  88 115 145 174 210 256
#     4   9  16  28  46  65  87 116 145 174 215 264
#     4   8  14  26  45  67  91 118 143 169 210 262
#     4  10  18  28  45  68  89 108 139 186 226 254
#     4   9  16  25  40  65  92 115 145 184 215 243
#
# _framework density 18.345538000000001
#
# number of rings (size 3 to 8) (size 9 to 14) (size 15 to 20)
#    0.000    3.250    0.000    3.375    0.000    3.000 
#    0.000    1.250    0.000   20.250    0.000    0.000 
#    0.000   16.000    0.000    0.000    0.000    0.000 
#
# Total GULP energy -396445.872515 kJ/mol
# GULP energy per Si atom -12388.933516 kJ/mol
# Density = 1.830378 g / cm^3
# Si number density = 18.345538 Si / 1000 Ang^3
#
#
#
# Elastic Constant Matrix: (Units=GPa)
#
#
# Indices 1 2 3 4 5 6 
#
# 1 123.0250 15.8813 101.1312 0.0000 -28.2206 0.0000
# 2 15.8813 25.4102 14.9852 0.0000 -6.3381 0.0000
# 3 101.1312 14.9852 115.5331 0.0000 -24.7213 0.0000
# 4 0.0000 0.0000 0.0000 4.5239 0.0000 -0.3315
# 5 -28.2206 -6.3381 -24.7213 0.0000 33.6844 0.0000
# 6 0.0000 0.0000 0.0000 -0.3315 0.0000 4.5706
#
#
#
# Elastic Compliance Matrix: (Units=1/GPa)
#
#
# Indices 1 2 3 4 5 6 
#
# 1 0.030492 -0.002688 -0.024893 0.000000 0.006771 0.000000
# 2 -0.002688 0.043487 -0.002395 0.000000 0.004173 0.000000
# 3 -0.024893 -0.002395 0.031078 0.000000 0.001502 0.000000
# 4 0.000000 0.000000 0.000000 0.222227 0.000000 0.016117
# 5 0.006771 0.004173 0.001502 0.000000 0.037247 0.000000
# 6 0.000000 0.000000 0.000000 0.016117 0.000000 0.219960
#
#
# Mechanical properties :
#
#
# Convention : Reuss Voigt Hill
#
# Bulk Modulus (GPa) = 22.17057 58.66263 40.41660
# Shear Modulus (GPa) = 7.58174 17.35384 12.46779
#
# Velocity S-wave (km/s) = 2.03512 3.07896 2.60976
# Velocity P-wave (km/s) = 4.19923 6.68475 5.58209
#
# Compressibility (1/GPa) = 0.04510483
#
# Stress axis : x y z
#
# Youngs Moduli (GPa) = 32.79557 22.99522 32.17721
#
# Poissons Ratio (x) = 0.06181 0.80100
# Poissons Ratio (y) = 0.08816 0.07705
# Poissons Ratio (z) = 0.81640 0.05506
#
# Static dielectric constant tensor:
#      x y z
#    x 3.613320 0.000000 -0.345400 
#    y 0.000000 2.705580 0.000000 
#    z -0.345400 0.000000 3.564450 
# 
# 
# High freq. dielectric constant tensor:
#      x y z
#    x 1.708050 0.000000 -0.036120 
#    y 0.000000 1.643880 0.000000 
#    z -0.036120 0.000000 1.702940 
# 
# From -- ./inp_files/70054.got.cif
#   From: 2010.06.25/outbox.cif.g09.slc.cpg/sg10_36_cif.got.tgz:70054.got - 2010.06.27 22:07:45.
