data_PCOD8057212
_publ_section_title
;
Structure prediction by ZEFSAII (Michael W. Deem and Ramdas Pophale) SiO2 
 PCOD8057212
Probable space group: P 2/M
;
_chemical_formula_sum "Si O2"
_cell_formula_units_Z 28
_cell_length_a 10.304434
_cell_length_b 9.237728
_cell_length_c 31.107415
_cell_angle_alpha 90.000000
_cell_angle_beta 32.168246
_cell_angle_gamma 90.000000
_cell_volume 1576.511616
_symmetry_space_group_name_H-M "P 2/M"
_symmetry_group_IT_number 10
_symmetry_cell_setting 'monoclinic'
loop_
_space_group_symop_operation_xyz
x,y,z
-x,y,-z
-x,-y,-z
x,-y,z
loop_
_atom_site_type_symbol
_atom_site_label
_atom_site_fract_x
_atom_site_fract_y
_atom_site_fract_z
Si Si1 0.957296 0.166693 0.415451
Si Si2 0.156786 0.660156 0.999285
Si Si3 0.444277 0.668350 0.173457
Si Si4 0.236005 0.167783 0.848497
Si Si5 0.510621 0.166823 0.396732
Si Si6 0.102795 0.669639 0.654851
Si Si7 0.449341 0.831948 0.318653
O O1 0.756790 0.180540 0.508538
O O2 0.872567 0.258732 0.398536
O O3 0.208164 0.234400 0.363817
O O4 0.990695 0.000000 0.391380
O O5 0.161254 0.500000 0.018543
O O6 0.034317 0.766608 0.068366
O O7 0.429121 0.708641 0.908078
O O8 0.000000 0.662164 0.000000
O O9 0.496484 0.500000 0.169226
O O10 0.558253 0.760920 0.179753
O O11 0.159383 0.702253 0.250344
O O12 0.313293 0.194678 0.777495
O O13 0.225658 0.000000 0.863092
O O14 0.698185 0.263874 0.369902
O O15 0.499954 0.233010 0.351521
O O16 0.599657 0.000000 0.372386
O O17 0.150233 0.500000 0.636323
O O18 0.391415 0.000000 0.341256
#
# Coordination Sequence:
#
# PCOD8057212 Si02
#       7
#     4   4   4   4   4   4   4
#     4  10  19  35  57  77  97 130 174 212 251 301
#     4   8  15  28  45  67  98 131 163 198 242 295
#     4   9  18  32  48  68  98 136 168 198 242 297
#     4  10  17  27  48  77 103 124 158 207 254 293
#     4  10  21  36  54  74 100 136 173 207 250 303
#     4  11  22  35  52  75 105 135 168 211 255 296
#     4   9  18  33  53  77 103 131 167 211 250 296
#
# _framework density 17.760732999999998
#
# number of rings (size 3 to 8) (size 9 to 14) (size 15 to 20)
#    0.000    2.429    1.429    2.571    0.000    7.143 
#    0.000    2.143    0.000    2.571    0.000    6.000 
#    0.000    0.000    0.000    0.000    0.000    0.000 
#
# Total GULP energy -347136.636475 kJ/mol
# GULP energy per Si atom -12397.737017 kJ/mol
# Density = 1.772031 g / cm^3
# Si number density = 17.760733 Si / 1000 Ang^3
#
#
#
# Elastic Constant Matrix: (Units=GPa)
#
#
# Indices 1 2 3 4 5 6 
#
# 1 95.0739 36.9950 35.3021 0.0000 19.2113 0.0000
# 2 36.9950 72.8070 41.6816 0.0000 11.0846 0.0000
# 3 35.3021 41.6816 108.0630 0.0000 20.0222 0.0000
# 4 0.0000 0.0000 0.0000 28.8428 0.0000 -6.4593
# 5 19.2113 11.0846 20.0222 0.0000 14.0281 0.0000
# 6 0.0000 0.0000 0.0000 -6.4593 0.0000 -4.0184
#
#
#
# Elastic Compliance Matrix: (Units=1/GPa)
#
#
# Indices 1 2 3 4 5 6 
#
# 1 0.016307 -0.005643 0.000219 0.000000 -0.018186 0.000000
# 2 -0.005643 0.019927 -0.005924 0.000000 0.000437 0.000000
# 3 0.000219 -0.005924 0.014487 0.000000 -0.016295 0.000000
# 4 0.000000 0.000000 0.000000 0.025494 0.000000 -0.040979
# 5 -0.018186 0.000437 -0.016295 0.000000 0.119104 0.000000
# 6 0.000000 0.000000 0.000000 -0.040979 0.000000 -0.182984
#
#
# Mechanical properties :
#
#
# Convention : Reuss Voigt Hill
#
# Bulk Modulus (GPa) = 35.68152 55.98903 45.83528
# Shear Modulus (GPa) = 112.68481 18.56819 65.62650
#
# Velocity S-wave (km/s) = 7.97394 3.23687 6.08527
# Velocity P-wave (km/s) = 10.24266 6.74998 8.67394
#
# Compressibility (1/GPa) = 0.02802571
#
# Stress axis : x y z
#
# Youngs Moduli (GPa) = 61.32182 50.18346 69.02977
#
# Poissons Ratio (x) = 0.28317 -0.01510
# Poissons Ratio (y) = 0.34601 0.40891
# Poissons Ratio (z) = -0.01341 0.29727
#
# Static dielectric constant tensor:
#      x y z
#    x 3.043650 0.000000 0.039330 
#    y 0.000000 3.232920 0.000000 
#    z 0.039330 0.000000 3.722820 
# 
# 
# High freq. dielectric constant tensor:
#      x y z
#    x 1.650060 0.000000 0.003880 
#    y 0.000000 1.674120 0.000000 
#    z 0.003880 0.000000 1.708460 
# 
# From -- ./inp_files/91944.got.cif
#   From: 2010.06.25/outbox.cif.g09.slc.cpg/sg10_46_cif.got.tgz:91944.got - 2010.06.27 22:07:45.
