data_PCOD8057794
_publ_section_title
;
Structure prediction by ZEFSAII (Michael W. Deem and Ramdas Pophale) SiO2 
 PCOD8057794
Probable space group: P 2/M
;
_chemical_formula_sum "Si O2"
_cell_formula_units_Z 32
_cell_length_a 17.027338
_cell_length_b 9.080808
_cell_length_c 19.295798
_cell_angle_alpha 90.000000
_cell_angle_beta 43.301509
_cell_angle_gamma 90.000000
_cell_volume 2046.233708
_symmetry_space_group_name_H-M "P 2/M"
_symmetry_group_IT_number 10
_symmetry_cell_setting 'monoclinic'
loop_
_space_group_symop_operation_xyz
x,y,z
-x,y,-z
-x,-y,-z
x,-y,z
loop_
_atom_site_type_symbol
_atom_site_label
_atom_site_fract_x
_atom_site_fract_y
_atom_site_fract_z
Si Si1 0.331955 0.833101 0.086369
Si Si2 0.024411 0.325463 0.143409
Si Si3 0.546216 0.829496 0.134025
Si Si4 0.892514 0.837625 0.119557
Si Si5 0.231142 0.826485 0.932572
Si Si6 0.660701 0.671925 0.780103
Si Si7 0.934125 0.830321 0.746813
Si Si8 0.078786 0.672389 0.385306
O O1 0.371281 0.727670 0.122762
O O2 0.199879 0.812082 0.152560
O O3 0.356793 0.000000 0.094358
O O4 0.403275 0.790495 0.973378
O O5 0.031535 0.500000 0.143128
O O6 0.001279 0.258866 0.234292
O O7 0.915535 0.279164 0.165727
O O8 0.141959 0.263315 0.036495
O O9 0.639395 0.779375 0.131488
O O10 0.426328 0.743180 0.219977
O O11 0.518585 0.000000 0.160138
O O12 0.785817 0.791699 0.138574
O O13 0.872080 0.000000 0.165339
O O14 0.000000 0.844423 0.000000
O O15 0.210961 0.000000 0.961626
O O16 0.642762 0.500000 0.788656
O O17 0.791130 0.717195 0.678727
O O18 0.966488 0.761583 0.651867
O O19 0.972890 0.000000 0.723120
O O20 0.070882 0.500000 0.372889
O O21 0.000000 0.717518 0.500000
#
# Coordination Sequence:
#
# PCOD8057794 Si02
#       8
#     4   4   4   4   4   4   4   4
#     4   9  17  29  43  57  80 115 148 177 211 250
#     4  11  19  26  40  62  89 116 147 184 221 257
#     4  10  18  29  43  59  84 117 150 179 212 252
#     4   8  15  27  42  56  78 114 153 186 215 250
#     4   9  17  30  43  57  81 119 157 184 215 253
#     4  10  20  30  42  63  85 108 142 179 217 258
#     4  10  18  30  47  66  87 113 150 186 216 257
#     4   9  19  36  52  65  87 115 141 177 227 272
#
# _framework density 15.638486
#
# number of rings (size 3 to 8) (size 9 to 14) (size 15 to 20)
#    0.000    2.500    1.250    3.000    0.000    6.000 
#    0.000    0.000    0.000    0.000    0.000    0.000 
#    0.000    1.000    0.000   11.500    0.000    3.500 
#
# Total GULP energy -396703.751092 kJ/mol
# GULP energy per Si atom -12396.992222 kJ/mol
# Density = 1.560289 g / cm^3
# Si number density = 15.638486 Si / 1000 Ang^3
#
#
#
# Elastic Constant Matrix: (Units=GPa)
#
#
# Indices 1 2 3 4 5 6 
#
# 1 135.6988 58.5243 42.9511 0.0000 10.8025 0.0000
# 2 58.5243 82.6441 34.8450 0.0000 14.1114 0.0000
# 3 42.9511 34.8450 54.4500 0.0000 8.5807 0.0000
# 4 0.0000 0.0000 0.0000 16.4683 0.0000 1.7026
# 5 10.8025 14.1114 8.5807 0.0000 12.2952 0.0000
# 6 0.0000 0.0000 0.0000 1.7026 0.0000 20.0804
#
#
#
# Elastic Compliance Matrix: (Units=1/GPa)
#
#
# Indices 1 2 3 4 5 6 
#
# 1 0.011650 -0.006061 -0.005387 0.000000 0.000480 0.000000
# 2 -0.006061 0.021825 -0.006829 0.000000 -0.014959 0.000000
# 3 -0.005387 -0.006829 0.028094 0.000000 -0.007036 0.000000
# 4 0.000000 0.000000 0.000000 0.061260 0.000000 -0.005194
# 5 0.000480 -0.014959 -0.007036 0.000000 0.102989 0.000000
# 6 0.000000 0.000000 0.000000 -0.005194 0.000000 0.050240
#
#
# Mechanical properties :
#
#
# Convention : Reuss Voigt Hill
#
# Bulk Modulus (GPa) = 39.97433 60.60375 50.28904
# Shear Modulus (GPa) = 15.57878 18.86696 17.22287
#
# Velocity S-wave (km/s) = 3.15966 3.47716 3.32220
# Velocity P-wave (km/s) = 6.23925 7.41336 6.85150
#
# Compressibility (1/GPa) = 0.02501605
#
# Stress axis : x y z
#
# Youngs Moduli (GPa) = 85.83773 45.81847 35.59529
#
# Poissons Ratio (x) = 0.27768 0.19175
# Poissons Ratio (y) = 0.52022 0.24308
# Poissons Ratio (z) = 0.46239 0.31290
#
# Static dielectric constant tensor:
#      x y z
#    x 3.396650 0.000000 0.086170 
#    y 0.000000 2.967230 0.000000 
#    z 0.086170 0.000000 2.575760 
# 
# 
# High freq. dielectric constant tensor:
#      x y z
#    x 1.609380 0.000000 0.010650 
#    y 0.000000 1.602260 0.000000 
#    z 0.010650 0.000000 1.539160 
# 
# From -- ./inp_files/77399.got.cif
#   From: 2010.06.25/outbox.cif.g09.slc.cpg/sg10_39_cif.got.tgz:77399.got - 2010.06.27 22:07:45.
