data_PCOD8057639
_publ_section_title
;
Structure prediction by ZEFSAII (Michael W. Deem and Ramdas Pophale) SiO2 
 PCOD8057639
Probable space group: P 2/M
;
_chemical_formula_sum "Si O2"
_cell_formula_units_Z 32
_cell_length_a 15.038190
_cell_length_b 8.753122
_cell_length_c 14.045319
_cell_angle_alpha 90.000000
_cell_angle_beta 91.467353
_cell_angle_gamma 90.000000
_cell_volume 1848.194693
_symmetry_space_group_name_H-M "P 2/M"
_symmetry_group_IT_number 10
_symmetry_cell_setting 'monoclinic'
loop_
_space_group_symop_operation_xyz
x,y,z
-x,y,-z
-x,-y,-z
x,-y,z
loop_
_atom_site_type_symbol
_atom_site_label
_atom_site_fract_x
_atom_site_fract_y
_atom_site_fract_z
Si Si1 0.596591 0.321443 0.486122
Si Si2 0.820266 0.179963 0.178530
Si Si3 0.029391 0.324199 0.691531
Si Si4 0.151051 0.672049 0.203990
Si Si5 0.874964 0.179424 0.461589
Si Si6 0.099459 0.179372 0.012689
Si Si7 0.723554 0.321726 0.329992
Si Si8 0.761425 0.320784 0.610108
O O1 0.500000 0.243175 0.500000
O O2 0.587989 0.500000 0.506506
O O3 0.628060 0.290525 0.377596
O O4 0.669346 0.254967 0.563176
O O5 0.908483 0.225737 0.237596
O O6 0.732170 0.264097 0.220519
O O7 0.804954 0.000000 0.183656
O O8 0.836048 0.236327 0.070405
O O9 0.060888 0.500000 0.691652
O O10 0.036249 0.254879 0.583755
O O11 0.931019 0.307121 0.727549
O O12 0.156744 0.500000 0.164702
O O13 0.146378 0.781206 0.113448
O O14 0.235153 0.710841 0.275527
O O15 0.795566 0.222609 0.387853
O O16 0.847887 0.243711 0.563880
O O17 0.889752 0.000000 0.468662
O O18 0.088835 0.000000 0.005194
O O19 0.000000 0.252935 0.000000
O O20 0.746817 0.500000 0.337943
O O21 0.769368 0.500000 0.588433
#
# Coordination Sequence:
#
# PCOD8057639 Si02
#       8
#     4   4   4   4   4   4   4   4
#     4   8  14  27  50  75  95 117 144 176 221 277
#     4  10  18  29  45  64  89 120 154 192 230 264
#     4  10  18  28  42  61  85 117 155 190 226 262
#     4  10  21  32  45  64  87 119 155 193 232 268
#     4  10  18  28  43  62  86 119 156 187 220 262
#     4  10  20  33  47  64  88 120 158 199 236 265
#     4   9  16  27  45  69  95 119 146 184 226 269
#     4   9  18  33  47  64  92 119 147 185 227 271
#
# _framework density 17.314193
#
# number of rings (size 3 to 8) (size 9 to 14) (size 15 to 20)
#    0.000    2.500    1.250    4.500    0.000    2.750 
#    0.000    2.500    0.000    9.375    0.000    0.875 
#    0.000    7.000    0.000    0.000    0.000    0.000 
#
# Total GULP energy -396473.646481 kJ/mol
# GULP energy per Si atom -12389.801453 kJ/mol
# Density = 1.727479 g / cm^3
# Si number density = 17.314193 Si / 1000 Ang^3
#
#
#
# Elastic Constant Matrix: (Units=GPa)
#
#
# Indices 1 2 3 4 5 6 
#
# 1 70.5450 15.9286 42.1159 0.0000 -13.7445 0.0000
# 2 15.9286 31.1730 20.2211 0.0000 -8.1386 0.0000
# 3 42.1159 20.2211 116.3707 0.0000 -15.4412 0.0000
# 4 0.0000 0.0000 0.0000 25.6298 0.0000 -5.1621
# 5 -13.7445 -8.1386 -15.4412 0.0000 19.9548 0.0000
# 6 0.0000 0.0000 0.0000 -5.1621 0.0000 6.1563
#
#
#
# Elastic Compliance Matrix: (Units=1/GPa)
#
#
# Indices 1 2 3 4 5 6 
#
# 1 0.019942 -0.004699 -0.005386 0.000000 0.007652 0.000000
# 2 -0.004699 0.039573 -0.003860 0.000000 0.009917 0.000000
# 3 -0.005386 -0.003860 0.011715 0.000000 0.003781 0.000000
# 4 0.000000 0.000000 0.000000 0.046945 0.000000 0.039364
# 5 0.007652 0.009917 0.003781 0.000000 0.062354 0.000000
# 6 0.000000 0.000000 0.000000 0.039364 0.000000 0.195441
#
#
# Mechanical properties :
#
#
# Convention : Reuss Voigt Hill
#
# Bulk Modulus (GPa) = 23.07258 41.62443 32.34850
# Shear Modulus (GPa) = 11.95296 19.66974 15.81135
#
# Velocity S-wave (km/s) = 2.63031 3.37419 3.02520
# Velocity P-wave (km/s) = 4.75179 6.26682 5.56114
#
# Compressibility (1/GPa) = 0.04334149
#
# Stress axis : x y z
#
# Youngs Moduli (GPa) = 50.14442 25.26980 85.36230
#
# Poissons Ratio (x) = 0.11874 0.45972
# Poissons Ratio (y) = 0.23562 0.32950
# Poissons Ratio (z) = 0.27006 0.09754
#
# Static dielectric constant tensor:
#      x y z
#    x 3.352440 0.000000 -0.312820 
#    y 0.000000 3.078440 0.000000 
#    z -0.312820 0.000000 3.462180 
# 
# 
# High freq. dielectric constant tensor:
#      x y z
#    x 1.629830 0.000000 -0.020640 
#    y 0.000000 1.657640 0.000000 
#    z -0.020640 0.000000 1.665610 
# 
# From -- ./inp_files/66173.got.cif
#   From: 2010.06.25/outbox.cif.g09.slc.cpg/sg10_34_cif.got.tgz:66173.got - 2010.06.27 22:07:45.
