data_PCOD8057338
_publ_section_title
;
Structure prediction by ZEFSAII (Michael W. Deem and Ramdas Pophale) SiO2 
 PCOD8057338
Probable space group: P 2/M
;
_chemical_formula_sum "Si O2"
_cell_formula_units_Z 32
_cell_length_a 28.906481
_cell_length_b 8.893933
_cell_length_c 20.109794
_cell_angle_alpha 90.000000
_cell_angle_beta 20.246288
_cell_angle_gamma 90.000000
_cell_volume 1789.136302
_symmetry_space_group_name_H-M "P 2/M"
_symmetry_group_IT_number 10
_symmetry_cell_setting 'monoclinic'
loop_
_space_group_symop_operation_xyz
x,y,z
-x,y,-z
-x,-y,-z
x,-y,z
loop_
_atom_site_type_symbol
_atom_site_label
_atom_site_fract_x
_atom_site_fract_y
_atom_site_fract_z
Si Si1 0.848625 0.676069 0.337179
Si Si2 0.390121 0.178042 0.817883
Si Si3 0.096405 0.177873 0.460628
Si Si4 0.307285 0.824110 0.566584
Si Si5 0.920349 0.177391 0.371616
Si Si6 0.852261 0.671101 0.104561
Si Si7 0.200937 0.326061 0.972441
Si Si8 0.810244 0.178375 0.801802
O O1 0.830166 0.500000 0.369444
O O2 0.733846 0.741596 0.445482
O O3 0.834017 0.745903 0.430296
O O4 0.993012 0.716709 0.112126
O O5 0.543358 0.226966 0.617198
O O6 0.331273 0.261392 0.832863
O O7 0.374138 0.000000 0.829517
O O8 0.314307 0.237022 0.986650
O O9 0.196777 0.233765 0.266349
O O10 0.145101 0.224536 0.468831
O O11 0.947320 0.242006 0.648641
O O12 0.085355 0.000000 0.471608
O O13 0.210636 0.781869 0.757245
O O14 0.297963 0.000000 0.566079
O O15 0.918874 0.000000 0.362451
O O16 0.073020 0.231175 0.166997
O O17 0.840482 0.500000 0.146581
O O18 0.775710 0.690714 0.138028
O O19 0.176808 0.500000 0.023346
O O20 0.808891 0.000000 0.805714
#
# Coordination Sequence:
#
# PCOD8057338 Si02
#       8
#     4   4   4   4   4   4   4   4
#     4  10  21  37  55  74  98 131 168 207 251 300
#     4  10  20  34  51  72 104 137 167 206 248 293
#     4   8  13  22  46  78 102 128 162 198 243 291
#     4  11  23  35  51  76  99 128 169 212 256 296
#     4  10  17  29  52  80 105 128 161 210 256 290
#     4   9  20  37  54  72  96 128 165 208 252 299
#     4  10  20  33  50  74 103 136 170 199 244 303
#     4   8  13  25  45  73 104 132 162 197 239 291
#
# _framework density 17.885724
#
# number of rings (size 3 to 8) (size 9 to 14) (size 15 to 20)
#    0.000    2.500    1.250    3.375    0.000    6.000 
#    0.000    2.500    0.000    3.000    0.000    5.250 
#    0.000    0.000    0.000    0.000    0.000    0.000 
#
# Total GULP energy -396678.476442 kJ/mol
# GULP energy per Si atom -12396.202389 kJ/mol
# Density = 1.784502 g / cm^3
# Si number density = 17.885724 Si / 1000 Ang^3
#
#
#
# Elastic Constant Matrix: (Units=GPa)
#
#
# Indices 1 2 3 4 5 6 
#
# 1 128.8697 40.0795 26.9493 0.0000 -3.7497 0.0000
# 2 40.0795 54.0839 15.0394 0.0000 -4.1398 0.0000
# 3 26.9493 15.0394 23.8836 0.0000 -3.9317 0.0000
# 4 0.0000 0.0000 0.0000 8.1863 0.0000 -9.9964
# 5 -3.7497 -4.1398 -3.9317 0.0000 26.4118 0.0000
# 6 0.0000 0.0000 0.0000 -9.9964 0.0000 19.1051
#
#
#
# Elastic Compliance Matrix: (Units=1/GPa)
#
#
# Indices 1 2 3 4 5 6 
#
# 1 0.011574 -0.006022 -0.009383 0.000000 -0.000697 0.000000
# 2 -0.006022 0.025601 -0.009028 0.000000 0.001814 0.000000
# 3 -0.009383 -0.009028 0.059139 0.000000 0.006056 0.000000
# 4 0.000000 0.000000 0.000000 0.338313 0.000000 0.177016
# 5 -0.000697 0.001814 0.006056 0.000000 0.038949 0.000000
# 6 0.000000 0.000000 0.000000 0.177016 0.000000 0.144963
#
#
# Mechanical properties :
#
#
# Convention : Reuss Voigt Hill
#
# Bulk Modulus (GPa) = 21.07502 41.21928 31.14715
# Shear Modulus (GPa) = 7.31827 19.05859 13.18843
#
# Velocity S-wave (km/s) = 2.02499 3.26786 2.71841
# Velocity P-wave (km/s) = 4.15646 6.11019 5.22545
#
# Compressibility (1/GPa) = 0.04744953
#
# Stress axis : x y z
#
# Youngs Moduli (GPa) = 86.39739 39.06034 16.90927
#
# Poissons Ratio (x) = 0.23520 0.15866
# Poissons Ratio (y) = 0.52024 0.15266
# Poissons Ratio (z) = 0.81068 0.35264
#
# Static dielectric constant tensor:
#      x y z
#    x 3.611900 0.000000 0.214700 
#    y 0.000000 3.105710 0.000000 
#    z 0.214700 0.000000 3.222950 
# 
# 
# High freq. dielectric constant tensor:
#      x y z
#    x 1.705550 0.000000 0.015430 
#    y 0.000000 1.675060 0.000000 
#    z 0.015430 0.000000 1.660840 
# 
# From -- ./inp_files/87181.got.cif
#   From: 2010.06.25/outbox.cif.g09.slc.cpg/sg10_44_cif.got.tgz:87181.got - 2010.06.27 22:07:45.
