data_PCOD8057754
_publ_section_title
;
Structure prediction by ZEFSAII (Michael W. Deem and Ramdas Pophale) SiO2 
 PCOD8057754
Probable space group: P 2/M
;
_chemical_formula_sum "Si O2"
_cell_formula_units_Z 28
_cell_length_a 28.373554
_cell_length_b 8.959731
_cell_length_c 17.094892
_cell_angle_alpha 90.000000
_cell_angle_beta 22.985260
_cell_angle_gamma 90.000000
_cell_volume 1697.030996
_symmetry_space_group_name_H-M "P 2/M"
_symmetry_group_IT_number 10
_symmetry_cell_setting 'monoclinic'
loop_
_space_group_symop_operation_xyz
x,y,z
-x,y,-z
-x,-y,-z
x,-y,z
loop_
_atom_site_type_symbol
_atom_site_label
_atom_site_fract_x
_atom_site_fract_y
_atom_site_fract_z
Si Si1 0.565913 0.672434 0.659449
Si Si2 0.466579 0.827046 0.675502
Si Si3 0.595077 0.673103 0.791224
Si Si4 0.845661 0.827975 0.391771
Si Si5 0.915879 0.676267 0.958045
Si Si6 0.186407 0.828176 0.738915
Si Si7 0.693809 0.173388 0.221335
O O1 0.596542 0.500000 0.597194
O O2 0.457363 0.727670 0.768854
O O3 0.535533 0.699738 0.796885
O O4 0.677049 0.774404 0.464261
O O5 0.351641 0.789344 0.796799
O O6 0.588649 0.785100 0.442793
O O7 0.465567 0.000000 0.700109
O O8 0.624997 0.500000 0.758811
O O9 0.718562 0.762167 0.613803
O O10 0.500000 0.732798 0.000000
O O11 0.863624 0.806701 0.271548
O O12 0.955207 0.742158 0.266905
O O13 0.849144 0.000000 0.410767
O O14 0.922719 0.500000 0.946012
O O15 0.893333 0.731628 0.080590
O O16 0.812068 0.730048 0.057672
O O17 0.180543 0.000000 0.774649
O O18 0.727062 0.000000 0.178362
#
# Coordination Sequence:
#
# PCOD8057754 Si02
#       7
#     4   4   4   4   4   4   4
#     4  10  18  28  47  73  97 124 159 197 237 281
#     4   9  17  30  47  66  92 129 165 198 236 276
#     4   9  19  36  54  73  99 126 153 193 243 289
#     4  10  21  34  49  68  92 125 162 198 234 281
#     4  12  22  30  44  68  96 128 162 197 236 278
#     4  10  19  31  45  63  92 129 164 195 230 274
#     4   9  18  31  46  64  92 131 168 197 231 276
#
# _framework density 16.499403000000001
#
# number of rings (size 3 to 8) (size 9 to 14) (size 15 to 20)
#    0.000    2.143    1.429    3.857    0.000    4.857 
#    0.000    1.429    0.000    0.000    0.000    1.000 
#    0.000    8.000    0.000    0.000    0.000    0.000 
#
# Total GULP energy -347178.293940 kJ/mol
# GULP energy per Si atom -12399.224784 kJ/mol
# Density = 1.646185 g / cm^3
# Si number density = 16.499403 Si / 1000 Ang^3
#
#
#
# Elastic Constant Matrix: (Units=GPa)
#
#
# Indices 1 2 3 4 5 6 
#
# 1 83.9398 50.4297 58.9284 0.0000 -14.3003 0.0000
# 2 50.4297 102.7728 57.1830 0.0000 -13.2380 0.0000
# 3 58.9284 57.1830 86.4883 0.0000 -9.6847 0.0000
# 4 0.0000 0.0000 0.0000 19.6814 0.0000 -5.2181
# 5 -14.3003 -13.2380 -9.6847 0.0000 21.2634 0.0000
# 6 0.0000 0.0000 0.0000 -5.2181 0.0000 23.9904
#
#
#
# Elastic Compliance Matrix: (Units=1/GPa)
#
#
# Indices 1 2 3 4 5 6 
#
# 1 0.025255 -0.003571 -0.013902 0.000000 0.008429 0.000000
# 2 -0.003571 0.016467 -0.007982 0.000000 0.004214 0.000000
# 3 -0.013902 -0.007982 0.026036 0.000000 -0.002460 0.000000
# 4 0.000000 0.000000 0.000000 0.053919 0.000000 0.011728
# 5 0.008429 0.004214 -0.002460 0.000000 0.054201 0.000000
# 6 0.000000 0.000000 0.000000 0.011728 0.000000 0.044234
#
#
# Mechanical properties :
#
#
# Convention : Reuss Voigt Hill
#
# Bulk Modulus (GPa) = 59.35813 67.36480 63.36147
# Shear Modulus (GPa) = 18.07418 20.09768 19.08593
#
# Velocity S-wave (km/s) = 3.31334 3.49389 3.40481
# Velocity P-wave (km/s) = 7.11981 7.56265 7.34457
#
# Compressibility (1/GPa) = 0.01684689
#
# Stress axis : x y z
#
# Youngs Moduli (GPa) = 39.59683 60.72883 38.40817
#
# Poissons Ratio (x) = 0.21689 0.53395
# Poissons Ratio (y) = 0.14142 0.30657
# Poissons Ratio (z) = 0.55047 0.48473
#
# Static dielectric constant tensor:
#      x y z
#    x 3.209110 0.000000 -0.141940 
#    y 0.000000 3.102720 0.000000 
#    z -0.141940 0.000000 2.853930 
# 
# 
# High freq. dielectric constant tensor:
#      x y z
#    x 1.630250 0.000000 -0.022260 
#    y 0.000000 1.643200 0.000000 
#    z -0.022260 0.000000 1.596210 
# 
# From -- ./inp_files/80630.got.cif
#   From: 2010.06.25/outbox.cif.g09.slc.cpg/sg10_41_cif.got.tgz:80630.got - 2010.06.27 22:07:45.
