data_PCOD8057893
_publ_section_title
;
Structure prediction by ZEFSAII (Michael W. Deem and Ramdas Pophale) SiO2 
 PCOD8057893
Probable space group: P 2/M
;
_chemical_formula_sum "Si O2"
_cell_formula_units_Z 16
_cell_length_a 5.238203
_cell_length_b 7.354083
_cell_length_c 21.857221
_cell_angle_alpha 90.000000
_cell_angle_beta 111.043809
_cell_angle_gamma 90.000000
_cell_volume 785.832379
_symmetry_space_group_name_H-M "P 2/M"
_symmetry_group_IT_number 10
_symmetry_cell_setting 'monoclinic'
loop_
_space_group_symop_operation_xyz
x,y,z
-x,y,-z
-x,-y,-z
x,-y,z
loop_
_atom_site_type_symbol
_atom_site_label
_atom_site_fract_x
_atom_site_fract_y
_atom_site_fract_z
Si Si1 0.291067 0.202172 0.027310
Si Si2 0.497135 0.000000 0.847533
Si Si3 0.724533 0.284452 0.650939
Si Si4 0.869503 0.000000 0.762088
Si Si5 0.108987 0.285162 0.573085
O O1 0.241284 0.000000 0.993654
O O2 0.410309 0.181173 0.106569
O O3 0.500000 0.307472 0.000000
O O4 0.000000 0.307102 0.000000
O O5 0.639615 0.000000 0.794386
O O6 0.171429 0.000000 0.815489
O O7 0.742694 0.500000 0.664002
O O8 0.416455 0.217643 0.611429
O O9 0.911201 0.220830 0.610351
O O10 0.832868 0.183245 0.720028
O O11 0.106714 0.500000 0.568006
O O12 0.000000 0.200878 0.500000
#
# Coordination Sequence:
#
# PCOD8057893 Si02
#       5
#     4   2   4   2   4
#     4   8  13  24  42  66  98 122 152 206 244 264
#     4  10  18  29  46  72 103 130 165 202 229 286
#     4  10  21  36  51  71 100 128 159 202 244 287
#     4  12  22  33  49  72 102 136 165 188 235 294
#     4   9  17  33  56  74  91 122 162 205 252 292
#
# _framework density 20.360575000000001
#
# number of rings (size 3 to 8) (size 9 to 14) (size 15 to 20)
#    0.750    1.750    0.000    3.750    0.000    3.000 
#    0.000    3.750    0.000    0.000    0.000    0.000 
#    0.000   80.000    0.000    0.000    0.000    0.000 
#
# Total GULP energy -198284.790386 kJ/mol
# GULP energy per Si atom -12392.799399 kJ/mol
# Density = 2.031423 g / cm^3
# Si number density = 20.360575 Si / 1000 Ang^3
#
#
#
# Elastic Constant Matrix: (Units=GPa)
#
#
# Indices 1 2 3 4 5 6 
#
# 1 180.6200 11.2273 51.3785 0.0000 2.5993 0.0000
# 2 11.2273 47.6446 22.1592 0.0000 -1.9459 0.0000
# 3 51.3785 22.1592 123.1383 0.0000 1.9287 0.0000
# 4 0.0000 0.0000 0.0000 -12.4891 0.0000 1.3409
# 5 2.5993 -1.9459 1.9287 0.0000 50.5268 0.0000
# 6 0.0000 0.0000 0.0000 1.3409 0.0000 -9.0004
#
#
#
# Elastic Compliance Matrix: (Units=1/GPa)
#
#
# Indices 1 2 3 4 5 6 
#
# 1 0.006288 -0.000298 -0.002567 0.000000 -0.000237 0.000000
# 2 -0.000298 0.022975 -0.004027 0.000000 0.001054 0.000000
# 3 -0.002567 -0.004027 0.009923 0.000000 -0.000402 0.000000
# 4 0.000000 0.000000 0.000000 -0.081371 0.000000 -0.012123
# 5 -0.000237 0.001054 -0.000402 0.000000 0.019860 0.000000
# 6 0.000000 0.000000 0.000000 -0.012123 0.000000 -0.112912
#
#
# Mechanical properties :
#
#
# Convention : Reuss Voigt Hill
#
# Bulk Modulus (GPa) = 39.36397 57.88143 48.62270
# Shear Modulus (GPa) = -44.25251 23.58332 -10.33459
#
# Velocity S-wave (km/s) = -4.66708 3.40705 -2.25539
# Velocity P-wave (km/s) = 3.10914 6.63078 4.14129
#
# Compressibility (1/GPa) = 0.02540394
#
# Stress axis : x y z
#
# Youngs Moduli (GPa) = 159.02125 43.52604 100.77898
#
# Poissons Ratio (x) = 0.01296 0.25865
# Poissons Ratio (y) = 0.04737 0.40580
# Poissons Ratio (z) = 0.40813 0.17526
#
# Static dielectric constant tensor:
#      x y z
#    x 4.307140 0.000000 0.029340 
#    y 0.000000 3.083180 0.000000 
#    z 0.029340 0.000000 3.605350 
# 
# 
# High freq. dielectric constant tensor:
#      x y z
#    x 1.824810 0.000000 0.001820 
#    y 0.000000 1.748490 0.000000 
#    z 0.001820 0.000000 1.790460 
# 
# From -- ./inp_files/80848.got.cif
#   From: 2010.06.25/outbox.cif.g09.slc.cpg/sg10_41_cif.got.tgz:80848.got - 2010.06.27 22:07:45.
