data_PCOD8057761
_publ_section_title
;
Structure prediction by ZEFSAII (Michael W. Deem and Ramdas Pophale) SiO2 
 PCOD8057761
Probable space group: P 2/M
;
_chemical_formula_sum "Si O2"
_cell_formula_units_Z 32
_cell_length_a 29.676059
_cell_length_b 13.594104
_cell_length_c 9.629097
_cell_angle_alpha 90.000000
_cell_angle_beta 148.970530
_cell_angle_gamma 90.000000
_cell_volume 2002.411173
_symmetry_space_group_name_H-M "P 2/M"
_symmetry_group_IT_number 10
_symmetry_cell_setting 'monoclinic'
loop_
_space_group_symop_operation_xyz
x,y,z
-x,y,-z
-x,-y,-z
x,-y,z
loop_
_atom_site_type_symbol
_atom_site_label
_atom_site_fract_x
_atom_site_fract_y
_atom_site_fract_z
Si Si1 0.273655 0.884482 0.647680
Si Si2 0.596530 0.116283 0.241326
Si Si3 0.209779 0.801329 0.751141
Si Si4 0.135875 0.193166 0.069950
Si Si5 0.115418 0.610015 0.442239
Si Si6 0.976217 0.113942 0.786573
Si Si7 0.255993 0.882707 0.159129
Si Si8 0.915480 0.610204 0.961369
O O1 0.360370 0.852743 0.791506
O O2 0.273163 0.823048 0.788523
O O3 0.188950 0.860112 0.332607
O O4 0.273204 0.000000 0.680203
O O5 0.657772 0.151495 0.529645
O O6 0.589692 0.000000 0.230146
O O7 0.500000 0.164074 0.000000
O O8 0.183924 0.686485 0.688922
O O9 0.124481 0.868938 0.513311
O O10 0.262447 0.831466 0.027275
O O11 0.170328 0.158245 0.011855
O O12 0.139216 0.312251 0.090524
O O13 0.035086 0.162375 0.822177
O O14 0.143459 0.500000 0.560861
O O15 0.018619 0.633753 0.242544
O O16 0.117344 0.620032 0.282161
O O17 0.997228 0.000000 0.844585
O O18 0.000000 0.161269 0.000000
O O19 0.249175 0.000000 0.127966
O O20 0.896973 0.500000 0.968381
#
# Coordination Sequence:
#
# PCOD8057761 Si02
#       8
#     4   4   4   4   4   4   4   4
#     4  10  18  28  48  72  95 125 161 199 233 281
#     4   8  16  34  55  71  92 126 158 186 234 297
#     4  12  20  31  45  68 101 128 162 203 243 272
#     4  11  18  31  45  64  93 130 172 202 235 278
#     4   9  17  30  47  66  89 124 167 211 250 274
#     4  11  19  26  42  63  89 129 173 202 220 272
#     4  10  22  34  46  69 103 131 154 197 246 285
#     4   9  16  29  48  67  85 118 175 224 245 265
#
# _framework density 15.980734999999999
#
# number of rings (size 3 to 8) (size 9 to 14) (size 15 to 20)
#    0.000    2.000    3.750    3.750    0.000    0.500 
#    0.000    2.500    0.000    4.500    0.000    0.000 
#    0.000   19.000    0.000    0.000    0.000    0.000 
#
# Total GULP energy -396758.491280 kJ/mol
# GULP energy per Si atom -12398.702853 kJ/mol
# Density = 1.594436 g / cm^3
# Si number density = 15.980735 Si / 1000 Ang^3
#
#
#
# Elastic Constant Matrix: (Units=GPa)
#
#
# Indices 1 2 3 4 5 6 
#
# 1 88.4431 29.6550 44.5444 0.0000 -1.5275 0.0000
# 2 29.6550 90.8042 23.8058 0.0000 -1.4708 0.0000
# 3 44.5444 23.8058 62.5844 0.0000 0.0467 0.0000
# 4 0.0000 0.0000 0.0000 14.4897 0.0000 -5.7970
# 5 -1.5275 -1.4708 0.0467 0.0000 24.4417 0.0000
# 6 0.0000 0.0000 0.0000 -5.7970 0.0000 15.0528
#
#
#
# Elastic Compliance Matrix: (Units=1/GPa)
#
#
# Indices 1 2 3 4 5 6 
#
# 1 0.018285 -0.002825 -0.011940 0.000000 0.000996 0.000000
# 2 -0.002825 0.012683 -0.002814 0.000000 0.000592 0.000000
# 3 -0.011940 -0.002814 0.025548 0.000000 -0.000964 0.000000
# 4 0.000000 0.000000 0.000000 0.081584 0.000000 0.031419
# 5 0.000996 0.000592 -0.000964 0.000000 0.041013 0.000000
# 6 0.000000 0.000000 0.000000 0.031419 0.000000 0.078533
#
#
# Mechanical properties :
#
#
# Convention : Reuss Voigt Hill
#
# Bulk Modulus (GPa) = 46.82342 48.64913 47.73627
# Shear Modulus (GPa) = 16.67090 20.38527 18.52809
#
# Velocity S-wave (km/s) = 3.23334 3.57545 3.40869
# Velocity P-wave (km/s) = 6.58049 6.89591 6.74005
#
# Compressibility (1/GPa) = 0.02135684
#
# Stress axis : x y z
#
# Youngs Moduli (GPa) = 54.68975 78.84813 39.14180
#
# Poissons Ratio (x) = 0.22275 0.46737
# Poissons Ratio (y) = 0.15450 0.11014
# Poissons Ratio (z) = 0.65302 0.22187
#
# Static dielectric constant tensor:
#      x y z
#    x 3.113600 0.000000 0.069600 
#    y 0.000000 3.085990 0.000000 
#    z 0.069600 0.000000 2.831820 
# 
# 
# High freq. dielectric constant tensor:
#      x y z
#    x 1.602980 0.000000 -0.006080 
#    y 0.000000 1.606570 0.000000 
#    z -0.006080 0.000000 1.575950 
# 
# From -- ./inp_files/29065.got.cif
#   From: 2010.06.25/outbox.cif.g09.slc.cpg/sg10_15_cif.got.tgz:29065.got - 2010.06.27 22:07:45.
