data_PCOD8057454
_publ_section_title
;
Structure prediction by ZEFSAII (Michael W. Deem and Ramdas Pophale) SiO2 
 PCOD8057454
Probable space group: P 2/M
;
_chemical_formula_sum "Si O2"
_cell_formula_units_Z 24
_cell_length_a 10.461873
_cell_length_b 7.754113
_cell_length_c 18.256649
_cell_angle_alpha 90.000000
_cell_angle_beta 58.027474
_cell_angle_gamma 90.000000
_cell_volume 1256.357330
_symmetry_space_group_name_H-M "P 2/M"
_symmetry_group_IT_number 10
_symmetry_cell_setting 'monoclinic'
loop_
_space_group_symop_operation_xyz
x,y,z
-x,y,-z
-x,-y,-z
x,-y,z
loop_
_atom_site_type_symbol
_atom_site_label
_atom_site_fract_x
_atom_site_fract_y
_atom_site_fract_z
Si Si1 0.667895 0.798841 0.443530
Si Si2 0.040670 0.698331 0.566315
Si Si3 0.176698 0.804350 0.754379
Si Si4 0.817077 0.500000 0.980911
Si Si5 0.890372 0.705343 0.757926
Si Si6 0.171568 0.500000 0.860796
Si Si7 0.327246 0.802667 0.063838
O O1 0.500000 0.719270 0.500000
O O2 0.782451 0.717167 0.468105
O O3 0.721777 0.756791 0.345940
O O4 0.665189 0.000000 0.461629
O O5 0.997157 0.500000 0.573730
O O6 0.000000 0.786600 0.500000
O O7 0.936184 0.778230 0.663419
O O8 0.224781 0.672862 0.803218
O O9 0.003371 0.782156 0.784201
O O10 0.204949 0.000000 0.772874
O O11 0.751160 0.500000 0.083174
O O12 0.766231 0.675152 0.958330
O O13 0.994777 0.500000 0.924917
O O14 0.902107 0.500000 0.756049
O O15 0.725633 0.770378 0.835068
O O16 0.298046 0.000000 0.049342
O O17 0.500000 0.753301 0.000000
#
# Coordination Sequence:
#
# PCOD8057454 Si02
#       7
#     4   4   4   2   4   2   4
#     4   9  19  34  54  80 109 145 184 224 271 322
#     4   9  19  34  54  83 113 142 181 226 273 328
#     4  10  18  33  56  79 110 144 183 228 263 316
#     4  11  23  38  56  78 115 140 171 233 282 319
#     4  10  17  32  57  80 109 144 185 227 268 323
#     4  11  22  36  55  84 106 141 184 219 277 335
#     4  11  22  37  59  83 107 144 189 226 271 328
#
# _framework density 19.102846
#
# number of rings (size 3 to 8) (size 9 to 14) (size 15 to 20)
#    0.000    2.000    3.333    0.750    1.167    2.000 
#    0.000    3.333    0.000    4.000    0.000    0.000 
#    0.000    0.000    0.000    0.000    0.000    0.000 
#
# Total GULP energy -297480.817937 kJ/mol
# GULP energy per Si atom -12395.034081 kJ/mol
# Density = 1.905937 g / cm^3
# Si number density = 19.102846 Si / 1000 Ang^3
#
#
#
# Elastic Constant Matrix: (Units=GPa)
#
#
# Indices 1 2 3 4 5 6 
#
# 1 72.3150 21.1165 68.4597 0.0000 0.0882 0.0000
# 2 21.1165 78.8549 31.6504 0.0000 11.9518 0.0000
# 3 68.4597 31.6504 140.3308 0.0000 -0.2311 0.0000
# 4 0.0000 0.0000 0.0000 22.6086 0.0000 -7.2994
# 5 0.0882 11.9518 -0.2311 0.0000 37.9972 0.0000
# 6 0.0000 0.0000 0.0000 -7.2994 0.0000 27.6344
#
#
#
# Elastic Compliance Matrix: (Units=1/GPa)
#
#
# Indices 1 2 3 4 5 6 
#
# 1 0.026006 -0.002149 -0.012201 0.000000 0.000541 0.000000
# 2 -0.002149 0.014900 -0.002320 0.000000 -0.004696 0.000000
# 3 -0.012201 -0.002320 0.013603 0.000000 0.000841 0.000000
# 4 0.000000 0.000000 0.000000 0.048355 0.000000 0.012772
# 5 0.000541 -0.004696 0.000841 0.000000 0.027799 0.000000
# 6 0.000000 0.000000 0.000000 0.012772 0.000000 0.039561
#
#
# Mechanical properties :
#
#
# Convention : Reuss Voigt Hill
#
# Bulk Modulus (GPa) = 47.23984 59.32821 53.28402
# Shear Modulus (GPa) = 23.73950 28.99966 26.36958
#
# Velocity S-wave (km/s) = 3.52905 3.90048 3.71941
# Velocity P-wave (km/s) = 6.43339 7.17006 6.81169
#
# Compressibility (1/GPa) = 0.02116857
#
# Stress axis : x y z
#
# Youngs Moduli (GPa) = 38.45249 67.11478 73.51293
#
# Poissons Ratio (x) = 0.14422 0.89696
# Poissons Ratio (y) = 0.08263 0.17055
# Poissons Ratio (z) = 0.46917 0.15570
#
# Static dielectric constant tensor:
#      x y z
#    x 3.379330 0.000000 0.034170 
#    y 0.000000 3.473160 0.000000 
#    z 0.034170 0.000000 4.093750 
# 
# 
# High freq. dielectric constant tensor:
#      x y z
#    x 1.701470 0.000000 -0.006400 
#    y 0.000000 1.747900 0.000000 
#    z -0.006400 0.000000 1.756930 
# 
# From -- ./inp_files/75905.got.cif
#   From: 2010.06.25/outbox.cif.g09.slc.cpg/sg10_38_cif.got.tgz:75905.got - 2010.06.27 22:07:45.
