data_PCOD8057738
_publ_section_title
;
Structure prediction by ZEFSAII (Michael W. Deem and Ramdas Pophale) SiO2 
 PCOD8057738
Probable space group: P 2/M
;
_chemical_formula_sum "Si O2"
_cell_formula_units_Z 24
_cell_length_a 16.072232
_cell_length_b 8.858082
_cell_length_c 11.500623
_cell_angle_alpha 90.000000
_cell_angle_beta 121.612511
_cell_angle_gamma 90.000000
_cell_volume 1394.374019
_symmetry_space_group_name_H-M "P 2/M"
_symmetry_group_IT_number 10
_symmetry_cell_setting 'monoclinic'
loop_
_space_group_symop_operation_xyz
x,y,z
-x,y,-z
-x,-y,-z
x,-y,z
loop_
_atom_site_type_symbol
_atom_site_label
_atom_site_fract_x
_atom_site_fract_y
_atom_site_fract_z
Si Si1 0.975046 0.666740 0.846615
Si Si2 0.215585 0.822167 0.245347
Si Si3 0.410286 0.179276 0.509741
Si Si4 0.450534 0.820107 0.799639
Si Si5 0.185409 0.323171 0.978053
Si Si6 0.364002 0.321994 0.952249
O O1 0.947719 0.500000 0.780474
O O2 0.882446 0.773984 0.757023
O O3 0.000000 0.660995 0.000000
O O4 0.075180 0.726832 0.858991
O O5 0.308787 0.758352 0.383570
O O6 0.221269 0.761255 0.119140
O O7 0.217796 0.000000 0.240472
O O8 0.500000 0.245540 0.500000
O O9 0.419946 0.233853 0.649318
O O10 0.412052 0.000000 0.505310
O O11 0.370530 0.753980 0.830298
O O12 0.455629 0.000000 0.815209
O O13 0.556210 0.751029 0.904304
O O14 0.184832 0.500000 0.008243
O O15 0.257211 0.285207 0.924601
O O16 0.383444 0.500000 0.957067
#
# Coordination Sequence:
#
# PCOD8057738 Si02
#       6
#     4   4   4   4   4   4
#     4   8  15  29  45  63  91 123 151 182 227 275
#     4  10  18  28  46  71  95 119 151 190 227 265
#     4   9  18  31  46  66  94 124 150 180 221 270
#     4  10  19  32  49  68  92 123 154 182 225 277
#     4   9  18  31  47  67  93 124 152 183 228 275
#     4  10  19  32  49  69  93 118 151 194 229 260
#
# _framework density 17.212025000000001
#
# number of rings (size 3 to 8) (size 9 to 14) (size 15 to 20)
#    0.000    2.667    0.000    4.500    0.000    5.667 
#    0.000    3.333    0.000    7.000    0.000    7.000 
#    0.000    0.000    0.000    0.000    0.000    0.000 
#
# Total GULP energy -297501.238769 kJ/mol
# GULP energy per Si atom -12395.884949 kJ/mol
# Density = 1.717285 g / cm^3
# Si number density = 17.212025 Si / 1000 Ang^3
#
#
#
# Elastic Constant Matrix: (Units=GPa)
#
#
# Indices 1 2 3 4 5 6 
#
# 1 171.9270 41.7853 71.5997 0.0000 13.8551 0.0000
# 2 41.7853 61.1031 33.3336 0.0000 1.1697 0.0000
# 3 71.5997 33.3336 106.0414 0.0000 5.0412 0.0000
# 4 0.0000 0.0000 0.0000 1.2972 0.0000 7.5433
# 5 13.8551 1.1697 5.0412 0.0000 24.0322 0.0000
# 6 0.0000 0.0000 0.0000 7.5433 0.0000 25.1507
#
#
#
# Elastic Compliance Matrix: (Units=1/GPa)
#
#
# Indices 1 2 3 4 5 6 
#
# 1 0.008968 -0.003448 -0.004781 0.000000 -0.003999 0.000000
# 2 -0.003448 0.021082 -0.004388 0.000000 0.001882 0.000000
# 3 -0.004781 -0.004388 0.014037 0.000000 0.000026 0.000000
# 4 0.000000 0.000000 0.000000 -1.036028 0.000000 0.310731
# 5 -0.003999 0.001882 0.000026 0.000000 0.043820 0.000000
# 6 0.000000 0.000000 0.000000 0.310731 0.000000 -0.053436
#
#
# Mechanical properties :
#
#
# Convention : Reuss Voigt Hill
#
# Bulk Modulus (GPa) = 53.04638 70.27874 61.66256
# Shear Modulus (GPa) = -5.15443 22.91956 8.88256
#
# Velocity S-wave (km/s) = -1.73239 3.65307 2.27418
# Velocity P-wave (km/s) = 5.18505 7.66244 6.54209
#
# Compressibility (1/GPa) = 0.01885143
#
# Stress axis : x y z
#
# Youngs Moduli (GPa) = 111.50974 47.43488 71.24120
#
# Poissons Ratio (x) = 0.16355 0.34062
# Poissons Ratio (y) = 0.38446 0.31263
# Poissons Ratio (z) = 0.53315 0.20816
#
# Static dielectric constant tensor:
#      x y z
#    x 3.684220 0.000000 0.210200 
#    y 0.000000 3.120670 0.000000 
#    z 0.210200 0.000000 3.097590 
# 
# 
# High freq. dielectric constant tensor:
#      x y z
#    x 1.677440 0.000000 0.012800 
#    y 0.000000 1.657280 0.000000 
#    z 0.012800 0.000000 1.633450 
# 
# From -- ./inp_files/52871.got.cif
#   From: 2010.06.25/outbox.cif.g09.slc.cpg/sg10_27_cif.got.tgz:52871.got - 2010.06.27 22:07:45.
