data_PCOD8057402
_publ_section_title
;
Structure prediction by ZEFSAII (Michael W. Deem and Ramdas Pophale) SiO2 
 PCOD8057402
Probable space group: P 2/M
;
_chemical_formula_sum "Si O2"
_cell_formula_units_Z 16
_cell_length_a 13.546905
_cell_length_b 12.703572
_cell_length_c 15.345556
_cell_angle_alpha 90.000000
_cell_angle_beta 19.561128
_cell_angle_gamma 90.000000
_cell_volume 884.199058
_symmetry_space_group_name_H-M "P 2/M"
_symmetry_group_IT_number 10
_symmetry_cell_setting 'monoclinic'
loop_
_space_group_symop_operation_xyz
x,y,z
-x,y,-z
-x,-y,-z
x,-y,z
loop_
_atom_site_type_symbol
_atom_site_label
_atom_site_fract_x
_atom_site_fract_y
_atom_site_fract_z
Si Si1 0.206763 0.685118 0.402948
Si Si2 0.857987 0.298270 0.860597
Si Si3 0.502018 0.880653 0.894514
Si Si4 0.160050 0.377577 0.777248
O O1 0.457954 0.639723 0.880289
O O2 0.225204 0.812246 0.370937
O O3 0.000000 0.634297 0.500000
O O4 0.072486 0.655675 0.608175
O O5 0.008297 0.309375 0.828734
O O6 0.798944 0.173875 0.891216
O O7 0.528308 0.000000 0.839033
O O8 0.500000 0.873343 0.000000
O O9 0.500000 0.344707 0.500000
O O10 0.125554 0.500000 0.782440
O O11 0.000000 0.349174 0.000000
#
# Coordination Sequence:
#
# PCOD8057402 Si02
#       4
#     4   4   4   4
#     4  10  17  31  47  75 107 142 169 200 247 301
#     4  10  19  32  52  76 105 137 167 216 262 301
#     4   9  18  30  50  78 109 142 178 206 241 296
#     4  10  21  38  60  81  97 124 175 229 270 308
#
# _framework density 18.095472999999998
#
# number of rings (size 3 to 8) (size 9 to 14) (size 15 to 20)
#    1.500    0.750    2.500    2.250    0.000    1.500 
#    0.000    0.000    0.000    9.750    0.000    0.000 
#    0.000    0.000    0.000    0.000    0.000    0.000 
#
# Total GULP energy -198224.128651 kJ/mol
# GULP energy per Si atom -12389.008041 kJ/mol
# Density = 1.805429 g / cm^3
# Si number density = 18.095473 Si / 1000 Ang^3
#
#
#
# Elastic Constant Matrix: (Units=GPa)
#
#
# Indices 1 2 3 4 5 6 
#
# 1 149.1813 37.5801 65.5048 0.0000 -6.9156 0.0000
# 2 37.5801 38.0172 12.4686 0.0000 -7.5256 0.0000
# 3 65.5048 12.4686 145.2204 0.0000 7.3653 0.0000
# 4 0.0000 0.0000 0.0000 -16.0091 0.0000 -13.0548
# 5 -6.9156 -7.5256 7.3653 0.0000 37.4158 0.0000
# 6 0.0000 0.0000 0.0000 -13.0548 0.0000 15.4915
#
#
#
# Elastic Compliance Matrix: (Units=1/GPa)
#
#
# Indices 1 2 3 4 5 6 
#
# 1 0.010904 -0.009214 -0.004177 0.000000 0.000985 0.000000
# 2 -0.009214 0.036235 0.000769 0.000000 0.005434 0.000000
# 3 -0.004177 0.000769 0.008824 0.000000 -0.002354 0.000000
# 4 0.000000 0.000000 0.000000 -0.037023 0.000000 -0.031199
# 5 0.000985 0.005434 -0.002354 0.000000 0.028465 0.000000
# 6 0.000000 0.000000 0.000000 -0.031199 0.000000 0.038260
#
#
# Mechanical properties :
#
#
# Convention : Reuss Voigt Hill
#
# Bulk Modulus (GPa) = 32.55282 62.61399 47.58340
# Shear Modulus (GPa) = 41.27164 21.83736 31.55450
#
# Velocity S-wave (km/s) = 4.78092 3.47765 4.18039
# Velocity P-wave (km/s) = 6.96454 7.12759 7.04654
#
# Compressibility (1/GPa) = 0.03071930
#
# Stress axis : x y z
#
# Youngs Moduli (GPa) = 91.70729 27.59749 113.33051
#
# Poissons Ratio (x) = 0.25428 0.47343
# Poissons Ratio (y) = 0.84498 -0.08720
# Poissons Ratio (z) = 0.38310 -0.02123
#
# Static dielectric constant tensor:
#      x y z
#    x 3.121100 0.000000 -0.009820 
#    y 0.000000 2.999660 0.000000 
#    z -0.009820 0.000000 3.328090 
# 
# 
# High freq. dielectric constant tensor:
#      x y z
#    x 1.694280 0.000000 0.004340 
#    y 0.000000 1.655090 0.000000 
#    z 0.004340 0.000000 1.716880 
# 
# From -- ./inp_files/43184.got.cif
#   From: 2010.06.25/outbox.cif.g09.slc.cpg/sg10_22_cif.got.tgz:43184.got - 2010.06.27 22:07:45.
