data_PCOD8057593
_publ_section_title
;
Structure prediction by ZEFSAII (Michael W. Deem and Ramdas Pophale) SiO2 
 PCOD8057593
Probable space group: P 2/M
;
_chemical_formula_sum "Si O2"
_cell_formula_units_Z 28
_cell_length_a 15.859959
_cell_length_b 9.231814
_cell_length_c 16.136531
_cell_angle_alpha 90.000000
_cell_angle_beta 50.020081
_cell_angle_gamma 90.000000
_cell_volume 1810.426610
_symmetry_space_group_name_H-M "P 2/M"
_symmetry_group_IT_number 10
_symmetry_cell_setting 'monoclinic'
loop_
_space_group_symop_operation_xyz
x,y,z
-x,y,-z
-x,-y,-z
x,-y,z
loop_
_atom_site_type_symbol
_atom_site_label
_atom_site_fract_x
_atom_site_fract_y
_atom_site_fract_z
Si Si1 0.527188 0.831039 0.796679
Si Si2 0.877543 0.667452 0.978611
Si Si3 0.707574 0.831281 0.975422
Si Si4 0.869659 0.333625 0.173135
Si Si5 0.525793 0.171438 0.612030
Si Si6 0.674265 0.171138 0.370547
Si Si7 0.380897 0.663731 0.115952
O O1 0.540979 0.768109 0.695129
O O2 0.612773 0.743540 0.799589
O O3 0.557126 0.000000 0.784349
O O4 0.402231 0.802809 0.902751
O O5 0.844717 0.500000 0.985155
O O6 0.809938 0.770685 0.961422
O O7 0.005429 0.691936 0.877475
O O8 0.853412 0.714102 0.088204
O O9 0.702898 0.749642 0.890296
O O10 0.725415 0.000000 0.946527
O O11 0.836953 0.500000 0.203725
O O12 0.792606 0.241148 0.281828
O O13 0.629369 0.217104 0.489717
O O14 0.412194 0.229469 0.643655
O O15 0.516252 0.000000 0.621423
O O16 0.687351 0.000000 0.356276
O O17 0.338256 0.500000 0.155385
O O18 0.500000 0.665674 0.000000
#
# Coordination Sequence:
#
# PCOD8057593 Si02
#       7
#     4   4   4   4   4   4   4
#     4   9  16  27  42  61  87 115 142 174 209 245
#     4   9  18  31  44  59  84 117 145 170 209 256
#     4  10  18  27  43  66  87 109 141 178 210 244
#     4   9  18  31  44  60  85 115 144 175 211 247
#     4   8  15  27  43  63  87 115 143 172 211 251
#     4   9  16  28  45  63  85 114 146 176 207 247
#     4   9  17  28  41  59  85 115 142 169 207 254
#
# _framework density 15.465966999999999
#
# number of rings (size 3 to 8) (size 9 to 14) (size 15 to 20)
#    0.000    3.000    0.000    3.429    0.000    4.571 
#    0.000    4.286    0.000    0.000    0.000    1.000 
#    0.000    8.000    0.000    0.000    0.000    0.000 
#
# Total GULP energy -347141.759581 kJ/mol
# GULP energy per Si atom -12397.919985 kJ/mol
# Density = 1.543077 g / cm^3
# Si number density = 15.465967 Si / 1000 Ang^3
#
#
#
# Elastic Constant Matrix: (Units=GPa)
#
#
# Indices 1 2 3 4 5 6 
#
# 1 96.0563 52.2997 46.1565 0.0000 19.3289 0.0000
# 2 52.2997 72.4034 40.1250 0.0000 8.1759 0.0000
# 3 46.1565 40.1250 91.3176 0.0000 12.3347 0.0000
# 4 0.0000 0.0000 0.0000 19.7607 0.0000 0.8666
# 5 19.3289 8.1759 12.3347 0.0000 28.9638 0.0000
# 6 0.0000 0.0000 0.0000 0.8666 0.0000 29.6257
#
#
#
# Elastic Compliance Matrix: (Units=1/GPa)
#
#
# Indices 1 2 3 4 5 6 
#
# 1 0.020344 -0.011460 -0.004086 0.000000 -0.008602 0.000000
# 2 -0.011460 0.024806 -0.005512 0.000000 0.002993 0.000000
# 3 -0.004086 -0.005512 0.015766 0.000000 -0.002432 0.000000
# 4 0.000000 0.000000 0.000000 0.050670 0.000000 -0.001482
# 5 -0.008602 0.002993 -0.002432 0.000000 0.040457 0.000000
# 6 0.000000 0.000000 0.000000 -0.001482 0.000000 0.033798
#
#
# Mechanical properties :
#
#
# Convention : Reuss Voigt Hill
#
# Bulk Modulus (GPa) = 53.18541 59.65998 56.42269
# Shear Modulus (GPa) = 21.34713 23.74976 22.54845
#
# Velocity S-wave (km/s) = 3.71922 3.92294 3.82244
# Velocity P-wave (km/s) = 7.27371 7.69273 7.48615
#
# Compressibility (1/GPa) = 0.01880215
#
# Stress axis : x y z
#
# Youngs Moduli (GPa) = 49.15397 40.31293 63.42699
#
# Poissons Ratio (x) = 0.46198 0.25914
# Poissons Ratio (y) = 0.56330 0.34958
# Poissons Ratio (z) = 0.20082 0.22219
#
# Static dielectric constant tensor:
#      x y z
#    x 2.899820 0.000000 0.205660 
#    y 0.000000 2.862910 0.000000 
#    z 0.205660 0.000000 2.930520 
# 
# 
# High freq. dielectric constant tensor:
#      x y z
#    x 1.581970 0.000000 0.014420 
#    y 0.000000 1.586680 0.000000 
#    z 0.014420 0.000000 1.571770 
# 
# From -- ./inp_files/49168.got.cif
#   From: 2010.06.25/outbox.cif.g09.slc.cpg/sg10_25_cif.got.tgz:49168.got - 2010.06.27 22:07:45.
