data_PCOD8057950
_publ_section_title
;
Structure prediction by ZEFSAII (Michael W. Deem and Ramdas Pophale) SiO2 
 PCOD8057950
Probable space group: P 2/M
;
_chemical_formula_sum "Si O2"
_cell_formula_units_Z 32
_cell_length_a 26.540753
_cell_length_b 9.150561
_cell_length_c 12.106268
_cell_angle_alpha 90.000000
_cell_angle_beta 142.738787
_cell_angle_gamma 90.000000
_cell_volume 1780.120304
_symmetry_space_group_name_H-M "P 2/M"
_symmetry_group_IT_number 10
_symmetry_cell_setting 'monoclinic'
loop_
_space_group_symop_operation_xyz
x,y,z
-x,y,-z
-x,-y,-z
x,-y,z
loop_
_atom_site_type_symbol
_atom_site_label
_atom_site_fract_x
_atom_site_fract_y
_atom_site_fract_z
Si Si1 0.408092 0.168757 0.828082
Si Si2 0.083613 0.826159 0.012641
Si Si3 0.389575 0.168689 0.544571
Si Si4 0.703296 0.169793 0.990077
Si Si5 0.254145 0.828502 0.693374
Si Si6 0.766272 0.827728 0.865854
Si Si7 0.468661 0.327906 0.325444
Si Si8 0.900235 0.173871 0.711067
O O1 0.370325 0.188082 0.640092
O O2 0.340214 0.239111 0.793859
O O3 0.419188 0.000000 0.879603
O O4 0.500000 0.243188 0.000000
O O5 0.148423 0.761152 0.035683
O O6 0.112640 0.775035 0.185035
O O7 0.083270 0.000000 0.007843
O O8 0.990151 0.768634 0.824272
O O9 0.313052 0.234253 0.340004
O O10 0.472536 0.257943 0.663829
O O11 0.405716 0.000000 0.542350
O O12 0.760226 0.213897 0.984514
O O13 0.623002 0.269265 0.851837
O O14 0.676632 0.000000 0.936192
O O15 0.754252 0.202380 0.190754
O O16 0.173427 0.758449 0.492645
O O17 0.255365 0.000000 0.669890
O O18 0.767372 0.000000 0.849981
O O19 0.500000 0.278908 0.500000
O O20 0.468949 0.500000 0.310803
O O21 0.899191 0.000000 0.702489
#
# Coordination Sequence:
#
# PCOD8057950 Si02
#       8
#     4   4   4   4   4   4   4   4
#     4   9  16  25  39  62  87 112 147 190 226 258
#     4   8  13  22  37  59  90 122 151 184 225 273
#     4  10  18  29  48  68  88 116 151 191 229 265
#     4  10  19  31  47  66  91 122 154 191 227 266
#     4   9  16  26  41  63  91 122 158 190 222 268
#     4   9  16  25  39  62  86 112 150 190 225 262
#     4  11  22  34  47  65  91 121 152 188 228 273
#     4   8  13  22  37  58  88 126 154 178 224 279
#
# _framework density 17.976312
#
# number of rings (size 3 to 8) (size 9 to 14) (size 15 to 20)
#    0.000    2.750    1.250    2.625    0.000    5.500 
#    0.000    0.625    0.000    7.125    0.000    0.000 
#    0.000    3.000    0.000    9.250    0.000    7.500 
#
# Total GULP energy -396637.687363 kJ/mol
# GULP energy per Si atom -12394.927730 kJ/mol
# Density = 1.793540 g / cm^3
# Si number density = 17.976312 Si / 1000 Ang^3
#
#
#
# Elastic Constant Matrix: (Units=GPa)
#
#
# Indices 1 2 3 4 5 6 
#
# 1 151.7958 13.5657 74.5310 0.0000 11.1521 0.0000
# 2 13.5657 15.7440 9.8955 0.0000 -0.6140 0.0000
# 3 74.5310 9.8955 138.5633 0.0000 5.2757 0.0000
# 4 0.0000 0.0000 0.0000 5.0297 0.0000 -2.7355
# 5 11.1521 -0.6140 5.2757 0.0000 30.1791 0.0000
# 6 0.0000 0.0000 0.0000 -2.7355 0.0000 1.6362
#
#
#
# Elastic Compliance Matrix: (Units=1/GPa)
#
#
# Indices 1 2 3 4 5 6 
#
# 1 0.009563 -0.005429 -0.004648 0.000000 -0.002832 0.000000
# 2 -0.005429 0.069728 -0.002205 0.000000 0.003810 0.000000
# 3 -0.004648 -0.002205 0.009877 0.000000 -0.000054 0.000000
# 4 0.000000 0.000000 0.000000 2.191441 0.000000 3.663807
# 5 -0.002832 0.003810 -0.000054 0.000000 0.034269 0.000000
# 6 0.000000 0.000000 0.000000 3.663807 0.000000 6.736595
#
#
# Mechanical properties :
#
#
# Convention : Reuss Voigt Hill
#
# Bulk Modulus (GPa) = 15.47885 55.78750 35.63317
# Shear Modulus (GPa) = 0.54960 21.24306 10.89633
#
# Velocity S-wave (km/s) = 0.55353 3.44135 2.46468
# Velocity P-wave (km/s) = 3.00631 6.84776 5.28818
#
# Compressibility (1/GPa) = 0.06460429
#
# Stress axis : x y z
#
# Youngs Moduli (GPa) = 104.56539 14.34141 101.24797
#
# Poissons Ratio (x) = 0.07786 0.47065
# Poissons Ratio (y) = 0.56768 0.22321
# Poissons Ratio (z) = 0.48607 0.03162
#
# Static dielectric constant tensor:
#      x y z
#    x 3.701070 0.000000 0.074930 
#    y 0.000000 2.615330 0.000000 
#    z 0.074930 0.000000 3.560630 
# 
# 
# High freq. dielectric constant tensor:
#      x y z
#    x 1.706370 0.000000 0.000380 
#    y 0.000000 1.615270 0.000000 
#    z 0.000380 0.000000 1.698150 
# 
# From -- ./inp_files/56803.got.cif
#   From: 2010.06.25/outbox.cif.g09.slc.cpg/sg10_29_cif.got.tgz:56803.got - 2010.06.27 22:07:45.
