data_PCOD8057215
_publ_section_title
;
Structure prediction by ZEFSAII (Michael W. Deem and Ramdas Pophale) SiO2 
 PCOD8057215
Probable space group: P 2/M
;
_chemical_formula_sum "Si O2"
_cell_formula_units_Z 28
_cell_length_a 26.691900
_cell_length_b 9.897154
_cell_length_c 8.870752
_cell_angle_alpha 90.000000
_cell_angle_beta 143.928987
_cell_angle_gamma 90.000000
_cell_volume 1379.776805
_symmetry_space_group_name_H-M "P 2/M"
_symmetry_group_IT_number 10
_symmetry_cell_setting 'monoclinic'
loop_
_space_group_symop_operation_xyz
x,y,z
-x,y,-z
-x,-y,-z
x,-y,z
loop_
_atom_site_type_symbol
_atom_site_label
_atom_site_fract_x
_atom_site_fract_y
_atom_site_fract_z
Si Si1 0.131461 0.658887 0.021670
Si Si2 0.303263 0.346168 0.581916
Si Si3 0.420341 0.348560 0.125265
Si Si4 0.375235 0.853945 0.258484
Si Si5 0.442990 0.216753 0.728836
Si Si6 0.187541 0.157065 0.883593
Si Si7 0.986761 0.851342 0.646741
O O1 0.113677 0.500000 0.944001
O O2 0.201791 0.676341 0.324003
O O3 0.168877 0.735298 0.968471
O O4 0.044321 0.733842 0.862927
O O5 0.327615 0.500000 0.607966
O O6 0.352973 0.262878 0.575882
O O7 0.334115 0.308116 0.825153
O O8 0.416888 0.500000 0.180156
O O9 0.428378 0.251624 0.288792
O O10 0.499032 0.337135 0.199574
O O11 0.418298 0.876234 0.527398
O O12 0.379206 0.000000 0.187629
O O13 0.277995 0.804213 0.033050
O O14 0.500000 0.145052 0.000000
O O15 0.114438 0.174383 0.576475
O O16 0.187549 0.000000 0.942753
O O17 0.000000 0.848759 0.500000
O O18 0.012649 0.000000 0.773576
#
# Coordination Sequence:
#
# PCOD8057215 Si02
#       7
#     4   4   4   4   4   4   4
#     4  10  17  27  50  80 108 132 167 219 269 307
#     4   9  18  34  54  80 109 138 176 224 265 309
#     4  10  22  38  57  78 105 143 184 219 262 319
#     4  11  23  38  55  78 111 143 177 220 266 314
#     4  10  20  36  58  81 105 137 177 221 269 316
#     4   9  18  33  50  71 103 144 177 208 255 314
#     4   8  15  28  46  70 104 139 172 208 255 312
#
# _framework density 20.293137999999999
#
# number of rings (size 3 to 8) (size 9 to 14) (size 15 to 20)
#    0.000    2.429    1.429    2.143    0.000    8.000 
#    0.000    3.571    0.000    0.857    0.000    6.000 
#    0.000    0.000    0.000    0.000    0.000    0.000 
#
# Total GULP energy -346872.261701 kJ/mol
# GULP energy per Si atom -12388.295061 kJ/mol
# Density = 2.024695 g / cm^3
# Si number density = 20.293138 Si / 1000 Ang^3
#
#
#
# Elastic Constant Matrix: (Units=GPa)
#
#
# Indices 1 2 3 4 5 6 
#
# 1 52.2211 27.1764 37.7926 0.0000 4.7290 0.0000
# 2 27.1764 108.8449 41.6980 0.0000 1.3621 0.0000
# 3 37.7926 41.6980 118.4102 0.0000 19.0168 0.0000
# 4 0.0000 0.0000 0.0000 15.6752 0.0000 -1.3533
# 5 4.7290 1.3621 19.0168 0.0000 27.5286 0.0000
# 6 0.0000 0.0000 0.0000 -1.3533 0.0000 0.7808
#
#
#
# Elastic Compliance Matrix: (Units=1/GPa)
#
#
# Indices 1 2 3 4 5 6 
#
# 1 0.026244 -0.003831 -0.007124 0.000000 0.000602 0.000000
# 2 -0.003831 0.011312 -0.003123 0.000000 0.002256 0.000000
# 3 -0.007124 -0.003123 0.013045 0.000000 -0.007633 0.000000
# 4 0.000000 0.000000 0.000000 0.075020 0.000000 0.130022
# 5 0.000602 0.002256 -0.007633 0.000000 0.041384 0.000000
# 6 0.000000 0.000000 0.000000 0.130022 0.000000 1.506081
#
#
# Mechanical properties :
#
#
# Convention : Reuss Voigt Hill
#
# Bulk Modulus (GPa) = 44.55389 54.75668 49.65528
# Shear Modulus (GPa) = 2.92616 20.31755 11.62186
#
# Velocity S-wave (km/s) = 1.20211 3.16761 2.39571
# Velocity P-wave (km/s) = 4.89179 6.35766 5.67227
#
# Compressibility (1/GPa) = 0.02244473
#
# Stress axis : x y z
#
# Youngs Moduli (GPa) = 38.10388 88.40068 76.66017
#
# Poissons Ratio (x) = 0.33866 0.54612
# Poissons Ratio (y) = 0.14598 0.23942
# Poissons Ratio (z) = 0.27145 0.27609
#
# Static dielectric constant tensor:
#      x y z
#    x 3.326530 0.000000 0.372270 
#    y 0.000000 3.552630 0.000000 
#    z 0.372270 0.000000 4.275890 
# 
# 
# High freq. dielectric constant tensor:
#      x y z
#    x 1.748970 0.000000 0.025980 
#    y 0.000000 1.782910 0.000000 
#    z 0.025980 0.000000 1.808700 
# 
# From -- ./inp_files/37326.got.cif
#   From: 2010.06.25/outbox.cif.g09.slc.cpg/sg10_19_cif.got.tgz:37326.got - 2010.06.27 22:07:45.
