data_PCOD8057634
_publ_section_title
;
Structure prediction by ZEFSAII (Michael W. Deem and Ramdas Pophale) SiO2 
 PCOD8057634
Probable space group: P 2/M
;
_chemical_formula_sum "Si O2"
_cell_formula_units_Z 28
_cell_length_a 22.242431
_cell_length_b 8.974446
_cell_length_c 14.065771
_cell_angle_alpha 90.000000
_cell_angle_beta 141.334310
_cell_angle_gamma 90.000000
_cell_volume 1754.192415
_symmetry_space_group_name_H-M "P 2/M"
_symmetry_group_IT_number 10
_symmetry_cell_setting 'monoclinic'
loop_
_space_group_symop_operation_xyz
x,y,z
-x,y,-z
-x,-y,-z
x,-y,z
loop_
_atom_site_type_symbol
_atom_site_label
_atom_site_fract_x
_atom_site_fract_y
_atom_site_fract_z
Si Si1 0.208297 0.176193 0.353766
Si Si2 0.641973 0.675771 0.343372
Si Si3 0.726089 0.175616 0.261160
Si Si4 0.039522 0.671156 0.256519
Si Si5 0.463776 0.164260 0.062549
Si Si6 0.913182 0.835137 0.966686
Si Si7 0.077343 0.671584 0.518454
O O1 0.309057 0.256609 0.501574
O O2 0.127733 0.231177 0.328181
O O3 0.218347 0.000000 0.379140
O O4 0.179889 0.216981 0.209509
O O5 0.650682 0.500000 0.355176
O O6 0.699995 0.737495 0.324860
O O7 0.529249 0.721488 0.203264
O O8 0.829104 0.227160 0.351002
O O9 0.725104 0.000000 0.282617
O O10 0.648254 0.213483 0.081676
O O11 0.058924 0.500000 0.253729
O O12 0.029796 0.695068 0.356776
O O13 0.938728 0.722939 0.083851
O O14 0.473946 0.000000 0.121264
O O15 0.500000 0.159106 0.000000
O O16 0.896191 0.000000 0.988692
O O17 0.000000 0.840372 0.000000
O O18 0.106997 0.500000 0.570736
O O19 0.000000 0.724797 0.500000
#
# Coordination Sequence:
#
# PCOD8057634 Si02
#       7
#     4   4   4   4   4   4   4
#     4  10  18  28  42  60  86 117 145 175 213 258
#     4  11  19  26  41  65  89 115 145 176 214 259
#     4  10  19  31  46  61  82 114 149 184 219 256
#     4  10  18  28  43  61  82 112 146 182 220 255
#     4   8  16  29  42  59  83 112 144 176 213 257
#     4   8  16  28  41  58  81 112 143 173 214 259
#     4  10  21  34  46  63  88 117 150 187 224 258
#
# _framework density 15.961760999999999
#
# number of rings (size 3 to 8) (size 9 to 14) (size 15 to 20)
#    0.000    2.429    1.429    4.286    0.000    7.143 
#    0.000    0.000    0.000    0.000    0.000    0.000 
#    0.000    1.143    0.000   12.857    0.000    5.714 
#
# Total GULP energy -347075.470545 kJ/mol
# GULP energy per Si atom -12395.552519 kJ/mol
# Density = 1.592543 g / cm^3
# Si number density = 15.961761 Si / 1000 Ang^3
#
#
#
# Elastic Constant Matrix: (Units=GPa)
#
#
# Indices 1 2 3 4 5 6 
#
# 1 42.7600 26.9578 37.7617 0.0000 6.6343 0.0000
# 2 26.9578 104.2085 68.8141 0.0000 11.0237 0.0000
# 3 37.7617 68.8141 140.1381 0.0000 19.9530 0.0000
# 4 0.0000 0.0000 0.0000 27.3801 0.0000 2.3036
# 5 6.6343 11.0237 19.9530 0.0000 16.7144 0.0000
# 6 0.0000 0.0000 0.0000 2.3036 0.0000 8.8297
#
#
#
# Elastic Compliance Matrix: (Units=1/GPa)
#
#
# Indices 1 2 3 4 5 6 
#
# 1 0.031756 -0.003751 -0.006353 0.000000 -0.002547 0.000000
# 2 -0.003751 0.014666 -0.006055 0.000000 -0.000956 0.000000
# 3 -0.006353 -0.006055 0.013124 0.000000 -0.009152 0.000000
# 4 0.000000 0.000000 0.000000 0.037343 0.000000 -0.009742
# 5 -0.002547 -0.000956 -0.009152 0.000000 0.072395 0.000000
# 6 0.000000 0.000000 0.000000 -0.009742 0.000000 0.115795
#
#
# Mechanical properties :
#
#
# Convention : Reuss Voigt Hill
#
# Bulk Modulus (GPa) = 36.72455 61.57487 49.14971
# Shear Modulus (GPa) = 15.31525 20.82304 18.06915
#
# Velocity S-wave (km/s) = 3.10093 3.61578 3.36821
# Velocity P-wave (km/s) = 5.98989 7.48947 6.78126
#
# Compressibility (1/GPa) = 0.02722974
#
# Stress axis : x y z
#
# Youngs Moduli (GPa) = 31.48989 68.18572 76.19710
#
# Poissons Ratio (x) = 0.25574 0.48405
# Poissons Ratio (y) = 0.11811 0.46136
# Poissons Ratio (z) = 0.20004 0.41285
#
# Static dielectric constant tensor:
#      x y z
#    x 2.541650 0.000000 0.220040 
#    y 0.000000 3.099770 0.000000 
#    z 0.220040 0.000000 3.609780 
# 
# 
# High freq. dielectric constant tensor:
#      x y z
#    x 1.536180 0.000000 0.018070 
#    y 0.000000 1.623580 0.000000 
#    z 0.018070 0.000000 1.630310 
# 
# From -- ./inp_files/54968.got.cif
#   From: 2010.06.25/outbox.cif.g09.slc.cpg/sg10_28_cif.got.tgz:54968.got - 2010.06.27 22:07:45.
