data_PCOD8057571
_publ_section_title
;
Structure prediction by ZEFSAII (Michael W. Deem and Ramdas Pophale) SiO2 
 PCOD8057571
Probable space group: P 2/M
;
_chemical_formula_sum "Si O2"
_cell_formula_units_Z 32
_cell_length_a 12.332671
_cell_length_b 9.492132
_cell_length_c 28.861689
_cell_angle_alpha 90.000000
_cell_angle_beta 144.628275
_cell_angle_gamma 90.000000
_cell_volume 1955.826538
_symmetry_space_group_name_H-M "P 2/M"
_symmetry_group_IT_number 10
_symmetry_cell_setting 'monoclinic'
loop_
_space_group_symop_operation_xyz
x,y,z
-x,y,-z
-x,-y,-z
x,-y,z
loop_
_atom_site_type_symbol
_atom_site_label
_atom_site_fract_x
_atom_site_fract_y
_atom_site_fract_z
Si Si1 0.484835 0.162172 0.069315
Si Si2 0.866729 0.331890 0.546026
Si Si3 0.848912 0.332259 0.739680
Si Si4 0.554646 0.332133 0.367846
Si Si5 0.720582 0.666924 0.330668
Si Si6 0.049930 0.666459 0.325543
Si Si7 0.804293 0.163003 0.108728
Si Si8 0.369266 0.334640 0.801535
O O1 0.660037 0.208208 0.098582
O O2 0.479110 0.253460 0.114346
O O3 0.504065 0.000000 0.089938
O O4 0.292504 0.188576 0.974695
O O5 0.865250 0.500000 0.544066
O O6 0.698891 0.270828 0.456322
O O7 0.841749 0.278572 0.590639
O O8 0.065968 0.275939 0.595915
O O9 0.873604 0.500000 0.751540
O O10 0.013276 0.260311 0.826126
O O11 0.653209 0.279875 0.692707
O O12 0.854460 0.278423 0.688226
O O13 0.562275 0.500000 0.370983
O O14 0.612366 0.271593 0.337572
O O15 0.730529 0.500000 0.337361
O O16 0.609482 0.709201 0.245075
O O17 0.055417 0.500000 0.328450
O O18 0.834820 0.715117 0.252252
O O19 0.861180 0.000000 0.134293
O O20 0.400428 0.500000 0.819181
#
# Coordination Sequence:
#
# PCOD8057571 Si02
#       8
#     4   4   4   4   4   4   4   4
#     4   9  17  29  46  67  87 107 139 178 211 253
#     4   8  13  22  37  57  86 119 146 177 215 251
#     4  10  18  27  41  63  93 118 141 176 212 254
#     4   9  16  24  37  60  87 119 152 178 208 247
#     4   8  14  24  39  60  87 116 147 181 213 246
#     4   8  14  23  35  58  89 115 138 170 215 254
#     4   9  18  31  45  63  88 115 139 169 212 260
#     4   9  15  25  43  65  90 114 136 173 220 257
#
# _framework density 16.361370000000001
#
# number of rings (size 3 to 8) (size 9 to 14) (size 15 to 20)
#    0.000    3.250    1.250    2.625    0.000    2.500 
#    0.000    3.750    0.000    1.500    0.000   10.500 
#    0.000    5.000    0.000    0.000    0.000    0.000 
#
# Total GULP energy -396573.920533 kJ/mol
# GULP energy per Si atom -12392.935017 kJ/mol
# Density = 1.632413 g / cm^3
# Si number density = 16.361370 Si / 1000 Ang^3
#
#
#
# Elastic Constant Matrix: (Units=GPa)
#
#
# Indices 1 2 3 4 5 6 
#
# 1 109.4130 23.7390 74.0644 0.0000 -4.5038 0.0000
# 2 23.7390 24.6792 36.0878 0.0000 -5.8509 0.0000
# 3 74.0644 36.0878 126.3723 0.0000 -15.9893 0.0000
# 4 0.0000 0.0000 0.0000 4.0867 0.0000 2.9948
# 5 -4.5038 -5.8509 -15.9893 0.0000 23.7748 0.0000
# 6 0.0000 0.0000 0.0000 2.9948 0.0000 8.3779
#
#
#
# Elastic Compliance Matrix: (Units=1/GPa)
#
#
# Indices 1 2 3 4 5 6 
#
# 1 0.015543 -0.003127 -0.008680 0.000000 -0.003663 0.000000
# 2 -0.003127 0.070570 -0.017704 0.000000 0.004868 0.000000
# 3 -0.008680 -0.017704 0.018905 0.000000 0.006713 0.000000
# 4 0.000000 0.000000 0.000000 0.331547 0.000000 -0.118516
# 5 -0.003663 0.004868 0.006713 0.000000 0.047080 0.000000
# 6 0.000000 0.000000 0.000000 -0.118516 0.000000 0.161726
#
#
# Mechanical properties :
#
#
# Convention : Reuss Voigt Hill
#
# Bulk Modulus (GPa) = 21.74064 58.69410 40.21737
# Shear Modulus (GPa) = 6.94710 15.68611 11.31660
#
# Velocity S-wave (km/s) = 2.06283 3.09969 2.63281
# Velocity P-wave (km/s) = 4.35779 6.98300 5.82033
#
# Compressibility (1/GPa) = 0.04599681
#
# Stress axis : x y z
#
# Youngs Moduli (GPa) = 64.33765 14.17038 52.89501
#
# Poissons Ratio (x) = 0.04431 0.45913
# Poissons Ratio (y) = 0.20116 0.93645
# Poissons Ratio (z) = 0.55845 0.25087
#
# Static dielectric constant tensor:
#      x y z
#    x 3.320620 0.000000 -0.229130 
#    y 0.000000 2.542070 0.000000 
#    z -0.229130 0.000000 3.165030 
# 
# 
# High freq. dielectric constant tensor:
#      x y z
#    x 1.617210 0.000000 -0.019050 
#    y 0.000000 1.572200 0.000000 
#    z -0.019050 0.000000 1.631810 
# 
# From -- ./inp_files/53362.got.cif
#   From: 2010.06.25/outbox.cif.g09.slc.cpg/sg10_27_cif.got.tgz:53362.got - 2010.06.27 22:07:45.
