data_PCOD8057405
_publ_section_title
;
Structure prediction by ZEFSAII (Michael W. Deem and Ramdas Pophale) SiO2 
 PCOD8057405
Probable space group: P 2/M
;
_chemical_formula_sum "Si O2"
_cell_formula_units_Z 32
_cell_length_a 17.614368
_cell_length_b 8.877501
_cell_length_c 24.000251
_cell_angle_alpha 90.000000
_cell_angle_beta 149.204902
_cell_angle_gamma 90.000000
_cell_volume 1921.399003
_symmetry_space_group_name_H-M "P 2/M"
_symmetry_group_IT_number 10
_symmetry_cell_setting 'monoclinic'
loop_
_space_group_symop_operation_xyz
x,y,z
-x,y,-z
-x,-y,-z
x,-y,z
loop_
_atom_site_type_symbol
_atom_site_label
_atom_site_fract_x
_atom_site_fract_y
_atom_site_fract_z
Si Si1 0.448131 0.320943 0.355304
Si Si2 0.608836 0.821928 0.799200
Si Si3 0.919851 0.676890 0.007235
Si Si4 0.874971 0.169559 0.374506
Si Si5 0.662006 0.324041 0.318562
Si Si6 0.908432 0.323667 0.565247
Si Si7 0.830591 0.678637 0.750977
Si Si8 0.771533 0.321101 0.592303
O O1 0.441368 0.500000 0.343142
O O2 0.432465 0.249109 0.285448
O O3 0.316827 0.259984 0.311780
O O4 0.601919 0.267249 0.479489
O O5 0.771012 0.770742 0.920471
O O6 0.491514 0.764224 0.770807
O O7 0.602412 0.000000 0.791199
O O8 0.883244 0.500000 0.986511
O O9 0.000000 0.717337 0.000000
O O10 0.024764 0.730064 0.124052
O O11 0.735826 0.267565 0.307587
O O12 0.000000 0.174255 0.500000
O O13 0.943140 0.239464 0.361187
O O14 0.821901 0.000000 0.329020
O O15 0.628965 0.500000 0.292841
O O16 0.768439 0.287182 0.437776
O O17 0.942864 0.500000 0.586190
O O18 0.870157 0.262164 0.602867
O O19 0.820553 0.500000 0.743628
O O20 0.837028 0.742099 0.691827
O O21 0.774278 0.500000 0.593206
#
# Coordination Sequence:
#
# PCOD8057405 Si02
#       8
#     4   4   4   4   4   4   4   4
#     4  10  17  31  50  71  97 128 165 203 245 289
#     4  12  23  32  47  71  99 131 165 202 248 294
#     4  10  19  34  53  71  92 124 168 212 250 288
#     4   9  17  28  43  67  99 131 159 190 232 286
#     4  10  18  31  49  70  95 126 162 200 241 286
#     4   9  16  27  45  69  98 129 160 193 234 286
#     4   9  17  29  50  74  95 123 166 213 249 283
#     4   9  16  27  47  76 101 125 162 206 244 284
#
# _framework density 16.654532
#
# number of rings (size 3 to 8) (size 9 to 14) (size 15 to 20)
#    0.000    2.250    2.500    2.250    0.000    3.750 
#    0.000    0.000    0.000    3.750    0.000    0.875 
#    0.000    7.000    0.000    0.000    0.000    0.000 
#
# Total GULP energy -396779.771023 kJ/mol
# GULP energy per Si atom -12399.367844 kJ/mol
# Density = 1.661663 g / cm^3
# Si number density = 16.654532 Si / 1000 Ang^3
#
#
#
# Elastic Constant Matrix: (Units=GPa)
#
#
# Indices 1 2 3 4 5 6 
#
# 1 117.6939 33.1663 54.4175 0.0000 13.7522 0.0000
# 2 33.1663 39.1148 23.4605 0.0000 -1.8468 0.0000
# 3 54.4175 23.4605 91.1494 0.0000 -3.4965 0.0000
# 4 0.0000 0.0000 0.0000 11.2487 0.0000 5.1986
# 5 13.7522 -1.8468 -3.4965 0.0000 14.3333 0.0000
# 6 0.0000 0.0000 0.0000 5.1986 0.0000 10.1453
#
#
#
# Elastic Compliance Matrix: (Units=1/GPa)
#
#
# Indices 1 2 3 4 5 6 
#
# 1 0.018130 -0.011102 -0.008771 0.000000 -0.020965 0.000000
# 2 -0.011102 0.037090 -0.002348 0.000000 0.014859 0.000000
# 3 -0.008771 -0.002348 0.017285 0.000000 0.012329 0.000000
# 4 0.000000 0.000000 0.000000 0.116483 0.000000 -0.059687
# 5 -0.020965 0.014859 0.012329 0.000000 0.094805 0.000000
# 6 0.000000 0.000000 0.000000 -0.059687 0.000000 0.129152
#
#
# Mechanical properties :
#
#
# Convention : Reuss Voigt Hill
#
# Bulk Modulus (GPa) = 35.63518 52.22740 43.93129
# Shear Modulus (GPa) = 10.71258 16.27306 13.49282
#
# Velocity S-wave (km/s) = 2.53894 3.12924 2.84942
# Velocity P-wave (km/s) = 5.48070 6.66960 6.10416
#
# Compressibility (1/GPa) = 0.02806215
#
# Stress axis : x y z
#
# Youngs Moduli (GPa) = 55.15638 26.96170 57.85529
#
# Poissons Ratio (x) = 0.29934 0.50743
# Poissons Ratio (y) = 0.61237 0.13585
# Poissons Ratio (z) = 0.48376 0.06331
#
# Static dielectric constant tensor:
#      x y z
#    x 3.393960 0.000000 0.060300 
#    y 0.000000 2.908210 0.000000 
#    z 0.060300 0.000000 3.086980 
# 
# 
# High freq. dielectric constant tensor:
#      x y z
#    x 1.648640 0.000000 0.012280 
#    y 0.000000 1.619250 0.000000 
#    z 0.012280 0.000000 1.610040 
# 
# From -- ./inp_files/54897.got.cif
#   From: 2010.06.25/outbox.cif.g09.slc.cpg/sg10_28_cif.got.tgz:54897.got - 2010.06.27 22:07:45.
