data_PCOD8057616
_publ_section_title
;
Structure prediction by ZEFSAII (Michael W. Deem and Ramdas Pophale) SiO2 
 PCOD8057616
Probable space group: P 2/M
;
_chemical_formula_sum "Si O2"
_cell_formula_units_Z 32
_cell_length_a 21.512254
_cell_length_b 8.951718
_cell_length_c 30.201095
_cell_angle_alpha 90.000000
_cell_angle_beta 161.659144
_cell_angle_gamma 90.000000
_cell_volume 1830.077534
_symmetry_space_group_name_H-M "P 2/M"
_symmetry_group_IT_number 10
_symmetry_cell_setting 'monoclinic'
loop_
_space_group_symop_operation_xyz
x,y,z
-x,y,-z
-x,-y,-z
x,-y,z
loop_
_atom_site_type_symbol
_atom_site_label
_atom_site_fract_x
_atom_site_fract_y
_atom_site_fract_z
Si Si1 0.132219 0.177372 0.548419
Si Si2 0.576993 0.171607 0.852130
Si Si3 0.528481 0.169746 0.723366
Si Si4 0.123660 0.325335 0.453470
Si Si5 0.897837 0.173787 0.649020
Si Si6 0.437480 0.169527 0.349157
Si Si7 0.948595 0.822332 0.153926
Si Si8 0.301694 0.325206 0.340932
O O1 0.356159 0.239155 0.707775
O O2 0.039178 0.248533 0.440957
O O3 0.000000 0.230372 0.500000
O O4 0.131328 0.000000 0.542050
O O5 0.654956 0.191615 0.853822
O O6 0.561705 0.000000 0.855028
O O7 0.739148 0.244183 0.994538
O O8 0.354857 0.289834 0.606709
O O9 0.651474 0.191146 0.760980
O O10 0.437624 0.000000 0.661802
O O11 0.084040 0.500000 0.429366
O O12 0.022244 0.261451 0.340144
O O13 0.669299 0.210173 0.504680
O O14 0.024954 0.227630 0.777297
O O15 0.928214 0.000000 0.660260
O O16 0.320887 0.279834 0.302528
O O17 0.407417 0.000000 0.345451
O O18 0.119898 0.758569 0.239396
O O19 0.958491 0.000000 0.156088
O O20 0.500000 0.274779 0.500000
O O21 0.264738 0.500000 0.319673
#
# Coordination Sequence:
#
# PCOD8057616 Si02
#       8
#     4   4   4   4   4   4   4   4
#     4   9  17  32  55  79 103 128 153 189 236 281
#     4   8  15  30  52  76  97 119 156 197 235 283
#     4   8  15  30  49  69  94 123 157 199 242 286
#     4  10  18  27  45  73 101 126 157 196 233 276
#     4   9  17  29  46  68  93 123 161 201 240 279
#     4   9  16  28  47  67  88 119 161 205 245 285
#     4  10  19  32  51  70  92 126 163 201 240 284
#     4  11  22  32  43  64  95 126 160 205 249 288
#
# _framework density 17.485596999999999
#
# number of rings (size 3 to 8) (size 9 to 14) (size 15 to 20)
#    0.000    2.750    1.250    3.000    0.000    3.250 
#    0.000    3.125    0.000    4.500    0.000    5.250 
#    0.000    0.000    0.000    0.000    0.000    0.000 
#
# Total GULP energy -396542.029457 kJ/mol
# GULP energy per Si atom -12391.938421 kJ/mol
# Density = 1.744580 g / cm^3
# Si number density = 17.485597 Si / 1000 Ang^3
#
#
#
# Elastic Constant Matrix: (Units=GPa)
#
#
# Indices 1 2 3 4 5 6 
#
# 1 160.0284 41.5717 60.5349 0.0000 -19.5473 0.0000
# 2 41.5717 42.7944 18.7496 0.0000 -4.8830 0.0000
# 3 60.5349 18.7496 83.9187 0.0000 -19.2203 0.0000
# 4 0.0000 0.0000 0.0000 8.2845 0.0000 0.2195
# 5 -19.5473 -4.8830 -19.2203 0.0000 25.0751 0.0000
# 6 0.0000 0.0000 0.0000 0.2195 0.0000 13.4012
#
#
#
# Elastic Compliance Matrix: (Units=1/GPa)
#
#
# Indices 1 2 3 4 5 6 
#
# 1 0.010565 -0.007635 -0.005300 0.000000 0.002687 0.000000
# 2 -0.007635 0.031431 -0.001791 0.000000 -0.001204 0.000000
# 3 -0.005300 -0.001791 0.018332 0.000000 0.009571 0.000000
# 4 0.000000 0.000000 0.000000 0.120760 0.000000 -0.001978
# 5 0.002687 -0.001204 0.009571 0.000000 0.049077 0.000000
# 6 0.000000 0.000000 0.000000 -0.001978 0.000000 0.074653
#
#
# Mechanical properties :
#
#
# Convention : Reuss Voigt Hill
#
# Bulk Modulus (GPa) = 32.38660 58.71711 45.55185
# Shear Modulus (GPa) = 14.51118 20.41117 17.46117
#
# Velocity S-wave (km/s) = 2.88391 3.42030 3.16350
# Velocity P-wave (km/s) = 5.44530 7.01792 6.28102
#
# Compressibility (1/GPa) = 0.03087697
#
# Stress axis : x y z
#
# Youngs Moduli (GPa) = 94.64930 31.81533 54.55000
#
# Poissons Ratio (x) = 0.24290 0.28912
# Poissons Ratio (y) = 0.72262 0.09769
# Poissons Ratio (z) = 0.50166 0.05698
#
# Static dielectric constant tensor:
#      x y z
#    x 3.561780 0.000000 -0.375510 
#    y 0.000000 2.983950 0.000000 
#    z -0.375510 0.000000 3.194490 
# 
# 
# High freq. dielectric constant tensor:
#      x y z
#    x 1.685500 0.000000 -0.027560 
#    y 0.000000 1.653160 0.000000 
#    z -0.027560 0.000000 1.633810 
# 
# From -- ./inp_files/52709.got.cif
#   From: 2010.06.25/outbox.cif.g09.slc.cpg/sg10_27_cif.got.tgz:52709.got - 2010.06.27 22:07:45.
