data_PCOD8057216
_publ_section_title
;
Structure prediction by ZEFSAII (Michael W. Deem and Ramdas Pophale) SiO2 
 PCOD8057216
Probable space group: P 2/M
;
_chemical_formula_sum "Si O2"
_cell_formula_units_Z 32
_cell_length_a 14.611973
_cell_length_b 9.841523
_cell_length_c 24.941550
_cell_angle_alpha 90.000000
_cell_angle_beta 151.407339
_cell_angle_gamma 90.000000
_cell_volume 1716.518969
_symmetry_space_group_name_H-M "P 2/M"
_symmetry_group_IT_number 10
_symmetry_cell_setting 'monoclinic'
loop_
_space_group_symop_operation_xyz
x,y,z
-x,y,-z
-x,-y,-z
x,-y,z
loop_
_atom_site_type_symbol
_atom_site_label
_atom_site_fract_x
_atom_site_fract_y
_atom_site_fract_z
Si Si1 0.382449 0.156262 0.097888
Si Si2 0.515768 0.153144 0.729402
Si Si3 0.325765 0.343266 0.277768
Si Si4 0.993819 0.159565 0.152549
Si Si5 0.008467 0.843100 0.283539
Si Si6 0.259651 0.354052 0.472115
Si Si7 0.101180 0.744645 0.499183
Si Si8 0.228146 0.155031 0.741434
O O1 0.385960 0.173082 0.163009
O O2 0.573801 0.230254 0.172978
O O3 0.379941 0.000000 0.079438
O O4 0.188389 0.218142 0.973593
O O5 0.623779 0.266793 0.751069
O O6 0.285868 0.170335 0.613686
O O7 0.555382 0.000000 0.728239
O O8 0.261279 0.500000 0.233460
O O9 0.512774 0.341289 0.410652
O O10 0.167358 0.256620 0.226818
O O11 0.949636 0.181185 0.192451
O O12 0.039591 0.000000 0.163874
O O13 0.195973 0.761836 0.398261
O O14 0.839438 0.788530 0.235507
O O15 0.054070 0.000000 0.318924
O O16 0.199593 0.500000 0.417317
O O17 0.173529 0.353294 0.488694
O O18 0.000000 0.674709 0.500000
O O19 0.936780 0.837172 0.388332
O O20 0.283783 0.000000 0.776187
#
# Coordination Sequence:
#
# PCOD8057216 Si02
#       8
#     4   4   4   4   4   4   4   4
#     4   9  18  31  51  79 110 141 177 214 258 311
#     4  10  19  32  54  83 112 142 173 213 261 312
#     4  10  22  39  56  76 104 140 177 219 269 318
#     4  10  21  37  55  77 103 137 183 228 265 304
#     4   9  19  34  55  81 108 137 172 218 266 311
#     4   9  20  36  53  77 107 137 172 213 265 323
#     4  10  17  27  50  82 115 140 169 206 259 314
#     4   9  16  28  48  79 115 141 167 207 259 316
#
# _framework density 18.642379999999999
#
# number of rings (size 3 to 8) (size 9 to 14) (size 15 to 20)
#    0.000    2.500    1.250    0.750    0.000    6.250 
#    0.000    8.125    0.000    3.000    0.000    4.375 
#    0.000    0.000    0.000    0.000    0.000    0.000 
#
# Total GULP energy -396423.091227 kJ/mol
# GULP energy per Si atom -12388.221601 kJ/mol
# Density = 1.859995 g / cm^3
# Si number density = 18.642380 Si / 1000 Ang^3
#
#
#
# Elastic Constant Matrix: (Units=GPa)
#
#
# Indices 1 2 3 4 5 6 
#
# 1 65.7394 29.0625 29.1273 0.0000 3.2136 0.0000
# 2 29.0625 80.1843 32.8748 0.0000 -3.1066 0.0000
# 3 29.1273 32.8748 78.0056 0.0000 -9.0517 0.0000
# 4 0.0000 0.0000 0.0000 8.4969 0.0000 -3.3124
# 5 3.2136 -3.1066 -9.0517 0.0000 20.9398 0.0000
# 6 0.0000 0.0000 0.0000 -3.3124 0.0000 7.8973
#
#
#
# Elastic Compliance Matrix: (Units=1/GPa)
#
#
# Indices 1 2 3 4 5 6 
#
# 1 0.020599 -0.005142 -0.006296 0.000000 -0.006646 0.000000
# 2 -0.005142 0.016366 -0.004847 0.000000 0.001122 0.000000
# 3 -0.006296 -0.004847 0.018152 0.000000 0.008094 0.000000
# 4 0.000000 0.000000 0.000000 0.140695 0.000000 0.059011
# 5 -0.006646 0.001122 0.008094 0.000000 0.052441 0.000000
# 6 0.000000 0.000000 0.000000 0.059011 0.000000 0.151376
#
#
# Mechanical properties :
#
#
# Convention : Reuss Voigt Hill
#
# Bulk Modulus (GPa) = 44.35102 45.11760 44.73431
# Shear Modulus (GPa) = 11.37101 16.32447 13.84774
#
# Velocity S-wave (km/s) = 2.47241 2.96237 2.72841
# Velocity P-wave (km/s) = 5.65619 5.99625 5.82870
#
# Compressibility (1/GPa) = 0.02254740
#
# Stress axis : x y z
#
# Youngs Moduli (GPa) = 48.54536 61.10326 55.08958
#
# Poissons Ratio (x) = 0.31422 0.34683
# Poissons Ratio (y) = 0.24964 0.26701
# Poissons Ratio (z) = 0.30563 0.29616
#
# Static dielectric constant tensor:
#      x y z
#    x 3.552360 0.000000 0.151010 
#    y 0.000000 3.228290 0.000000 
#    z 0.151010 0.000000 3.545840 
# 
# 
# High freq. dielectric constant tensor:
#      x y z
#    x 1.729100 0.000000 0.002950 
#    y 0.000000 1.691710 0.000000 
#    z 0.002950 0.000000 1.720470 
# 
# From -- ./inp_files/89641.got.cif
#   From: 2010.06.25/outbox.cif.g09.slc.cpg/sg10_45_cif.got.tgz:89641.got - 2010.06.27 22:07:45.
