data_PCOD8057769
_publ_section_title
;
Structure prediction by ZEFSAII (Michael W. Deem and Ramdas Pophale) SiO2 
 PCOD8057769
Probable space group: P 2/M
;
_chemical_formula_sum "Si O2"
_cell_formula_units_Z 26
_cell_length_a 11.035470
_cell_length_b 9.854384
_cell_length_c 15.272032
_cell_angle_alpha 90.000000
_cell_angle_beta 60.719992
_cell_angle_gamma 90.000000
_cell_volume 1448.615506
_symmetry_space_group_name_H-M "P 2/M"
_symmetry_group_IT_number 10
_symmetry_cell_setting 'monoclinic'
loop_
_space_group_symop_operation_xyz
x,y,z
-x,y,-z
-x,-y,-z
x,-y,z
loop_
_atom_site_type_symbol
_atom_site_label
_atom_site_fract_x
_atom_site_fract_y
_atom_site_fract_z
Si Si1 0.000000 0.764454 0.500000
Si Si2 0.227877 0.657316 0.647640
Si Si3 0.984944 0.846511 0.699084
Si Si4 0.593077 0.160041 0.095930
Si Si5 0.696803 0.158906 0.874638
Si Si6 0.426908 0.657890 0.740039
Si Si7 0.291448 0.655668 0.434782
O O1 0.003238 0.852412 0.587288
O O2 0.859915 0.675155 0.554888
O O3 0.181250 0.500000 0.656156
O O4 0.337039 0.679572 0.685158
O O5 0.295348 0.710101 0.532957
O O6 0.092225 0.749011 0.710987
O O7 0.834908 0.785563 0.779038
O O8 0.003785 0.000000 0.727406
O O9 0.440145 0.216318 0.124350
O O10 0.642717 0.249804 0.160416
O O11 0.595312 0.000000 0.118392
O O12 0.696142 0.192602 0.978538
O O13 0.687055 0.000000 0.865349
O O14 0.426695 0.500000 0.769004
O O15 0.581778 0.719156 0.666068
O O16 0.330611 0.500000 0.424258
#
# Coordination Sequence:
#
# PCOD8057769 Si02
#       7
#     2   4   4   4   4   4   4
#     4  10  18  28  48  78 103 120 149 196 243 282
#     4   9  19  34  49  67  95 131 165 194 230 280
#     4  10  19  32  50  72  99 127 156 194 239 283
#     4   9  17  32  53  73  94 123 160 196 233 285
#     4   8  16  32  52  72  96 127 157 189 236 289
#     4  10  19  32  50  72  97 125 160 201 239 273
#     4   9  17  30  49  71  97 130 161 189 229 288
#
# _framework density 17.948172
#
# number of rings (size 3 to 8) (size 9 to 14) (size 15 to 20)
#    0.000    2.769    0.000    2.769    0.000    3.077 
#    0.000    6.923    0.000    9.231    0.000    0.000 
#    0.000    0.000    0.000    0.000    0.000    0.000 
#
# Total GULP energy -322220.148448 kJ/mol
# GULP energy per Si atom -12393.082633 kJ/mol
# Density = 1.790732 g / cm^3
# Si number density = 17.948172 Si / 1000 Ang^3
#
#
#
# Elastic Constant Matrix: (Units=GPa)
#
#
# Indices 1 2 3 4 5 6 
#
# 1 76.6707 25.9049 34.6093 0.0000 -1.6881 0.0000
# 2 25.9049 50.3506 31.4073 0.0000 3.2503 0.0000
# 3 34.6093 31.4073 87.1736 0.0000 -5.2840 0.0000
# 4 0.0000 0.0000 0.0000 23.7502 0.0000 2.2019
# 5 -1.6881 3.2503 -5.2840 0.0000 30.7512 0.0000
# 6 0.0000 0.0000 0.0000 2.2019 0.0000 26.9635
#
#
#
# Elastic Compliance Matrix: (Units=1/GPa)
#
#
# Indices 1 2 3 4 5 6 
#
# 1 0.017169 -0.006014 -0.004602 0.000000 0.000787 0.000000
# 2 -0.006014 0.028310 -0.008098 0.000000 -0.004714 0.000000
# 3 -0.004602 -0.008098 0.016424 0.000000 0.003425 0.000000
# 4 0.000000 0.000000 0.000000 0.042426 0.000000 -0.003465
# 5 0.000787 -0.004714 0.003425 0.000000 0.033649 0.000000
# 6 0.000000 0.000000 0.000000 -0.003465 0.000000 0.037370
#
#
# Mechanical properties :
#
#
# Convention : Reuss Voigt Hill
#
# Bulk Modulus (GPa) = 40.85664 44.22643 42.54154
# Shear Modulus (GPa) = 22.63110 24.44453 23.53782
#
# Velocity S-wave (km/s) = 3.55479 3.69447 3.62530
# Velocity P-wave (km/s) = 6.29776 6.54931 6.42477
#
# Compressibility (1/GPa) = 0.02447582
#
# Stress axis : x y z
#
# Youngs Moduli (GPa) = 58.24316 35.32290 60.88757
#
# Poissons Ratio (x) = 0.21242 0.28022
# Poissons Ratio (y) = 0.35025 0.49307
# Poissons Ratio (z) = 0.26805 0.28604
#
# Static dielectric constant tensor:
#      x y z
#    x 3.395920 0.000000 -0.294370 
#    y 0.000000 3.024800 0.000000 
#    z -0.294370 0.000000 3.594250 
# 
# 
# High freq. dielectric constant tensor:
#      x y z
#    x 1.686190 0.000000 -0.002660 
#    y 0.000000 1.666980 0.000000 
#    z -0.002660 0.000000 1.698690 
# 
# From -- ./inp_files/55138.got.cif
#   From: 2010.06.25/outbox.cif.g09.slc.cpg/sg10_28_cif.got.tgz:55138.got - 2010.06.27 22:07:45.
