data_PCOD8057403
_publ_section_title
;
Structure prediction by ZEFSAII (Michael W. Deem and Ramdas Pophale) SiO2 
 PCOD8057403
Probable space group: P 2/M
;
_chemical_formula_sum "Si O2"
_cell_formula_units_Z 28
_cell_length_a 21.799416
_cell_length_b 11.786766
_cell_length_c 11.191830
_cell_angle_alpha 90.000000
_cell_angle_beta 31.821657
_cell_angle_gamma 90.000000
_cell_volume 1516.280178
_symmetry_space_group_name_H-M "P 2/M"
_symmetry_group_IT_number 10
_symmetry_cell_setting 'monoclinic'
loop_
_space_group_symop_operation_xyz
x,y,z
-x,y,-z
-x,-y,-z
x,-y,z
loop_
_atom_site_type_symbol
_atom_site_label
_atom_site_fract_x
_atom_site_fract_y
_atom_site_fract_z
Si Si1 0.838060 0.131723 0.084566
Si Si2 0.368009 0.633394 0.190990
Si Si3 0.619438 0.000000 0.938133
Si Si4 0.632330 0.130909 0.249291
Si Si5 0.212417 0.797613 0.593130
Si Si6 0.923806 0.130670 0.412949
Si Si7 0.276404 0.223935 0.138677
Si Si8 0.627565 0.000000 0.650211
O O1 0.712863 0.150968 0.230299
O O2 0.856575 0.218908 0.166933
O O3 0.852173 0.000000 0.101349
O O4 0.939562 0.160990 0.820973
O O5 0.354513 0.500000 0.224983
O O6 0.280025 0.687346 0.433420
O O7 0.333321 0.669253 0.113064
O O8 0.500000 0.672752 0.000000
O O9 0.496792 0.000000 0.214262
O O10 0.690639 0.112285 0.842799
O O11 0.594539 0.000000 0.841403
O O12 0.500000 0.162513 0.500000
O O13 0.642228 0.000000 0.187348
O O14 0.678575 0.217111 0.070705
O O15 0.130641 0.850955 0.628504
O O16 0.304747 0.887026 0.494890
O O17 0.864483 0.216166 0.609586
O O18 0.906666 0.000000 0.480548
#
# Coordination Sequence:
#
# PCOD8057403 Si02
#       8
#     4   4   2   4   4   4   4   2
#     4  10  21  31  48  77 116 150 173 207 256 318
#     4  10  22  36  54  80 104 136 179 225 270 313
#     4  11  18  26  45  79 102 132 168 206 265 321
#     4  10  22  34  47  77 114 145 175 210 258 318
#     4  11  18  31  51  77 109 140 167 216 269 317
#     4  10  17  31  49  77 108 141 182 213 256 316
#     4  11  19  34  54  72 107 141 174 220 261 311
#     4  11  18  24  45  80 105 130 165 201 273 328
#
# _framework density 18.466245000000001
#
# number of rings (size 3 to 8) (size 9 to 14) (size 15 to 20)
#    0.000    1.571    5.714    1.286    4.000    1.714 
#    0.000    2.143    0.000    8.143    0.000    4.000 
#    0.000    0.000    0.000    0.000    0.000    0.000 
#
# Total GULP energy -346964.930808 kJ/mol
# GULP energy per Si atom -12391.604672 kJ/mol
# Density = 1.842421 g / cm^3
# Si number density = 18.466245 Si / 1000 Ang^3
#
#
#
# Elastic Constant Matrix: (Units=GPa)
#
#
# Indices 1 2 3 4 5 6 
#
# 1 48.7547 7.2388 33.8937 0.0000 5.6784 0.0000
# 2 7.2388 48.1961 14.8021 0.0000 1.6703 0.0000
# 3 33.8937 14.8021 106.6797 0.0000 1.6803 0.0000
# 4 0.0000 0.0000 0.0000 18.9282 0.0000 -0.6584
# 5 5.6784 1.6703 1.6803 0.0000 34.8912 0.0000
# 6 0.0000 0.0000 0.0000 -0.6584 0.0000 15.7376
#
#
#
# Elastic Compliance Matrix: (Units=1/GPa)
#
#
# Indices 1 2 3 4 5 6 
#
# 1 0.026947 -0.001359 -0.008311 0.000000 -0.003920 0.000000
# 2 -0.001359 0.021768 -0.002578 0.000000 -0.000697 0.000000
# 3 -0.008311 -0.002578 0.012358 0.000000 0.000881 0.000000
# 4 0.000000 0.000000 0.000000 0.052908 0.000000 0.002214
# 5 -0.003920 -0.000697 0.000881 0.000000 0.029289 0.000000
# 6 0.000000 0.000000 0.000000 0.002214 0.000000 0.063635
#
#
# Mechanical properties :
#
#
# Convention : Reuss Voigt Hill
#
# Bulk Modulus (GPa) = 27.33871 35.05553 31.19712
# Shear Modulus (GPa) = 20.52592 23.75780 22.14186
#
# Velocity S-wave (km/s) = 3.33759 3.59075 3.46648
# Velocity P-wave (km/s) = 5.44881 6.01798 5.74045
#
# Compressibility (1/GPa) = 0.03657817
#
# Stress axis : x y z
#
# Youngs Moduli (GPa) = 37.10985 45.93795 80.91775
#
# Poissons Ratio (x) = 0.06242 0.67252
# Poissons Ratio (y) = 0.05043 0.20858
# Poissons Ratio (z) = 0.30843 0.11842
#
# Static dielectric constant tensor:
#      x y z
#    x 3.263370 0.000000 -0.093110 
#    y 0.000000 2.846580 0.000000 
#    z -0.093110 0.000000 4.039420 
# 
# 
# High freq. dielectric constant tensor:
#      x y z
#    x 1.708540 0.000000 -0.005350 
#    y 0.000000 1.645280 0.000000 
#    z -0.005350 0.000000 1.744090 
# 
# From -- ./inp_files/56854.got.cif
#   From: 2010.06.25/outbox.cif.g09.slc.cpg/sg10_29_cif.got.tgz:56854.got - 2010.06.27 22:07:45.
