data_PCOD8057858
_publ_section_title
;
Structure prediction by ZEFSAII (Michael W. Deem and Ramdas Pophale) SiO2 
 PCOD8057858
Probable space group: P 2/M
;
_chemical_formula_sum "Si O2"
_cell_formula_units_Z 28
_cell_length_a 13.945309
_cell_length_b 8.939893
_cell_length_c 18.081843
_cell_angle_alpha 90.000000
_cell_angle_beta 49.747438
_cell_angle_gamma 90.000000
_cell_volume 1720.455936
_symmetry_space_group_name_H-M "P 2/M"
_symmetry_group_IT_number 10
_symmetry_cell_setting 'monoclinic'
loop_
_space_group_symop_operation_xyz
x,y,z
-x,y,-z
-x,-y,-z
x,-y,z
loop_
_atom_site_type_symbol
_atom_site_label
_atom_site_fract_x
_atom_site_fract_y
_atom_site_fract_z
Si Si1 0.245968 0.822923 0.973588
Si Si2 0.495647 0.177775 0.085144
Si Si3 0.129849 0.331754 0.478537
Si Si4 0.009739 0.323682 0.166742
Si Si5 0.753392 0.824820 0.710594
Si Si6 0.007497 0.824933 0.669249
Si Si7 0.124205 0.164814 0.889605
O O1 0.382101 0.766501 0.931524
O O2 0.232368 0.780929 0.893112
O O3 0.228329 0.000000 0.994121
O O4 0.142087 0.743800 0.075586
O O5 0.371506 0.237903 0.187807
O O6 0.491064 0.000000 0.084404
O O7 0.500000 0.243391 0.000000
O O8 0.170569 0.500000 0.479242
O O9 0.234978 0.258536 0.373651
O O10 0.000000 0.331346 0.500000
O O11 0.114679 0.233629 0.559993
O O12 0.021472 0.500000 0.163543
O O13 0.973488 0.262019 0.264435
O O14 0.896465 0.279298 0.167286
O O15 0.869476 0.788911 0.706563
O O16 0.745398 0.000000 0.697656
O O17 0.026749 0.000000 0.672740
O O18 0.156235 0.000000 0.841360
O O19 0.000000 0.153967 0.000000
#
# Coordination Sequence:
#
# PCOD8057858 Si02
#       7
#     4   4   4   4   4   4   4
#     4   9  17  30  46  63  87 120 153 183 215 254
#     4   9  16  27  45  68  91 117 152 187 212 242
#     4   9  17  29  44  63  89 117 145 180 221 262
#     4  11  20  28  42  65  91 116 144 182 227 268
#     4   9  17  29  46  66  88 118 153 183 213 254
#     4  10  18  29  46  66  89 116 147 182 219 261
#     4   8  15  28  44  61  83 113 148 182 218 261
#
# _framework density 16.274754999999999
#
# number of rings (size 3 to 8) (size 9 to 14) (size 15 to 20)
#    0.000    2.714    0.000    3.857    0.000    7.143 
#    0.000    0.714    0.000    1.714    0.000    1.000 
#    0.000    8.000    0.000    0.000    0.000    0.000 
#
# Total GULP energy -347126.215736 kJ/mol
# GULP energy per Si atom -12397.364848 kJ/mol
# Density = 1.623771 g / cm^3
# Si number density = 16.274755 Si / 1000 Ang^3
#
#
#
# Elastic Constant Matrix: (Units=GPa)
#
#
# Indices 1 2 3 4 5 6 
#
# 1 98.2445 32.2718 56.6379 0.0000 11.1090 0.0000
# 2 32.2718 70.5594 44.3802 0.0000 10.4786 0.0000
# 3 56.6379 44.3802 126.5856 0.0000 7.1347 0.0000
# 4 0.0000 0.0000 0.0000 15.6189 0.0000 3.7964
# 5 11.1090 10.4786 7.1347 0.0000 20.2875 0.0000
# 6 0.0000 0.0000 0.0000 3.7964 0.0000 11.3083
#
#
#
# Elastic Compliance Matrix: (Units=1/GPa)
#
#
# Indices 1 2 3 4 5 6 
#
# 1 0.014684 -0.002619 -0.005381 0.000000 -0.004795 0.000000
# 2 -0.002619 0.019772 -0.005372 0.000000 -0.006889 0.000000
# 3 -0.005381 -0.005372 0.012108 0.000000 0.001463 0.000000
# 4 0.000000 0.000000 0.000000 0.069714 0.000000 -0.023404
# 5 -0.004795 -0.006889 0.001463 0.000000 0.054961 0.000000
# 6 0.000000 0.000000 0.000000 -0.023404 0.000000 0.096288
#
#
# Mechanical properties :
#
#
# Convention : Reuss Voigt Hill
#
# Bulk Modulus (GPa) = 50.45487 62.44104 56.44796
# Shear Modulus (GPa) = 16.61802 20.24957 18.43379
#
# Velocity S-wave (km/s) = 3.19892 3.53119 3.36916
# Velocity P-wave (km/s) = 6.68680 7.42131 7.06361
#
# Compressibility (1/GPa) = 0.01981969
#
# Stress axis : x y z
#
# Youngs Moduli (GPa) = 68.10348 50.57604 82.58680
#
# Poissons Ratio (x) = 0.13246 0.44443
# Poissons Ratio (y) = 0.17836 0.44365
# Poissons Ratio (z) = 0.36649 0.27169
#
# Static dielectric constant tensor:
#      x y z
#    x 3.222970 0.000000 0.155670 
#    y 0.000000 2.984490 0.000000 
#    z 0.155670 0.000000 3.079480 
# 
# 
# High freq. dielectric constant tensor:
#      x y z
#    x 1.602160 0.000000 0.019440 
#    y 0.000000 1.616000 0.000000 
#    z 0.019440 0.000000 1.615300 
# 
# From -- ./inp_files/54956.got.cif
#   From: 2010.06.25/outbox.cif.g09.slc.cpg/sg10_28_cif.got.tgz:54956.got - 2010.06.27 22:07:45.
