data_PCOD8057791
_publ_section_title
;
Structure prediction by ZEFSAII (Michael W. Deem and Ramdas Pophale) SiO2 
 PCOD8057791
Probable space group: P 2/M
;
_chemical_formula_sum "Si O2"
_cell_formula_units_Z 32
_cell_length_a 23.662143
_cell_length_b 8.999290
_cell_length_c 34.778284
_cell_angle_alpha 90.000000
_cell_angle_beta 163.861170
_cell_angle_gamma 90.000000
_cell_volume 2058.551385
_symmetry_space_group_name_H-M "P 2/M"
_symmetry_group_IT_number 10
_symmetry_cell_setting 'monoclinic'
loop_
_space_group_symop_operation_xyz
x,y,z
-x,y,-z
-x,-y,-z
x,-y,z
loop_
_atom_site_type_symbol
_atom_site_label
_atom_site_fract_x
_atom_site_fract_y
_atom_site_fract_z
Si Si1 0.334286 0.677239 0.862417
Si Si2 0.262253 0.673873 0.096406
Si Si3 0.109027 0.324027 0.430617
Si Si4 0.533658 0.824929 0.210607
Si Si5 0.458091 0.673167 0.306190
Si Si6 0.358856 0.669257 0.791539
Si Si7 0.889906 0.330118 0.482682
Si Si8 0.101705 0.167478 0.107940
O O1 0.340034 0.500000 0.867006
O O2 0.381585 0.730932 0.849930
O O3 0.108286 0.733701 0.727836
O O4 0.500000 0.745418 0.000000
O O5 0.246641 0.500000 0.078448
O O6 0.365083 0.750790 0.127296
O O7 0.392246 0.709470 0.219511
O O8 0.034415 0.738253 0.951553
O O9 0.098744 0.500000 0.426766
O O10 0.305590 0.276184 0.533987
O O11 0.138254 0.265788 0.492904
O O12 0.504215 0.769423 0.147347
O O13 0.759254 0.776432 0.370356
O O14 0.507957 0.000000 0.195870
O O15 0.427255 0.500000 0.294603
O O16 0.326617 0.762724 0.251449
O O17 0.436862 0.500000 0.840323
O O18 0.125265 0.676456 0.624821
O O19 0.808242 0.500000 0.425755
O O20 0.120689 0.000000 0.135750
O O21 0.000000 0.173384 0.000000
#
# Coordination Sequence:
#
# PCOD8057791 Si02
#       8
#     4   4   4   4   4   4   4   4
#     4   8  14  26  46  69  88 106 136 182 225 252
#     4  10  18  29  43  56  77 113 152 178 206 249
#     4   8  13  23  40  62  85 110 142 177 212 252
#     4  12  22  28  38  58  86 113 143 181 215 246
#     4   9  15  25  41  58  79 111 148 177 204 247
#     4   9  18  30  45  61  81 110 144 176 212 258
#     4   9  16  29  43  56  78 113 148 176 208 248
#     4   9  17  27  38  56  83 110 140 178 215 244
#
# _framework density 15.544911000000001
#
# number of rings (size 3 to 8) (size 9 to 14) (size 15 to 20)
#    0.000    2.750    1.250    3.750    0.000    4.000 
#    0.000    0.000    0.000    0.375    0.000    0.000 
#    0.000    1.000    0.000   11.750    0.000    2.250 
#
# Total GULP energy -396599.716933 kJ/mol
# GULP energy per Si atom -12393.741154 kJ/mol
# Density = 1.550953 g / cm^3
# Si number density = 15.544911 Si / 1000 Ang^3
#
#
#
# Elastic Constant Matrix: (Units=GPa)
#
#
# Indices 1 2 3 4 5 6 
#
# 1 90.1048 45.0512 55.0334 0.0000 17.9349 0.0000
# 2 45.0512 74.5114 31.1821 0.0000 11.8374 0.0000
# 3 55.0334 31.1821 86.1815 0.0000 12.7107 0.0000
# 4 0.0000 0.0000 0.0000 5.5731 0.0000 4.4290
# 5 17.9349 11.8374 12.7107 0.0000 19.0990 0.0000
# 6 0.0000 0.0000 0.0000 4.4290 0.0000 15.5065
#
#
#
# Elastic Compliance Matrix: (Units=1/GPa)
#
#
# Indices 1 2 3 4 5 6 
#
# 1 0.023793 -0.008307 -0.010703 0.000000 -0.010072 0.000000
# 2 -0.008307 0.019515 -0.001245 0.000000 -0.003466 0.000000
# 3 -0.010703 -0.001245 0.019174 0.000000 -0.001939 0.000000
# 4 0.000000 0.000000 0.000000 0.232124 0.000000 -0.066300
# 5 -0.010072 -0.003466 -0.001939 0.000000 0.065255 0.000000
# 6 0.000000 0.000000 0.000000 -0.066300 0.000000 0.083426
#
#
# Mechanical properties :
#
#
# Convention : Reuss Voigt Hill
#
# Bulk Modulus (GPa) = 45.51025 57.03678 51.27352
# Shear Modulus (GPa) = 10.18079 16.00444 13.09262
#
# Velocity S-wave (km/s) = 2.56193 3.21216 2.90529
# Velocity P-wave (km/s) = 6.17183 7.10834 6.65658
#
# Compressibility (1/GPa) = 0.02197307
#
# Stress axis : x y z
#
# Youngs Moduli (GPa) = 42.02901 51.24275 52.15306
#
# Poissons Ratio (x) = 0.42566 0.55818
# Poissons Ratio (y) = 0.34913 0.06494
# Poissons Ratio (z) = 0.44982 0.06381
#
# Static dielectric constant tensor:
#      x y z
#    x 2.950580 0.000000 0.247860 
#    y 0.000000 2.782000 0.000000 
#    z 0.247860 0.000000 3.012060 
# 
# 
# High freq. dielectric constant tensor:
#      x y z
#    x 1.582480 0.000000 0.032130 
#    y 0.000000 1.575600 0.000000 
#    z 0.032130 0.000000 1.561010 
# 
# From -- ./inp_files/78511.got.cif
#   From: 2010.06.25/outbox.cif.g09.slc.cpg/sg10_40_cif.got.tgz:78511.got - 2010.06.27 22:07:45.
