data_PCOD8057456
_publ_section_title
;
Structure prediction by ZEFSAII (Michael W. Deem and Ramdas Pophale) SiO2 
 PCOD8057456
Probable space group: P 2/M
;
_chemical_formula_sum "Si O2"
_cell_formula_units_Z 32
_cell_length_a 15.458091
_cell_length_b 13.308682
_cell_length_c 12.742703
_cell_angle_alpha 90.000000
_cell_angle_beta 141.381999
_cell_angle_gamma 90.000000
_cell_volume 1636.153773
_symmetry_space_group_name_H-M "P 2/M"
_symmetry_group_IT_number 10
_symmetry_cell_setting 'monoclinic'
loop_
_space_group_symop_operation_xyz
x,y,z
-x,y,-z
-x,-y,-z
x,-y,z
loop_
_atom_site_type_symbol
_atom_site_label
_atom_site_fract_x
_atom_site_fract_y
_atom_site_fract_z
Si Si1 0.908522 0.287324 0.318466
Si Si2 0.633667 0.615252 0.060352
Si Si3 0.768085 0.281188 0.589809
Si Si4 0.053695 0.384128 0.867824
Si Si5 0.285156 0.718961 0.222633
Si Si6 0.051277 0.114610 0.338767
Si Si7 0.501164 0.615506 0.289010
Si Si8 0.112367 0.889929 0.026747
O O1 0.748186 0.300502 0.201440
O O2 0.909781 0.354625 0.215950
O O3 0.000000 0.332675 0.500000
O O4 0.968122 0.174655 0.351823
O O5 0.681011 0.500000 0.130430
O O6 0.500000 0.643877 0.000000
O O7 0.598418 0.625232 0.904628
O O8 0.700181 0.269695 0.639017
O O9 0.814497 0.178218 0.574109
O O10 0.650524 0.334152 0.406911
O O11 0.895365 0.354461 0.732572
O O12 0.076187 0.500000 0.903586
O O13 0.148904 0.336857 0.048444
O O14 0.426016 0.671939 0.313548
O O15 0.259228 0.833389 0.161074
O O16 0.092459 0.000000 0.413497
O O17 0.945193 0.107913 0.143947
O O18 0.524816 0.500000 0.343221
O O19 0.144081 0.000000 0.101265
O O20 0.000000 0.838500 0.000000
#
# Coordination Sequence:
#
# PCOD8057456 Si02
#       8
#     4   4   4   4   4   4   4   4
#     4  11  23  39  63  92 115 150 197 257 305 357
#     4  10  22  40  62  87 120 161 201 243 296 355
#     4  11  23  36  57  88 118 160 205 240 288 355
#     4  11  22  36  56  84 120 155 199 251 293 345
#     4  12  20  37  57  86 121 158 201 243 295 351
#     4  10  21  39  63  89 119 152 194 254 312 356
#     4  11  24  40  56  81 125 170 203 239 293 358
#     4  10  17  32  60  88 113 147 194 244 297 350
#
# _framework density 19.558064000000002
#
# number of rings (size 3 to 8) (size 9 to 14) (size 15 to 20)
#    0.000    1.250    5.000    1.875    3.500    4.250 
#    0.000    0.625    0.000    2.625    0.000    0.000 
#    0.000    0.000    0.000    0.000    0.000    0.000 
#
# Total GULP energy -396497.217968 kJ/mol
# GULP energy per Si atom -12390.538061 kJ/mol
# Density = 1.951355 g / cm^3
# Si number density = 19.558064 Si / 1000 Ang^3
#
#
#
# Elastic Constant Matrix: (Units=GPa)
#
#
# Indices 1 2 3 4 5 6 
#
# 1 92.5131 53.3892 22.6248 0.0000 18.2676 0.0000
# 2 53.3892 116.6401 39.5682 0.0000 13.0731 0.0000
# 3 22.6248 39.5682 82.2627 0.0000 18.4094 0.0000
# 4 0.0000 0.0000 0.0000 12.8570 0.0000 2.6273
# 5 18.2676 13.0731 18.4094 0.0000 24.6152 0.0000
# 6 0.0000 0.0000 0.0000 2.6273 0.0000 25.7582
#
#
#
# Elastic Compliance Matrix: (Units=1/GPa)
#
#
# Indices 1 2 3 4 5 6 
#
# 1 0.016282 -0.006697 0.000782 0.000000 -0.009112 0.000000
# 2 -0.006697 0.013091 -0.004818 0.000000 0.001620 0.000000
# 3 0.000782 -0.004818 0.016593 0.000000 -0.010431 0.000000
# 4 0.000000 0.000000 0.000000 0.079434 0.000000 -0.008102
# 5 -0.009112 0.001620 -0.010431 0.000000 0.054328 0.000000
# 6 0.000000 0.000000 0.000000 -0.008102 0.000000 0.039649
#
#
# Mechanical properties :
#
#
# Convention : Reuss Voigt Hill
#
# Bulk Modulus (GPa) = 40.81379 58.06447 49.43913
# Shear Modulus (GPa) = 20.07956 24.36833 22.22395
#
# Velocity S-wave (km/s) = 3.20764 3.53363 3.37457
# Velocity P-wave (km/s) = 5.88489 6.81186 6.36527
#
# Compressibility (1/GPa) = 0.02450152
#
# Stress axis : x y z
#
# Youngs Moduli (GPa) = 61.41804 76.38613 60.26719
#
# Poissons Ratio (x) = 0.51154 -0.04714
# Poissons Ratio (y) = 0.41130 0.29035
# Poissons Ratio (z) = -0.04804 0.36800
#
# Static dielectric constant tensor:
#      x y z
#    x 3.705630 0.000000 0.011740 
#    y 0.000000 3.961450 0.000000 
#    z 0.011740 0.000000 3.536350 
# 
# 
# High freq. dielectric constant tensor:
#      x y z
#    x 1.761170 0.000000 -0.005840 
#    y 0.000000 1.751560 0.000000 
#    z -0.005840 0.000000 1.757830 
# 
# From -- ./inp_files/51640.got.cif
#   From: 2010.06.25/outbox.cif.g09.slc.cpg/sg10_26_cif.got.tgz:51640.got - 2010.06.27 22:07:45.
