data_PCOD8057017
_publ_section_title
;
Structure prediction by ZEFSAII (Michael W. Deem and Ramdas Pophale) SiO2 
 PCOD8057017
Probable space group: P 2/M
;
_chemical_formula_sum "Si O2"
_cell_formula_units_Z 32
_cell_length_a 19.675155
_cell_length_b 8.900791
_cell_length_c 29.148908
_cell_angle_alpha 90.000000
_cell_angle_beta 23.700209
_cell_angle_gamma 90.000000
_cell_volume 2051.834345
_symmetry_space_group_name_H-M "P 2/M"
_symmetry_group_IT_number 10
_symmetry_cell_setting 'monoclinic'
loop_
_space_group_symop_operation_xyz
x,y,z
-x,y,-z
-x,-y,-z
x,-y,z
loop_
_atom_site_type_symbol
_atom_site_label
_atom_site_fract_x
_atom_site_fract_y
_atom_site_fract_z
Si Si1 0.739936 0.823773 0.169321
Si Si2 0.110064 0.325079 0.839465
Si Si3 0.190284 0.328033 0.471156
Si Si4 0.738975 0.673463 0.072644
Si Si5 0.562074 0.674185 0.414363
Si Si6 0.898661 0.166075 0.609883
Si Si7 0.403016 0.821797 0.261072
Si Si8 0.574059 0.671418 0.596004
O O1 0.879080 0.768484 0.119930
O O2 0.762527 0.733138 0.108977
O O3 0.554234 0.789725 0.303184
O O4 0.761232 0.000000 0.146873
O O5 0.144285 0.500000 0.829757
O O6 0.253801 0.263592 0.715532
O O7 0.921574 0.303716 0.934883
O O8 0.193497 0.500000 0.453889
O O9 0.325283 0.242642 0.356018
O O10 0.244965 0.306520 0.490722
O O11 0.997693 0.269838 0.584887
O O12 0.685941 0.500000 0.106844
O O13 0.592669 0.762269 0.135860
O O14 0.500000 0.754070 0.500000
O O15 0.586723 0.500000 0.409533
O O16 0.420081 0.701665 0.462473
O O17 0.710765 0.225913 0.712935
O O18 0.000000 0.161823 0.500000
O O19 0.888326 0.000000 0.637876
O O20 0.404073 0.000000 0.265615
O O21 0.509736 0.500000 0.644102
#
# Coordination Sequence:
#
# PCOD8057017 Si02
#       8
#     4   4   4   4   4   4   4   4
#     4  11  20  28  41  59  81 111 144 174 204 241
#     4   9  19  32  44  60  82 107 137 173 212 249
#     4  10  17  25  40  59  82 111 142 174 207 245
#     4  11  20  29  41  57  82 113 141 173 208 244
#     4   8  14  28  49  66  81 105 137 171 208 253
#     4   8  16  28  39  53  78 109 141 177 208 238
#     4  10  19  29  40  56  80 112 146 176 206 240
#     4   9  17  28  42  63  87 110 139 174 210 246
#
# _framework density 15.595801
#
# number of rings (size 3 to 8) (size 9 to 14) (size 15 to 20)
#    0.000    2.500    1.250    4.125    0.000    5.750 
#    0.000    0.000    0.000    6.000    0.000    0.000 
#    0.000    1.000    0.000   12.500    0.000    2.000 
#
# Total GULP energy -396511.123102 kJ/mol
# GULP energy per Si atom -12390.972597 kJ/mol
# Density = 1.556030 g / cm^3
# Si number density = 15.595801 Si / 1000 Ang^3
#
#
#
# Elastic Constant Matrix: (Units=GPa)
#
#
# Indices 1 2 3 4 5 6 
#
# 1 100.1587 32.4946 57.4674 0.0000 -26.8900 0.0000
# 2 32.4946 57.2301 21.6013 0.0000 -13.7290 0.0000
# 3 57.4674 21.6013 68.1254 0.0000 -22.3229 0.0000
# 4 0.0000 0.0000 0.0000 12.0581 0.0000 -11.8184
# 5 -26.8900 -13.7290 -22.3229 0.0000 28.8925 0.0000
# 6 0.0000 0.0000 0.0000 -11.8184 0.0000 14.5564
#
#
#
# Elastic Compliance Matrix: (Units=1/GPa)
#
#
# Indices 1 2 3 4 5 6 
#
# 1 0.021836 -0.005326 -0.014596 0.000000 0.006514 0.000000
# 2 -0.005326 0.021990 -0.000911 0.000000 0.004789 0.000000
# 3 -0.014596 -0.000911 0.030378 0.000000 0.009453 0.000000
# 4 0.000000 0.000000 0.000000 0.406058 0.000000 0.329679
# 5 0.006514 0.004789 0.009453 0.000000 0.050253 0.000000
# 6 0.000000 0.000000 0.000000 0.329679 0.000000 0.336366
#
#
# Mechanical properties :
#
#
# Convention : Reuss Voigt Hill
#
# Bulk Modulus (GPa) = 30.73389 49.84896 40.29142
# Shear Modulus (GPa) = 5.43837 18.69812 12.06825
#
# Velocity S-wave (km/s) = 1.86940 3.46630 2.78477
# Velocity P-wave (km/s) = 4.94053 6.93201 6.01920
#
# Compressibility (1/GPa) = 0.03253737
#
# Stress axis : x y z
#
# Youngs Moduli (GPa) = 45.79616 45.47545 32.91865
#
# Poissons Ratio (x) = 0.24221 0.48049
# Poissons Ratio (y) = 0.24392 0.02998
# Poissons Ratio (z) = 0.66846 0.04141
#
# Static dielectric constant tensor:
#      x y z
#    x 3.133210 0.000000 -0.337710 
#    y 0.000000 2.941360 0.000000 
#    z -0.337710 0.000000 3.001540 
# 
# 
# High freq. dielectric constant tensor:
#      x y z
#    x 1.580540 0.000000 -0.038830 
#    y 0.000000 1.595550 0.000000 
#    z -0.038830 0.000000 1.561360 
# 
# From -- ./inp_files/54792.got.cif
#   From: 2010.06.25/outbox.cif.g09.slc.cpg/sg10_28_cif.got.tgz:54792.got - 2010.06.27 22:07:45.
