data_PCOD8057700
_publ_section_title
;
Structure prediction by ZEFSAII (Michael W. Deem and Ramdas Pophale) SiO2 
 PCOD8057700
Probable space group: P 2/M
;
_chemical_formula_sum "Si O2"
_cell_formula_units_Z 28
_cell_length_a 18.221274
_cell_length_b 8.985344
_cell_length_c 13.794615
_cell_angle_alpha 90.000000
_cell_angle_beta 49.476594
_cell_angle_gamma 90.000000
_cell_volume 1716.789142
_symmetry_space_group_name_H-M "P 2/M"
_symmetry_group_IT_number 10
_symmetry_cell_setting 'monoclinic'
loop_
_space_group_symop_operation_xyz
x,y,z
-x,y,-z
-x,-y,-z
x,-y,z
loop_
_atom_site_type_symbol
_atom_site_label
_atom_site_fract_x
_atom_site_fract_y
_atom_site_fract_z
Si Si1 0.711033 0.825797 0.252240
Si Si2 0.895962 0.663586 0.637242
Si Si3 0.022370 0.175087 0.261808
Si Si4 0.827261 0.676386 0.494746
Si Si5 0.664341 0.174176 0.513279
Si Si6 0.475822 0.667508 0.633292
Si Si7 0.083694 0.176365 0.996687
O O1 0.704203 0.791183 0.372063
O O2 0.628449 0.742153 0.262024
O O3 0.698509 0.000000 0.242806
O O4 0.813081 0.762393 0.127316
O O5 0.865634 0.500000 0.702111
O O6 0.899180 0.778191 0.723926
O O7 0.824785 0.716779 0.611978
O O8 0.000000 0.652460 0.500000
O O9 0.065386 0.226095 0.122310
O O10 0.920027 0.254010 0.362796
O O11 0.004889 0.000000 0.282095
O O12 0.831547 0.500000 0.475711
O O13 0.730811 0.742898 0.533127
O O14 0.556382 0.236815 0.620120
O O15 0.663988 0.000000 0.535812
O O16 0.500000 0.668121 0.500000
O O17 0.474362 0.500000 0.676033
O O18 0.083849 0.000000 0.986548
O O19 0.000000 0.243923 0.000000
#
# Coordination Sequence:
#
# PCOD8057700 Si02
#       7
#     4   4   4   4   4   4   4
#     4   9  17  30  46  63  88 121 153 182 213 255
#     4   8  16  30  44  59  84 117 146 176 221 269
#     4  10  18  28  45  66  87 116 153 187 216 252
#     4  10  19  30  44  63  90 120 145 177 225 270
#     4  10  18  28  46  69  89 113 147 184 220 259
#     4   9  17  29  44  63  89 117 145 180 221 263
#     4   9  17  29  44  64  91 121 151 182 215 250
#
# _framework density 16.309517
#
# number of rings (size 3 to 8) (size 9 to 14) (size 15 to 20)
#    0.000    2.714    0.000    3.429    0.000    7.714 
#    0.000    1.429    0.000    3.000    0.000    1.000 
#    0.000    8.000    0.000    0.000    0.000    0.000 
#
# Total GULP energy -347131.168630 kJ/mol
# GULP energy per Si atom -12397.541737 kJ/mol
# Density = 1.627240 g / cm^3
# Si number density = 16.309517 Si / 1000 Ang^3
#
#
#
# Elastic Constant Matrix: (Units=GPa)
#
#
# Indices 1 2 3 4 5 6 
#
# 1 141.9678 58.4730 62.5857 0.0000 -9.5949 0.0000
# 2 58.4730 75.7294 33.2485 0.0000 -1.5670 0.0000
# 3 62.5857 33.2485 78.0281 0.0000 -11.4052 0.0000
# 4 0.0000 0.0000 0.0000 9.9669 0.0000 -2.5605
# 5 -9.5949 -1.5670 -11.4052 0.0000 25.3550 0.0000
# 6 0.0000 0.0000 0.0000 -2.5605 0.0000 29.3503
#
#
#
# Elastic Compliance Matrix: (Units=1/GPa)
#
#
# Indices 1 2 3 4 5 6 
#
# 1 0.013308 -0.006941 -0.007539 0.000000 0.001216 0.000000
# 2 -0.006941 0.019985 -0.003374 0.000000 -0.002909 0.000000
# 3 -0.007539 -0.003374 0.021251 0.000000 0.006497 0.000000
# 4 0.000000 0.000000 0.000000 0.102633 0.000000 0.008954
# 5 0.001216 -0.002909 0.006497 0.000000 0.042643 0.000000
# 6 0.000000 0.000000 0.000000 0.008954 0.000000 0.034852
#
#
# Mechanical properties :
#
#
# Convention : Reuss Voigt Hill
#
# Bulk Modulus (GPa) = 53.08970 67.14887 60.11929
# Shear Modulus (GPa) = 18.07283 22.36232 20.21757
#
# Velocity S-wave (km/s) = 3.33245 3.70688 3.52464
# Velocity P-wave (km/s) = 6.88687 7.71895 7.31475
#
# Compressibility (1/GPa) = 0.01883604
#
# Stress axis : x y z
#
# Youngs Moduli (GPa) = 75.14084 50.03731 47.05746
#
# Poissons Ratio (x) = 0.34728 0.35478
# Poissons Ratio (y) = 0.52152 0.15878
# Poissons Ratio (z) = 0.56652 0.16883
#
# Static dielectric constant tensor:
#      x y z
#    x 3.371870 0.000000 -0.027030 
#    y 0.000000 3.074970 0.000000 
#    z -0.027030 0.000000 2.875090 
# 
# 
# High freq. dielectric constant tensor:
#      x y z
#    x 1.632030 0.000000 -0.007720 
#    y 0.000000 1.626970 0.000000 
#    z -0.007720 0.000000 1.587090 
# 
# From -- ./inp_files/66426.got.cif
#   From: 2010.06.25/outbox.cif.g09.slc.cpg/sg10_34_cif.got.tgz:66426.got - 2010.06.27 22:07:45.
