data_PCOD8057130
_publ_section_title
;
Structure prediction by ZEFSAII (Michael W. Deem and Ramdas Pophale) SiO2 
 PCOD8057130
Probable space group: P 2/M
;
_chemical_formula_sum "Si O2"
_cell_formula_units_Z 32
_cell_length_a 18.153017
_cell_length_b 8.738892
_cell_length_c 21.654832
_cell_angle_alpha 90.000000
_cell_angle_beta 146.865338
_cell_angle_gamma 90.000000
_cell_volume 1877.744537
_symmetry_space_group_name_H-M "P 2/M"
_symmetry_group_IT_number 10
_symmetry_cell_setting 'monoclinic'
loop_
_space_group_symop_operation_xyz
x,y,z
-x,y,-z
-x,-y,-z
x,-y,z
loop_
_atom_site_type_symbol
_atom_site_label
_atom_site_fract_x
_atom_site_fract_y
_atom_site_fract_z
Si Si1 0.944186 0.679559 0.370550
Si Si2 0.917040 0.681606 0.000313
Si Si3 0.623837 0.681925 0.625762
Si Si4 0.098817 0.680988 0.240197
Si Si5 0.094332 0.819577 0.370327
Si Si6 0.360857 0.175519 0.629078
Si Si7 0.376054 0.318983 0.236115
Si Si8 0.183191 0.822821 0.614045
O O1 0.919484 0.500000 0.349850
O O2 0.814201 0.759088 0.313473
O O3 0.969145 0.744149 0.319391
O O4 0.074678 0.721321 0.501923
O O5 0.921094 0.500000 0.997831
O O6 0.982772 0.732635 0.111089
O O7 0.763255 0.742555 0.891446
O O8 0.000000 0.749155 0.000000
O O9 0.500000 0.750279 0.500000
O O10 0.618264 0.500000 0.623879
O O11 0.760846 0.736292 0.690258
O O12 0.613279 0.748725 0.687325
O O13 0.097476 0.500000 0.251906
O O14 0.077392 0.770219 0.288267
O O15 0.238789 0.764520 0.499483
O O16 0.082128 0.000000 0.369230
O O17 0.496162 0.269831 0.714023
O O18 0.323317 0.196929 0.675369
O O19 0.390622 0.000000 0.634241
O O20 0.372735 0.500000 0.236315
O O21 0.138987 0.000000 0.581955
#
# Coordination Sequence:
#
# PCOD8057130 Si02
#       8
#     4   4   4   4   4   4   4   4
#     4  10  17  26  44  70  96 124 161 197 230 274
#     4   9  16  30  50  71  92 119 157 203 250 287
#     4   9  16  25  41  67  93 118 152 192 233 278
#     4  10  18  30  49  69  92 121 159 203 240 282
#     4  10  20  33  46  65  98 132 160 192 240 292
#     4   9  19  32  45  65  97 132 159 191 234 283
#     4  10  18  29  48  70  92 122 160 200 240 283
#     4   9  16  28  44  64  96 134 162 187 231 283
#
# _framework density 17.041723000000001
#
# number of rings (size 3 to 8) (size 9 to 14) (size 15 to 20)
#    0.000    2.500    1.250    4.125    0.000    4.000 
#    0.000    1.250    0.000    3.000    0.000    0.875 
#    0.000    7.000    0.000    0.000    0.000    0.000 
#
# Total GULP energy -396613.578859 kJ/mol
# GULP energy per Si atom -12394.174339 kJ/mol
# Density = 1.700293 g / cm^3
# Si number density = 17.041723 Si / 1000 Ang^3
#
#
#
# Elastic Constant Matrix: (Units=GPa)
#
#
# Indices 1 2 3 4 5 6 
#
# 1 147.8468 34.2844 63.3460 0.0000 11.9305 0.0000
# 2 34.2844 43.8991 23.0662 0.0000 0.7083 0.0000
# 3 63.3460 23.0662 109.6495 0.0000 0.1398 0.0000
# 4 0.0000 0.0000 0.0000 8.7980 0.0000 -4.8341
# 5 11.9305 0.7083 0.1398 0.0000 6.7910 0.0000
# 6 0.0000 0.0000 0.0000 -4.8341 0.0000 13.9865
#
#
#
# Elastic Compliance Matrix: (Units=1/GPa)
#
#
# Indices 1 2 3 4 5 6 
#
# 1 0.012416 -0.006299 -0.005821 0.000000 -0.021035 0.000000
# 2 -0.006299 0.028850 -0.002441 0.000000 0.008106 0.000000
# 3 -0.005821 -0.002441 0.012983 0.000000 0.010214 0.000000
# 4 0.000000 0.000000 0.000000 0.140309 0.000000 0.048495
# 5 -0.021035 0.008106 0.010214 0.000000 0.183153 0.000000
# 6 0.000000 0.000000 0.000000 0.048495 0.000000 0.088259
#
#
# Mechanical properties :
#
#
# Convention : Reuss Voigt Hill
#
# Bulk Modulus (GPa) = 39.79474 60.30985 50.05229
# Shear Modulus (GPa) = 9.93117 17.96169 13.94643
#
# Velocity S-wave (km/s) = 2.41665 3.25003 2.86382
# Velocity P-wave (km/s) = 5.58471 7.03917 6.35370
#
# Compressibility (1/GPa) = 0.02512895
#
# Stress axis : x y z
#
# Youngs Moduli (GPa) = 80.54222 34.66184 77.02245
#
# Poissons Ratio (x) = 0.21832 0.44835
# Poissons Ratio (y) = 0.50730 0.18798
# Poissons Ratio (z) = 0.46884 0.08459
#
# Static dielectric constant tensor:
#      x y z
#    x 3.664350 0.000000 0.052640 
#    y 0.000000 2.892580 0.000000 
#    z 0.052640 0.000000 3.057540 
# 
# 
# High freq. dielectric constant tensor:
#      x y z
#    x 1.673950 0.000000 0.005990 
#    y 0.000000 1.636040 0.000000 
#    z 0.005990 0.000000 1.615890 
# 
# From -- ./inp_files/52786.got.cif
#   From: 2010.06.25/outbox.cif.g09.slc.cpg/sg10_27_cif.got.tgz:52786.got - 2010.06.27 22:07:45.
