data_PCOD8057651
_publ_section_title
;
Structure prediction by ZEFSAII (Michael W. Deem and Ramdas Pophale) SiO2 
 PCOD8057651
Probable space group: P 2/M
;
_chemical_formula_sum "Si O2"
_cell_formula_units_Z 28
_cell_length_a 13.909946
_cell_length_b 9.158537
_cell_length_c 13.909948
_cell_angle_alpha 90.000000
_cell_angle_beta 96.870322
_cell_angle_gamma 90.000000
_cell_volume 1759.330071
_symmetry_space_group_name_H-M "P 2/M"
_symmetry_group_IT_number 10
_symmetry_cell_setting 'monoclinic'
loop_
_space_group_symop_operation_xyz
x,y,z
-x,y,-z
-x,-y,-z
x,-y,z
loop_
_atom_site_type_symbol
_atom_site_label
_atom_site_fract_x
_atom_site_fract_y
_atom_site_fract_z
Si Si1 0.665577 0.829239 0.170188
Si Si2 0.604154 0.838783 0.963415
Si Si3 0.963415 0.838783 0.604154
Si Si4 0.214394 0.672928 0.475241
Si Si5 0.475241 0.672928 0.214394
Si Si6 0.418684 0.673165 0.418684
Si Si7 0.829812 0.170761 0.334422
O O1 0.581257 0.737888 0.210584
O O2 0.766737 0.791306 0.233263
O O3 0.638606 0.000000 0.176731
O O4 0.676672 0.788069 0.058009
O O5 0.602940 0.727693 0.873987
O O6 0.632484 0.000000 0.928609
O O7 0.500000 0.843350 0.000000
O O8 0.873987 0.727693 0.602940
O O9 0.000000 0.843349 0.500000
O O10 0.058009 0.788069 0.676673
O O11 0.928609 0.000000 0.632484
O O12 0.208560 0.500000 0.482004
O O13 0.313430 0.728200 0.438825
O O14 0.210584 0.737887 0.581257
O O15 0.482004 0.500000 0.208560
O O16 0.438824 0.728200 0.313430
O O17 0.500000 0.738594 0.500000
O O18 0.422740 0.500000 0.422739
O O19 0.823269 0.000000 0.361394
#
# Coordination Sequence:
#
# PCOD8057651 Si02
#       7
#     4   4   4   4   4   4   4
#     4   9  17  29  44  62  85 111 136 166 208 251
#     4   8  15  28  43  59  82 109 135 167 208 249
#     4   8  15  28  43  59  82 109 135 167 208 249
#     4  10  18  28  43  61  83 112 143 172 201 239
#     4  10  18  28  43  61  83 112 143 172 201 239
#     4   9  18  30  41  57  84 115 142 168 201 237
#     4   9  17  29  44  62  85 111 136 166 208 251
#
# _framework density 15.915149
#
# number of rings (size 3 to 8) (size 9 to 14) (size 15 to 20)
#    0.000    3.000    0.000    3.429    0.000    6.857 
#    0.000    2.857    0.000    5.143    0.000    1.000 
#    0.000    8.000    0.000    0.000    0.000    0.000 
#
# Total GULP energy -347015.496187 kJ/mol
# GULP energy per Si atom -12393.410578 kJ/mol
# Density = 1.587893 g / cm^3
# Si number density = 15.915149 Si / 1000 Ang^3
#
#
#
# Elastic Constant Matrix: (Units=GPa)
#
#
# Indices 1 2 3 4 5 6 
#
# 1 114.9123 39.7121 65.7971 0.0000 23.3269 0.0000
# 2 39.7121 56.9972 39.5382 0.0000 6.5011 0.0000
# 3 65.7971 39.5382 113.6694 0.0000 23.2525 0.0000
# 4 0.0000 0.0000 0.0000 12.6149 0.0000 10.9832
# 5 23.3269 6.5011 23.2525 0.0000 27.0332 0.0000
# 6 0.0000 0.0000 0.0000 10.9832 0.0000 12.9079
#
#
#
# Elastic Compliance Matrix: (Units=1/GPa)
#
#
# Indices 1 2 3 4 5 6 
#
# 1 0.015306 -0.006221 -0.005219 0.000000 -0.007223 0.000000
# 2 -0.006221 0.025713 -0.006282 0.000000 0.004587 0.000000
# 3 -0.005219 -0.006282 0.015500 0.000000 -0.007319 0.000000
# 4 0.000000 0.000000 0.000000 0.305875 0.000000 -0.260267
# 5 -0.007223 0.004587 -0.007319 0.000000 0.048416 0.000000
# 6 0.000000 0.000000 0.000000 -0.260267 0.000000 0.298931
#
#
# Mechanical properties :
#
#
# Convention : Reuss Voigt Hill
#
# Bulk Modulus (GPa) = 47.44243 63.96376 55.70309
# Shear Modulus (GPa) = 6.64708 19.87996 13.26352
#
# Velocity S-wave (km/s) = 2.04588 3.53813 2.88998
# Velocity P-wave (km/s) = 5.95442 7.54777 6.79794
#
# Compressibility (1/GPa) = 0.02107818
#
# Stress axis : x y z
#
# Youngs Moduli (GPa) = 65.33176 38.89086 64.51447
#
# Poissons Ratio (x) = 0.24192 0.33669
# Poissons Ratio (y) = 0.40640 0.40525
# Poissons Ratio (z) = 0.34095 0.24429
#
# Static dielectric constant tensor:
#      x y z
#    x 3.238730 0.000000 0.428040 
#    y 0.000000 2.935450 0.000000 
#    z 0.428040 0.000000 3.227320 
# 
# 
# High freq. dielectric constant tensor:
#      x y z
#    x 1.595350 0.000000 0.028550 
#    y 0.000000 1.603500 0.000000 
#    z 0.028550 0.000000 1.594590 
# 
# From -- ./inp_files/48772.got.cif
#   From: 2010.06.25/outbox.cif.g09.slc.cpg/sg10_25_cif.got.tgz:48772.got - 2010.06.27 22:07:45.
