data_PCOD8057185
_publ_section_title
;
Structure prediction by ZEFSAII (Michael W. Deem and Ramdas Pophale) SiO2 
 PCOD8057185
Probable space group: P 2/M
;
_chemical_formula_sum "Si O2"
_cell_formula_units_Z 32
_cell_length_a 23.676170
_cell_length_b 9.101325
_cell_length_c 17.594632
_cell_angle_alpha 90.000000
_cell_angle_beta 30.960705
_cell_angle_gamma 90.000000
_cell_volume 1950.471028
_symmetry_space_group_name_H-M "P 2/M"
_symmetry_group_IT_number 10
_symmetry_cell_setting 'monoclinic'
loop_
_space_group_symop_operation_xyz
x,y,z
-x,y,-z
-x,-y,-z
x,-y,z
loop_
_atom_site_type_symbol
_atom_site_label
_atom_site_fract_x
_atom_site_fract_y
_atom_site_fract_z
Si Si1 0.972451 0.171002 0.444159
Si Si2 0.579068 0.667361 0.751265
Si Si3 0.635194 0.174841 0.951736
Si Si4 0.550452 0.671151 0.614242
Si Si5 0.628551 0.337044 0.369492
Si Si6 0.747839 0.330073 0.683531
Si Si7 0.331555 0.172240 0.820360
Si Si8 0.196063 0.827364 0.117541
O O1 0.868994 0.265085 0.538135
O O2 0.000000 0.197847 0.500000
O O3 0.074623 0.231872 0.276442
O O4 0.947479 0.000000 0.457699
O O5 0.536270 0.500000 0.809407
O O6 0.603712 0.703943 0.634493
O O7 0.692548 0.689848 0.664864
O O8 0.488142 0.775745 0.889357
O O9 0.673887 0.242723 0.828255
O O10 0.714523 0.236534 0.926640
O O11 0.638502 0.000000 0.941217
O O12 0.520118 0.500000 0.638126
O O13 0.638086 0.716118 0.446658
O O14 0.439051 0.761767 0.735165
O O15 0.500000 0.333916 0.500000
O O16 0.677517 0.500000 0.302737
O O17 0.692520 0.232771 0.236595
O O18 0.753806 0.500000 0.700800
O O19 0.349202 0.000000 0.794108
O O20 0.228982 0.213278 0.993194
O O21 0.194971 0.000000 0.131922
#
# Coordination Sequence:
#
# PCOD8057185 Si02
#       8
#     4   4   4   4   4   4   4   4
#     4  10  19  36  56  69  89 124 164 202 243 286
#     4  10  21  35  49  69 100 132 160 198 243 283
#     4  11  20  34  52  71  96 129 167 198 233 285
#     4   9  17  30  46  64  92 131 161 184 227 283
#     4   8  15  27  42  63  92 125 159 187 222 282
#     4  11  23  36  49  71  99 125 161 205 246 284
#     4  10  17  27  44  69  98 123 152 193 238 278
#     4   9  18  31  48  71  96 123 156 198 240 279
#
# _framework density 16.406293999999999
#
# number of rings (size 3 to 8) (size 9 to 14) (size 15 to 20)
#    0.000    2.250    2.500    2.250    0.000    5.000 
#    0.000    1.250    0.000    0.000    0.000    0.875 
#    0.000    7.000    0.000    0.000    0.000    0.000 
#
# Total GULP energy -396704.455843 kJ/mol
# GULP energy per Si atom -12397.014245 kJ/mol
# Density = 1.636895 g / cm^3
# Si number density = 16.406294 Si / 1000 Ang^3
#
#
#
# Elastic Constant Matrix: (Units=GPa)
#
#
# Indices 1 2 3 4 5 6 
#
# 1 95.8966 45.7014 68.1307 0.0000 12.6476 0.0000
# 2 45.7014 72.8790 47.7945 0.0000 7.3001 0.0000
# 3 68.1307 47.7945 104.7014 0.0000 17.6076 0.0000
# 4 0.0000 0.0000 0.0000 21.0926 0.0000 2.3522
# 5 12.6476 7.3001 17.6076 0.0000 29.4178 0.0000
# 6 0.0000 0.0000 0.0000 2.3522 0.0000 20.4918
#
#
#
# Elastic Compliance Matrix: (Units=1/GPa)
#
#
# Indices 1 2 3 4 5 6 
#
# 1 0.021136 -0.006060 -0.010799 0.000000 -0.001120 0.000000
# 2 -0.006060 0.021329 -0.005939 0.000000 0.000867 0.000000
# 3 -0.010799 -0.005939 0.020304 0.000000 -0.006036 0.000000
# 4 0.000000 0.000000 0.000000 0.048025 0.000000 -0.005513
# 5 -0.001120 0.000867 -0.006036 0.000000 0.037872 0.000000
# 6 0.000000 0.000000 0.000000 -0.005513 0.000000 0.049433
#
#
# Mechanical properties :
#
#
# Convention : Reuss Voigt Hill
#
# Bulk Modulus (GPa) = 58.22852 66.30338 62.26595
# Shear Modulus (GPa) = 20.04660 21.65713 20.85187
#
# Velocity S-wave (km/s) = 3.49934 3.63719 3.56893
# Velocity P-wave (km/s) = 7.20387 7.62496 7.41740
#
# Compressibility (1/GPa) = 0.01717371
#
# Stress axis : x y z
#
# Youngs Moduli (GPa) = 47.31363 46.88343 49.25112
#
# Poissons Ratio (x) = 0.28410 0.53185
# Poissons Ratio (y) = 0.28671 0.29251
# Poissons Ratio (z) = 0.51093 0.27845
#
# Static dielectric constant tensor:
#      x y z
#    x 3.203100 0.000000 0.312940 
#    y 0.000000 3.067440 0.000000 
#    z 0.312940 0.000000 3.220470 
# 
# 
# High freq. dielectric constant tensor:
#      x y z
#    x 1.616930 0.000000 0.026740 
#    y 0.000000 1.628270 0.000000 
#    z 0.026740 0.000000 1.617060 
# 
# From -- ./inp_files/52737.got.cif
#   From: 2010.06.25/outbox.cif.g09.slc.cpg/sg10_27_cif.got.tgz:52737.got - 2010.06.27 22:07:45.
