data_PCOD8057615
_publ_section_title
;
Structure prediction by ZEFSAII (Michael W. Deem and Ramdas Pophale) SiO2 
 PCOD8057615
Probable space group: P 2/M
;
_chemical_formula_sum "Si O2"
_cell_formula_units_Z 32
_cell_length_a 16.135033
_cell_length_b 8.940566
_cell_length_c 16.763133
_cell_angle_alpha 90.000000
_cell_angle_beta 128.637733
_cell_angle_gamma 90.000000
_cell_volume 1888.869471
_symmetry_space_group_name_H-M "P 2/M"
_symmetry_group_IT_number 10
_symmetry_cell_setting 'monoclinic'
loop_
_space_group_symop_operation_xyz
x,y,z
-x,y,-z
-x,-y,-z
x,-y,z
loop_
_atom_site_type_symbol
_atom_site_label
_atom_site_fract_x
_atom_site_fract_y
_atom_site_fract_z
Si Si1 0.848632 0.822348 0.969032
Si Si2 0.738759 0.175104 0.635153
Si Si3 0.374593 0.335216 0.917214
Si Si4 0.356924 0.176881 0.063362
Si Si5 0.619859 0.823458 0.407373
Si Si6 0.418477 0.677067 0.771969
Si Si7 0.072004 0.175837 0.151419
Si Si8 0.563357 0.333753 0.619238
O O1 0.739359 0.759619 0.940216
O O2 0.865384 0.762309 0.888961
O O3 0.841637 0.000000 0.968606
O O4 0.950938 0.764278 0.082441
O O5 0.705291 0.227789 0.526208
O O6 0.862236 0.214320 0.728077
O O7 0.674718 0.256534 0.667010
O O8 0.714331 0.000000 0.628760
O O9 0.324699 0.500000 0.902135
O O10 0.353261 0.280919 0.813389
O O11 0.500000 0.347448 0.000000
O O12 0.329395 0.219510 0.954919
O O13 0.463990 0.253651 0.157797
O O14 0.370945 0.000000 0.077815
O O15 0.650055 0.744596 0.342286
O O16 0.501644 0.769135 0.358638
O O17 0.619323 0.000000 0.395841
O O18 0.429842 0.500000 0.770053
O O19 0.065946 0.000000 0.135431
O O20 0.500000 0.345623 0.500000
O O21 0.580267 0.500000 0.665620
#
# Coordination Sequence:
#
# PCOD8057615 Si02
#       8
#     4   4   4   4   4   4   4   4
#     4   8  15  26  42  67  92 115 147 183 217 261
#     4   9  17  28  45  64  84 116 152 186 221 255
#     4   8  16  31  46  61  86 119 149 175 215 273
#     4  10  18  27  45  72  94 114 146 184 221 258
#     4  10  19  29  41  63  89 113 149 189 221 256
#     4  10  20  32  45  63  89 122 152 177 217 270
#     4   8  14  27  44  62  90 121 148 181 220 257
#     4   9  17  28  40  56  83 117 149 179 212 255
#
# _framework density 16.94135
#
# number of rings (size 3 to 8) (size 9 to 14) (size 15 to 20)
#    0.000    3.000    0.000    3.000    1.750    4.750 
#    0.000    0.000    0.000    1.500    0.000    5.250 
#    0.000    7.000    0.000    0.000    0.000    0.000 
#
# Total GULP energy -396482.745319 kJ/mol
# GULP energy per Si atom -12390.085791 kJ/mol
# Density = 1.690279 g / cm^3
# Si number density = 16.941350 Si / 1000 Ang^3
#
#
#
# Elastic Constant Matrix: (Units=GPa)
#
#
# Indices 1 2 3 4 5 6 
#
# 1 49.7946 15.0301 26.5973 0.0000 -5.3372 0.0000
# 2 15.0301 50.5334 24.8558 0.0000 -4.7442 0.0000
# 3 26.5973 24.8558 98.9687 0.0000 -8.0919 0.0000
# 4 0.0000 0.0000 0.0000 16.5638 0.0000 -9.4040
# 5 -5.3372 -4.7442 -8.0919 0.0000 24.2755 0.0000
# 6 0.0000 0.0000 0.0000 -9.4040 0.0000 9.8112
#
#
#
# Elastic Compliance Matrix: (Units=1/GPa)
#
#
# Indices 1 2 3 4 5 6 
#
# 1 0.024526 -0.004454 -0.005246 0.000000 0.002773 0.000000
# 2 -0.004454 0.023547 -0.004544 0.000000 0.002108 0.000000
# 3 -0.005246 -0.004544 0.012838 0.000000 0.002238 0.000000
# 4 0.000000 0.000000 0.000000 0.132449 0.000000 0.126952
# 5 0.002773 0.002108 0.002238 0.000000 0.042961 0.000000
# 6 0.000000 0.000000 0.000000 0.126952 0.000000 0.223608
#
#
# Mechanical properties :
#
#
# Convention : Reuss Voigt Hill
#
# Bulk Modulus (GPa) = 30.84282 36.91812 33.88047
# Shear Modulus (GPa) = 10.01549 18.98432 14.49990
#
# Velocity S-wave (km/s) = 2.43407 3.35115 2.92873
# Velocity P-wave (km/s) = 5.11320 6.06734 5.61059
#
# Compressibility (1/GPa) = 0.03242245
#
# Stress axis : x y z
#
# Youngs Moduli (GPa) = 40.77268 42.46858 77.89191
#
# Poissons Ratio (x) = 0.18916 0.40861
# Poissons Ratio (y) = 0.18161 0.35397
# Poissons Ratio (z) = 0.21389 0.19299
#
# Static dielectric constant tensor:
#      x y z
#    x 3.222140 0.000000 -0.207910 
#    y 0.000000 3.065900 0.000000 
#    z -0.207910 0.000000 3.390640 
# 
# 
# High freq. dielectric constant tensor:
#      x y z
#    x 1.616560 0.000000 -0.016600 
#    y 0.000000 1.638000 0.000000 
#    z -0.016600 0.000000 1.649490 
# 
# From -- ./inp_files/78535.got.cif
#   From: 2010.06.25/outbox.cif.g09.slc.cpg/sg10_40_cif.got.tgz:78535.got - 2010.06.27 22:07:45.
