data_PCOD8057541
_publ_section_title
;
Structure prediction by ZEFSAII (Michael W. Deem and Ramdas Pophale) SiO2 
 PCOD8057541
Probable space group: P 2/M
;
_chemical_formula_sum "Si O2"
_cell_formula_units_Z 32
_cell_length_a 13.721276
_cell_length_b 9.400751
_cell_length_c 16.711274
_cell_angle_alpha 90.000000
_cell_angle_beta 102.421508
_cell_angle_gamma 90.000000
_cell_volume 2105.133268
_symmetry_space_group_name_H-M "P 2/M"
_symmetry_group_IT_number 10
_symmetry_cell_setting 'monoclinic'
loop_
_space_group_symop_operation_xyz
x,y,z
-x,y,-z
-x,-y,-z
x,-y,z
loop_
_atom_site_type_symbol
_atom_site_label
_atom_site_fract_x
_atom_site_fract_y
_atom_site_fract_z
Si Si1 0.094087 0.839251 0.403966
Si Si2 0.881357 0.837269 0.308482
Si Si3 0.884877 0.161086 0.002750
Si Si4 0.846972 0.338060 0.849661
Si Si5 0.387070 0.667481 0.486216
Si Si6 0.072153 0.333683 0.839605
Si Si7 0.241646 0.164863 0.565771
Si Si8 0.233075 0.663055 0.327674
O O1 0.143937 0.793921 0.496486
O O2 0.136685 0.746543 0.339684
O O3 0.975389 0.819004 0.384895
O O4 0.123362 0.000000 0.388725
O O5 0.887432 0.729464 0.236220
O O6 0.784534 0.801892 0.346082
O O7 0.876945 0.000000 0.275654
O O8 0.867887 0.252797 0.079556
O O9 0.846248 0.000000 0.008589
O O10 0.823888 0.233678 0.919332
O O11 0.000000 0.162629 0.000000
O O12 0.844970 0.500000 0.881222
O O13 0.760869 0.312587 0.767263
O O14 0.954349 0.306685 0.828399
O O15 0.500000 0.722592 0.500000
O O16 0.383186 0.500000 0.501222
O O17 0.335349 0.742444 0.553012
O O18 0.332724 0.710660 0.392929
O O19 0.098545 0.500000 0.847602
O O20 0.269602 0.000000 0.560087
O O21 0.210564 0.500000 0.342571
#
# Coordination Sequence:
#
# PCOD8057541 Si02
#       8
#     4   4   4   4   4   4   4   4
#     4   9  16  26  40  57  81 111 142 174 207 243
#     4  10  18  27  40  58  84 113 143 176 207 244
#     4   9  17  27  39  55  77 108 144 177 208 242
#     4   9  16  26  39  56  80 109 141 176 209 244
#     4   9  18  32  48  64  84 110 140 177 218 255
#     4  10  18  27  39  56  81 113 146 175 207 244
#     4   9  18  30  43  61  82 109 142 175 212 251
#     4   9  16  27  42  61  84 110 141 175 212 251
#
# _framework density 15.200938000000001
#
# number of rings (size 3 to 8) (size 9 to 14) (size 15 to 20)
#    0.000    2.750    1.250    1.125    0.000    4.750 
#    0.000    0.000    0.000    3.750    0.000    0.000 
#    0.000    1.000    0.000   11.500    0.000    2.875 
#
# Total GULP energy -396627.044622 kJ/mol
# GULP energy per Si atom -12394.595144 kJ/mol
# Density = 1.516634 g / cm^3
# Si number density = 15.200938 Si / 1000 Ang^3
#
#
#
# Elastic Constant Matrix: (Units=GPa)
#
#
# Indices 1 2 3 4 5 6 
#
# 1 58.6802 30.6613 34.2579 0.0000 -4.6536 0.0000
# 2 30.6613 76.7573 52.8264 0.0000 -5.9228 0.0000
# 3 34.2579 52.8264 93.9182 0.0000 -6.1759 0.0000
# 4 0.0000 0.0000 0.0000 29.3625 0.0000 -2.9809
# 5 -4.6536 -5.9228 -6.1759 0.0000 13.1527 0.0000
# 6 0.0000 0.0000 0.0000 -2.9809 0.0000 14.2240
#
#
#
# Elastic Compliance Matrix: (Units=1/GPa)
#
#
# Indices 1 2 3 4 5 6 
#
# 1 0.023166 -0.005437 -0.005174 0.000000 0.003319 0.000000
# 2 -0.005437 0.022748 -0.010592 0.000000 0.003346 0.000000
# 3 -0.005174 -0.010592 0.018634 0.000000 0.002150 0.000000
# 4 0.000000 0.000000 0.000000 0.034797 0.000000 0.007293
# 5 0.003319 0.003346 0.002150 0.000000 0.079721 0.000000
# 6 0.000000 0.000000 0.000000 0.007293 0.000000 0.071832
#
#
# Mechanical properties :
#
#
# Convention : Reuss Voigt Hill
#
# Bulk Modulus (GPa) = 45.16206 51.64966 48.40586
# Shear Modulus (GPa) = 16.62881 18.78850 17.70866
#
# Velocity S-wave (km/s) = 3.31105 3.51951 3.41687
# Velocity P-wave (km/s) = 6.66273 7.11109 6.89056
#
# Compressibility (1/GPa) = 0.02214248
#
# Stress axis : x y z
#
# Youngs Moduli (GPa) = 43.16650 43.96068 53.66669
#
# Poissons Ratio (x) = 0.23902 0.27765
# Poissons Ratio (y) = 0.23470 0.56841
# Poissons Ratio (z) = 0.22333 0.46561
#
# Static dielectric constant tensor:
#      x y z
#    x 2.570220 0.000000 0.064670 
#    y 0.000000 2.987710 0.000000 
#    z 0.064670 0.000000 3.010070 
# 
# 
# High freq. dielectric constant tensor:
#      x y z
#    x 1.521750 0.000000 0.002620 
#    y 0.000000 1.589400 0.000000 
#    z 0.002620 0.000000 1.583760 
# 
# From -- ./inp_files/52744.got.cif
#   From: 2010.06.25/outbox.cif.g09.slc.cpg/sg10_27_cif.got.tgz:52744.got - 2010.06.27 22:07:45.
