data_PCOD8057542
_publ_section_title
;
Structure prediction by ZEFSAII (Michael W. Deem and Ramdas Pophale) SiO2 
 PCOD8057542
Probable space group: P 2/M
;
_chemical_formula_sum "Si O2"
_cell_formula_units_Z 28
_cell_length_a 14.424783
_cell_length_b 9.648586
_cell_length_c 22.057642
_cell_angle_alpha 90.000000
_cell_angle_beta 142.887026
_cell_angle_gamma 90.000000
_cell_volume 1852.375926
_symmetry_space_group_name_H-M "P 2/M"
_symmetry_group_IT_number 10
_symmetry_cell_setting 'monoclinic'
loop_
_space_group_symop_operation_xyz
x,y,z
-x,y,-z
-x,-y,-z
x,-y,z
loop_
_atom_site_type_symbol
_atom_site_label
_atom_site_fract_x
_atom_site_fract_y
_atom_site_fract_z
Si Si1 0.971659 0.343830 0.590676
Si Si2 0.525018 0.164194 0.413434
Si Si3 0.647350 0.340968 0.370610
Si Si4 0.973408 0.839487 0.269395
Si Si5 0.686040 0.658637 0.256502
Si Si6 0.634051 0.162800 0.114328
Si Si7 0.727300 0.838523 0.630355
O O1 0.966831 0.500000 0.613859
O O2 0.829926 0.315613 0.472222
O O3 0.955328 0.240630 0.637572
O O4 0.131744 0.316939 0.639743
O O5 0.548578 0.242308 0.362333
O O6 0.358674 0.214080 0.353792
O O7 0.651041 0.217048 0.528098
O O8 0.533127 0.000000 0.404812
O O9 0.606047 0.500000 0.364212
O O10 0.606234 0.306322 0.279172
O O11 0.795686 0.798988 0.165154
O O12 0.088546 0.805272 0.272835
O O13 0.984533 0.000000 0.292056
O O14 0.652756 0.500000 0.220215
O O15 0.616898 0.757759 0.168813
O O16 0.621259 0.000000 0.121400
O O17 0.500000 0.213466 0.000000
O O18 0.693649 0.000000 0.611124
#
# Coordination Sequence:
#
# PCOD8057542 Si02
#       7
#     4   4   4   4   4   4   4
#     4   9  16  26  39  57  83 113 141 168 196 232
#     4   9  16  26  40  57  81 112 145 174 197 232
#     4  10  18  27  39  59  86 114 141 170 203 235
#     4   9  15  26  44  61  81 110 139 166 202 247
#     4   9  18  30  43  59  82 113 143 166 197 248
#     4   9  18  31  46  66  87 103 128 173 218 247
#     4   8  14  25  40  58  80 110 144 172 198 235
#
# _framework density 15.115722
#
# number of rings (size 3 to 8) (size 9 to 14) (size 15 to 20)
#    0.000    3.000    1.429    1.286    0.000    2.571 
#    0.000    2.143    0.000    4.286    0.000    1.000 
#    0.000    8.000    0.000    0.000    0.000    0.000 
#
# Total GULP energy -346904.749306 kJ/mol
# GULP energy per Si atom -12389.455332 kJ/mol
# Density = 1.508132 g / cm^3
# Si number density = 15.115722 Si / 1000 Ang^3
#
#
#
# Elastic Constant Matrix: (Units=GPa)
#
#
# Indices 1 2 3 4 5 6 
#
# 1 118.6173 43.8517 52.3095 0.0000 -8.6718 0.0000
# 2 43.8517 45.0505 34.3759 0.0000 -6.2623 0.0000
# 3 52.3095 34.3759 76.1237 0.0000 -2.9972 0.0000
# 4 0.0000 0.0000 0.0000 19.2466 0.0000 17.4544
# 5 -8.6718 -6.2623 -2.9972 0.0000 15.3708 0.0000
# 6 0.0000 0.0000 0.0000 17.4544 0.0000 380.2012
#
#
#
# Elastic Compliance Matrix: (Units=1/GPa)
#
#
# Indices 1 2 3 4 5 6 
#
# 1 0.014688 -0.009514 -0.005667 0.000000 0.003306 0.000000
# 2 -0.009514 0.041944 -0.012034 0.000000 0.009375 0.000000
# 3 -0.005667 -0.012034 0.022318 0.000000 -0.003748 0.000000
# 4 0.000000 0.000000 0.000000 0.054214 0.000000 -0.002489
# 5 0.003306 0.009375 -0.003748 0.000000 0.070012 0.000000
# 6 0.000000 0.000000 0.000000 -0.002489 0.000000 0.002744
#
#
# Mechanical properties :
#
#
# Convention : Reuss Voigt Hill
#
# Bulk Modulus (GPa) = 40.78368 55.65175 48.21771
# Shear Modulus (GPa) = 18.62030 90.24734 54.43382
#
# Velocity S-wave (km/s) = 3.51358 7.73524 6.00746
# Velocity P-wave (km/s) = 6.59544 10.80165 8.94917
#
# Compressibility (1/GPa) = 0.02451961
#
# Stress axis : x y z
#
# Youngs Moduli (GPa) = 68.08082 23.84133 44.80781
#
# Poissons Ratio (x) = 0.22682 0.25392
# Poissons Ratio (y) = 0.64771 0.53923
# Poissons Ratio (z) = 0.38581 0.28691
#
# Static dielectric constant tensor:
#      x y z
#    x 3.185940 0.000000 0.055100 
#    y 0.000000 2.809850 0.000000 
#    z 0.055100 0.000000 2.607890 
# 
# 
# High freq. dielectric constant tensor:
#      x y z
#    x 1.583830 0.000000 0.002550 
#    y 0.000000 1.569290 0.000000 
#    z 0.002550 0.000000 1.533400 
# 
# From -- ./inp_files/45998.got.cif
#   From: 2010.06.25/outbox.cif.g09.slc.cpg/sg10_23_cif.got.tgz:45998.got - 2010.06.27 22:07:45.
