data_PCOD8057558
_publ_section_title
;
Structure prediction by ZEFSAII (Michael W. Deem and Ramdas Pophale) SiO2 
 PCOD8057558
Probable space group: P 2/M
;
_chemical_formula_sum "Si O2"
_cell_formula_units_Z 32
_cell_length_a 19.227316
_cell_length_b 9.030430
_cell_length_c 28.854750
_cell_angle_alpha 90.000000
_cell_angle_beta 24.203868
_cell_angle_gamma 90.000000
_cell_volume 2054.054509
_symmetry_space_group_name_H-M "P 2/M"
_symmetry_group_IT_number 10
_symmetry_cell_setting 'monoclinic'
loop_
_space_group_symop_operation_xyz
x,y,z
-x,y,-z
-x,-y,-z
x,-y,z
loop_
_atom_site_type_symbol
_atom_site_label
_atom_site_fract_x
_atom_site_fract_y
_atom_site_fract_z
Si Si1 0.899356 0.326665 0.419958
Si Si2 0.611580 0.829673 0.824061
Si Si3 0.101823 0.325463 0.729610
Si Si4 0.075690 0.674861 0.406030
Si Si5 0.686861 0.825148 0.479634
Si Si6 0.400596 0.337040 0.608310
Si Si7 0.204418 0.832784 0.195345
Si Si8 0.757213 0.169944 0.932754
O O1 0.862114 0.500000 0.439935
O O2 0.948387 0.275362 0.442212
O O3 0.734422 0.238490 0.501632
O O4 0.054153 0.285342 0.292080
O O5 0.653021 0.801774 0.852904
O O6 0.735203 0.737085 0.715812
O O7 0.637415 0.000000 0.795171
O O8 0.415194 0.782714 0.935650
O O9 0.108777 0.500000 0.714352
O O10 0.180215 0.239013 0.638384
O O11 0.208765 0.288917 0.711561
O O12 0.910639 0.273780 0.855852
O O13 0.093143 0.500000 0.396361
O O14 0.000000 0.736671 0.500000
O O15 0.492867 0.778050 0.586468
O O16 0.699894 0.000000 0.471395
O O17 0.500000 0.343830 0.500000
O O18 0.402602 0.500000 0.630451
O O19 0.283914 0.810650 0.096601
O O20 0.130969 0.000000 0.245624
O O21 0.804517 0.000000 0.915105
#
# Coordination Sequence:
#
# PCOD8057558 Si02
#       8
#     4   4   4   4   4   4   4   4
#     4  10  18  28  44  64  86 113 145 181 219 260
#     4   9  18  30  44  64  87 113 146 179 217 259
#     4  10  19  29  41  58  84 118 152 183 215 250
#     4   9  19  35  51  66  86 112 143 182 226 265
#     4  11  19  27  41  61  85 113 147 184 217 254
#     4   8  16  29  41  55  79 113 149 183 216 249
#     4   9  16  27  41  58  84 116 146 177 212 249
#     4  10  18  27  41  61  88 119 148 180 212 250
#
# _framework density 15.578944
#
# number of rings (size 3 to 8) (size 9 to 14) (size 15 to 20)
#    0.000    2.500    1.250    3.000    0.000    5.500 
#    0.000    0.000    0.000    3.750    0.000    0.000 
#    0.000    1.000    0.000   11.250    0.000    5.625 
#
# Total GULP energy -396640.832262 kJ/mol
# GULP energy per Si atom -12395.026008 kJ/mol
# Density = 1.554349 g / cm^3
# Si number density = 15.578944 Si / 1000 Ang^3
#
#
#
# Elastic Constant Matrix: (Units=GPa)
#
#
# Indices 1 2 3 4 5 6 
#
# 1 77.9683 43.9818 52.1447 0.0000 -16.0419 0.0000
# 2 43.9818 75.2886 34.9534 0.0000 -10.0865 0.0000
# 3 52.1447 34.9534 81.5409 0.0000 -12.0251 0.0000
# 4 0.0000 0.0000 0.0000 20.9235 0.0000 -5.8671
# 5 -16.0419 -10.0865 -12.0251 0.0000 23.6295 0.0000
# 6 0.0000 0.0000 0.0000 -5.8671 0.0000 19.6319
#
#
#
# Elastic Compliance Matrix: (Units=1/GPa)
#
#
# Indices 1 2 3 4 5 6 
#
# 1 0.028699 -0.009573 -0.012950 0.000000 0.008807 0.000000
# 2 -0.009573 0.020087 -0.002360 0.000000 0.000874 0.000000
# 3 -0.012950 -0.002360 0.021744 0.000000 0.001266 0.000000
# 4 0.000000 0.000000 0.000000 0.052165 0.000000 0.015590
# 5 0.008807 0.000874 0.001266 0.000000 0.049317 0.000000
# 6 0.000000 0.000000 0.000000 0.015590 0.000000 0.055597
#
#
# Mechanical properties :
#
#
# Convention : Reuss Voigt Hill
#
# Bulk Modulus (GPa) = 48.16142 55.21750 51.68946
# Shear Modulus (GPa) = 17.58734 19.75151 18.66943
#
# Velocity S-wave (km/s) = 3.36358 3.56453 3.46551
# Velocity P-wave (km/s) = 6.78723 7.24305 7.01884
#
# Compressibility (1/GPa) = 0.02076351
#
# Stress axis : x y z
#
# Youngs Moduli (GPa) = 34.84446 49.78271 45.99030
#
# Poissons Ratio (x) = 0.47657 0.59559
# Poissons Ratio (y) = 0.33357 0.10853
# Poissons Ratio (z) = 0.45125 0.11748
#
# Static dielectric constant tensor:
#      x y z
#    x 3.134670 0.000000 -0.337870 
#    y 0.000000 2.969720 0.000000 
#    z -0.337870 0.000000 2.806140 
# 
# 
# High freq. dielectric constant tensor:
#      x y z
#    x 1.580860 0.000000 -0.034040 
#    y 0.000000 1.601430 0.000000 
#    z -0.034040 0.000000 1.558850 
# 
# From -- ./inp_files/72030.got.cif
#   From: 2010.06.25/outbox.cif.g09.slc.cpg/sg10_37_cif.got.tgz:72030.got - 2010.06.27 22:07:45.
