data_PCOD8057490
_publ_section_title
;
Structure prediction by ZEFSAII (Michael W. Deem and Ramdas Pophale) SiO2 
 PCOD8057490
Probable space group: P 2/M
;
_chemical_formula_sum "Si O2"
_cell_formula_units_Z 32
_cell_length_a 30.767845
_cell_length_b 9.012976
_cell_length_c 20.178058
_cell_angle_alpha 90.000000
_cell_angle_beta 21.264298
_cell_angle_gamma 90.000000
_cell_volume 2029.350294
_symmetry_space_group_name_H-M "P 2/M"
_symmetry_group_IT_number 10
_symmetry_cell_setting 'monoclinic'
loop_
_space_group_symop_operation_xyz
x,y,z
-x,y,-z
-x,-y,-z
x,-y,z
loop_
_atom_site_type_symbol
_atom_site_label
_atom_site_fract_x
_atom_site_fract_y
_atom_site_fract_z
Si Si1 0.956092 0.324928 0.716807
Si Si2 0.889970 0.333362 0.068089
Si Si3 0.218946 0.829791 0.509444
Si Si4 0.832231 0.666905 0.292166
Si Si5 0.941715 0.169752 0.869159
Si Si6 0.197259 0.175473 0.325686
Si Si7 0.640695 0.328408 0.803551
Si Si8 0.861693 0.336378 0.715657
O O1 0.981901 0.500000 0.683584
O O2 0.901601 0.266138 0.862870
O O3 0.858661 0.288496 0.797401
O O4 0.080576 0.242407 0.526285
O O5 0.850538 0.500000 0.104943
O O6 0.816542 0.279816 0.237871
O O7 0.865392 0.225584 0.040978
O O8 0.028993 0.331494 0.887461
O O9 0.237601 0.776175 0.558837
O O10 0.302176 0.730599 0.345209
O O11 0.082520 0.808190 0.680819
O O12 0.258938 0.000000 0.447348
O O13 0.781769 0.500000 0.372108
O O14 0.908358 0.000000 0.903595
O O15 0.312987 0.236324 0.199178
O O16 0.207053 0.221208 0.234193
O O17 0.191695 0.000000 0.339699
O O18 0.675734 0.500000 0.762483
O O19 0.500000 0.304443 0.000000
O O20 0.804515 0.500000 0.787189
O O21 0.000000 0.342313 0.500000
#
# Coordination Sequence:
#
# PCOD8057490 Si02
#       8
#     4   4   4   4   4   4   4   4
#     4  10  18  28  43  60  82 113 144 173 203 244
#     4   8  14  24  37  54  76 106 140 170 201 238
#     4  10  19  29  42  60  80 105 135 174 220 254
#     4   8  14  25  40  55  74 103 139 172 201 242
#     4  10  18  25  37  59  85 111 139 173 212 247
#     4  11  20  30  45  63  82 105 133 173 220 256
#     4  11  23  36  49  62  78 107 145 182 218 255
#     4   8  16  29  43  60  80 106 139 170 203 245
#
# _framework density 15.768594
#
# number of rings (size 3 to 8) (size 9 to 14) (size 15 to 20)
#    0.000    2.500    1.250    4.125    0.000    5.250 
#    0.000    2.500    0.000    0.000    0.000    0.000 
#    0.000    0.000    0.000    1.125    0.000   21.750 
#
# Total GULP energy -396650.322333 kJ/mol
# GULP energy per Si atom -12395.322573 kJ/mol
# Density = 1.573270 g / cm^3
# Si number density = 15.768594 Si / 1000 Ang^3
#
#
#
# Elastic Constant Matrix: (Units=GPa)
#
#
# Indices 1 2 3 4 5 6 
#
# 1 134.2806 70.7936 31.5473 0.0000 21.3062 0.0000
# 2 70.7936 115.5745 26.7357 0.0000 6.3884 0.0000
# 3 31.5473 26.7357 25.2140 0.0000 4.1965 0.0000
# 4 0.0000 0.0000 0.0000 11.0744 0.0000 4.4758
# 5 21.3062 6.3884 4.1965 0.0000 14.7870 0.0000
# 6 0.0000 0.0000 0.0000 4.4758 0.0000 22.6986
#
#
#
# Elastic Compliance Matrix: (Units=1/GPa)
#
#
# Indices 1 2 3 4 5 6 
#
# 1 0.016047 -0.006483 -0.010308 0.000000 -0.017395 0.000000
# 2 -0.006483 0.014119 -0.007766 0.000000 0.005446 0.000000
# 3 -0.010308 -0.007766 0.060625 0.000000 0.001002 0.000000
# 4 0.000000 0.000000 0.000000 0.098118 0.000000 -0.019347
# 5 -0.017395 0.005446 0.001002 0.000000 0.090054 0.000000
# 6 0.000000 0.000000 0.000000 -0.019347 0.000000 0.047870
#
#
# Mechanical properties :
#
#
# Convention : Reuss Voigt Hill
#
# Bulk Modulus (GPa) = 23.99387 59.24692 41.62039
# Shear Modulus (GPa) = 12.82579 19.44484 16.13531
#
# Velocity S-wave (km/s) = 2.85507 3.51542 3.20231
# Velocity P-wave (km/s) = 5.11056 7.35743 6.33442
#
# Compressibility (1/GPa) = 0.04167732
#
# Stress axis : x y z
#
# Youngs Moduli (GPa) = 62.31738 70.82580 16.49481
#
# Poissons Ratio (x) = 0.45919 0.17002
# Poissons Ratio (y) = 0.40402 0.12810
# Poissons Ratio (z) = 0.64235 0.55002
#
# Static dielectric constant tensor:
#      x y z
#    x 3.449840 0.000000 0.287550 
#    y 0.000000 3.110810 0.000000 
#    z 0.287550 0.000000 2.480310 
# 
# 
# High freq. dielectric constant tensor:
#      x y z
#    x 1.616170 0.000000 0.028780 
#    y 0.000000 1.616350 0.000000 
#    z 0.028780 0.000000 1.527270 
# 
# From -- ./inp_files/87197.got.cif
#   From: 2010.06.25/outbox.cif.g09.slc.cpg/sg10_44_cif.got.tgz:87197.got - 2010.06.27 22:07:45.
