data_PCOD8057376
_publ_section_title
;
Structure prediction by ZEFSAII (Michael W. Deem and Ramdas Pophale) SiO2 
 PCOD8057376
Probable space group: P 2/M
;
_chemical_formula_sum "Si O2"
_cell_formula_units_Z 28
_cell_length_a 12.656896
_cell_length_b 8.469366
_cell_length_c 22.108462
_cell_angle_alpha 90.000000
_cell_angle_beta 41.795153
_cell_angle_gamma 90.000000
_cell_volume 1579.489927
_symmetry_space_group_name_H-M "P 2/M"
_symmetry_group_IT_number 10
_symmetry_cell_setting 'monoclinic'
loop_
_space_group_symop_operation_xyz
x,y,z
-x,y,-z
-x,-y,-z
x,-y,z
loop_
_atom_site_type_symbol
_atom_site_label
_atom_site_fract_x
_atom_site_fract_y
_atom_site_fract_z
Si Si1 0.580028 0.812386 0.904884
Si Si2 0.293083 0.815319 0.795757
Si Si3 0.252151 0.811858 0.593478
Si Si4 0.323196 0.184467 0.919985
Si Si5 0.074407 0.814509 0.223995
Si Si6 0.522221 0.813068 0.396799
Si Si7 0.029538 0.317888 0.112254
O O1 0.477989 0.757654 0.890711
O O2 0.758644 0.741796 0.824084
O O3 0.587934 0.000000 0.905373
O O4 0.500000 0.744809 0.000000
O O5 0.356688 0.779423 0.835543
O O6 0.430490 0.756446 0.690670
O O7 0.132698 0.721172 0.852593
O O8 0.256609 0.000000 0.802040
O O9 0.347192 0.751964 0.492861
O O10 0.345584 0.750193 0.612820
O O11 0.072582 0.743539 0.673901
O O12 0.245817 0.000000 0.597354
O O13 0.290121 0.000000 0.945725
O O14 0.170706 0.280826 0.005877
O O15 0.048761 0.784136 0.164236
O O16 0.079469 0.000000 0.231201
O O17 0.518875 0.000000 0.401208
O O18 0.033108 0.500000 0.128871
#
# Coordination Sequence:
#
# PCOD8057376 Si02
#       7
#     4   4   4   4   4   4   4
#     4   9  16  28  49  71  90 116 157 203 229 256
#     4  10  19  32  51  69  92 125 159 189 224 278
#     4   8  13  22  43  71  94 115 148 189 228 271
#     4  10  20  34  50  68  90 124 164 193 223 272
#     4  10  17  30  52  71  93 125 159 191 227 274
#     4   8  13  23  42  71  95 114 147 190 228 268
#     4  12  23  32  45  69 100 126 151 191 238 279
#
# _framework density 17.727242
#
# number of rings (size 3 to 8) (size 9 to 14) (size 15 to 20)
#    0.000    2.429    2.857    2.571    0.000    2.286 
#    0.000    1.429    0.000    2.571    0.000    6.000 
#    0.000    0.000    0.000    3.857    0.000    4.286 
#
# Total GULP energy -347009.381700 kJ/mol
# GULP energy per Si atom -12393.192204 kJ/mol
# Density = 1.768689 g / cm^3
# Si number density = 17.727242 Si / 1000 Ang^3
#
#
#
# Elastic Constant Matrix: (Units=GPa)
#
#
# Indices 1 2 3 4 5 6 
#
# 1 121.1530 7.9065 86.0025 0.0000 -6.7320 0.0000
# 2 7.9065 12.1893 10.5420 0.0000 -4.4806 0.0000
# 3 86.0025 10.5420 179.5327 0.0000 -19.0669 0.0000
# 4 0.0000 0.0000 0.0000 1.3914 0.0000 2.0309
# 5 -6.7320 -4.4806 -19.0669 0.0000 27.2697 0.0000
# 6 0.0000 0.0000 0.0000 2.0309 0.0000 2.9430
#
#
#
# Elastic Compliance Matrix: (Units=1/GPa)
#
#
# Indices 1 2 3 4 5 6 
#
# 1 0.012687 -0.003623 -0.006044 0.000000 -0.001689 0.000000
# 2 -0.003623 0.090940 -0.002282 0.000000 0.012452 0.000000
# 3 -0.006044 -0.002282 0.009075 0.000000 0.004478 0.000000
# 4 0.000000 0.000000 0.000000-99.598812 0.000000 68.729645
# 5 -0.001689 0.012452 0.004478 0.000000 0.041431 0.000000
# 6 0.000000 0.000000 0.000000 68.729645 0.000000-47.088127
#
#
# Mechanical properties :
#
#
# Convention : Reuss Voigt Hill
#
# Bulk Modulus (GPa) = 11.26077 57.97522 34.61800
# Shear Modulus (GPa) = -0.03413 20.21575 10.09081
#
# Velocity S-wave (km/s) = -0.13891 3.38061 2.38843
# Velocity P-wave (km/s) = 2.51800 6.92915 5.21313
#
# Compressibility (1/GPa) = 0.08880387
#
# Stress axis : x y z
#
# Youngs Moduli (GPa) = 78.81930 10.99625 110.19237
#
# Poissons Ratio (x) = 0.03984 0.66604
# Poissons Ratio (y) = 0.28557 0.25145
# Poissons Ratio (z) = 0.47641 0.02509
#
# Static dielectric constant tensor:
#      x y z
#    x 3.329980 0.000000 -0.240970 
#    y 0.000000 2.785310 0.000000 
#    z -0.240970 0.000000 3.843790 
# 
# 
# High freq. dielectric constant tensor:
#      x y z
#    x 1.664370 0.000000 -0.010010 
#    y 0.000000 1.637030 0.000000 
#    z -0.010010 0.000000 1.696310 
# 
# From -- ./inp_files/66402.got.cif
#   From: 2010.06.25/outbox.cif.g09.slc.cpg/sg10_34_cif.got.tgz:66402.got - 2010.06.27 22:07:45.
