data_PCOD8057786
_publ_section_title
;
Structure prediction by ZEFSAII (Michael W. Deem and Ramdas Pophale) SiO2 
 PCOD8057786
Probable space group: P 2/M
;
_chemical_formula_sum "Si O2"
_cell_formula_units_Z 28
_cell_length_a 24.537359
_cell_length_b 15.234534
_cell_length_c 5.248198
_cell_angle_alpha 90.000000
_cell_angle_beta 103.191977
_cell_angle_gamma 90.000000
_cell_volume 1910.084658
_symmetry_space_group_name_H-M "P 2/M"
_symmetry_group_IT_number 10
_symmetry_cell_setting 'monoclinic'
loop_
_space_group_symop_operation_xyz
x,y,z
-x,y,-z
-x,-y,-z
x,-y,z
loop_
_atom_site_type_symbol
_atom_site_label
_atom_site_fract_x
_atom_site_fract_y
_atom_site_fract_z
Si Si1 0.465001 0.600916 0.208238
Si Si2 0.841798 0.104787 0.079920
Si Si3 0.219803 0.103561 0.485846
Si Si4 0.621217 0.748585 0.814654
Si Si5 0.660207 0.183114 0.348490
Si Si6 0.436938 0.900382 0.016198
Si Si7 0.968568 0.104605 0.216467
O O1 0.500000 0.615508 0.500000
O O2 0.447466 0.500000 0.152710
O O3 0.408686 0.656064 0.174812
O O4 0.500000 0.633838 0.000000
O O5 0.810161 0.142171 0.294933
O O6 0.905218 0.140065 0.148940
O O7 0.840905 0.000000 0.079018
O O8 0.810724 0.142108 0.796577
O O9 0.284748 0.126727 0.548740
O O10 0.213908 0.000000 0.480188
O O11 0.652023 0.750727 0.576521
O O12 0.665661 0.759722 0.094277
O O13 0.577200 0.830630 0.775098
O O14 0.606559 0.117779 0.263386
O O15 0.429351 0.000000 0.107793
O O16 0.500000 0.883016 0.000000
O O17 0.000000 0.140851 0.500000
O O18 0.969036 0.000000 0.216971
O O19 0.000000 0.140841 0.000000
#
# Coordination Sequence:
#
# PCOD8057786 Si02
#       7
#     4   4   4   4   4   4   4
#     4  10  20  34  54  74  89 106 129 162 214 274
#     4   9  17  26  39  55  72 101 135 174 216 252
#     4  10  18  29  41  54  76 104 144 179 206 246
#     4  10  21  32  49  64  86 107 134 170 214 258
#     4  10  21  32  45  61  81 111 137 175 214 247
#     4   9  20  33  45  62  82 110 141 171 212 262
#     4   9  15  23  35  52  74  95 122 164 219 268
#
# _framework density 14.659037
#
# number of rings (size 3 to 8) (size 9 to 14) (size 15 to 20)
#    0.857    1.571    0.000    3.429    2.000    4.571 
#    0.000    1.429    0.000    0.000    0.000    0.000 
#    0.000    0.000    0.000    0.000    0.000    0.000 
#
# Total GULP energy -347028.812667 kJ/mol
# GULP energy per Si atom -12393.886167 kJ/mol
# Density = 1.462567 g / cm^3
# Si number density = 14.659037 Si / 1000 Ang^3
#
#
#
# Elastic Constant Matrix: (Units=GPa)
#
#
# Indices 1 2 3 4 5 6 
#
# 1 98.5567 9.0977 55.0747 0.0000 4.3271 0.0000
# 2 9.0977 28.1661 13.0673 0.0000 -1.8049 0.0000
# 3 55.0747 13.0673 121.7807 0.0000 -3.4228 0.0000
# 4 0.0000 0.0000 0.0000 -22.3221 0.0000 5.3032
# 5 4.3271 -1.8049 -3.4228 0.0000 32.0008 0.0000
# 6 0.0000 0.0000 0.0000 5.3032 0.0000 3.0861
#
#
#
# Elastic Compliance Matrix: (Units=1/GPa)
#
#
# Indices 1 2 3 4 5 6 
#
# 1 0.013866 -0.001793 -0.006152 0.000000 -0.002634 0.000000
# 2 -0.001793 0.037686 -0.003176 0.000000 0.002028 0.000000
# 3 -0.006152 -0.003176 0.011387 0.000000 0.001871 0.000000
# 4 0.000000 0.000000 0.000000 -0.031811 0.000000 0.054666
# 5 -0.002634 0.002028 0.001871 0.000000 0.031920 0.000000
# 6 0.000000 0.000000 0.000000 0.054666 0.000000 0.230097
#
#
# Mechanical properties :
#
#
# Convention : Reuss Voigt Hill
#
# Bulk Modulus (GPa) = 24.57217 44.77587 34.67402
# Shear Modulus (GPa) = 15.19975 13.97056 14.58515
#
# Velocity S-wave (km/s) = 3.22356 3.09047 3.15772
# Velocity P-wave (km/s) = 5.53661 6.58376 6.08276
#
# Compressibility (1/GPa) = 0.04069645
#
# Stress axis : x y z
#
# Youngs Moduli (GPa) = 72.12106 26.53492 87.81816
#
# Poissons Ratio (x) = 0.04758 0.54028
# Poissons Ratio (y) = 0.12932 0.27890
# Poissons Ratio (z) = 0.44371 0.08427
#
# Static dielectric constant tensor:
#      x y z
#    x 2.835680 0.000000 -0.086620 
#    y 0.000000 2.378610 0.000000 
#    z -0.086620 0.000000 3.147450 
# 
# 
# High freq. dielectric constant tensor:
#      x y z
#    x 1.554660 0.000000 -0.006300 
#    y 0.000000 1.493340 0.000000 
#    z -0.006300 0.000000 1.579170 
# 
# From -- ./inp_files/13274.got.cif
#   From: 2010.06.25/outbox.cif.g09.slc.cpg/sg10_7_cif.got.tgz:13274.got - 2010.06.27 22:07:45.
