data_PCOD8057191
_publ_section_title
;
Structure prediction by ZEFSAII (Michael W. Deem and Ramdas Pophale) SiO2 
 PCOD8057191
Probable space group: P 2/M
;
_chemical_formula_sum "Si O2"
_cell_formula_units_Z 32
_cell_length_a 15.780150
_cell_length_b 8.933798
_cell_length_c 14.419892
_cell_angle_alpha 90.000000
_cell_angle_beta 89.430734
_cell_angle_gamma 90.000000
_cell_volume 2032.768055
_symmetry_space_group_name_H-M "P 2/M"
_symmetry_group_IT_number 10
_symmetry_cell_setting 'monoclinic'
loop_
_space_group_symop_operation_xyz
x,y,z
-x,y,-z
-x,-y,-z
x,-y,z
loop_
_atom_site_type_symbol
_atom_site_label
_atom_site_fract_x
_atom_site_fract_y
_atom_site_fract_z
Si Si1 0.160285 0.177873 0.788347
Si Si2 0.837706 0.676675 0.784775
Si Si3 0.995006 0.675069 0.107620
Si Si4 0.685529 0.179007 0.894240
Si Si5 0.320934 0.178922 0.895819
Si Si6 0.907264 0.823255 0.401536
Si Si7 0.901143 0.822620 0.605970
Si Si8 0.502183 0.163536 0.890149
O O1 0.083228 0.236857 0.849537
O O2 0.248872 0.240549 0.827396
O O3 0.152318 0.233929 0.681676
O O4 0.157998 0.000000 0.794381
O O5 0.828724 0.500000 0.784633
O O6 0.753999 0.746490 0.828474
O O7 0.843539 0.736152 0.679927
O O8 0.918971 0.728891 0.843378
O O9 0.979733 0.500000 0.123010
O O10 0.000000 0.717264 0.000000
O O11 0.592015 0.241013 0.862831
O O12 0.689367 0.000000 0.885623
O O13 0.702885 0.230111 0.999895
O O14 0.413451 0.245963 0.862847
O O15 0.327210 0.000000 0.893287
O O16 0.871246 0.773874 0.502384
O O17 0.002478 0.764769 0.382949
O O18 0.913777 0.000000 0.401881
O O19 0.892422 0.000000 0.621917
O O20 0.502509 0.000000 0.843040
O O21 0.500000 0.143869 0.000000
#
# Coordination Sequence:
#
# PCOD8057191 Si02
#       8
#     4   4   4   4   4   4   4   4
#     4  10  17  27  45  67  85 105 139 177 208 240
#     4  11  21  30  41  61  86 112 144 180 210 236
#     4  10  21  33  40  52  84 124 148 164 198 245
#     4   9  16  27  44  63  85 116 145 167 202 252
#     4   8  14  24  42  68  90 107 136 177 209 239
#     4   8  15  27  45  65  82 104 135 176 217 250
#     4   9  16  30  47  60  80 109 140 172 212 259
#     4   7  11  22  40  62  86 109 135 169 208 247
#
# _framework density 15.742081000000001
#
# number of rings (size 3 to 8) (size 9 to 14) (size 15 to 20)
#    0.000    3.000    1.250    3.375    0.000    0.750 
#    0.000    1.875    0.000    4.125    0.000    0.875 
#    0.000    7.000    0.000    0.000    0.000    0.000 
#
# Total GULP energy -396456.181057 kJ/mol
# GULP energy per Si atom -12389.255658 kJ/mol
# Density = 1.570625 g / cm^3
# Si number density = 15.742081 Si / 1000 Ang^3
#
#
#
# Elastic Constant Matrix: (Units=GPa)
#
#
# Indices 1 2 3 4 5 6 
#
# 1 148.5921 25.8860 77.2235 0.0000 -1.8105 0.0000
# 2 25.8860 20.9290 21.9035 0.0000 -0.7550 0.0000
# 3 77.2235 21.9035 117.5016 0.0000 5.2159 0.0000
# 4 0.0000 0.0000 0.0000 3.8310 0.0000 8.4565
# 5 -1.8105 -0.7550 5.2159 0.0000 12.2199 0.0000
# 6 0.0000 0.0000 0.0000 8.4565 0.0000 2.4661
#
#
#
# Elastic Compliance Matrix: (Units=1/GPa)
#
#
# Indices 1 2 3 4 5 6 
#
# 1 0.011286 -0.007300 -0.006229 0.000000 0.003880 0.000000
# 2 -0.007300 0.064974 -0.007588 0.000000 0.006172 0.000000
# 3 -0.006229 -0.007588 0.014352 0.000000 -0.007518 0.000000
# 4 0.000000 0.000000 0.000000 -0.039734 0.000000 0.136253
# 5 0.003880 0.006172 -0.007518 0.000000 0.085999 0.000000
# 6 0.000000 0.000000 0.000000 0.136253 0.000000 -0.061726
#
#
# Mechanical properties :
#
#
# Convention : Reuss Voigt Hill
#
# Bulk Modulus (GPa) = 20.67038 59.67207 40.17123
# Shear Modulus (GPa) = 37.45032 14.50403 25.97718
#
# Velocity S-wave (km/s) = 4.88278 3.03867 4.06664
# Velocity P-wave (km/s) = 6.70432 7.09223 6.90100
#
# Compressibility (1/GPa) = 0.04837840
#
# Stress axis : x y z
#
# Youngs Moduli (GPa) = 88.60605 15.39078 69.67574
#
# Poissons Ratio (x) = 0.11236 0.43398
# Poissons Ratio (y) = 0.64686 0.52869
# Poissons Ratio (z) = 0.55189 0.11678
#
# Static dielectric constant tensor:
#      x y z
#    x 3.369930 0.000000 0.202780 
#    y 0.000000 2.626350 0.000000 
#    z 0.202780 0.000000 3.119170 
# 
# 
# High freq. dielectric constant tensor:
#      x y z
#    x 1.601890 0.000000 0.001290 
#    y 0.000000 1.567530 0.000000 
#    z 0.001290 0.000000 1.590050 
# 
# From -- ./inp_files/66085.got.cif
#   From: 2010.06.25/outbox.cif.g09.slc.cpg/sg10_34_cif.got.tgz:66085.got - 2010.06.27 22:07:45.
