data_PCOD8057047
_publ_section_title
;
Structure prediction by ZEFSAII (Michael W. Deem and Ramdas Pophale) SiO2 
 PCOD8057047
Probable space group: P 2/M
;
_chemical_formula_sum "Si O2"
_cell_formula_units_Z 32
_cell_length_a 13.654893
_cell_length_b 14.494316
_cell_length_c 11.271185
_cell_angle_alpha 90.000000
_cell_angle_beta 59.562193
_cell_angle_gamma 90.000000
_cell_volume 1923.327909
_symmetry_space_group_name_H-M "P 2/M"
_symmetry_group_IT_number 10
_symmetry_cell_setting 'monoclinic'
loop_
_space_group_symop_operation_xyz
x,y,z
-x,y,-z
-x,-y,-z
x,-y,z
loop_
_atom_site_type_symbol
_atom_site_label
_atom_site_fract_x
_atom_site_fract_y
_atom_site_fract_z
Si Si1 0.128886 0.891660 0.448680
Si Si2 0.039171 0.601116 0.787082
Si Si3 0.337287 0.108201 0.167266
Si Si4 0.068247 0.101745 0.077361
Si Si5 0.261156 0.788975 0.838208
Si Si6 0.434978 0.109028 0.860639
Si Si7 0.124446 0.790101 0.682592
Si Si8 0.177722 0.600854 0.942795
O O1 0.211391 0.863491 0.288733
O O2 0.175685 0.835310 0.533146
O O3 0.000000 0.862137 0.500000
O O4 0.137828 0.000000 0.471288
O O5 0.059897 0.500000 0.714744
O O6 0.091074 0.683392 0.675903
O O7 0.099270 0.605696 0.876292
O O8 0.904518 0.615878 0.892980
O O9 0.434759 0.141326 0.200146
O O10 0.352138 0.000000 0.151965
O O11 0.362096 0.144078 0.019780
O O12 0.991245 0.155252 0.218469
O O13 0.100510 0.000000 0.109637
O O14 0.179998 0.159224 0.981235
O O15 0.000000 0.087794 0.000000
O O16 0.384515 0.836441 0.777204
O O17 0.217065 0.799094 0.730603
O O18 0.270114 0.682063 0.874234
O O19 0.423626 0.000000 0.844339
O O20 0.237830 0.500000 0.914762
#
# Coordination Sequence:
#
# PCOD8057047 Si02
#       8
#     4   4   4   4   4   4   4   4
#     4  10  21  33  46  63  90 127 156 177 212 268
#     4   8  13  23  39  57  83 120 152 181 224 268
#     4   8  17  34  48  63  86 118 160 191 210 248
#     4   9  16  23  32  54  91 121 139 169 213 258
#     4  10  17  25  42  68  90 115 149 183 230 269
#     4   9  17  30  50  68  87 115 151 193 222 251
#     4  10  18  28  40  63  94 120 146 182 225 270
#     4   8  13  22  36  58  89 118 146 184 224 268
#
# _framework density 16.637829
#
# number of rings (size 3 to 8) (size 9 to 14) (size 15 to 20)
#    0.000    3.000    1.250    2.250    1.750    1.500 
#    0.000    0.625    0.000    2.625    0.000    3.500 
#    0.000    4.000    0.000    0.000    0.000    0.000 
#
# Total GULP energy -396472.781605 kJ/mol
# GULP energy per Si atom -12389.774425 kJ/mol
# Density = 1.659996 g / cm^3
# Si number density = 16.637829 Si / 1000 Ang^3
#
#
#
# Elastic Constant Matrix: (Units=GPa)
#
#
# Indices 1 2 3 4 5 6 
#
# 1 72.7153 26.1656 14.3144 0.0000 -4.4438 0.0000
# 2 26.1656 94.9033 15.2520 0.0000 2.0823 0.0000
# 3 14.3144 15.2520 43.9490 0.0000 -6.2851 0.0000
# 4 0.0000 0.0000 0.0000 13.4436 0.0000 -0.2965
# 5 -4.4438 2.0823 -6.2851 0.0000 16.2052 0.0000
# 6 0.0000 0.0000 0.0000 -0.2965 0.0000 10.6235
#
#
#
# Elastic Compliance Matrix: (Units=1/GPa)
#
#
# Indices 1 2 3 4 5 6 
#
# 1 0.016059 -0.003971 -0.003335 0.000000 0.003621 0.000000
# 2 -0.003971 0.012291 -0.003551 0.000000 -0.004045 0.000000
# 3 -0.003335 -0.003551 0.026475 0.000000 0.009810 0.000000
# 4 0.000000 0.000000 0.000000 0.074431 0.000000 0.002077
# 5 0.003621 -0.004045 0.009810 0.000000 0.067026 0.000000
# 6 0.000000 0.000000 0.000000 0.002077 0.000000 0.094189
#
#
# Mechanical properties :
#
#
# Convention : Reuss Voigt Hill
#
# Bulk Modulus (GPa) = 30.20016 35.89240 33.04628
# Shear Modulus (GPa) = 15.46927 18.44348 16.95638
#
# Velocity S-wave (km/s) = 3.05251 3.33307 3.19587
# Velocity P-wave (km/s) = 5.53305 6.03590 5.78994
#
# Compressibility (1/GPa) = 0.03311241
#
# Stress axis : x y z
#
# Youngs Moduli (GPa) = 62.27079 81.35838 37.77167
#
# Poissons Ratio (x) = 0.32308 0.12595
# Poissons Ratio (y) = 0.24728 0.13411
# Poissons Ratio (z) = 0.20764 0.28888
#
# Static dielectric constant tensor:
#      x y z
#    x 2.970910 0.000000 -0.068370 
#    y 0.000000 3.362300 0.000000 
#    z -0.068370 0.000000 2.894380 
# 
# 
# High freq. dielectric constant tensor:
#      x y z
#    x 1.617800 0.000000 0.002900 
#    y 0.000000 1.629470 0.000000 
#    z 0.002900 0.000000 1.601540 
# 
# From -- ./inp_files/51280.got.cif
#   From: 2010.06.25/outbox.cif.g09.slc.cpg/sg10_26_cif.got.tgz:51280.got - 2010.06.27 22:07:45.
