data_PCOD8057027
_publ_section_title
;
Structure prediction by ZEFSAII (Michael W. Deem and Ramdas Pophale) SiO2 
 PCOD8057027
Probable space group: P 2/M
;
_chemical_formula_sum "Si O2"
_cell_formula_units_Z 28
_cell_length_a 9.213413
_cell_length_b 8.479853
_cell_length_c 20.734120
_cell_angle_alpha 90.000000
_cell_angle_beta 63.205943
_cell_angle_gamma 90.000000
_cell_volume 1445.996378
_symmetry_space_group_name_H-M "P 2/M"
_symmetry_group_IT_number 10
_symmetry_cell_setting 'monoclinic'
loop_
_space_group_symop_operation_xyz
x,y,z
-x,y,-z
-x,-y,-z
x,-y,z
loop_
_atom_site_type_symbol
_atom_site_label
_atom_site_fract_x
_atom_site_fract_y
_atom_site_fract_z
Si Si1 0.234168 0.817793 0.431681
Si Si2 0.021596 0.812175 0.139753
Si Si3 0.334700 0.188043 0.001188
Si Si4 0.383347 0.812880 0.274649
Si Si5 0.304325 0.811698 0.861694
Si Si6 0.074725 0.682620 0.574411
Si Si7 0.048560 0.812833 0.279722
O O1 0.373172 0.762632 0.352593
O O2 0.236645 0.720155 0.498869
O O3 0.065236 0.791037 0.428062
O O4 0.255393 0.000000 0.444705
O O5 0.017961 0.750642 0.213780
O O6 0.863245 0.746966 0.134599
O O7 0.024483 0.000000 0.137955
O O8 0.181888 0.746181 0.072190
O O9 0.321741 0.251642 0.930901
O O10 0.334989 0.000000 0.001605
O O11 0.500000 0.253271 0.000000
O O12 0.546592 0.742638 0.210457
O O13 0.226612 0.752213 0.266208
O O14 0.385233 0.000000 0.269304
O O15 0.306045 0.000000 0.860408
O O16 0.030330 0.500000 0.577264
O O17 0.089477 0.734505 0.646265
O O18 0.032440 0.000000 0.286949
#
# Coordination Sequence:
#
# PCOD8057027 Si02
#       7
#     4   4   4   4   4   4   4
#     4   9  15  25  41  62  89 118 145 176 221 268
#     4   9  16  24  36  55  82 116 149 180 215 257
#     4   9  15  22  34  54  84 119 147 173 214 265
#     4   8  14  23  37  56  80 110 141 175 215 259
#     4   9  15  23  35  55  84 114 145 180 216 255
#     4  10  17  25  40  64  89 112 144 185 225 259
#     4   9  16  27  41  59  85 116 148 180 219 263
#
# _framework density 19.363810000000001
#
# number of rings (size 3 to 8) (size 9 to 14) (size 15 to 20)
#    0.000    3.000    0.000    4.714    0.000    5.143 
#    0.000    0.000    0.000    0.857    0.000   11.000 
#    0.000   17.714    0.000    0.000    0.000    2.000 
#
# Total GULP energy -346973.359881 kJ/mol
# GULP energy per Si atom -12391.905710 kJ/mol
# Density = 1.931974 g / cm^3
# Si number density = 19.363810 Si / 1000 Ang^3
#
#
#
# Elastic Constant Matrix: (Units=GPa)
#
#
# Indices 1 2 3 4 5 6 
#
# 1 113.9779 9.1881 87.5145 0.0000 5.2556 0.0000
# 2 9.1881 21.6843 22.5875 0.0000 -0.4893 0.0000
# 3 87.5145 22.5875 234.6541 0.0000 2.3748 0.0000
# 4 0.0000 0.0000 0.0000 3.1440 0.0000 1.2549
# 5 5.2556 -0.4893 2.3748 0.0000 11.7413 0.0000
# 6 0.0000 0.0000 0.0000 1.2549 0.0000 1.5640
#
#
#
# Elastic Compliance Matrix: (Units=1/GPa)
#
#
# Indices 1 2 3 4 5 6 
#
# 1 0.012554 -0.000665 -0.004570 0.000000 -0.004723 0.000000
# 2 -0.000665 0.051407 -0.004735 0.000000 0.003398 0.000000
# 3 -0.004570 -0.004735 0.006416 0.000000 0.000551 0.000000
# 4 0.000000 0.000000 0.000000 0.467919 0.000000 -0.375441
# 5 -0.004723 0.003398 0.000551 0.000000 0.087314 0.000000
# 6 0.000000 0.000000 0.000000 -0.375441 0.000000 0.940622
#
#
# Mechanical properties :
#
#
# Convention : Reuss Voigt Hill
#
# Bulk Modulus (GPa) = 19.82686 67.65518 43.74102
# Shear Modulus (GPa) = 3.11918 20.02494 11.57206
#
# Velocity S-wave (km/s) = 1.27056 3.21930 2.44726
# Velocity P-wave (km/s) = 3.52332 6.98809 5.53386
#
# Compressibility (1/GPa) = 0.05043663
#
# Stress axis : x y z
#
# Youngs Moduli (GPa) = 79.65479 19.45273 155.85456
#
# Poissons Ratio (x) = 0.01294 0.71229
# Poissons Ratio (y) = 0.05300 0.73790
# Poissons Ratio (z) = 0.36404 0.09210
#
# Static dielectric constant tensor:
#      x y z
#    x 3.323630 0.000000 -0.108720 
#    y 0.000000 2.814290 0.000000 
#    z -0.108720 0.000000 4.324890 
# 
# 
# High freq. dielectric constant tensor:
#      x y z
#    x 1.708540 0.000000 -0.002430 
#    y 0.000000 1.689500 0.000000 
#    z -0.002430 0.000000 1.787190 
# 
# From -- ./inp_files/81740.got.cif
#   From: 2010.06.25/outbox.cif.g09.slc.cpg/sg10_41_cif.got.tgz:81740.got - 2010.06.27 22:07:45.
