data_PCOD8057851
_publ_section_title
;
Structure prediction by ZEFSAII (Michael W. Deem and Ramdas Pophale) SiO2 
 PCOD8057851
Probable space group: P 2/M
;
_chemical_formula_sum "Si O2"
_cell_formula_units_Z 32
_cell_length_a 13.574484
_cell_length_b 18.271521
_cell_length_c 13.435123
_cell_angle_alpha 90.000000
_cell_angle_beta 36.416730
_cell_angle_gamma 90.000000
_cell_volume 1978.212731
_symmetry_space_group_name_H-M "P 2/M"
_symmetry_group_IT_number 10
_symmetry_cell_setting 'monoclinic'
loop_
_space_group_symop_operation_xyz
x,y,z
-x,y,-z
-x,-y,-z
x,-y,z
loop_
_atom_site_type_symbol
_atom_site_label
_atom_site_fract_x
_atom_site_fract_y
_atom_site_fract_z
Si Si1 0.685627 0.187566 0.814551
Si Si2 0.992977 0.716402 0.119452
Si Si3 0.021148 0.804040 0.282764
Si Si4 0.237929 0.583665 0.902588
Si Si5 0.852348 0.312560 0.555907
Si Si6 0.150133 0.082629 0.455546
Si Si7 0.392606 0.418953 0.354324
Si Si8 0.680658 0.631308 0.376396
O O1 0.746450 0.260488 0.712240
O O2 0.696352 0.120409 0.726939
O O3 0.799547 0.175200 0.818911
O O4 0.500000 0.196955 0.000000
O O5 0.045468 0.784919 0.146271
O O6 0.802862 0.698286 0.300638
O O7 0.104461 0.643407 0.048235
O O8 0.000000 0.743338 0.000000
O O9 0.940513 0.732161 0.396747
O O10 0.899227 0.873123 0.403830
O O11 0.188060 0.500000 0.973393
O O12 0.414805 0.606427 0.807053
O O13 0.249195 0.584880 0.773434
O O14 0.724072 0.370541 0.618795
O O15 0.000000 0.350707 0.500000
O O16 0.000000 0.087007 0.500000
O O17 0.196995 0.000000 0.447136
O O18 0.378408 0.500000 0.322540
O O19 0.331471 0.420615 0.518061
O O20 0.500000 0.665431 0.500000
#
# Coordination Sequence:
#
# PCOD8057851 Si02
#       8
#     4   4   4   4   4   4   4   4
#     4   9  18  29  49  74  95 123 147 186 232 272
#     4  10  19  30  46  68  95 124 154 198 233 282
#     4   9  17  32  47  69  96 125 157 180 229 276
#     4   9  19  30  42  64  91 118 154 201 253 286
#     4   9  18  32  46  63  90 123 160 193 229 281
#     4   8  15  30  51  73  98 123 149 182 222 272
#     4  10  18  29  46  63  85 119 159 203 240 279
#     4   9  17  30  46  64  84 115 155 201 246 283
#
# _framework density 16.176217999999999
#
# number of rings (size 3 to 8) (size 9 to 14) (size 15 to 20)
#    0.000    2.875    1.250    1.875    1.750    4.750 
#    0.000    0.000    0.000    0.750    0.000    0.000 
#    0.000    1.500    0.000    0.000    0.000    0.000 
#
# Total GULP energy -396566.284854 kJ/mol
# GULP energy per Si atom -12392.696402 kJ/mol
# Density = 1.613940 g / cm^3
# Si number density = 16.176218 Si / 1000 Ang^3
#
#
#
# Elastic Constant Matrix: (Units=GPa)
#
#
# Indices 1 2 3 4 5 6 
#
# 1 87.1638 50.5267 35.2731 0.0000 -3.2969 0.0000
# 2 50.5267 77.7887 25.4364 0.0000 4.8665 0.0000
# 3 35.2731 25.4364 74.0725 0.0000 -3.5038 0.0000
# 4 0.0000 0.0000 0.0000 11.1898 0.0000 3.2650
# 5 -3.2969 4.8665 -3.5038 0.0000 20.0156 0.0000
# 6 0.0000 0.0000 0.0000 3.2650 0.0000 17.7608
#
#
#
# Elastic Compliance Matrix: (Units=1/GPa)
#
#
# Indices 1 2 3 4 5 6 
#
# 1 0.020964 -0.012140 -0.005557 0.000000 0.005432 0.000000
# 2 -0.012140 0.021911 -0.002107 0.000000 -0.007696 0.000000
# 3 -0.005557 -0.002107 0.016992 0.000000 0.002572 0.000000
# 4 0.000000 0.000000 0.000000 0.094432 0.000000 -0.017360
# 5 0.005432 -0.007696 0.002572 0.000000 0.053177 0.000000
# 6 0.000000 0.000000 0.000000 -0.017360 0.000000 0.059495
#
#
# Mechanical properties :
#
#
# Convention : Reuss Voigt Hill
#
# Bulk Modulus (GPa) = 49.36231 51.27751 50.31991
# Shear Modulus (GPa) = 15.95747 18.31248 17.13498
#
# Velocity S-wave (km/s) = 3.14423 3.36826 3.25817
# Velocity P-wave (km/s) = 6.61538 6.84800 6.73269
#
# Compressibility (1/GPa) = 0.02025837
#
# Stress axis : x y z
#
# Youngs Moduli (GPa) = 47.70074 45.63919 58.85117
#
# Poissons Ratio (x) = 0.55404 0.32706
# Poissons Ratio (y) = 0.57906 0.12403
# Poissons Ratio (z) = 0.26509 0.09618
#
# Static dielectric constant tensor:
#      x y z
#    x 3.060270 0.000000 -0.100690 
#    y 0.000000 2.884550 0.000000 
#    z -0.100690 0.000000 3.045160 
# 
# 
# High freq. dielectric constant tensor:
#      x y z
#    x 1.610430 0.000000 -0.009850 
#    y 0.000000 1.591000 0.000000 
#    z -0.009850 0.000000 1.620430 
# 
# From -- ./inp_files/29922.got.cif
#   From: 2010.06.25/outbox.cif.g09.slc.cpg/sg10_15_cif.got.tgz:29922.got - 2010.06.27 22:07:45.
