data_PCOD8057469
_publ_section_title
;
Structure prediction by ZEFSAII (Michael W. Deem and Ramdas Pophale) SiO2 
 PCOD8057469
Probable space group: P 2/M
;
_chemical_formula_sum "Si O2"
_cell_formula_units_Z 30
_cell_length_a 25.584169
_cell_length_b 13.915586
_cell_length_c 9.109669
_cell_angle_alpha 90.000000
_cell_angle_beta 30.131122
_cell_angle_gamma 90.000000
_cell_volume 1628.029773
_symmetry_space_group_name_H-M "P 2/M"
_symmetry_group_IT_number 10
_symmetry_cell_setting 'monoclinic'
loop_
_space_group_symop_operation_xyz
x,y,z
-x,y,-z
-x,-y,-z
x,-y,z
loop_
_atom_site_type_symbol
_atom_site_label
_atom_site_fract_x
_atom_site_fract_y
_atom_site_fract_z
Si Si1 0.804831 0.288909 0.818754
Si Si2 0.500000 0.152369 0.500000
Si Si3 0.616451 0.606117 0.158910
Si Si4 0.654778 0.244674 0.545027
Si Si5 0.559391 0.733122 0.071148
Si Si6 0.167200 0.611865 0.955057
Si Si7 0.703464 0.892976 0.169566
Si Si8 0.033036 0.610055 0.757154
O O1 0.874818 0.315492 0.508359
O O2 0.687014 0.326616 0.089734
O O3 0.858531 0.343260 0.824164
O O4 0.790024 0.174090 0.878149
O O5 0.444560 0.209573 0.766127
O O6 0.405537 0.094077 0.653932
O O7 0.500000 0.614761 0.500000
O O8 0.662477 0.500000 0.059201
O O9 0.617057 0.635485 0.984294
O O10 0.554117 0.292118 0.714079
O O11 0.740917 0.327340 0.342266
O O12 0.686408 0.150922 0.374486
O O13 0.627493 0.213904 0.779269
O O14 0.199163 0.500000 0.889945
O O15 0.064404 0.625269 0.110569
O O16 0.750605 0.000000 0.072329
O O17 0.073917 0.500000 0.649643
O O18 0.000000 0.638058 0.000000
#
# Coordination Sequence:
#
# PCOD8057469 Si02
#       8
#     4   2   4   4   4   4   4   4
#     4  11  21  36  57  79 111 146 180 233 278 324
#     4  10  17  34  55  78 108 146 187 230 273 324
#     4  11  20  30  51  80 113 149 185 218 264 329
#     4   9  21  34  53  75 114 146 179 233 279 326
#     4  10  18  34  50  77 113 149 185 221 273 328
#     4  10  20  35  55  78 107 144 189 225 271 330
#     4  10  20  36  58  81 105 140 185 232 279 336
#     4  10  22  37  56  84 113 146 189 227 270 327
#
# _framework density 18.427181000000001
#
# number of rings (size 3 to 8) (size 9 to 14) (size 15 to 20)
#    0.000    1.867    2.000    3.400    1.867    3.200 
#    0.000    7.333    0.000    6.800    0.000    0.000 
#    0.000    0.000    0.000    0.000    0.000    0.000 
#
# Total GULP energy -371768.271461 kJ/mol
# GULP energy per Si atom -12392.275715 kJ/mol
# Density = 1.838524 g / cm^3
# Si number density = 18.427181 Si / 1000 Ang^3
#
#
#
# Elastic Constant Matrix: (Units=GPa)
#
#
# Indices 1 2 3 4 5 6 
#
# 1 87.1013 38.0991 34.6616 0.0000 16.1666 0.0000
# 2 38.0991 131.6735 52.8305 0.0000 7.0299 0.0000
# 3 34.6616 52.8305 101.0551 0.0000 19.6424 0.0000
# 4 0.0000 0.0000 0.0000 17.4187 0.0000 -0.7856
# 5 16.1666 7.0299 19.6424 0.0000 31.8368 0.0000
# 6 0.0000 0.0000 0.0000 -0.7856 0.0000 11.7768
#
#
#
# Elastic Compliance Matrix: (Units=1/GPa)
#
#
# Indices 1 2 3 4 5 6 
#
# 1 0.014758 -0.002999 -0.002461 0.000000 -0.005313 0.000000
# 2 -0.002999 0.010254 -0.004759 0.000000 0.002195 0.000000
# 3 -0.002461 -0.004759 0.014522 0.000000 -0.006659 0.000000
# 4 0.000000 0.000000 0.000000 0.057583 0.000000 0.003841
# 5 -0.005313 0.002195 -0.006659 0.000000 0.037732 0.000000
# 6 0.000000 0.000000 0.000000 0.003841 0.000000 0.085169
#
#
# Mechanical properties :
#
#
# Convention : Reuss Voigt Hill
#
# Bulk Modulus (GPa) = 52.36614 63.44580 57.90597
# Shear Modulus (GPa) = 20.25741 25.15571 22.70656
#
# Velocity S-wave (km/s) = 3.31920 3.69879 3.51412
# Velocity P-wave (km/s) = 6.57031 7.26269 6.92516
#
# Compressibility (1/GPa) = 0.01909631
#
# Stress axis : x y z
#
# Youngs Moduli (GPa) = 67.75795 97.51826 68.86073
#
# Poissons Ratio (x) = 0.29246 0.16950
# Poissons Ratio (y) = 0.20321 0.32770
# Poissons Ratio (z) = 0.16678 0.46408
#
# Static dielectric constant tensor:
#      x y z
#    x 3.624690 0.000000 0.148680 
#    y 0.000000 3.271280 0.000000 
#    z 0.148680 0.000000 3.324330 
# 
# 
# High freq. dielectric constant tensor:
#      x y z
#    x 1.727230 0.000000 0.004320 
#    y 0.000000 1.686390 0.000000 
#    z 0.004320 0.000000 1.703780 
# 
# From -- ./inp_files/36297.got.cif
#   From: 2010.06.25/outbox.cif.g09.slc.cpg/sg10_19_cif.got.tgz:36297.got - 2010.06.27 22:07:45.
