data_PCOD8057011
_publ_section_title
;
Structure prediction by ZEFSAII (Michael W. Deem and Ramdas Pophale) SiO2 
 PCOD8057011
Probable space group: P 2/M
;
_chemical_formula_sum "Si O2"
_cell_formula_units_Z 28
_cell_length_a 19.664900
_cell_length_b 8.901860
_cell_length_c 29.360704
_cell_angle_alpha 90.000000
_cell_angle_beta 160.255331
_cell_angle_gamma 90.000000
_cell_volume 1736.345247
_symmetry_space_group_name_H-M "P 2/M"
_symmetry_group_IT_number 10
_symmetry_cell_setting 'monoclinic'
loop_
_space_group_symop_operation_xyz
x,y,z
-x,y,-z
-x,-y,-z
x,-y,z
loop_
_atom_site_type_symbol
_atom_site_label
_atom_site_fract_x
_atom_site_fract_y
_atom_site_fract_z
Si Si1 0.581367 0.823065 0.347025
Si Si2 0.073564 0.678423 0.480509
Si Si3 0.344462 0.824509 0.110234
Si Si4 0.528180 0.824891 0.621070
Si Si5 0.298400 0.668956 0.402045
Si Si6 0.916249 0.177935 0.810751
Si Si7 0.264185 0.823851 0.689984
O O1 0.796790 0.736228 0.480877
O O2 0.433778 0.760698 0.214150
O O3 0.477211 0.784308 0.329165
O O4 0.622602 0.000000 0.367389
O O5 0.080348 0.500000 0.488669
O O6 0.171287 0.759598 0.585221
O O7 0.839538 0.736304 0.332570
O O8 0.495976 0.793335 0.163137
O O9 0.314496 0.000000 0.098780
O O10 0.127376 0.753153 0.961915
O O11 0.342889 0.743797 0.478890
O O12 0.743868 0.771141 0.737661
O O13 0.499011 0.000000 0.593788
O O14 0.500000 0.676794 0.500000
O O15 0.224721 0.500000 0.363769
O O16 0.124833 0.756749 0.265411
O O17 0.926507 0.000000 0.812512
O O18 0.218636 0.000000 0.665429
#
# Coordination Sequence:
#
# PCOD8057011 Si02
#       7
#     4   4   4   4   4   4   4
#     4   9  17  29  42  61  89 118 145 171 209 257
#     4  10  17  25  39  60  83 110 144 179 212 245
#     4   8  15  26  42  64  89 115 141 171 208 253
#     4   9  17  28  45  65  85 112 145 180 212 246
#     4   9  17  29  44  61  82 109 143 182 219 251
#     4   9  16  28  45  65  87 111 143 179 211 246
#     4   9  15  26  42  59  82 112 142 174 213 252
#
# _framework density 16.125826
#
# number of rings (size 3 to 8) (size 9 to 14) (size 15 to 20)
#    0.000    3.000    0.000    3.857    0.000    2.857 
#    0.000    6.429    0.000    0.000    0.000    9.000 
#    0.000    8.000    0.000    0.000    0.000    0.000 
#
# Total GULP energy -346951.762323 kJ/mol
# GULP energy per Si atom -12391.134369 kJ/mol
# Density = 1.608912 g / cm^3
# Si number density = 16.125826 Si / 1000 Ang^3
#
#
#
# Elastic Constant Matrix: (Units=GPa)
#
#
# Indices 1 2 3 4 5 6 
#
# 1 64.7812 27.4220 67.8006 0.0000 11.3086 0.0000
# 2 27.4220 43.0397 27.0886 0.0000 5.4985 0.0000
# 3 67.8006 27.0886 95.8994 0.0000 3.1940 0.0000
# 4 0.0000 0.0000 0.0000 6.4367 0.0000 2.8080
# 5 11.3086 5.4985 3.1940 0.0000 18.6674 0.0000
# 6 0.0000 0.0000 0.0000 2.8080 0.0000 14.5291
#
#
#
# Elastic Compliance Matrix: (Units=1/GPa)
#
#
# Indices 1 2 3 4 5 6 
#
# 1 0.087936 -0.015480 -0.056497 0.000000 -0.039045 0.000000
# 2 -0.015480 0.031922 0.001939 0.000000 -0.000357 0.000000
# 3 -0.056497 0.001939 0.048981 0.000000 0.025274 0.000000
# 4 0.000000 0.000000 0.000000 0.169664 0.000000 -0.032790
# 5 -0.039045 -0.000357 0.025274 0.000000 0.073003 0.000000
# 6 0.000000 0.000000 0.000000 -0.032790 0.000000 0.075164
#
#
# Mechanical properties :
#
#
# Convention : Reuss Voigt Hill
#
# Bulk Modulus (GPa) = 34.76660 49.81586 42.29123
# Shear Modulus (GPa) = 7.85749 13.35391 10.60570
#
# Velocity S-wave (km/s) = 2.20979 2.88081 2.56732
# Velocity P-wave (km/s) = 5.30257 6.48263 5.92207
#
# Compressibility (1/GPa) = 0.02876324
#
# Stress axis : x y z
#
# Youngs Moduli (GPa) = 11.37195 31.32602 20.41590
#
# Poissons Ratio (x) = 0.48493 1.15344
# Poissons Ratio (y) = 0.17604 -0.03959
# Poissons Ratio (z) = 0.64248 -0.06075
#
# Static dielectric constant tensor:
#      x y z
#    x 3.308280 0.000000 0.411410 
#    y 0.000000 2.942100 0.000000 
#    z 0.411410 0.000000 3.318350 
# 
# 
# High freq. dielectric constant tensor:
#      x y z
#    x 1.601740 0.000000 0.019050 
#    y 0.000000 1.610680 0.000000 
#    z 0.019050 0.000000 1.595760 
# 
# From -- ./inp_files/65755.got.cif
#   From: 2010.06.25/outbox.cif.g09.slc.cpg/sg10_33_cif.got.tgz:65755.got - 2010.06.27 22:07:45.
