data_PCOD8057598
_publ_section_title
;
Structure prediction by ZEFSAII (Michael W. Deem and Ramdas Pophale) SiO2 
 PCOD8057598
Probable space group: P 2/M
;
_chemical_formula_sum "Si O2"
_cell_formula_units_Z 32
_cell_length_a 14.491487
_cell_length_b 9.087474
_cell_length_c 20.362925
_cell_angle_alpha 90.000000
_cell_angle_beta 43.863524
_cell_angle_gamma 90.000000
_cell_volume 1858.205688
_symmetry_space_group_name_H-M "P 2/M"
_symmetry_group_IT_number 10
_symmetry_cell_setting 'monoclinic'
loop_
_space_group_symop_operation_xyz
x,y,z
-x,y,-z
-x,-y,-z
x,-y,z
loop_
_atom_site_type_symbol
_atom_site_label
_atom_site_fract_x
_atom_site_fract_y
_atom_site_fract_z
Si Si1 0.399264 0.668186 0.353249
Si Si2 0.389643 0.825231 0.005361
Si Si3 0.210145 0.837087 0.306579
Si Si4 0.890708 0.326539 0.373636
Si Si5 0.406659 0.670632 0.492646
Si Si6 0.523098 0.667094 0.823314
Si Si7 0.126894 0.830276 0.486622
Si Si8 0.880923 0.163742 0.793999
O O1 0.340262 0.500000 0.383868
O O2 0.469242 0.697354 0.387916
O O3 0.508165 0.683025 0.238751
O O4 0.283203 0.786167 0.400406
O O5 0.244421 0.768483 0.102282
O O6 0.393002 0.000000 0.002538
O O7 0.500000 0.765714 0.000000
O O8 0.420660 0.765370 0.917057
O O9 0.323800 0.714497 0.246193
O O10 0.092195 0.808247 0.423926
O O11 0.146320 0.841569 0.268822
O O12 0.270699 0.000000 0.290985
O O13 0.898874 0.500000 0.369967
O O14 0.743797 0.265991 0.430720
O O15 0.934013 0.271599 0.424485
O O16 0.989273 0.266408 0.265983
O O17 0.500000 0.748411 0.500000
O O18 0.396418 0.500000 0.515643
O O19 0.508745 0.500000 0.854990
O O20 0.111138 0.000000 0.516256
O O21 0.911844 0.000000 0.804678
#
# Coordination Sequence:
#
# PCOD8057598 Si02
#       8
#     4   4   4   4   4   4   4   4
#     4   8  15  27  43  68  97 119 143 182 229 270
#     4  10  19  33  49  63  84 119 164 203 227 259
#     4   9  17  30  45  61  83 119 162 194 218 257
#     4  10  20  32  45  65  94 118 143 185 230 272
#     4   8  14  28  51  73  92 118 148 175 214 274
#     4  10  18  27  43  67  95 120 147 192 240 271
#     4   9  16  27  45  63  84 118 157 187 215 259
#     4  10  20  33  47  61  84 119 158 194 226 261
#
# _framework density 17.220912999999999
#
# number of rings (size 3 to 8) (size 9 to 14) (size 15 to 20)
#    0.000    2.750    1.250    1.875    0.000    2.750 
#    0.000    2.500    0.000    9.375    0.000    0.875 
#    0.000    7.000    0.000    0.000    0.000    0.000 
#
# Total GULP energy -396459.869884 kJ/mol
# GULP energy per Si atom -12389.370934 kJ/mol
# Density = 1.718172 g / cm^3
# Si number density = 17.220913 Si / 1000 Ang^3
#
#
#
# Elastic Constant Matrix: (Units=GPa)
#
#
# Indices 1 2 3 4 5 6 
#
# 1 50.0230 19.4871 30.7130 0.0000 2.3516 0.0000
# 2 19.4871 43.7014 31.7678 0.0000 -1.7904 0.0000
# 3 30.7130 31.7678 144.7569 0.0000 1.9682 0.0000
# 4 0.0000 0.0000 0.0000 27.8472 0.0000 -1.2491
# 5 2.3516 -1.7904 1.9682 0.0000 14.7107 0.0000
# 6 0.0000 0.0000 0.0000 -1.2491 0.0000 9.2148
#
#
#
# Elastic Compliance Matrix: (Units=1/GPa)
#
#
# Indices 1 2 3 4 5 6 
#
# 1 0.025920 -0.009287 -0.003396 0.000000 -0.004820 0.000000
# 2 -0.009287 0.030805 -0.004870 0.000000 0.005885 0.000000
# 3 -0.003396 -0.004870 0.008714 0.000000 -0.001216 0.000000
# 4 0.000000 0.000000 0.000000 0.036130 0.000000 0.004897
# 5 -0.004820 0.005885 -0.001216 0.000000 0.069627 0.000000
# 6 0.000000 0.000000 0.000000 0.004897 0.000000 0.109185
#
#
# Mechanical properties :
#
#
# Convention : Reuss Voigt Hill
#
# Bulk Modulus (GPa) = 32.96696 44.71299 38.83997
# Shear Modulus (GPa) = 15.35636 20.78876 18.07256
#
# Velocity S-wave (km/s) = 2.98942 3.47822 3.24304
# Velocity P-wave (km/s) = 5.57679 6.49241 6.05194
#
# Compressibility (1/GPa) = 0.03033340
#
# Stress axis : x y z
#
# Youngs Moduli (GPa) = 38.57988 32.46220 114.75927
#
# Poissons Ratio (x) = 0.30148 0.38970
# Poissons Ratio (y) = 0.35830 0.55887
# Poissons Ratio (z) = 0.13101 0.15809
#
# Static dielectric constant tensor:
#      x y z
#    x 3.161320 0.000000 0.099750 
#    y 0.000000 3.196330 0.000000 
#    z 0.099750 0.000000 3.529150 
# 
# 
# High freq. dielectric constant tensor:
#      x y z
#    x 1.616870 0.000000 0.011940 
#    y 0.000000 1.655530 0.000000 
#    z 0.011940 0.000000 1.675310 
# 
# From -- ./inp_files/84733.got.cif
#   From: 2010.06.25/outbox.cif.g09.slc.cpg/sg10_43_cif.got.tgz:84733.got - 2010.06.27 22:07:45.
