data_PCOD8057871
_publ_section_title
;
Structure prediction by ZEFSAII (Michael W. Deem and Ramdas Pophale) SiO2 
 PCOD8057871
Probable space group: P 2/M
;
_chemical_formula_sum "Si O2"
_cell_formula_units_Z 32
_cell_length_a 23.280618
_cell_length_b 15.889540
_cell_length_c 23.640656
_cell_angle_alpha 90.000000
_cell_angle_beta 12.436635
_cell_angle_gamma 90.000000
_cell_volume 1883.345199
_symmetry_space_group_name_H-M "P 2/M"
_symmetry_group_IT_number 10
_symmetry_cell_setting 'monoclinic'
loop_
_space_group_symop_operation_xyz
x,y,z
-x,y,-z
-x,-y,-z
x,-y,z
loop_
_atom_site_type_symbol
_atom_site_label
_atom_site_fract_x
_atom_site_fract_y
_atom_site_fract_z
Si Si1 0.144158 0.282154 0.671175
Si Si2 0.274997 0.903479 0.762673
Si Si3 0.283961 0.598077 0.252775
Si Si4 0.701697 0.661581 0.637572
Si Si5 0.345359 0.904877 0.913567
Si Si6 0.134167 0.403565 0.143991
Si Si7 0.130372 0.829735 0.577421
Si Si8 0.321470 0.210299 0.825729
O O1 0.144504 0.206078 0.626866
O O2 0.452708 0.284297 0.393932
O O3 0.030791 0.366515 0.750556
O O4 0.959580 0.259759 0.902551
O O5 0.500000 0.891811 0.500000
O O6 0.350255 0.847517 0.743638
O O7 0.252266 0.000000 0.804908
O O8 0.000000 0.872249 0.000000
O O9 0.317238 0.500000 0.234681
O O10 0.334538 0.648370 0.261373
O O11 0.000000 0.619989 0.500000
O O12 0.500000 0.629049 0.000000
O O13 0.813771 0.755560 0.520963
O O14 0.933390 0.600180 0.390733
O O15 0.412298 0.647509 0.885803
O O16 0.648008 0.901476 0.645236
O O17 0.329620 0.847371 0.873396
O O18 0.265529 0.000000 0.974527
O O19 0.162437 0.871802 0.142125
O O20 0.210132 0.500000 0.059145
#
# Coordination Sequence:
#
# PCOD8057871 Si02
#       8
#     4   4   4   4   4   4   4   4
#     4   9  18  30  45  66  92 121 154 190 227 277
#     4  10  20  32  46  67  94 123 160 199 227 263
#     4  10  20  32  46  67  94 123 160 199 227 263
#     4  11  20  33  49  67  97 133 160 189 237 279
#     4  10  18  29  46  68  93 121 154 187 226 279
#     4  11  20  31  49  72  97 126 160 192 231 286
#     4   9  18  30  44  65  92 121 153 189 226 275
#     4  10  18  31  47  64  93 128 155 185 233 274
#
# _framework density 16.991043999999999
#
# number of rings (size 3 to 8) (size 9 to 14) (size 15 to 20)
#    0.000    2.000    0.000    7.125    0.000    1.000 
#    0.000    3.750    0.000    0.000    0.000    0.000 
#    0.000   20.000    0.000    0.000    0.000    0.000 
#
# Total GULP energy -396550.570719 kJ/mol
# GULP energy per Si atom -12392.205335 kJ/mol
# Density = 1.695237 g / cm^3
# Si number density = 16.991044 Si / 1000 Ang^3
#
#
#
# Elastic Constant Matrix: (Units=GPa)
#
#
# Indices 1 2 3 4 5 6 
#
# 1 68.6073 27.8147 30.9618 0.0000 5.9629 0.0000
# 2 27.8147 62.1858 32.0423 0.0000 2.5743 0.0000
# 3 30.9618 32.0423 117.4506 0.0000 3.2004 0.0000
# 4 0.0000 0.0000 0.0000 30.2824 0.0000 2.3952
# 5 5.9629 2.5743 3.2004 0.0000 18.4645 0.0000
# 6 0.0000 0.0000 0.0000 2.3952 0.0000 26.0116
#
#
#
# Elastic Compliance Matrix: (Units=1/GPa)
#
#
# Indices 1 2 3 4 5 6 
#
# 1 0.019113 -0.006777 -0.003062 0.000000 -0.004697 0.000000
# 2 -0.006777 0.021169 -0.003987 0.000000 -0.000072 0.000000
# 3 -0.003062 -0.003987 0.010416 0.000000 -0.000261 0.000000
# 4 0.000000 0.000000 0.000000 0.033265 0.000000 -0.003063
# 5 -0.004697 -0.000072 -0.000261 0.000000 0.055730 0.000000
# 6 0.000000 0.000000 0.000000 -0.003063 0.000000 0.038726
#
#
# Mechanical properties :
#
#
# Convention : Reuss Voigt Hill
#
# Bulk Modulus (GPa) = 43.38847 47.76456 45.57652
# Shear Modulus (GPa) = 23.39146 25.44669 24.41907
#
# Velocity S-wave (km/s) = 3.71441 3.87415 3.79512
# Velocity P-wave (km/s) = 6.63229 6.94152 6.78867
#
# Compressibility (1/GPa) = 0.02304760
#
# Stress axis : x y z
#
# Youngs Moduli (GPa) = 52.31999 47.23819 96.00524
#
# Poissons Ratio (x) = 0.32013 0.29394
# Poissons Ratio (y) = 0.35457 0.38276
# Poissons Ratio (z) = 0.16019 0.18833
#
# Static dielectric constant tensor:
#      x y z
#    x 2.806710 0.000000 0.015460 
#    y 0.000000 2.922060 0.000000 
#    z 0.015460 0.000000 3.798440 
# 
# 
# High freq. dielectric constant tensor:
#      x y z
#    x 1.609690 0.000000 0.005740 
#    y 0.000000 1.628020 0.000000 
#    z 0.005740 0.000000 1.692430 
# 
# From -- ./inp_files/91134.got.cif
#   From: 2010.06.25/outbox.cif.g09.slc.cpg/sg10_46_cif.got.tgz:91134.got - 2010.06.27 22:07:45.
