data_PCOD8057775
_publ_section_title
;
Structure prediction by ZEFSAII (Michael W. Deem and Ramdas Pophale) SiO2 
 PCOD8057775
Probable space group: P 2/M
;
_chemical_formula_sum "Si O2"
_cell_formula_units_Z 28
_cell_length_a 11.044565
_cell_length_b 12.909599
_cell_length_c 22.361286
_cell_angle_alpha 90.000000
_cell_angle_beta 151.536096
_cell_angle_gamma 90.000000
_cell_volume 1519.556151
_symmetry_space_group_name_H-M "P 2/M"
_symmetry_group_IT_number 10
_symmetry_cell_setting 'monoclinic'
loop_
_space_group_symop_operation_xyz
x,y,z
-x,y,-z
-x,-y,-z
x,-y,z
loop_
_atom_site_type_symbol
_atom_site_label
_atom_site_fract_x
_atom_site_fract_y
_atom_site_fract_z
Si Si1 0.774957 0.385452 0.144109
Si Si2 0.144070 0.746192 0.229540
Si Si3 0.794273 0.110895 0.636410
Si Si4 0.065056 0.733475 0.675544
Si Si5 0.767480 0.881621 0.352666
Si Si6 0.816346 0.117340 0.864067
Si Si7 0.575976 0.619265 0.464380
O O1 0.889024 0.500000 0.209604
O O2 0.935584 0.336588 0.159959
O O3 0.756238 0.312298 0.194590
O O4 0.500000 0.400957 0.000000
O O5 0.135815 0.842631 0.269877
O O6 0.092190 0.794323 0.142199
O O7 0.413363 0.687758 0.348045
O O8 0.500000 0.097520 0.500000
O O9 0.888120 0.175499 0.621578
O O10 0.931443 0.000000 0.693532
O O11 0.869782 0.640504 0.574936
O O12 0.221143 0.786728 0.689966
O O13 0.486032 0.868414 0.257412
O O14 0.000000 0.864472 0.500000
O O15 0.790420 0.000000 0.336518
O O16 0.861172 0.000000 0.859705
O O17 0.000000 0.136199 0.000000
O O18 0.500000 0.651910 0.500000
O O19 0.514012 0.500000 0.426975
#
# Coordination Sequence:
#
# PCOD8057775 Si02
#       7
#     4   4   4   4   4   4   4
#     4  10  22  37  57  84 111 145 186 232 285 336
#     4  11  19  35  59  81 108 147 186 227 278 340
#     4  10  18  28  48  83 117 138 168 223 283 339
#     4  11  19  34  56  82 112 146 182 228 284 340
#     4  10  22  38  59  85 116 153 193 233 276 333
#     4  10  23  41  60  83 114 154 196 232 272 332
#     4  11  19  32  54  85 113 140 179 227 283 341
#
# _framework density 18.426431999999998
#
# number of rings (size 3 to 8) (size 9 to 14) (size 15 to 20)
#    0.000    1.571    4.286    2.571    2.000    0.000 
#    0.000    0.000    0.000   13.714    0.000    0.000 
#    0.000    0.000    0.000    0.000    0.000    0.000 
#
# Total GULP energy -346939.458677 kJ/mol
# GULP energy per Si atom -12390.694953 kJ/mol
# Density = 1.838449 g / cm^3
# Si number density = 18.426432 Si / 1000 Ang^3
#
#
#
# Elastic Constant Matrix: (Units=GPa)
#
#
# Indices 1 2 3 4 5 6 
#
# 1 64.1135 39.3541 26.7494 0.0000 -8.7438 0.0000
# 2 39.3541 112.2098 33.7520 0.0000 -13.0652 0.0000
# 3 26.7494 33.7520 85.4667 0.0000 -0.8172 0.0000
# 4 0.0000 0.0000 0.0000 35.7376 0.0000 10.0524
# 5 -8.7438 -13.0652 -0.8172 0.0000 23.2528 0.0000
# 6 0.0000 0.0000 0.0000 10.0524 0.0000 43.2169
#
#
#
# Elastic Compliance Matrix: (Units=1/GPa)
#
#
# Indices 1 2 3 4 5 6 
#
# 1 0.021597 -0.005673 -0.004474 0.000000 0.004777 0.000000
# 2 -0.005673 0.012372 -0.003065 0.000000 0.004711 0.000000
# 3 -0.004474 -0.003065 0.014283 0.000000 -0.002903 0.000000
# 4 0.000000 0.000000 0.000000 0.029941 0.000000 -0.006964
# 5 0.004777 0.004711 -0.002903 0.000000 0.047346 0.000000
# 6 0.000000 0.000000 0.000000 -0.006964 0.000000 0.024759
#
#
# Mechanical properties :
#
#
# Convention : Reuss Voigt Hill
#
# Bulk Modulus (GPa) = 45.81018 51.27790 48.54404
# Shear Modulus (GPa) = 27.17411 31.23711 29.20561
#
# Velocity S-wave (km/s) = 3.84439 4.12179 3.98551
# Velocity P-wave (km/s) = 6.67989 7.10922 6.89790
#
# Compressibility (1/GPa) = 0.02182921
#
# Stress axis : x y z
#
# Youngs Moduli (GPa) = 46.30204 80.82793 70.01135
#
# Poissons Ratio (x) = 0.45852 0.31320
# Poissons Ratio (y) = 0.26266 0.21461
# Poissons Ratio (z) = 0.20714 0.24777
#
# Static dielectric constant tensor:
#      x y z
#    x 3.257170 0.000000 0.114820 
#    y 0.000000 3.834680 0.000000 
#    z 0.114820 0.000000 3.303550 
# 
# 
# High freq. dielectric constant tensor:
#      x y z
#    x 1.684210 0.000000 0.010280 
#    y 0.000000 1.732920 0.000000 
#    z 0.010280 0.000000 1.710530 
# 
# From -- ./inp_files/84002.got.cif
#   From: 2010.06.25/outbox.cif.g09.slc.cpg/sg10_43_cif.got.tgz:84002.got - 2010.06.27 22:07:45.
