data_PCOD8057357
_publ_section_title
;
Structure prediction by ZEFSAII (Michael W. Deem and Ramdas Pophale) SiO2 
 PCOD8057357
Probable space group: P 2/M
;
_chemical_formula_sum "Si O2"
_cell_formula_units_Z 32
_cell_length_a 14.399257
_cell_length_b 9.119237
_cell_length_c 26.169467
_cell_angle_alpha 90.000000
_cell_angle_beta 35.501899
_cell_angle_gamma 90.000000
_cell_volume 1995.573274
_symmetry_space_group_name_H-M "P 2/M"
_symmetry_group_IT_number 10
_symmetry_cell_setting 'monoclinic'
loop_
_space_group_symop_operation_xyz
x,y,z
-x,y,-z
-x,-y,-z
x,-y,z
loop_
_atom_site_type_symbol
_atom_site_label
_atom_site_fract_x
_atom_site_fract_y
_atom_site_fract_z
Si Si1 0.451087 0.332196 0.866863
Si Si2 0.748768 0.826823 0.592726
Si Si3 0.083534 0.673859 0.909601
Si Si4 0.258306 0.170627 0.215770
Si Si5 0.552754 0.334235 0.248316
Si Si6 0.678606 0.829588 0.924269
Si Si7 0.167070 0.825348 0.041383
Si Si8 0.051592 0.172834 0.400377
O O1 0.415213 0.500000 0.898733
O O2 0.588553 0.267347 0.840606
O O3 0.503408 0.322405 0.784949
O O4 0.293474 0.234794 0.943846
O O5 0.574570 0.757018 0.661250
O O6 0.822916 0.770489 0.613350
O O7 0.871181 0.772101 0.493217
O O8 0.725855 0.000000 0.602443
O O9 0.067961 0.500000 0.909784
O O10 0.267524 0.726388 0.826513
O O11 0.002746 0.755538 0.897731
O O12 0.000000 0.722576 0.000000
O O13 0.220035 0.197069 0.173150
O O14 0.108631 0.221351 0.318070
O O15 0.300075 0.000000 0.207435
O O16 0.546543 0.500000 0.270861
O O17 0.779897 0.765446 0.926277
O O18 0.654527 0.000000 0.946470
O O19 0.500000 0.758987 0.000000
O O20 0.155834 0.000000 0.043802
O O21 0.047812 0.000000 0.407246
#
# Coordination Sequence:
#
# PCOD8057357 Si02
#       8
#     4   4   4   4   4   4   4   4
#     4  11  20  30  44  66  96 126 156 191 227 266
#     4   9  16  28  45  68  95 118 151 192 225 267
#     4  10  20  36  50  64  92 125 153 189 233 276
#     4  10  17  30  49  67  91 129 162 184 222 276
#     4  10  20  32  46  65  92 126 156 182 228 277
#     4   9  17  29  46  69  95 120 152 192 230 266
#     4  11  21  33  48  68  92 121 160 197 227 266
#     4   8  15  26  44  69  94 121 150 186 229 269
#
# _framework density 16.035492999999999
#
# number of rings (size 3 to 8) (size 9 to 14) (size 15 to 20)
#    0.000    2.250    3.750    1.500    0.000    1.250 
#    0.000    3.750    0.000    0.000    0.000    0.875 
#    0.000    7.000    0.000    0.000    0.000    0.000 
#
# Total GULP energy -396613.631758 kJ/mol
# GULP energy per Si atom -12394.175992 kJ/mol
# Density = 1.599900 g / cm^3
# Si number density = 16.035493 Si / 1000 Ang^3
#
#
#
# Elastic Constant Matrix: (Units=GPa)
#
#
# Indices 1 2 3 4 5 6 
#
# 1 83.7193 26.1198 44.6296 0.0000 -6.2846 0.0000
# 2 26.1198 38.0842 31.1457 0.0000 -6.7091 0.0000
# 3 44.6296 31.1457 130.1700 0.0000 -7.3913 0.0000
# 4 0.0000 0.0000 0.0000 20.3105 0.0000 -4.5936
# 5 -6.2846 -6.7091 -7.3913 0.0000 26.3680 0.0000
# 6 0.0000 0.0000 0.0000 -4.5936 0.0000 17.9237
#
#
#
# Elastic Compliance Matrix: (Units=1/GPa)
#
#
# Indices 1 2 3 4 5 6 
#
# 1 0.016510 -0.008189 -0.003654 0.000000 0.000827 0.000000
# 2 -0.008189 0.037742 -0.005882 0.000000 0.006003 0.000000
# 3 -0.003654 -0.005882 0.010373 0.000000 0.000540 0.000000
# 4 0.000000 0.000000 0.000000 0.052265 0.000000 0.013395
# 5 0.000827 0.006003 0.000540 0.000000 0.039801 0.000000
# 6 0.000000 0.000000 0.000000 0.013395 0.000000 0.059225
#
#
# Mechanical properties :
#
#
# Convention : Reuss Voigt Hill
#
# Bulk Modulus (GPa) = 34.27657 50.64042 42.45849
# Shear Modulus (GPa) = 19.15048 22.92566 21.03807
#
# Velocity S-wave (km/s) = 3.45955 3.78522 3.62604
# Velocity P-wave (km/s) = 6.11390 7.12408 6.63824
#
# Compressibility (1/GPa) = 0.02917445
#
# Stress axis : x y z
#
# Youngs Moduli (GPa) = 60.57081 26.49582 96.40271
#
# Poissons Ratio (x) = 0.21697 0.35226
# Poissons Ratio (y) = 0.49601 0.56704
# Poissons Ratio (z) = 0.22133 0.15585
#
# Static dielectric constant tensor:
#      x y z
#    x 2.953030 0.000000 0.034010 
#    y 0.000000 2.838300 0.000000 
#    z 0.034010 0.000000 3.303690 
# 
# 
# High freq. dielectric constant tensor:
#      x y z
#    x 1.589080 0.000000 0.000240 
#    y 0.000000 1.596510 0.000000 
#    z 0.000240 0.000000 1.612150 
# 
# From -- ./inp_files/95249.got.cif
#   From: 2010.06.25/outbox.cif.g09.slc.cpg/sg10_48_cif.got.tgz:95249.got - 2010.06.27 22:07:45.
