data_PCOD8057907
_publ_section_title
;
Structure prediction by ZEFSAII (Michael W. Deem and Ramdas Pophale) SiO2 
 PCOD8057907
Probable space group: P 2/M
;
_chemical_formula_sum "Si O2"
_cell_formula_units_Z 28
_cell_length_a 15.456416
_cell_length_b 8.847972
_cell_length_c 19.474232
_cell_angle_alpha 90.000000
_cell_angle_beta 142.523484
_cell_angle_gamma 90.000000
_cell_volume 1620.421232
_symmetry_space_group_name_H-M "P 2/M"
_symmetry_group_IT_number 10
_symmetry_cell_setting 'monoclinic'
loop_
_space_group_symop_operation_xyz
x,y,z
-x,y,-z
-x,-y,-z
x,-y,z
loop_
_atom_site_type_symbol
_atom_site_label
_atom_site_fract_x
_atom_site_fract_y
_atom_site_fract_z
Si Si1 0.049516 0.822455 0.872805
Si Si2 0.632020 0.679672 0.125712
Si Si3 0.606344 0.679817 0.263035
Si Si4 0.699566 0.320326 0.884097
Si Si5 0.129370 0.333754 0.133362
Si Si6 0.095520 0.320417 0.497649
Si Si7 0.065292 0.320790 0.738324
O O1 0.016934 0.761884 0.776636
O O2 0.910939 0.780474 0.831212
O O3 0.068241 0.000000 0.883814
O O4 0.193727 0.750569 0.993175
O O5 0.625973 0.500000 0.124627
O O6 0.623759 0.744998 0.197332
O O7 0.775870 0.732661 0.179856
O O8 0.500000 0.746282 0.000000
O O9 0.602836 0.500000 0.259008
O O10 0.459491 0.740912 0.202896
O O11 0.741613 0.736269 0.392402
O O12 0.711288 0.500000 0.900948
O O13 0.738907 0.273992 0.830263
O O14 0.163060 0.500000 0.185849
O O15 0.000000 0.349044 0.000000
O O16 0.087086 0.500000 0.495890
O O17 0.000000 0.254693 0.500000
O O18 0.037071 0.264880 0.387578
O O19 0.056618 0.500000 0.743690
#
# Coordination Sequence:
#
# PCOD8057907 Si02
#       7
#     4   4   4   4   4   4   4
#     4  11  21  31  46  69  97 127 160 196 235 282
#     4   9  15  22  38  67  97 123 150 183 226 276
#     4   9  15  25  44  72 101 122 151 194 236 281
#     4   9  17  30  50  74  99 125 152 189 239 289
#     4   8  15  29  48  70  95 122 153 190 236 288
#     4   9  15  26  45  73  99 120 156 204 240 268
#     4  10  18  29  47  69  96 127 159 196 236 276
#
# _framework density 17.279458999999999
#
# number of rings (size 3 to 8) (size 9 to 14) (size 15 to 20)
#    0.000    2.714    1.429    3.000    0.000    4.857 
#    0.000    0.000    0.000    6.000    0.000    6.000 
#    0.000    0.000    0.000    0.000    0.000    0.000 
#
# Total GULP energy -347063.608559 kJ/mol
# GULP energy per Si atom -12395.128877 kJ/mol
# Density = 1.724013 g / cm^3
# Si number density = 17.279459 Si / 1000 Ang^3
#
#
#
# Elastic Constant Matrix: (Units=GPa)
#
#
# Indices 1 2 3 4 5 6 
#
# 1 140.2867 30.9610 65.0491 0.0000 -14.0803 0.0000
# 2 30.9610 37.8206 23.7835 0.0000 -6.4558 0.0000
# 3 65.0491 23.7835 125.5338 0.0000 -10.8012 0.0000
# 4 0.0000 0.0000 0.0000 3.4852 0.0000 -0.0770
# 5 -14.0803 -6.4558 -10.8012 0.0000 18.9519 0.0000
# 6 0.0000 0.0000 0.0000 -0.0770 0.0000 0.5468
#
#
#
# Elastic Compliance Matrix: (Units=1/GPa)
#
#
# Indices 1 2 3 4 5 6 
#
# 1 0.010629 -0.005461 -0.004158 0.000000 0.003667 0.000000
# 2 -0.005461 0.033827 -0.003088 0.000000 0.005706 0.000000
# 3 -0.004158 -0.003088 0.010883 0.000000 0.002061 0.000000
# 4 0.000000 0.000000 0.000000 0.287823 0.000000 0.040531
# 5 0.003667 0.005706 0.002061 0.000000 0.058608 0.000000
# 6 0.000000 0.000000 0.000000 0.040531 0.000000 1.834528
#
#
# Mechanical properties :
#
#
# Convention : Reuss Voigt Hill
#
# Bulk Modulus (GPa) = 33.41625 60.35869 46.88747
# Shear Modulus (GPa) = 2.20101 16.85328 9.52714
#
# Velocity S-wave (km/s) = 1.12984 3.12643 2.35065
# Velocity P-wave (km/s) = 4.59159 6.93105 5.87887
#
# Compressibility (1/GPa) = 0.02992556
#
# Stress axis : x y z
#
# Youngs Moduli (GPa) = 94.07796 29.56222 91.88697
#
# Poissons Ratio (x) = 0.16144 0.38205
# Poissons Ratio (y) = 0.51376 0.28376
# Poissons Ratio (z) = 0.39116 0.09129
#
# Static dielectric constant tensor:
#      x y z
#    x 3.661390 0.000000 0.089770 
#    y 0.000000 2.707400 0.000000 
#    z 0.089770 0.000000 3.243750 
# 
# 
# High freq. dielectric constant tensor:
#      x y z
#    x 1.678590 0.000000 -0.001690 
#    y 0.000000 1.614140 0.000000 
#    z -0.001690 0.000000 1.648700 
# 
# From -- ./inp_files/77801.got.cif
#   From: 2010.06.25/outbox.cif.g09.slc.cpg/sg10_39_cif.got.tgz:77801.got - 2010.06.27 22:07:45.
