data_PCOD8057899
_publ_section_title
;
Structure prediction by ZEFSAII (Michael W. Deem and Ramdas Pophale) SiO2 
 PCOD8057899
Probable space group: P 2/M
;
_chemical_formula_sum "Si O2"
_cell_formula_units_Z 32
_cell_length_a 14.691754
_cell_length_b 8.828853
_cell_length_c 26.252411
_cell_angle_alpha 90.000000
_cell_angle_beta 32.471418
_cell_angle_gamma 90.000000
_cell_volume 1828.198702
_symmetry_space_group_name_H-M "P 2/M"
_symmetry_group_IT_number 10
_symmetry_cell_setting 'monoclinic'
loop_
_space_group_symop_operation_xyz
x,y,z
-x,y,-z
-x,-y,-z
x,-y,z
loop_
_atom_site_type_symbol
_atom_site_label
_atom_site_fract_x
_atom_site_fract_y
_atom_site_fract_z
Si Si1 0.287378 0.825847 0.045909
Si Si2 0.856471 0.820495 0.778073
Si Si3 0.420649 0.321711 0.154512
Si Si4 0.454161 0.819788 0.600415
Si Si5 0.387443 0.179509 0.847890
Si Si6 0.235515 0.180037 0.610212
Si Si7 0.937488 0.174001 0.940993
Si Si8 0.688960 0.819933 0.227508
O O1 0.240295 0.773387 0.124608
O O2 0.120064 0.805595 0.090319
O O3 0.349109 0.000000 0.015476
O O4 0.440258 0.725161 0.952979
O O5 0.761751 0.743654 0.775465
O O6 0.047679 0.754732 0.689639
O O7 0.856679 0.000000 0.770894
O O8 0.410386 0.500000 0.162769
O O9 0.463476 0.256762 0.190226
O O10 0.639727 0.764640 0.494174
O O11 0.310375 0.761673 0.628837
O O12 0.415549 0.754069 0.675010
O O13 0.450830 0.000000 0.602788
O O14 0.406441 0.224880 0.779680
O O15 0.399052 0.000000 0.851339
O O16 0.205909 0.242666 0.953867
O O17 0.227250 0.000000 0.615508
O O18 0.121007 0.251498 0.861991
O O19 0.957367 0.000000 0.946691
O O20 0.702450 0.000000 0.226084
#
# Coordination Sequence:
#
# PCOD8057899 Si02
#       8
#     4   4   4   4   4   4   4   4
#     4   9  17  29  46  67  91 118 147 178 213 259
#     4  10  18  29  47  68  89 117 151 181 213 258
#     4  11  22  33  44  60  86 119 152 188 227 261
#     4   8  13  22  38  67 102 123 136 166 219 271
#     4   9  17  29  44  63  88 119 154 188 218 252
#     4   8  14  24  40  66 100 125 137 165 218 271
#     4   8  13  22  38  63  91 115 142 176 213 255
#     4   9  14  21  40  67  91 116 148 183 216 255
#
# _framework density 17.503568000000001
#
# number of rings (size 3 to 8) (size 9 to 14) (size 15 to 20)
#    0.000    3.000    0.000    4.125    0.000    6.500 
#    0.000    0.000    0.000    6.750    0.000    8.750 
#    0.000    0.000    0.000    0.000    0.000    0.000 
#
# Total GULP energy -396619.021445 kJ/mol
# GULP energy per Si atom -12394.344420 kJ/mol
# Density = 1.746373 g / cm^3
# Si number density = 17.503568 Si / 1000 Ang^3
#
#
#
# Elastic Constant Matrix: (Units=GPa)
#
#
# Indices 1 2 3 4 5 6 
#
# 1 145.8697 28.5750 80.2400 0.0000 2.7803 0.0000
# 2 28.5750 31.1065 20.7485 0.0000 -2.7618 0.0000
# 3 80.2400 20.7485 94.3157 0.0000 2.1995 0.0000
# 4 0.0000 0.0000 0.0000 1.4477 0.0000 3.0060
# 5 2.7803 -2.7618 2.1995 0.0000 32.3562 0.0000
# 6 0.0000 0.0000 0.0000 3.0060 0.0000 2.8029
#
#
#
# Elastic Compliance Matrix: (Units=1/GPa)
#
#
# Indices 1 2 3 4 5 6 
#
# 1 0.013708 -0.005759 -0.010373 0.000000 -0.000964 0.000000
# 2 -0.005759 0.040564 -0.004123 0.000000 0.004238 0.000000
# 3 -0.010373 -0.004123 0.020354 0.000000 -0.000844 0.000000
# 4 0.000000 0.000000 0.000000 -0.562999 0.000000 0.603801
# 5 -0.000964 0.004238 -0.000844 0.000000 0.031408 0.000000
# 6 0.000000 0.000000 0.000000 0.603801 0.000000 -0.290784
#
#
# Mechanical properties :
#
#
# Convention : Reuss Voigt Hill
#
# Bulk Modulus (GPa) = 29.31109 58.93543 44.12326
# Shear Modulus (GPa) = -7.18527 16.76992 4.79233
#
# Velocity S-wave (km/s) = -2.02829 3.09865 1.65646
# Velocity P-wave (km/s) = 3.36108 6.82245 5.37786
#
# Compressibility (1/GPa) = 0.03411677
#
# Stress axis : x y z
#
# Youngs Moduli (GPa) = 72.95168 24.65219 49.13066
#
# Poissons Ratio (x) = 0.14198 0.50961
# Poissons Ratio (y) = 0.42014 0.20256
# Poissons Ratio (z) = 0.75669 0.10164
#
# Static dielectric constant tensor:
#      x y z
#    x 3.433690 0.000000 -0.000700 
#    y 0.000000 2.641940 0.000000 
#    z -0.000700 0.000000 3.393380 
# 
# 
# High freq. dielectric constant tensor:
#      x y z
#    x 1.683430 0.000000 -0.001350 
#    y 0.000000 1.612890 0.000000 
#    z -0.001350 0.000000 1.660050 
# 
# From -- ./inp_files/93118.got.cif
#   From: 2010.06.25/outbox.cif.g09.slc.cpg/sg10_47_cif.got.tgz:93118.got - 2010.06.27 22:07:45.
