data_PCOD8057004
_publ_section_title
;
Structure prediction by ZEFSAII (Michael W. Deem and Ramdas Pophale) SiO2 
 PCOD8057004
Probable space group: P 2/M
;
_chemical_formula_sum "Si O2"
_cell_formula_units_Z 28
_cell_length_a 15.604280
_cell_length_b 7.868034
_cell_length_c 31.921383
_cell_angle_alpha 90.000000
_cell_angle_beta 26.413233
_cell_angle_gamma 90.000000
_cell_volume 1743.401782
_symmetry_space_group_name_H-M "P 2/M"
_symmetry_group_IT_number 10
_symmetry_cell_setting 'monoclinic'
loop_
_space_group_symop_operation_xyz
x,y,z
-x,y,-z
-x,-y,-z
x,-y,z
loop_
_atom_site_type_symbol
_atom_site_label
_atom_site_fract_x
_atom_site_fract_y
_atom_site_fract_z
Si Si1 0.266302 0.311487 0.285459
Si Si2 0.792235 0.000000 0.539834
Si Si3 0.752691 0.000000 0.650209
Si Si4 0.819394 0.304633 0.469811
Si Si5 0.685988 0.809463 0.947505
Si Si6 0.908558 0.306235 0.777369
Si Si7 0.697732 0.700143 0.430602
Si Si8 0.428678 0.194706 0.131663
O O1 0.288015 0.500000 0.295879
O O2 0.328428 0.170323 0.292166
O O3 0.404078 0.302343 0.184618
O O4 0.048583 0.280249 0.365336
O O5 0.684067 0.000000 0.631965
O O6 0.732924 0.172950 0.541564
O O7 0.018847 0.000000 0.447720
O O8 0.769534 0.500000 0.504323
O O9 0.725469 0.252551 0.466943
O O10 0.855839 0.704467 0.850168
O O11 0.762771 0.000000 0.919958
O O12 0.500000 0.806065 0.000000
O O13 0.615325 0.735807 0.023653
O O14 0.896864 0.500000 0.767043
O O15 0.760425 0.199246 0.814584
O O16 0.122386 0.231872 0.675729
O O17 0.500000 0.784230 0.500000
O O18 0.686400 0.500000 0.429888
O O19 0.461670 0.000000 0.129964
#
# Coordination Sequence:
#
# PCOD8057004 Si02
#       8
#     4   2   2   4   4   4   4   4
#     4  10  17  26  42  62  83 109 142 173 205 250
#     4   9  18  30  45  58  81 105 141 175 210 259
#     4   9  18  30  40  62  82 108 133 172 220 250
#     4   9  17  29  44  60  79 111 144 175 215 248
#     4   8  16  27  36  52  76 107 139 169 208 247
#     4  10  17  25  39  57  76 105 145 183 212 243
#     4   9  17  29  43  59  82 112 146 183 220 248
#     4  10  17  26  40  55  80 113 142 171 208 251
#
# _framework density 16.060555000000001
#
# number of rings (size 3 to 8) (size 9 to 14) (size 15 to 20)
#    0.000    2.714    2.143    1.714    0.000    3.714 
#    1.286    3.214    0.000    0.000    0.000    0.000 
#    0.000    0.000    0.000    2.571    0.000   16.143 
#
# Total GULP energy -346961.085380 kJ/mol
# GULP energy per Si atom -12391.467335 kJ/mol
# Density = 1.602400 g / cm^3
# Si number density = 16.060555 Si / 1000 Ang^3
#
#
#
# Elastic Constant Matrix: (Units=GPa)
#
#
# Indices 1 2 3 4 5 6 
#
# 1 66.2506 34.9527 48.7332 0.0000 22.2555 0.0000
# 2 34.9527 80.0657 29.0632 0.0000 17.1212 0.0000
# 3 48.7332 29.0632 87.2769 0.0000 22.7506 0.0000
# 4 0.0000 0.0000 0.0000 14.3460 0.0000 9.0629
# 5 22.2555 17.1212 22.7506 0.0000 24.7022 0.0000
# 6 0.0000 0.0000 0.0000 9.0629 0.0000 14.5953
#
#
#
# Elastic Compliance Matrix: (Units=1/GPa)
#
#
# Indices 1 2 3 4 5 6 
#
# 1 0.032006 -0.006773 -0.012268 0.000000 -0.012843 0.000000
# 2 -0.006773 0.016692 -0.000463 0.000000 -0.005042 0.000000
# 3 -0.012268 -0.000463 0.020393 0.000000 -0.007408 0.000000
# 4 0.000000 0.000000 0.000000 0.114700 0.000000 -0.071223
# 5 -0.012843 -0.005042 -0.007408 0.000000 0.062370 0.000000
# 6 0.000000 0.000000 0.000000 -0.071223 0.000000 0.112741
#
#
# Mechanical properties :
#
#
# Convention : Reuss Voigt Hill
#
# Bulk Modulus (GPa) = 33.23982 51.01015 42.12498
# Shear Modulus (GPa) = 12.25675 18.78496 15.52086
#
# Velocity S-wave (km/s) = 2.76553 3.42370 3.11206
# Velocity P-wave (km/s) = 5.56229 6.88905 6.26091
#
# Compressibility (1/GPa) = 0.03008440
#
# Stress axis : x y z
#
# Youngs Moduli (GPa) = 31.24409 59.90754 49.03566
#
# Poissons Ratio (x) = 0.40574 0.60159
# Poissons Ratio (y) = 0.21161 0.02269
# Poissons Ratio (z) = 0.38331 0.02772
#
# Static dielectric constant tensor:
#      x y z
#    x 2.777740 0.000000 0.312540 
#    y 0.000000 3.053710 0.000000 
#    z 0.312540 0.000000 3.242050 
# 
# 
# High freq. dielectric constant tensor:
#      x y z
#    x 1.559090 0.000000 0.039570 
#    y 0.000000 1.621750 0.000000 
#    z 0.039570 0.000000 1.598700 
# 
# From -- ./inp_files/95189.got.cif
#   From: 2010.06.25/outbox.cif.g09.slc.cpg/sg10_48_cif.got.tgz:95189.got - 2010.06.27 22:07:45.
