data_PCOD8057336
_publ_section_title
;
Structure prediction by ZEFSAII (Michael W. Deem and Ramdas Pophale) SiO2 
 PCOD8057336
Probable space group: P 2/M
;
_chemical_formula_sum "Si O2"
_cell_formula_units_Z 18
_cell_length_a 9.401584
_cell_length_b 7.571332
_cell_length_c 13.492430
_cell_angle_alpha 90.000000
_cell_angle_beta 81.517387
_cell_angle_gamma 90.000000
_cell_volume 949.918680
_symmetry_space_group_name_H-M "P 2/M"
_symmetry_group_IT_number 10
_symmetry_cell_setting 'monoclinic'
loop_
_space_group_symop_operation_xyz
x,y,z
-x,y,-z
-x,-y,-z
x,-y,z
loop_
_atom_site_type_symbol
_atom_site_label
_atom_site_fract_x
_atom_site_fract_y
_atom_site_fract_z
Si Si1 0.723170 0.797512 0.241561
Si Si2 0.331272 0.200293 0.526736
Si Si3 0.975401 0.202945 0.888479
Si Si4 0.276755 0.500000 0.391030
Si Si5 0.514184 0.500000 0.219271
Si Si6 0.788536 0.500000 0.816902
O O1 0.721873 0.754719 0.357856
O O2 0.609960 0.675055 0.195472
O O3 0.880875 0.753153 0.186252
O O4 0.679642 0.000000 0.224741
O O5 0.500000 0.234545 0.500000
O O6 0.246691 0.326105 0.459442
O O7 0.292596 0.000000 0.501652
O O8 0.848129 0.323556 0.860690
O O9 0.928412 0.000000 0.879501
O O10 0.000000 0.249356 0.000000
O O11 0.443109 0.500000 0.336548
O O12 0.172962 0.500000 0.305123
O O13 0.385390 0.500000 0.151313
#
# Coordination Sequence:
#
# PCOD8057336 Si02
#       6
#     4   4   4   2   2   2
#     4  10  20  35  58  85 110 145 191 231 266 316
#     4  10  17  29  51  79 113 147 181 221 263 319
#     4  10  22  42  63  79 104 146 191 231 274 330
#     4  10  20  31  49  80 114 148 173 209 276 327
#     4  10  20  33  55  84 115 147 174 226 279 324
#     4  10  22  37  58  84 113 148 178 224 287 330
#
# _framework density 18.948989999999998
#
# number of rings (size 3 to 8) (size 9 to 14) (size 15 to 20)
#    0.667    1.333    2.222    2.000    0.000    1.778 
#    0.000    4.444    0.000    8.000    0.000    0.000 
#    0.000    0.000    0.000    0.000    0.000    0.000 
#
# Total GULP energy -223180.914380 kJ/mol
# GULP energy per Si atom -12398.939688 kJ/mol
# Density = 1.890586 g / cm^3
# Si number density = 18.948990 Si / 1000 Ang^3
#
#
#
# Elastic Constant Matrix: (Units=GPa)
#
#
# Indices 1 2 3 4 5 6 
#
# 1 39.2495 44.9007 10.9955 0.0000 28.5921 0.0000
# 2 44.9007 130.3981 38.6672 0.0000 33.3445 0.0000
# 3 10.9955 38.6672 79.9279 0.0000 15.7463 0.0000
# 4 0.0000 0.0000 0.0000 15.2524 0.0000 -1.4173
# 5 28.5921 33.3445 15.7463 0.0000 30.7212 0.0000
# 6 0.0000 0.0000 0.0000 -1.4173 0.0000 10.5939
#
#
#
# Elastic Compliance Matrix: (Units=1/GPa)
#
#
# Indices 1 2 3 4 5 6 
#
# 1 0.101016 -0.017233 0.010319 0.000000 -0.080600 0.000000
# 2 -0.017233 0.014339 -0.005183 0.000000 0.003132 0.000000
# 3 0.010319 -0.005183 0.015998 0.000000 -0.012178 0.000000
# 4 0.000000 0.000000 0.000000 0.066389 0.000000 0.008882
# 5 -0.080600 0.003132 -0.012178 0.000000 0.110408 0.000000
# 6 0.000000 0.000000 0.000000 0.008882 0.000000 0.095583
#
#
# Mechanical properties :
#
#
# Convention : Reuss Voigt Hill
#
# Bulk Modulus (GPa) = 9.33190 48.74467 29.03829
# Shear Modulus (GPa) = 10.78410 21.64763 16.21586
#
# Velocity S-wave (km/s) = 2.38820 3.38363 2.92852
# Velocity P-wave (km/s) = 3.54120 6.40666 5.17616
#
# Compressibility (1/GPa) = 0.10715931
#
# Stress axis : x y z
#
# Youngs Moduli (GPa) = 9.89944 69.74113 62.50636
#
# Poissons Ratio (x) = 1.20183 -0.64500
# Poissons Ratio (y) = 0.17059 0.32398
# Poissons Ratio (z) = -0.10215 0.36147
#
# Static dielectric constant tensor:
#      x y z
#    x 3.161130 0.000000 -0.174120 
#    y 0.000000 3.571550 0.000000 
#    z -0.174120 0.000000 3.430810 
# 
# 
# High freq. dielectric constant tensor:
#      x y z
#    x 1.709050 0.000000 -0.012310 
#    y 0.000000 1.752670 0.000000 
#    z -0.012310 0.000000 1.731550 
# 
# From -- ./inp_files/40832.got.cif
#   From: 2010.06.25/outbox.cif.g09.slc.cpg/sg10_21_cif.got.tgz:40832.got - 2010.06.27 22:07:45.
