data_PCOD8057291
_publ_section_title
;
Structure prediction by ZEFSAII (Michael W. Deem and Ramdas Pophale) SiO2 
 PCOD8057291
Probable space group: P 2/M
;
_chemical_formula_sum "Si O2"
_cell_formula_units_Z 32
_cell_length_a 15.513066
_cell_length_b 14.425891
_cell_length_c 11.965625
_cell_angle_alpha 90.000000
_cell_angle_beta 39.526911
_cell_angle_gamma 90.000000
_cell_volume 1704.250897
_symmetry_space_group_name_H-M "P 2/M"
_symmetry_group_IT_number 10
_symmetry_cell_setting 'monoclinic'
loop_
_space_group_symop_operation_xyz
x,y,z
-x,y,-z
-x,-y,-z
x,-y,z
loop_
_atom_site_type_symbol
_atom_site_label
_atom_site_fract_x
_atom_site_fract_y
_atom_site_fract_z
Si Si1 0.654665 0.399990 0.603474
Si Si2 0.156854 0.891493 0.565084
Si Si3 0.342136 0.777401 0.789012
Si Si4 0.753916 0.602845 0.746084
Si Si5 0.150019 0.200802 0.349981
Si Si6 0.342136 0.777402 0.526716
Si Si7 0.654665 0.600010 0.087195
Si Si8 0.156854 0.891493 0.121208
O O1 0.723349 0.500000 0.504238
O O2 0.661440 0.384206 0.729622
O O3 0.719871 0.315610 0.469010
O O4 0.500000 0.404402 0.721503
O O5 0.218257 0.838800 0.394522
O O6 0.250915 0.862600 0.575222
O O7 0.000000 0.864151 0.745650
O O8 0.171800 0.000000 0.530457
O O9 0.322768 0.767608 0.677232
O O10 0.500000 0.794035 0.662512
O O11 0.280129 0.684390 0.908753
O O12 0.250915 0.862600 0.922948
O O13 0.823922 0.500000 0.676079
O O14 0.860284 0.687164 0.639716
O O15 0.661440 0.615794 0.947497
O O16 0.218257 0.161200 0.168964
O O17 0.000000 0.158729 0.500000
O O18 0.723350 0.500000 0.049062
O O19 0.171799 0.000000 0.125944
#
# Coordination Sequence:
#
# PCOD8057291 Si02
#       8
#     4   4   4   4   4   4   4   4
#     4   9  17  30  50  77 108 141 176 214 260 317
#     4  10  21  38  59  80 104 139 181 222 268 323
#     4  10  21  36  55  80 109 142 181 225 268 309
#     4  10  17  28  51  80 106 135 171 214 265 322
#     4  10  19  34  55  79 107 138 173 216 265 322
#     4  10  21  36  55  80 109 142 181 225 268 309
#     4   9  17  30  50  77 108 141 176 214 260 317
#     4  10  21  38  59  80 104 139 181 222 268 323
#
# _framework density 18.776578000000001
#
# number of rings (size 3 to 8) (size 9 to 14) (size 15 to 20)
#    0.000    2.250    2.500    0.750    0.000    5.250 
#    0.000    5.625    0.000    2.250    0.000    1.750 
#    0.000    0.000    0.000    0.000    0.000    0.000 
#
# Total GULP energy -396558.985295 kJ/mol
# GULP energy per Si atom -12392.468290 kJ/mol
# Density = 1.873384 g / cm^3
# Si number density = 18.776578 Si / 1000 Ang^3
#
#
#
# Elastic Constant Matrix: (Units=GPa)
#
#
# Indices 1 2 3 4 5 6 
#
# 1 85.8163 48.0573 34.2814 0.0000 14.5119 0.0000
# 2 48.0573 132.0224 43.8600 0.0000 9.1004 0.0000
# 3 34.2814 43.8600 72.4498 0.0000 14.4691 0.0000
# 4 0.0000 0.0000 0.0000 24.1972 0.0000 0.3173
# 5 14.5119 9.1004 14.4691 0.0000 22.5134 0.0000
# 6 0.0000 0.0000 0.0000 0.3173 0.0000 24.3436
#
#
#
# Elastic Compliance Matrix: (Units=1/GPa)
#
#
# Indices 1 2 3 4 5 6 
#
# 1 0.016778 -0.004323 -0.004028 0.000000 -0.006479 0.000000
# 2 -0.004323 0.010595 -0.004669 0.000000 0.001504 0.000000
# 3 -0.004028 -0.004669 0.020238 0.000000 -0.008522 0.000000
# 4 0.000000 0.000000 0.000000 0.041334 0.000000 -0.000539
# 5 -0.006479 0.001504 -0.008522 0.000000 0.053463 0.000000
# 6 0.000000 0.000000 0.000000 -0.000539 0.000000 0.041086
#
#
# Mechanical properties :
#
#
# Convention : Reuss Voigt Hill
#
# Bulk Modulus (GPa) = 46.35928 60.29844 53.32886
# Shear Modulus (GPa) = 23.07067 25.15016 24.11041
#
# Velocity S-wave (km/s) = 3.50908 3.66381 3.58728
# Velocity P-wave (km/s) = 6.41574 7.07682 6.75437
#
# Compressibility (1/GPa) = 0.02157065
#
# Stress axis : x y z
#
# Youngs Moduli (GPa) = 59.60091 94.37971 49.41287
#
# Poissons Ratio (x) = 0.40796 0.19905
# Poissons Ratio (y) = 0.25763 0.23073
# Poissons Ratio (z) = 0.24009 0.44070
#
# Static dielectric constant tensor:
#      x y z
#    x 3.276630 0.000000 0.166370 
#    y 0.000000 3.701180 0.000000 
#    z 0.166370 0.000000 3.199900 
# 
# 
# High freq. dielectric constant tensor:
#      x y z
#    x 1.711690 0.000000 0.020810 
#    y 0.000000 1.744670 0.000000 
#    z 0.020810 0.000000 1.702090 
# 
# From -- ./inp_files/51629.got.cif
#   From: 2010.06.25/outbox.cif.g09.slc.cpg/sg10_26_cif.got.tgz:51629.got - 2010.06.27 22:07:45.
