data_PCOD8057927
_publ_section_title
;
Structure prediction by ZEFSAII (Michael W. Deem and Ramdas Pophale) SiO2 
 PCOD8057927
Probable space group: P 2/M
;
_chemical_formula_sum "Si O2"
_cell_formula_units_Z 32
_cell_length_a 23.411559
_cell_length_b 14.711648
_cell_length_c 9.653264
_cell_angle_alpha 90.000000
_cell_angle_beta 145.140447
_cell_angle_gamma 90.000000
_cell_volume 1900.346548
_symmetry_space_group_name_H-M "P 2/M"
_symmetry_group_IT_number 10
_symmetry_cell_setting 'monoclinic'
loop_
_space_group_symop_operation_xyz
x,y,z
-x,y,-z
-x,-y,-z
x,-y,z
loop_
_atom_site_type_symbol
_atom_site_label
_atom_site_fract_x
_atom_site_fract_y
_atom_site_fract_z
Si Si1 0.966031 0.602872 0.775068
Si Si2 0.682739 0.402039 0.523079
Si Si3 0.500085 0.602837 0.344398
Si Si4 0.861545 0.265816 0.892796
Si Si5 0.116995 0.898986 0.567568
Si Si6 0.812250 0.748385 0.498472
Si Si7 0.881621 0.899003 0.115094
Si Si8 0.407624 0.307639 0.898747
O O1 0.964965 0.500000 0.707090
O O2 0.855681 0.648788 0.537357
O O3 0.000000 0.592588 0.000000
O O4 0.045390 0.673920 0.863761
O O5 0.736122 0.500000 0.622032
O O6 0.614049 0.396371 0.521434
O O7 0.764793 0.326890 0.698767
O O8 0.616506 0.392073 0.251565
O O9 0.500000 0.644316 0.500000
O O10 0.457177 0.500000 0.261773
O O11 0.434166 0.662509 0.107594
O O12 0.875950 0.228892 0.764417
O O13 0.832146 0.180016 0.927424
O O14 0.168973 0.825127 0.576268
O O15 0.152188 0.883587 0.794723
O O16 0.998990 0.888983 0.326877
O O17 0.148579 0.000000 0.580680
O O18 0.693376 0.751247 0.289063
O O19 0.847358 0.000000 0.998440
O O20 0.500000 0.256306 0.000000
#
# Coordination Sequence:
#
# PCOD8057927 Si02
#       8
#     4   4   4   4   4   4   4   4
#     4   9  17  28  42  65  98 130 158 189 224 271
#     4   9  17  29  46  68  95 131 163 192 237 286
#     4   9  17  29  45  66  90 119 162 209 244 274
#     4  10  18  29  47  71  98 125 162 197 232 275
#     4   9  18  33  50  69  93 125 160 195 240 288
#     4  10  19  30  49  73  95 124 162 198 237 280
#     4   9  18  32  50  69  95 127 157 194 239 285
#     4   9  18  31  47  67  94 125 161 200 240 283
#
# _framework density 16.839033000000001
#
# number of rings (size 3 to 8) (size 9 to 14) (size 15 to 20)
#    0.000    2.750    1.250    1.500    0.000    6.500 
#    0.000    1.250    0.000    2.625    0.000    2.625 
#    0.000   19.000    0.000    0.000    0.000    0.000 
#
# Total GULP energy -396426.836835 kJ/mol
# GULP energy per Si atom -12388.338651 kJ/mol
# Density = 1.680071 g / cm^3
# Si number density = 16.839033 Si / 1000 Ang^3
#
#
#
# Elastic Constant Matrix: (Units=GPa)
#
#
# Indices 1 2 3 4 5 6 
#
# 1 90.8388 52.0683 36.6703 0.0000 -5.7461 0.0000
# 2 52.0683 113.5012 37.2368 0.0000 -5.7611 0.0000
# 3 36.6703 37.2368 62.0301 0.0000 0.3175 0.0000
# 4 0.0000 0.0000 0.0000 14.2738 0.0000 -4.5595
# 5 -5.7461 -5.7611 0.3175 0.0000 28.2893 0.0000
# 6 0.0000 0.0000 0.0000 -4.5595 0.0000 22.4440
#
#
#
# Elastic Compliance Matrix: (Units=1/GPa)
#
#
# Indices 1 2 3 4 5 6 
#
# 1 0.017040 -0.005460 -0.006808 0.000000 0.002426 0.000000
# 2 -0.005460 0.012874 -0.004508 0.000000 0.001563 0.000000
# 3 -0.006808 -0.004508 0.022865 0.000000 -0.002558 0.000000
# 4 0.000000 0.000000 0.000000 0.074920 0.000000 0.015220
# 5 0.002426 0.001563 -0.002558 0.000000 0.036189 0.000000
# 6 0.000000 0.000000 0.000000 0.015220 0.000000 0.047647
#
#
# Mechanical properties :
#
#
# Convention : Reuss Voigt Hill
#
# Bulk Modulus (GPa) = 52.01324 57.59121 54.80222
# Shear Modulus (GPa) = 19.88089 22.36106 21.12097
#
# Velocity S-wave (km/s) = 3.43978 3.64803 3.54543
# Velocity P-wave (km/s) = 6.83605 7.21245 7.02677
#
# Compressibility (1/GPa) = 0.01922587
#
# Stress axis : x y z
#
# Youngs Moduli (GPa) = 58.68486 77.67732 43.73442
#
# Poissons Ratio (x) = 0.42415 0.29775
# Poissons Ratio (y) = 0.32044 0.19716
# Poissons Ratio (z) = 0.39953 0.35018
#
# Static dielectric constant tensor:
#      x y z
#    x 3.282720 0.000000 -0.120170 
#    y 0.000000 3.347560 0.000000 
#    z -0.120170 0.000000 3.117260 
# 
# 
# High freq. dielectric constant tensor:
#      x y z
#    x 1.645470 0.000000 0.001070 
#    y 0.000000 1.631730 0.000000 
#    z 0.001070 0.000000 1.627000 
# 
# From -- ./inp_files/29121.got.cif
#   From: 2010.06.25/outbox.cif.g09.slc.cpg/sg10_15_cif.got.tgz:29121.got - 2010.06.27 22:07:45.
