data_PCOD8057346
_publ_section_title
;
Structure prediction by ZEFSAII (Michael W. Deem and Ramdas Pophale) SiO2 
 PCOD8057346
Probable space group: P 2/M
;
_chemical_formula_sum "Si O2"
_cell_formula_units_Z 26
_cell_length_a 24.181498
_cell_length_b 12.148332
_cell_length_c 8.142623
_cell_angle_alpha 90.000000
_cell_angle_beta 148.186951
_cell_angle_gamma 90.000000
_cell_volume 1260.949955
_symmetry_space_group_name_H-M "P 2/M"
_symmetry_group_IT_number 10
_symmetry_cell_setting 'monoclinic'
loop_
_space_group_symop_operation_xyz
x,y,z
-x,y,-z
-x,-y,-z
x,-y,z
loop_
_atom_site_type_symbol
_atom_site_label
_atom_site_fract_x
_atom_site_fract_y
_atom_site_fract_z
Si Si1 0.118022 0.263497 0.249411
Si Si2 0.308655 0.123519 0.724167
Si Si3 0.495724 0.736767 0.792780
Si Si4 0.194563 0.500000 0.076532
Si Si5 0.885282 0.272349 0.148440
Si Si6 0.120361 0.500000 0.259085
Si Si7 0.555398 0.500000 0.312951
Si Si8 0.699548 0.123094 0.687803
O O1 0.197735 0.169631 0.512282
O O2 0.159794 0.381755 0.429820
O O3 0.120638 0.273362 0.061304
O O4 0.000000 0.231566 0.000000
O O5 0.308057 0.120650 0.527098
O O6 0.325776 0.000000 0.836557
O O7 0.400298 0.205392 0.017058
O O8 0.481859 0.611789 0.687724
O O9 0.397663 0.808920 0.484692
O O10 0.500000 0.732143 0.000000
O O11 0.143495 0.500000 0.125876
O O12 0.320016 0.500000 0.401251
O O13 0.152230 0.391254 0.876399
O O14 0.000000 0.242147 0.500000
O O15 0.806987 0.179374 0.019605
O O16 0.000000 0.500000 0.000000
O O17 0.500000 0.500000 0.000000
O O18 0.695929 0.000000 0.750618
#
# Coordination Sequence:
#
# PCOD8057346 Si02
#       8
#     4   4   4   2   4   2   2   4
#     4   9  18  31  47  67  94 123 157 194 231 271
#     4   9  17  27  42  64  90 122 154 187 233 283
#     4   9  16  25  39  62  91 119 150 184 235 287
#     4  10  17  30  44  64  98 122 150 192 238 282
#     4  10  19  30  46  67  93 125 159 189 228 276
#     4   8  16  27  43  62  85 119 152 185 221 270
#     4  10  18  23  41  68  92 123 146 186 244 284
#     4   9  16  27  41  59  89 122 150 189 231 272
#
# _framework density 20.619375000000002
#
# number of rings (size 3 to 8) (size 9 to 14) (size 15 to 20)
#    0.000    2.769    1.538    0.692    6.462    2.462 
#    0.000    0.000    0.000    0.000    0.000    1.077 
#    0.000    3.692    0.000    0.000    0.000    0.000 
#
# Total GULP energy -322109.813680 kJ/mol
# GULP energy per Si atom -12388.838988 kJ/mol
# Density = 2.057244 g / cm^3
# Si number density = 20.619375 Si / 1000 Ang^3
#
#
#
# Elastic Constant Matrix: (Units=GPa)
#
#
# Indices 1 2 3 4 5 6 
#
# 1 35.4217 37.7254 22.8475 0.0000 28.1768 0.0000
# 2 37.7254 223.2471 73.1009 0.0000 46.4594 0.0000
# 3 22.8475 73.1009 113.6054 0.0000 48.9449 0.0000
# 4 0.0000 0.0000 0.0000 27.9961 0.0000 16.2318
# 5 28.1768 46.4594 48.9449 0.0000 35.8898 0.0000
# 6 0.0000 0.0000 0.0000 16.2318 0.0000 13.3449
#
#
#
# Elastic Compliance Matrix: (Units=1/GPa)
#
#
# Indices 1 2 3 4 5 6 
#
# 1 0.125069 -0.003486 0.042307 0.000000 -0.151375 0.000000
# 2 -0.003486 0.006305 -0.002470 0.000000 -0.002057 0.000000
# 3 0.042307 -0.002470 0.035921 0.000000 -0.079006 0.000000
# 4 0.000000 0.000000 0.000000 0.121170 0.000000 -0.147383
# 5 -0.151375 -0.002057 -0.079006 0.000000 0.257114 0.000000
# 6 0.000000 0.000000 0.000000 -0.147383 0.000000 0.254201
#
#
# Mechanical properties :
#
#
# Convention : Reuss Voigt Hill
#
# Bulk Modulus (GPa) = 4.16668 71.06911 37.61789
# Shear Modulus (GPa) = 6.19519 31.35285 18.77402
#
# Velocity S-wave (km/s) = 1.73524 3.90366 3.02073
# Velocity P-wave (km/s) = 2.45762 7.40676 5.51815
#
# Compressibility (1/GPa) = 0.23999917
#
# Stress axis : x y z
#
# Youngs Moduli (GPa) = 7.99559 158.59814 27.83856
#
# Poissons Ratio (x) = 0.55283 -1.17777
# Poissons Ratio (y) = 0.02787 0.06876
# Poissons Ratio (z) = -0.33827 0.39171
#
# Static dielectric constant tensor:
#      x y z
#    x 3.308580 0.000000 0.514160 
#    y 0.000000 4.544860 0.000000 
#    z 0.514160 0.000000 3.563960 
# 
# 
# High freq. dielectric constant tensor:
#      x y z
#    x 1.757600 0.000000 0.044940 
#    y 0.000000 1.830320 0.000000 
#    z 0.044940 0.000000 1.780380 
# 
# From -- ./inp_files/37632.got.cif
#   From: 2010.06.25/outbox.cif.g09.slc.cpg/sg10_19_cif.got.tgz:37632.got - 2010.06.27 22:07:45.
