data_PCOD8057407
_publ_section_title
;
Structure prediction by ZEFSAII (Michael W. Deem and Ramdas Pophale) SiO2 
 PCOD8057407
Probable space group: P 2/M
;
_chemical_formula_sum "Si O2"
_cell_formula_units_Z 32
_cell_length_a 27.408920
_cell_length_b 8.449143
_cell_length_c 21.355517
_cell_angle_alpha 90.000000
_cell_angle_beta 19.481714
_cell_angle_gamma 90.000000
_cell_volume 1649.370876
_symmetry_space_group_name_H-M "P 2/M"
_symmetry_group_IT_number 10
_symmetry_cell_setting 'monoclinic'
loop_
_space_group_symop_operation_xyz
x,y,z
-x,y,-z
-x,-y,-z
x,-y,z
loop_
_atom_site_type_symbol
_atom_site_label
_atom_site_fract_x
_atom_site_fract_y
_atom_site_fract_z
Si Si1 0.324522 0.688173 0.880925
Si Si2 0.001272 0.311430 0.728388
Si Si3 0.845604 0.311421 0.212441
Si Si4 0.542142 0.312678 0.150433
Si Si5 0.058101 0.685045 0.521257
Si Si6 0.218610 0.311362 0.570594
Si Si7 0.550849 0.311263 0.505566
Si Si8 0.787479 0.183314 0.777688
O O1 0.327804 0.500000 0.874070
O O2 0.373184 0.745194 0.890285
O O3 0.436835 0.757305 0.694091
O O4 0.162584 0.754206 0.062990
O O5 0.998341 0.500000 0.732759
O O6 0.064379 0.254009 0.585208
O O7 0.100167 0.244185 0.664892
O O8 0.849550 0.500000 0.209282
O O9 0.817692 0.245467 0.316280
O O10 0.714458 0.253238 0.325559
O O11 0.000000 0.244392 0.000000
O O12 0.547369 0.500000 0.135593
O O13 0.376251 0.251323 0.356439
O O14 0.621188 0.231202 0.995533
O O15 0.091480 0.500000 0.476740
O O16 0.181815 0.777603 0.332286
O O17 0.896976 0.715581 0.688437
O O18 0.216914 0.500000 0.574596
O O19 0.500000 0.243801 0.500000
O O20 0.547445 0.500000 0.509401
O O21 0.816154 0.000000 0.755400
#
# Coordination Sequence:
#
# PCOD8057407 Si02
#       8
#     4   4   4   4   4   4   4   4
#     4   9  15  25  41  62  90 124 166 207 240 282
#     4   9  17  27  44  69  92 120 162 209 246 283
#     4   9  16  24  34  54  90 133 166 194 242 299
#     4  10  17  31  51  70  94 132 171 204 243 292
#     4  10  18  32  52  75 102 131 165 201 246 299
#     4   9  17  28  43  65  95 129 167 207 245 289
#     4   9  16  23  33  55  89 130 166 197 240 295
#     4  11  21  32  50  76 103 128 161 205 253 295
#
# _framework density 19.401337000000002
#
# number of rings (size 3 to 8) (size 9 to 14) (size 15 to 20)
#    0.000    2.500    2.500    2.250    1.750    0.000 
#    0.000    0.625    0.000    5.250    0.000    0.000 
#    0.000    1.000    0.250    0.000    0.500    0.250 
#
# Total GULP energy -396720.338038 kJ/mol
# GULP energy per Si atom -12397.510564 kJ/mol
# Density = 1.935718 g / cm^3
# Si number density = 19.401337 Si / 1000 Ang^3
#
#
#
# Elastic Constant Matrix: (Units=GPa)
#
#
# Indices 1 2 3 4 5 6 
#
# 1 137.0336 6.1688 85.1194 0.0000 -6.5706 0.0000
# 2 6.1688 20.0637 12.4990 0.0000 2.8045 0.0000
# 3 85.1194 12.4990 193.6542 0.0000 2.4092 0.0000
# 4 0.0000 0.0000 0.0000 1.7324 0.0000 -1.3076
# 5 -6.5706 2.8045 2.4092 0.0000 37.2286 0.0000
# 6 0.0000 0.0000 0.0000 -1.3076 0.0000 0.2092
#
#
#
# Elastic Compliance Matrix: (Units=1/GPa)
#
#
# Indices 1 2 3 4 5 6 
#
# 1 0.010206 -0.000652 -0.004471 0.000000 0.002140 0.000000
# 2 -0.000652 0.052485 -0.003053 0.000000 -0.003871 0.000000
# 3 -0.004471 -0.003053 0.007339 0.000000 -0.001034 0.000000
# 4 0.000000 0.000000 0.000000 -0.155226 0.000000 -0.970421
# 5 0.002140 -0.003871 -0.001034 0.000000 0.027597 0.000000
# 6 0.000000 0.000000 0.000000 -0.970421 0.000000 -1.285680
#
#
# Mechanical properties :
#
#
# Convention : Reuss Voigt Hill
#
# Bulk Modulus (GPa) = 18.62929 62.03619 40.33274
# Shear Modulus (GPa) = -3.81961 24.29830 10.23935
#
# Velocity S-wave (km/s) = -1.40464 3.54277 2.29981
# Velocity P-wave (km/s) = 2.64428 6.98424 5.28071
#
# Compressibility (1/GPa) = 0.05367891
#
# Stress axis : x y z
#
# Youngs Moduli (GPa) = 97.97727 19.05318 136.26184
#
# Poissons Ratio (x) = 0.01242 0.60919
# Poissons Ratio (y) = 0.06389 0.41597
# Poissons Ratio (z) = 0.43803 0.05816
#
# Static dielectric constant tensor:
#      x y z
#    x 3.679910 0.000000 0.099490 
#    y 0.000000 2.796220 0.000000 
#    z 0.099490 0.000000 3.824720 
# 
# 
# High freq. dielectric constant tensor:
#      x y z
#    x 1.749480 0.000000 0.011950 
#    y 0.000000 1.686840 0.000000 
#    z 0.011950 0.000000 1.768680 
# 
# From -- ./inp_files/86794.got.cif
#   From: 2010.06.25/outbox.cif.g09.slc.cpg/sg10_44_cif.got.tgz:86794.got - 2010.06.27 22:07:45.
