data_PCOD8057127
_publ_section_title
;
Structure prediction by ZEFSAII (Michael W. Deem and Ramdas Pophale) SiO2 
 PCOD8057127
Probable space group: P 2/M
;
_chemical_formula_sum "Si O2"
_cell_formula_units_Z 32
_cell_length_a 17.854548
_cell_length_b 8.798902
_cell_length_c 23.146417
_cell_angle_alpha 90.000000
_cell_angle_beta 150.732121
_cell_angle_gamma 90.000000
_cell_volume 1777.769117
_symmetry_space_group_name_H-M "P 2/M"
_symmetry_group_IT_number 10
_symmetry_cell_setting 'monoclinic'
loop_
_space_group_symop_operation_xyz
x,y,z
-x,y,-z
-x,-y,-z
x,-y,z
loop_
_atom_site_type_symbol
_atom_site_label
_atom_site_fract_x
_atom_site_fract_y
_atom_site_fract_z
Si Si1 0.904357 0.178889 0.267148
Si Si2 0.041403 0.678591 0.462617
Si Si3 0.794134 0.679219 0.580563
Si Si4 0.648866 0.820705 0.883947
Si Si5 0.768008 0.328590 0.071911
Si Si6 0.041800 0.178567 0.965892
Si Si7 0.657442 0.180191 0.387108
Si Si8 0.091987 0.331282 0.226436
O O1 0.902425 0.258049 0.329041
O O2 0.067927 0.218902 0.350242
O O3 0.770109 0.242458 0.135090
O O4 0.883597 0.000000 0.259978
O O5 0.061745 0.500000 0.465785
O O6 0.199814 0.762138 0.554259
O O7 0.000000 0.718153 0.500000
O O8 0.826441 0.500000 0.592178
O O9 0.650472 0.737695 0.445801
O O10 0.775193 0.710623 0.636996
O O11 0.495979 0.769343 0.748841
O O12 0.661027 0.000000 0.899210
O O13 0.648469 0.749883 0.947824
O O14 0.793770 0.758157 0.944483
O O15 0.714187 0.500000 0.046664
O O16 0.935771 0.321323 0.157262
O O17 0.911082 0.220664 0.830771
O O18 0.047439 0.000000 0.975510
O O19 0.000000 0.250996 0.000000
O O20 0.665834 0.000000 0.400881
O O21 0.118039 0.500000 0.219481
#
# Coordination Sequence:
#
# PCOD8057127 Si02
#       8
#     4   4   4   4   4   4   4   4
#     4  10  17  26  44  68  93 119 149 188 231 269
#     4  10  20  33  49  69  94 123 154 188 225 268
#     4   9  16  27  43  64  90 117 151 191 227 268
#     4   9  18  31  46  68  96 122 152 190 230 273
#     4   9  16  27  44  66  91 119 153 190 228 269
#     4   9  17  29  46  67  91 120 152 187 227 271
#     4  10  19  30  47  70  95 122 151 187 231 275
#     4   8  15  26  41  63  88 114 146 188 229 263
#
# _framework density 18.000087000000001
#
# number of rings (size 3 to 8) (size 9 to 14) (size 15 to 20)
#    0.000    2.750    0.000    4.875    0.000    5.750 
#    0.000    0.000    0.000    1.500    0.000   10.500 
#    0.000    0.000    0.000    0.000    0.000    0.000 
#
# Total GULP energy -396549.876335 kJ/mol
# GULP energy per Si atom -12392.183635 kJ/mol
# Density = 1.795912 g / cm^3
# Si number density = 18.000087 Si / 1000 Ang^3
#
#
#
# Elastic Constant Matrix: (Units=GPa)
#
#
# Indices 1 2 3 4 5 6 
#
# 1 86.6737 29.9900 56.3574 0.0000 -37.8264 0.0000
# 2 29.9900 59.2584 40.0659 0.0000 -16.2012 0.0000
# 3 56.3574 40.0659 132.6593 0.0000 -43.1066 0.0000
# 4 0.0000 0.0000 0.0000 27.1068 0.0000 -12.5219
# 5 -37.8264 -16.2012 -43.1066 0.0000 34.3175 0.0000
# 6 0.0000 0.0000 0.0000 -12.5219 0.0000 20.7597
#
#
#
# Elastic Compliance Matrix: (Units=1/GPa)
#
#
# Indices 1 2 3 4 5 6 
#
# 1 0.023879 -0.005072 -0.001416 0.000000 0.022147 0.000000
# 2 -0.005072 0.022510 -0.005081 0.000000 -0.001347 0.000000
# 3 -0.001416 -0.005081 0.014172 0.000000 0.013842 0.000000
# 4 0.000000 0.000000 0.000000 0.051141 0.000000 0.030847
# 5 0.022147 -0.001347 0.013842 0.000000 0.070303 0.000000
# 6 0.000000 0.000000 0.000000 0.030847 0.000000 0.066777
#
#
# Mechanical properties :
#
#
# Convention : Reuss Voigt Hill
#
# Bulk Modulus (GPa) = 26.72241 59.04647 42.88444
# Shear Modulus (GPa) = 17.58121 26.58200 22.08160
#
# Velocity S-wave (km/s) = 3.12866 3.84705 3.50630
# Velocity P-wave (km/s) = 5.28482 7.25311 6.34574
#
# Compressibility (1/GPa) = 0.03742177
#
# Stress axis : x y z
#
# Youngs Moduli (GPa) = 41.87809 44.42556 70.56081
#
# Poissons Ratio (x) = 0.22535 0.09990
# Poissons Ratio (y) = 0.21243 0.35852
# Poissons Ratio (z) = 0.05929 0.22573
#
# Static dielectric constant tensor:
#      x y z
#    x 3.253950 0.000000 -0.594620 
#    y 0.000000 3.314580 0.000000 
#    z -0.594620 0.000000 3.604310 
# 
# 
# High freq. dielectric constant tensor:
#      x y z
#    x 1.659990 0.000000 -0.051650 
#    y 0.000000 1.702140 0.000000 
#    z -0.051650 0.000000 1.687900 
# 
# From -- ./inp_files/89970.got.cif
#   From: 2010.06.25/outbox.cif.g09.slc.cpg/sg10_45_cif.got.tgz:89970.got - 2010.06.27 22:07:45.
