data_PCOD8057508
_publ_section_title
;
Structure prediction by ZEFSAII (Michael W. Deem and Ramdas Pophale) SiO2 
 PCOD8057508
Probable space group: P 2/M
;
_chemical_formula_sum "Si O2"
_cell_formula_units_Z 32
_cell_length_a 16.259622
_cell_length_b 9.532804
_cell_length_c 13.892908
_cell_angle_alpha 90.000000
_cell_angle_beta 95.362531
_cell_angle_gamma 90.000000
_cell_volume 2143.973030
_symmetry_space_group_name_H-M "P 2/M"
_symmetry_group_IT_number 10
_symmetry_cell_setting 'monoclinic'
loop_
_space_group_symop_operation_xyz
x,y,z
-x,y,-z
-x,-y,-z
x,-y,z
loop_
_atom_site_type_symbol
_atom_site_label
_atom_site_fract_x
_atom_site_fract_y
_atom_site_fract_z
Si Si1 0.415872 0.334883 0.527048
Si Si2 0.892283 0.342969 0.080416
Si Si3 0.467417 0.660362 0.731325
Si Si4 0.928863 0.658073 0.859760
Si Si5 0.744696 0.162317 0.027513
Si Si6 0.652862 0.339641 0.673780
Si Si7 0.221472 0.164398 0.189912
Si Si8 0.432665 0.834473 0.915458
O O1 0.500000 0.261118 0.500000
O O2 0.430324 0.500000 0.527857
O O3 0.403458 0.292716 0.638117
O O4 0.344635 0.299411 0.440848
O O5 0.867676 0.500000 0.108943
O O6 0.815624 0.242033 0.095671
O O7 0.975471 0.296129 0.146577
O O8 0.910755 0.337673 0.970156
O O9 0.451115 0.500000 0.761403
O O10 0.560861 0.677674 0.704727
O O11 0.451157 0.761881 0.817343
O O12 0.914444 0.500000 0.819112
O O13 0.867943 0.765828 0.799386
O O14 0.656401 0.213349 0.055800
O O15 0.759358 0.000000 0.049044
O O16 0.748577 0.196096 0.914847
O O17 0.683125 0.500000 0.693018
O O18 0.712632 0.231569 0.731884
O O19 0.214573 0.000000 0.210092
O O20 0.437695 0.000000 0.900004
O O21 0.500000 0.784073 0.000000
#
# Coordination Sequence:
#
# PCOD8057508 Si02
#       8
#     4   4   4   4   4   4   4   4
#     4   7  12  25  43  60  77  98 126 162 205 247
#     4   8  14  25  41  57  74  99 132 169 201 232
#     4   9  17  29  45  62  77  99 137 177 204 232
#     4   8  14  25  39  56  78 103 129 159 201 243
#     4   9  18  29  39  53  77 111 143 168 198 233
#     4   9  16  27  43  60  80 106 131 160 204 249
#     4  10  18  26  38  58  83 109 137 166 193 229
#     4  10  20  32  42  54  80 115 143 168 201 235
#
# _framework density 14.925560000000001
#
# number of rings (size 3 to 8) (size 9 to 14) (size 15 to 20)
#    0.000    3.250    0.000    3.375    0.000    3.250 
#    0.000    3.125    0.000    2.250    0.000    0.000 
#    0.000    1.000    0.000   11.250    0.000    6.125 
#
# Total GULP energy -396456.069845 kJ/mol
# GULP energy per Si atom -12389.252183 kJ/mol
# Density = 1.489159 g / cm^3
# Si number density = 14.925560 Si / 1000 Ang^3
#
#
#
# Elastic Constant Matrix: (Units=GPa)
#
#
# Indices 1 2 3 4 5 6 
#
# 1 90.4082 46.5732 40.9635 0.0000 14.4789 0.0000
# 2 46.5732 62.7389 42.3391 0.0000 13.0438 0.0000
# 3 40.9635 42.3391 83.1048 0.0000 10.5007 0.0000
# 4 0.0000 0.0000 0.0000 15.3076 0.0000 3.6876
# 5 14.4789 13.0438 10.5007 0.0000 13.2425 0.0000
# 6 0.0000 0.0000 0.0000 3.6876 0.0000 25.3399
#
#
#
# Elastic Compliance Matrix: (Units=1/GPa)
#
#
# Indices 1 2 3 4 5 6 
#
# 1 0.019144 -0.010416 -0.003091 0.000000 -0.008220 0.000000
# 2 -0.010416 0.033291 -0.010138 0.000000 -0.013364 0.000000
# 3 -0.003091 -0.010138 0.018929 0.000000 -0.001645 0.000000
# 4 0.000000 0.000000 0.000000 0.067701 0.000000 -0.009852
# 5 -0.008220 -0.013364 -0.001645 0.000000 0.098970 0.000000
# 6 0.000000 0.000000 0.000000 -0.009852 0.000000 0.040897
#
#
# Mechanical properties :
#
#
# Convention : Reuss Voigt Hill
#
# Bulk Modulus (GPa) = 41.53769 55.11148 48.32458
# Shear Modulus (GPa) = 14.95901 17.86974 16.41437
#
# Velocity S-wave (km/s) = 3.16925 3.46389 3.31984
# Velocity P-wave (km/s) = 6.42515 7.28028 6.86604
#
# Compressibility (1/GPa) = 0.02407452
#
# Stress axis : x y z
#
# Youngs Moduli (GPa) = 52.23666 30.03780 52.82812
#
# Poissons Ratio (x) = 0.31288 0.16328
# Poissons Ratio (y) = 0.54410 0.53557
# Poissons Ratio (z) = 0.16146 0.30452
#
# Static dielectric constant tensor:
#      x y z
#    x 2.952130 0.000000 0.244680 
#    y 0.000000 2.821730 0.000000 
#    z 0.244680 0.000000 2.879340 
# 
# 
# High freq. dielectric constant tensor:
#      x y z
#    x 1.554100 0.000000 0.024070 
#    y 0.000000 1.563720 0.000000 
#    z 0.024070 0.000000 1.545260 
# 
# From -- ./inp_files/66210.got.cif
#   From: 2010.06.25/outbox.cif.g09.slc.cpg/sg10_34_cif.got.tgz:66210.got - 2010.06.27 22:07:45.
