data_PCOD8057177
_publ_section_title
;
Structure prediction by ZEFSAII (Michael W. Deem and Ramdas Pophale) SiO2 
 PCOD8057177
Probable space group: P 2/M
;
_chemical_formula_sum "Si O2"
_cell_formula_units_Z 28
_cell_length_a 12.511721
_cell_length_b 8.588722
_cell_length_c 20.436809
_cell_angle_alpha 90.000000
_cell_angle_beta 132.008190
_cell_angle_gamma 90.000000
_cell_volume 1631.834975
_symmetry_space_group_name_H-M "P 2/M"
_symmetry_group_IT_number 10
_symmetry_cell_setting 'monoclinic'
loop_
_space_group_symop_operation_xyz
x,y,z
-x,y,-z
-x,-y,-z
x,-y,z
loop_
_atom_site_type_symbol
_atom_site_label
_atom_site_fract_x
_atom_site_fract_y
_atom_site_fract_z
Si Si1 0.922109 0.182769 0.614807
Si Si2 0.953596 0.683344 0.073247
Si Si3 0.628757 0.317573 0.721559
Si Si4 0.782187 0.817046 0.898178
Si Si5 0.325547 0.181475 0.585799
Si Si6 0.871822 0.674638 0.396182
Si Si7 0.892408 0.183905 0.751416
O O1 0.783496 0.234232 0.515980
O O2 0.897822 0.238626 0.678710
O O3 0.068652 0.260252 0.648049
O O4 0.943741 0.000000 0.617929
O O5 0.973623 0.500000 0.072155
O O6 0.078571 0.777357 0.087693
O O7 0.972101 0.732645 0.156559
O O8 0.802559 0.739108 0.978795
O O9 0.658903 0.500000 0.732007
O O10 0.646730 0.254910 0.803658
O O11 0.469229 0.279284 0.632163
O O12 0.739824 0.234652 0.718318
O O13 0.760963 0.000000 0.897531
O O14 0.258591 0.221178 0.629491
O O15 0.362361 0.000000 0.597659
O O16 0.814444 0.500000 0.362413
O O17 0.000000 0.681253 0.500000
O O18 0.909407 0.000000 0.765262
#
# Coordination Sequence:
#
# PCOD8057177 Si02
#       7
#     4   4   4   4   4   4   4
#     4   9  19  33  50  69  92 124 160 196 231 273
#     4  10  17  27  43  65  91 119 151 190 233 272
#     4  11  21  32  45  67  97 126 157 193 235 280
#     4  10  17  28  45  64  87 119 155 190 229 273
#     4  10  19  33  50  68  92 124 160 195 233 276
#     4   9  17  30  49  71  92 115 150 197 241 276
#     4  10  19  32  47  67  95 127 161 192 228 277
#
# _framework density 17.158597
#
# number of rings (size 3 to 8) (size 9 to 14) (size 15 to 20)
#    0.000    2.143    0.000    7.714    0.000    4.000 
#    0.000    2.857    0.000    0.000    0.000    1.000 
#    0.000    8.000    0.000    0.000    0.000    0.000 
#
# Total GULP energy -347112.976944 kJ/mol
# GULP energy per Si atom -12396.892034 kJ/mol
# Density = 1.711954 g / cm^3
# Si number density = 17.158597 Si / 1000 Ang^3
#
#
#
# Elastic Constant Matrix: (Units=GPa)
#
#
# Indices 1 2 3 4 5 6 
#
# 1 70.9328 16.5562 42.3604 0.0000 -18.7562 0.0000
# 2 16.5562 60.0697 25.7158 0.0000 -8.8045 0.0000
# 3 42.3604 25.7158 89.8785 0.0000 -24.7287 0.0000
# 4 0.0000 0.0000 0.0000 25.7722 0.0000 3.4680
# 5 -18.7562 -8.8045 -24.7287 0.0000 10.2945 0.0000
# 6 0.0000 0.0000 0.0000 3.4680 0.0000 14.5591
#
#
#
# Elastic Compliance Matrix: (Units=1/GPa)
#
#
# Indices 1 2 3 4 5 6 
#
# 1 0.027393 -0.000485 0.002494 0.000000 0.055487 0.000000
# 2 -0.000485 0.019293 -0.002934 0.000000 0.008570 0.000000
# 3 0.002494 -0.002934 0.033472 0.000000 0.082439 0.000000
# 4 0.000000 0.000000 0.000000 0.040086 0.000000 -0.009549
# 5 0.055487 0.008570 0.082439 0.000000 0.403593 0.000000
# 6 0.000000 0.000000 0.000000 -0.009549 0.000000 0.070960
#
#
# Mechanical properties :
#
#
# Convention : Reuss Voigt Hill
#
# Bulk Modulus (GPa) = 12.76986 43.34956 28.05971
# Shear Modulus (GPa) = 8.02891 19.20838 13.61865
#
# Velocity S-wave (km/s) = 2.16550 3.34946 2.82031
# Velocity P-wave (km/s) = 3.70283 6.34645 5.19559
#
# Compressibility (1/GPa) = 0.07830939
#
# Stress axis : x y z
#
# Youngs Moduli (GPa) = 36.50512 51.83234 29.87605
#
# Poissons Ratio (x) = 0.02515 -0.07453
# Poissons Ratio (y) = 0.01771 0.08764
# Poissons Ratio (z) = -0.09106 0.15205
#
# Static dielectric constant tensor:
#      x y z
#    x 2.967790 0.000000 -0.197720 
#    y 0.000000 3.253300 0.000000 
#    z -0.197720 0.000000 3.789320 
# 
# 
# High freq. dielectric constant tensor:
#      x y z
#    x 1.618140 0.000000 -0.010620 
#    y 0.000000 1.678740 0.000000 
#    z -0.010620 0.000000 1.658450 
# 
# From -- ./inp_files/83417.got.cif
#   From: 2010.06.25/outbox.cif.g09.slc.cpg/sg10_42_cif.got.tgz:83417.got - 2010.06.27 22:07:45.
