data_PCOD8057647
_publ_section_title
;
Structure prediction by ZEFSAII (Michael W. Deem and Ramdas Pophale) SiO2 
 PCOD8057647
Probable space group: P 2/M
;
_chemical_formula_sum "Si O2"
_cell_formula_units_Z 32
_cell_length_a 21.223136
_cell_length_b 8.925037
_cell_length_c 12.836419
_cell_angle_alpha 90.000000
_cell_angle_beta 53.795126
_cell_angle_gamma 90.000000
_cell_volume 1961.953009
_symmetry_space_group_name_H-M "P 2/M"
_symmetry_group_IT_number 10
_symmetry_cell_setting 'monoclinic'
loop_
_space_group_symop_operation_xyz
x,y,z
-x,y,-z
-x,-y,-z
x,-y,z
loop_
_atom_site_type_symbol
_atom_site_label
_atom_site_fract_x
_atom_site_fract_y
_atom_site_fract_z
Si Si1 0.580898 0.323357 0.028156
Si Si2 0.415838 0.179289 0.189599
Si Si3 0.840543 0.177444 0.276257
Si Si4 0.319244 0.177149 0.480243
Si Si5 0.673581 0.328601 0.141207
Si Si6 0.412103 0.822285 0.587750
Si Si7 0.160162 0.672332 0.942976
Si Si8 0.008957 0.833503 0.115050
O O1 0.566573 0.500000 0.026859
O O2 0.500223 0.243466 0.138444
O O3 0.644542 0.288584 0.054111
O O4 0.613173 0.250836 0.890208
O O5 0.354870 0.234372 0.336942
O O6 0.420631 0.000000 0.175542
O O7 0.771679 0.226751 0.422462
O O8 0.822221 0.245182 0.181807
O O9 0.925207 0.228840 0.239550
O O10 0.842339 0.000000 0.257499
O O11 0.367087 0.244730 0.531292
O O12 0.326408 0.000000 0.477823
O O13 0.654210 0.500000 0.188461
O O14 0.629816 0.225497 0.265961
O O15 0.766575 0.299826 0.052496
O O16 0.500000 0.758690 0.500000
O O17 0.412327 0.000000 0.583997
O O18 0.147089 0.500000 0.929708
O O19 0.081920 0.731302 0.077272
O O20 0.025244 0.000000 0.142125
O O21 0.000000 0.835051 0.000000
#
# Coordination Sequence:
#
# PCOD8057647 Si02
#       8
#     4   4   4   4   4   4   4   4
#     4  10  20  35  50  65  90 122 155 191 234 272
#     4  10  19  33  52  72  90 112 153 199 234 267
#     4   9  16  29  45  63  90 124 152 177 220 277
#     4   9  17  29  46  68  94 120 146 185 231 270
#     4  10  21  33  45  65  93 125 155 186 225 271
#     4  10  19  30  46  67  91 121 154 184 222 273
#     4  10  18  28  42  64  92 120 152 188 223 259
#     4   8  15  26  42  62  86 119 154 180 216 271
#
# _framework density 16.310278
#
# number of rings (size 3 to 8) (size 9 to 14) (size 15 to 20)
#    0.000    2.500    1.250    3.375    0.000    5.000 
#    0.000    2.500    0.000    0.000    0.000    0.875 
#    0.000    7.000    0.000    0.000    0.000    0.000 
#
# Total GULP energy -396660.873383 kJ/mol
# GULP energy per Si atom -12395.652293 kJ/mol
# Density = 1.627316 g / cm^3
# Si number density = 16.310278 Si / 1000 Ang^3
#
#
#
# Elastic Constant Matrix: (Units=GPa)
#
#
# Indices 1 2 3 4 5 6 
#
# 1 112.4098 33.2743 75.9295 0.0000 -17.1868 0.0000
# 2 33.2743 46.6108 31.2579 0.0000 -4.5683 0.0000
# 3 75.9295 31.2579 117.0553 0.0000 -15.3813 0.0000
# 4 0.0000 0.0000 0.0000 8.6775 0.0000 0.5297
# 5 -17.1868 -4.5683 -15.3813 0.0000 26.4642 0.0000
# 6 0.0000 0.0000 0.0000 0.5297 0.0000 21.3713
#
#
#
# Elastic Compliance Matrix: (Units=1/GPa)
#
#
# Indices 1 2 3 4 5 6 
#
# 1 0.017635 -0.005929 -0.009187 0.000000 0.005090 0.000000
# 2 -0.005929 0.028134 -0.003827 0.000000 -0.001218 0.000000
# 3 -0.009187 -0.003827 0.015865 0.000000 0.002594 0.000000
# 4 0.000000 0.000000 0.000000 0.115415 0.000000 -0.002861
# 5 0.005090 -0.001218 0.002594 0.000000 0.042390 0.000000
# 6 0.000000 0.000000 0.000000 -0.002861 0.000000 0.046863
#
#
# Mechanical properties :
#
#
# Convention : Reuss Voigt Hill
#
# Bulk Modulus (GPa) = 42.10935 61.88881 51.99908
# Shear Modulus (GPa) = 16.02035 20.34354 18.18194
#
# Velocity S-wave (km/s) = 3.13745 3.53552 3.34242
# Velocity P-wave (km/s) = 6.24488 7.39551 6.84442
#
# Compressibility (1/GPa) = 0.02374770
#
# Stress axis : x y z
#
# Youngs Moduli (GPa) = 56.70596 35.54432 63.03210
#
# Poissons Ratio (x) = 0.21075 0.57907
# Poissons Ratio (y) = 0.33623 0.24121
# Poissons Ratio (z) = 0.52095 0.13602
#
# Static dielectric constant tensor:
#      x y z
#    x 3.319590 0.000000 -0.330330 
#    y 0.000000 3.021120 0.000000 
#    z -0.330330 0.000000 3.173100 
# 
# 
# High freq. dielectric constant tensor:
#      x y z
#    x 1.622370 0.000000 -0.022410 
#    y 0.000000 1.621460 0.000000 
#    z -0.022410 0.000000 1.605960 
# 
# From -- ./inp_files/54782.got.cif
#   From: 2010.06.25/outbox.cif.g09.slc.cpg/sg10_28_cif.got.tgz:54782.got - 2010.06.27 22:07:45.
