data_PCOD8057281
_publ_section_title
;
Structure prediction by ZEFSAII (Michael W. Deem and Ramdas Pophale) SiO2 
 PCOD8057281
Probable space group: P 2/M
;
_chemical_formula_sum "Si O2"
_cell_formula_units_Z 32
_cell_length_a 23.579684
_cell_length_b 9.042831
_cell_length_c 30.247604
_cell_angle_alpha 90.000000
_cell_angle_beta 163.426302
_cell_angle_gamma 90.000000
_cell_volume 1839.740677
_symmetry_space_group_name_H-M "P 2/M"
_symmetry_group_IT_number 10
_symmetry_cell_setting 'monoclinic'
loop_
_space_group_symop_operation_xyz
x,y,z
-x,y,-z
-x,-y,-z
x,-y,z
loop_
_atom_site_type_symbol
_atom_site_label
_atom_site_fract_x
_atom_site_fract_y
_atom_site_fract_z
Si Si1 0.332694 0.834704 0.142103
Si Si2 0.456561 0.325628 0.917579
Si Si3 0.971014 0.673929 0.028961
Si Si4 0.275679 0.674314 0.331608
Si Si5 0.985608 0.836798 0.173257
Si Si6 0.968217 0.326484 0.428144
Si Si7 0.359699 0.824231 0.025411
Si Si8 0.390130 0.673925 0.711974
O O1 0.525546 0.744396 0.270129
O O2 0.396045 0.000000 0.203611
O O3 0.179259 0.839341 0.987658
O O4 0.231887 0.753103 0.108090
O O5 0.479475 0.500000 0.925614
O O6 0.611333 0.238535 0.002087
O O7 0.234592 0.263679 0.743664
O O8 0.500000 0.283731 0.000000
O O9 0.939738 0.500000 0.010748
O O10 0.158704 0.725461 0.199644
O O11 0.000000 0.721021 0.000000
O O12 0.500000 0.739264 0.500000
O O13 0.282798 0.500000 0.339549
O O14 0.163785 0.728692 0.292381
O O15 0.077583 0.000000 0.248269
O O16 0.867735 0.785631 0.129365
O O17 0.941713 0.500000 0.414316
O O18 0.154869 0.292006 0.535957
O O19 0.000000 0.253264 0.500000
O O20 0.517749 0.745161 0.175300
O O21 0.393977 0.000000 0.053312
O O22 0.436989 0.500000 0.747832
#
# Coordination Sequence:
#
# PCOD8057281 Si02
#       8
#     4   4   4   4   4   4   4   4
#     4   9  17  29  45  70 101 125 156 199 240 279
#     4  10  20  34  52  72  95 126 164 200 238 290
#     4   9  17  30  49  71  95 126 161 192 230 284
#     4   9  17  29  47  72  97 118 148 196 239 270
#     4   8  16  29  45  67  93 123 155 190 228 277
#     4   9  16  29  49  74  98 120 154 201 244 282
#     4  10  19  31  48  72 100 126 159 201 243 283
#     4  10  17  28  50  73  97 126 159 200 245 284
#
# _framework density 17.393754999999999
#
# number of rings (size 3 to 8) (size 9 to 14) (size 15 to 20)
#    0.000    2.750    1.250    1.875    0.000    4.250 
#    0.000    1.875    2.750    0.000    0.000    0.000 
#    0.000    0.000    0.000    0.000    0.000    0.000 
#
# Total GULP energy -396645.562886 kJ/mol
# GULP energy per Si atom -12395.173840 kJ/mol
# Density = 1.735417 g / cm^3
# Si number density = 17.393755 Si / 1000 Ang^3
#
#
#
# Elastic Constant Matrix: (Units=GPa)
#
#
# Indices 1 2 3 4 5 6 
#
# 1 150.9617 52.0389 64.8036 0.0000 23.2613 0.0000
# 2 52.0389 57.8189 29.4522 0.0000 10.9897 0.0000
# 3 64.8036 29.4522 91.1028 0.0000 16.1557 0.0000
# 4 0.0000 0.0000 0.0000 9.8185 0.0000 4.3488
# 5 23.2613 10.9897 16.1557 0.0000 26.1274 0.0000
# 6 0.0000 0.0000 0.0000 4.3488 0.0000 24.7713
#
#
#
# Elastic Compliance Matrix: (Units=1/GPa)
#
#
# Indices 1 2 3 4 5 6 
#
# 1 0.012198 -0.007332 -0.005535 0.000000 -0.004354 0.000000
# 2 -0.007332 0.025744 -0.002633 0.000000 -0.002672 0.000000
# 3 -0.005535 -0.002633 0.016504 0.000000 -0.004170 0.000000
# 4 0.000000 0.000000 0.000000 0.110436 0.000000 -0.019388
# 5 -0.004354 -0.002672 -0.004170 0.000000 0.045853 0.000000
# 6 0.000000 0.000000 0.000000 -0.019388 0.000000 0.043773
#
#
# Mechanical properties :
#
#
# Convention : Reuss Voigt Hill
#
# Bulk Modulus (GPa) = 42.64982 65.83034 54.24008
# Shear Modulus (GPa) = 17.04603 22.38270 19.71437
#
# Velocity S-wave (km/s) = 3.13391 3.59112 3.37028
# Velocity P-wave (km/s) = 6.13747 7.42457 6.81149
#
# Compressibility (1/GPa) = 0.02344676
#
# Stress axis : x y z
#
# Youngs Moduli (GPa) = 81.97772 38.84428 60.59046
#
# Poissons Ratio (x) = 0.28481 0.33534
# Poissons Ratio (y) = 0.60108 0.15954
# Poissons Ratio (z) = 0.45371 0.10228
#
# Static dielectric constant tensor:
#      x y z
#    x 3.358780 0.000000 0.279400 
#    y 0.000000 3.181650 0.000000 
#    z 0.279400 0.000000 3.184530 
# 
# 
# High freq. dielectric constant tensor:
#      x y z
#    x 1.670840 0.000000 0.028610 
#    y 0.000000 1.662670 0.000000 
#    z 0.028610 0.000000 1.643590 
# 
# From -- ./inp_files/86147.got.cif
#   From: 2010.06.25/outbox.cif.g09.slc.cpg/sg10_44_cif.got.tgz:86147.got - 2010.06.27 22:07:45.
