data_PCOD8057200
_publ_section_title
;
Structure prediction by ZEFSAII (Michael W. Deem and Ramdas Pophale) SiO2 
 PCOD8057200
Probable space group: P 2/M
;
_chemical_formula_sum "Si O2"
_cell_formula_units_Z 32
_cell_length_a 31.182379
_cell_length_b 8.991130
_cell_length_c 21.689306
_cell_angle_alpha 90.000000
_cell_angle_beta 19.236999
_cell_angle_gamma 90.000000
_cell_volume 2003.519199
_symmetry_space_group_name_H-M "P 2/M"
_symmetry_group_IT_number 10
_symmetry_cell_setting 'monoclinic'
loop_
_space_group_symop_operation_xyz
x,y,z
-x,y,-z
-x,-y,-z
x,-y,z
loop_
_atom_site_type_symbol
_atom_site_label
_atom_site_fract_x
_atom_site_fract_y
_atom_site_fract_z
Si Si1 0.983396 0.175367 0.835664
Si Si2 0.453907 0.323979 0.209442
Si Si3 0.791879 0.675449 0.539384
Si Si4 0.903535 0.826826 0.186589
Si Si5 0.708859 0.676080 0.202291
Si Si6 0.617711 0.323645 0.880781
Si Si7 0.527221 0.324004 0.557900
Si Si8 0.371321 0.322697 0.451466
O O1 0.079553 0.235929 0.652735
O O2 0.030120 0.226344 0.839915
O O3 0.976324 0.000000 0.840332
O O4 0.843154 0.240606 0.011376
O O5 0.457623 0.500000 0.207670
O O6 0.323984 0.275886 0.349298
O O7 0.447136 0.259994 0.288108
O O8 0.585960 0.267381 0.994093
O O9 0.819280 0.500000 0.497526
O O10 0.752341 0.723056 0.663980
O O11 0.775431 0.732606 0.349000
O O12 0.866916 0.000000 0.238904
O O13 0.000000 0.790677 0.000000
O O14 0.733017 0.500000 0.169950
O O15 0.614889 0.724822 0.273232
O O16 0.640853 0.731501 0.357772
O O17 0.611555 0.500000 0.888446
O O18 0.500000 0.259958 0.000000
O O19 0.532987 0.500000 0.550234
O O20 0.553321 0.259864 0.590831
O O21 0.367642 0.500000 0.456686
#
# Coordination Sequence:
#
# PCOD8057200 Si02
#       8
#     4   4   4   4   4   4   4   4
#     4  11  21  30  42  63  90 115 145 183 215 244
#     4   8  13  22  39  65  90 110 136 173 210 250
#     4   9  15  26  43  62  85 116 146 168 204 258
#     4  10  21  33  41  55  87 124 147 168 208 257
#     4   9  17  32  49  62  83 114 147 179 219 261
#     4   7  11  20  37  60  85 111 139 168 201 250
#     4   8  16  30  48  68  85 106 141 188 224 249
#     4  10  17  27  46  69  88 107 140 180 215 251
#
# _framework density 15.971895999999999
#
# number of rings (size 3 to 8) (size 9 to 14) (size 15 to 20)
#    0.000    3.000    1.250    3.375    0.000    0.750 
#    0.000    1.875    0.000    4.125    0.000    0.875 
#    0.000    7.000    0.000    0.000    0.000    0.000 
#
# Total GULP energy -396433.140056 kJ/mol
# GULP energy per Si atom -12388.535627 kJ/mol
# Density = 1.593554 g / cm^3
# Si number density = 15.971896 Si / 1000 Ang^3
#
#
#
# Elastic Constant Matrix: (Units=GPa)
#
#
# Indices 1 2 3 4 5 6 
#
# 1 115.9166 23.6986 83.7698 0.0000 13.0489 0.0000
# 2 23.6986 25.7329 29.6826 0.0000 0.6059 0.0000
# 3 83.7698 29.6826 128.9063 0.0000 17.0786 0.0000
# 4 0.0000 0.0000 0.0000 -4.0434 0.0000 0.7595
# 5 13.0489 0.6059 17.0786 0.0000 27.4758 0.0000
# 6 0.0000 0.0000 0.0000 0.7595 0.0000 12.4000
#
#
#
# Elastic Compliance Matrix: (Units=1/GPa)
#
#
# Indices 1 2 3 4 5 6 
#
# 1 0.016626 -0.004203 -0.009592 0.000000 -0.001841 0.000000
# 2 -0.004203 0.055237 -0.010996 0.000000 0.007613 0.000000
# 3 -0.009592 -0.010996 0.017313 0.000000 -0.005964 0.000000
# 4 0.000000 0.000000 0.000000 -0.244506 0.000000 0.014975
# 5 -0.001841 0.007613 -0.005964 0.000000 0.040809 0.000000
# 6 0.000000 0.000000 0.000000 0.014975 0.000000 0.079728
#
#
# Mechanical properties :
#
#
# Convention : Reuss Voigt Hill
#
# Bulk Modulus (GPa) = 25.25778 60.53975 42.89876
# Shear Modulus (GPa) = 178.65461 16.06015 97.35738
#
# Velocity S-wave (km/s) = 10.58765 3.17444 7.81587
# Velocity P-wave (km/s) = 12.85740 7.17094 10.40997
#
# Compressibility (1/GPa) = 0.03959176
#
# Stress axis : x y z
#
# Youngs Moduli (GPa) = 60.14816 18.10397 57.75881
#
# Poissons Ratio (x) = 0.07609 0.55405
# Poissons Ratio (y) = 0.25281 0.63513
# Poissons Ratio (z) = 0.57697 0.19908
#
# Static dielectric constant tensor:
#      x y z
#    x 3.503670 0.000000 0.425030 
#    y 0.000000 2.659440 0.000000 
#    z 0.425030 0.000000 3.189550 
# 
# 
# High freq. dielectric constant tensor:
#      x y z
#    x 1.598660 0.000000 0.024740 
#    y 0.000000 1.577920 0.000000 
#    z 0.024740 0.000000 1.611590 
# 
# From -- ./inp_files/54865.got.cif
#   From: 2010.06.25/outbox.cif.g09.slc.cpg/sg10_28_cif.got.tgz:54865.got - 2010.06.27 22:07:45.
