data_PCOD8057401
_publ_section_title
;
Structure prediction by ZEFSAII (Michael W. Deem and Ramdas Pophale) SiO2 
 PCOD8057401
Probable space group: P 2/M
;
_chemical_formula_sum "Si O2"
_cell_formula_units_Z 32
_cell_length_a 8.892547
_cell_length_b 14.748890
_cell_length_c 14.572042
_cell_angle_alpha 90.000000
_cell_angle_beta 61.264039
_cell_angle_gamma 90.000000
_cell_volume 1675.824534
_symmetry_space_group_name_H-M "P 2/M"
_symmetry_group_IT_number 10
_symmetry_cell_setting 'monoclinic'
loop_
_space_group_symop_operation_xyz
x,y,z
-x,y,-z
-x,-y,-z
x,-y,z
loop_
_atom_site_type_symbol
_atom_site_label
_atom_site_fract_x
_atom_site_fract_y
_atom_site_fract_z
Si Si1 0.032999 0.898418 0.326910
Si Si2 0.867888 0.723643 0.462069
Si Si3 0.488145 0.209827 0.400120
Si Si4 0.989333 0.827326 0.856052
Si Si5 0.727073 0.795240 0.080868
Si Si6 0.185002 0.401512 0.900993
Si Si7 0.423202 0.104195 0.247109
Si Si8 0.173546 0.673840 0.718182
O O1 0.006194 0.903522 0.224421
O O2 0.226712 0.868092 0.290776
O O3 0.910639 0.825608 0.412841
O O4 0.995013 0.000000 0.376440
O O5 0.679954 0.726970 0.562068
O O6 0.862024 0.650866 0.378882
O O7 0.000000 0.688876 0.500000
O O8 0.500000 0.171950 0.500000
O O9 0.477458 0.124406 0.335779
O O10 0.651092 0.269324 0.325154
O O11 0.147237 0.839277 0.879850
O O12 0.010321 0.732284 0.797736
O O13 0.805520 0.823905 0.960045
O O14 0.706679 0.685830 0.098348
O O15 0.538278 0.836908 0.143618
O O16 0.259217 0.500000 0.911372
O O17 0.180771 0.407542 0.789877
O O18 0.000000 0.386251 0.000000
O O19 0.455971 0.000000 0.215197
#
# Coordination Sequence:
#
# PCOD8057401 Si02
#       8
#     4   4   4   4   4   4   4   4
#     4  10  22  35  48  72 105 139 187 229 267 315
#     4  10  19  32  54  74  96 143 186 224 271 301
#     4  10  19  33  50  70 101 138 176 225 266 304
#     4   9  17  33  53  69 101 140 168 213 263 312
#     4  10  18  35  54  79 109 134 177 218 258 320
#     4  10  17  30  59  91 112 131 161 213 274 323
#     4  11  22  34  49  73 106 145 182 220 263 309
#     4   9  17  33  52  78 109 131 171 214 262 325
#
# _framework density 19.095078999999998
#
# number of rings (size 3 to 8) (size 9 to 14) (size 15 to 20)
#    0.000    2.125    6.250    0.000    0.000    2.500 
#    0.000    2.500    0.000    3.750    0.000   14.875 
#    0.000    0.125    0.000    0.000    0.000    0.000 
#
# Total GULP energy -396469.407674 kJ/mol
# GULP energy per Si atom -12389.668990 kJ/mol
# Density = 1.905162 g / cm^3
# Si number density = 19.095079 Si / 1000 Ang^3
#
#
#
# Elastic Constant Matrix: (Units=GPa)
#
#
# Indices 1 2 3 4 5 6 
#
# 1 65.9418 13.1557 18.1582 0.0000 0.8517 0.0000
# 2 13.1557 58.4346 15.3102 0.0000 -7.3994 0.0000
# 3 18.1582 15.3102 90.2891 0.0000 -3.8400 0.0000
# 4 0.0000 0.0000 0.0000 5.8893 0.0000 7.4754
# 5 0.8517 -7.3994 -3.8400 0.0000 27.2404 0.0000
# 6 0.0000 0.0000 0.0000 7.4754 0.0000 6.3894
#
#
#
# Elastic Compliance Matrix: (Units=1/GPa)
#
#
# Indices 1 2 3 4 5 6 
#
# 1 0.016621 -0.003217 -0.002874 0.000000 -0.001799 0.000000
# 2 -0.003217 0.019088 -0.002379 0.000000 0.004950 0.000000
# 3 -0.002874 -0.002379 0.012106 0.000000 0.001150 0.000000
# 4 0.000000 0.000000 0.000000 -0.350048 0.000000 0.409547
# 5 -0.001799 0.004950 0.001150 0.000000 0.038273 0.000000
# 6 0.000000 0.000000 0.000000 0.409547 0.000000 -0.322649
#
#
# Mechanical properties :
#
#
# Convention : Reuss Voigt Hill
#
# Bulk Modulus (GPa) = 32.38861 34.21264 33.30063
# Shear Modulus (GPa) = -8.93850 19.10656 5.08403
#
# Velocity S-wave (km/s) = -2.16592 3.16666 1.63348
# Velocity P-wave (km/s) = 3.27775 5.59698 4.58638
#
# Compressibility (1/GPa) = 0.03087505
#
# Stress axis : x y z
#
# Youngs Moduli (GPa) = 60.16401 52.39020 82.60482
#
# Poissons Ratio (x) = 0.16853 0.23738
# Poissons Ratio (y) = 0.19354 0.19653
# Poissons Ratio (z) = 0.17290 0.12465
#
# Static dielectric constant tensor:
#      x y z
#    x 3.455090 0.000000 0.076560 
#    y 0.000000 3.139040 0.000000 
#    z 0.076560 0.000000 3.916870 
# 
# 
# High freq. dielectric constant tensor:
#      x y z
#    x 1.723190 0.000000 -0.002540 
#    y 0.000000 1.694760 0.000000 
#    z -0.002540 0.000000 1.766880 
# 
# From -- ./inp_files/61814.got.cif
#   From: 2010.06.25/outbox.cif.g09.slc.cpg/sg10_31_cif.got.tgz:61814.got - 2010.06.27 22:07:45.
