data_PCOD8057755
_publ_section_title
;
Structure prediction by ZEFSAII (Michael W. Deem and Ramdas Pophale) SiO2 
 PCOD8057755
Probable space group: P 2/M
;
_chemical_formula_sum "Si O2"
_cell_formula_units_Z 32
_cell_length_a 19.980860
_cell_length_b 9.306424
_cell_length_c 24.947226
_cell_angle_alpha 90.000000
_cell_angle_beta 22.841648
_cell_angle_gamma 90.000000
_cell_volume 1800.771769
_symmetry_space_group_name_H-M "P 2/M"
_symmetry_group_IT_number 10
_symmetry_cell_setting 'monoclinic'
loop_
_space_group_symop_operation_xyz
x,y,z
-x,y,-z
-x,-y,-z
x,-y,z
loop_
_atom_site_type_symbol
_atom_site_label
_atom_site_fract_x
_atom_site_fract_y
_atom_site_fract_z
Si Si1 0.353746 0.335777 0.849638
Si Si2 0.125684 0.166766 0.649118
Si Si3 0.012127 0.332486 0.834105
Si Si4 0.052704 0.832545 0.584104
Si Si5 0.478893 0.829618 0.654930
Si Si6 0.821135 0.841098 0.663760
Si Si7 0.346646 0.667614 0.653186
Si Si8 0.671422 0.335819 0.686297
O O1 0.355895 0.500000 0.826635
O O2 0.417525 0.229185 0.756997
O O3 0.474524 0.321549 0.812756
O O4 0.163148 0.287905 0.007219
O O5 0.023434 0.252310 0.769475
O O6 0.031875 0.201605 0.662119
O O7 0.323937 0.217244 0.500096
O O8 0.115573 0.000000 0.670866
O O9 0.018425 0.500000 0.816279
O O10 0.168080 0.287465 0.757604
O O11 0.210351 0.741847 0.444615
O O12 0.872092 0.794783 0.687050
O O13 0.099511 0.000000 0.540328
O O14 0.360899 0.760688 0.696180
O O15 0.456711 0.000000 0.670975
O O16 0.688009 0.733209 0.733507
O O17 0.000000 0.840179 0.500000
O O18 0.738004 0.000000 0.724589
O O19 0.500000 0.708862 0.500000
O O20 0.352014 0.500000 0.664534
O O21 0.731478 0.500000 0.645963
#
# Coordination Sequence:
#
# PCOD8057755 Si02
#       8
#     4   4   4   4   4   4   4   4
#     4  10  22  38  54  76 108 144 178 214 259 313
#     4  10  20  34  54  80 107 135 172 219 264 306
#     4  10  22  39  57  77 104 140 179 216 260 315
#     4   9  17  31  49  73 105 137 171 210 258 311
#     4  11  22  35  57  83 107 137 173 218 264 310
#     4   8  15  27  45  69 101 138 170 207 256 308
#     4  10  20  36  58  80 104 137 176 217 261 314
#     4  10  18  28  47  74 104 135 171 215 257 302
#
# _framework density 17.770157999999999
#
# number of rings (size 3 to 8) (size 9 to 14) (size 15 to 20)
#    0.000    2.250    2.500    1.500    0.000    5.500 
#    0.000    2.500    0.000    0.750    0.000    5.250 
#    0.000    0.000    0.000    0.000    0.000    0.000 
#
# Total GULP energy -396810.930164 kJ/mol
# GULP energy per Si atom -12400.341568 kJ/mol
# Density = 1.772971 g / cm^3
# Si number density = 17.770158 Si / 1000 Ang^3
#
#
#
# Elastic Constant Matrix: (Units=GPa)
#
#
# Indices 1 2 3 4 5 6 
#
# 1 123.1209 47.9978 27.2286 0.0000 -6.8086 0.0000
# 2 47.9978 68.8086 28.7114 0.0000 -0.7544 0.0000
# 3 27.2286 28.7114 59.2479 0.0000 -4.7640 0.0000
# 4 0.0000 0.0000 0.0000 16.3579 0.0000 2.8906
# 5 -6.8086 -0.7544 -4.7640 0.0000 20.0089 0.0000
# 6 0.0000 0.0000 0.0000 2.8906 0.0000 35.3012
#
#
#
# Elastic Compliance Matrix: (Units=1/GPa)
#
#
# Indices 1 2 3 4 5 6 
#
# 1 0.011502 -0.007386 -0.001442 0.000000 0.003292 0.000000
# 2 -0.007386 0.023000 -0.008038 0.000000 -0.003560 0.000000
# 3 -0.001442 -0.008038 0.021789 0.000000 0.004394 0.000000
# 4 0.000000 0.000000 0.000000 0.062030 0.000000 -0.005079
# 5 0.003292 -0.003560 0.004394 0.000000 0.052010 0.000000
# 6 0.000000 0.000000 0.000000 -0.005079 0.000000 0.028744
#
#
# Mechanical properties :
#
#
# Convention : Reuss Voigt Hill
#
# Bulk Modulus (GPa) = 44.32566 51.00588 47.66577
# Shear Modulus (GPa) = 20.80503 24.14958 22.47731
#
# Velocity S-wave (km/s) = 3.42539 3.69046 3.56039
# Velocity P-wave (km/s) = 6.37514 6.85016 6.61691
#
# Compressibility (1/GPa) = 0.02256029
#
# Stress axis : x y z
#
# Youngs Moduli (GPa) = 86.93882 43.47881 45.89371
#
# Poissons Ratio (x) = 0.32112 0.06620
# Poissons Ratio (y) = 0.64209 0.36888
# Poissons Ratio (z) = 0.12540 0.34947
#
# Static dielectric constant tensor:
#      x y z
#    x 3.634070 0.000000 -0.220010 
#    y 0.000000 3.289330 0.000000 
#    z -0.220010 0.000000 3.031230 
# 
# 
# High freq. dielectric constant tensor:
#      x y z
#    x 1.703880 0.000000 -0.012580 
#    y 0.000000 1.687780 0.000000 
#    z -0.012580 0.000000 1.651380 
# 
# From -- ./inp_files/86912.got.cif
#   From: 2010.06.25/outbox.cif.g09.slc.cpg/sg10_44_cif.got.tgz:86912.got - 2010.06.27 22:07:45.
