data_PCOD8057909
_publ_section_title
;
Structure prediction by ZEFSAII (Michael W. Deem and Ramdas Pophale) SiO2 
 PCOD8057909
Probable space group: P 2/M
;
_chemical_formula_sum "Si O2"
_cell_formula_units_Z 32
_cell_length_a 19.786253
_cell_length_b 13.642190
_cell_length_c 22.406800
_cell_angle_alpha 90.000000
_cell_angle_beta 18.309087
_cell_angle_gamma 90.000000
_cell_volume 1900.005756
_symmetry_space_group_name_H-M "P 2/M"
_symmetry_group_IT_number 10
_symmetry_cell_setting 'monoclinic'
loop_
_space_group_symop_operation_xyz
x,y,z
-x,y,-z
-x,-y,-z
x,-y,z
loop_
_atom_site_type_symbol
_atom_site_label
_atom_site_fract_x
_atom_site_fract_y
_atom_site_fract_z
Si Si1 0.657868 0.768608 0.221092
Si Si2 0.516328 0.615120 0.170388
Si Si3 0.284473 0.888884 0.713333
Si Si4 0.076813 0.111073 0.083314
Si Si5 0.872312 0.386003 0.970045
Si Si6 0.094523 0.385835 0.588431
Si Si7 0.845748 0.731105 0.343720
Si Si8 0.374072 0.386152 0.049902
O O1 0.759112 0.817909 0.194680
O O2 0.778696 0.664863 0.108346
O O3 0.405724 0.752182 0.440909
O O4 0.704131 0.837893 0.124327
O O5 0.497563 0.500000 0.178272
O O6 0.709914 0.639550 0.052402
O O7 0.293867 0.655995 0.383620
O O8 0.554867 0.662600 0.072744
O O9 0.500000 0.854099 0.500000
O O10 0.089651 0.881816 0.831306
O O11 0.310240 0.000000 0.716112
O O12 0.976437 0.167096 0.224681
O O13 0.124605 0.000000 0.062818
O O14 0.899496 0.500000 0.960827
O O15 0.100821 0.338670 0.758533
O O16 0.125900 0.500000 0.580607
O O17 0.068881 0.322950 0.669401
O O18 0.881499 0.372440 0.727008
O O19 0.436007 0.500000 0.996115
O O20 0.500000 0.336217 0.000000
#
# Coordination Sequence:
#
# PCOD8057909 Si02
#       8
#     4   4   4   4   4   4   4   4
#     4  11  21  32  53  79  98 128 169 211 247 298
#     4   9  16  27  44  64  92 130 168 202 238 280
#     4  10  19  35  57  78 101 128 158 197 256 320
#     4  10  22  37  54  77 103 130 159 199 254 314
#     4  10  20  33  49  71  98 133 174 210 244 287
#     4  10  18  29  47  70 100 136 172 206 241 284
#     4  11  20  31  51  76  99 130 170 209 246 297
#     4   9  17  28  43  65  96 134 172 208 243 282
#
# _framework density 16.842054000000001
#
# number of rings (size 3 to 8) (size 9 to 14) (size 15 to 20)
#    0.000    2.000    3.750    1.125    0.000    2.500 
#    0.000    2.500    0.000    7.125    0.000    0.000 
#    0.000    0.500    0.000    2.375    0.000    0.125 
#
# Total GULP energy -396667.358466 kJ/mol
# GULP energy per Si atom -12395.854952 kJ/mol
# Density = 1.680372 g / cm^3
# Si number density = 16.842054 Si / 1000 Ang^3
#
#
#
# Elastic Constant Matrix: (Units=GPa)
#
#
# Indices 1 2 3 4 5 6 
#
# 1 49.8264 18.5813 19.5716 0.0000 8.4199 0.0000
# 2 18.5813 93.1983 36.1935 0.0000 10.1300 0.0000
# 3 19.5716 36.1935 119.5031 0.0000 17.2508 0.0000
# 4 0.0000 0.0000 0.0000 20.6390 0.0000 4.5518
# 5 8.4199 10.1300 17.2508 0.0000 23.7626 0.0000
# 6 0.0000 0.0000 0.0000 4.5518 0.0000 11.6646
#
#
#
# Elastic Compliance Matrix: (Units=1/GPa)
#
#
# Indices 1 2 3 4 5 6 
#
# 1 0.022958 -0.003217 -0.002021 0.000000 -0.005296 0.000000
# 2 -0.003217 0.012780 -0.003041 0.000000 -0.002101 0.000000
# 3 -0.002021 -0.003041 0.010422 0.000000 -0.005553 0.000000
# 4 0.000000 0.000000 0.000000 0.053014 0.000000 -0.020687
# 5 -0.005296 -0.002101 -0.005553 0.000000 0.048887 0.000000
# 6 0.000000 0.000000 0.000000 -0.020687 0.000000 0.093802
#
#
# Mechanical properties :
#
#
# Convention : Reuss Voigt Hill
#
# Bulk Modulus (GPa) = 33.78029 45.69115 39.73572
# Shear Modulus (GPa) = 18.63667 23.75866 21.19767
#
# Velocity S-wave (km/s) = 3.33010 3.75997 3.55155
# Velocity P-wave (km/s) = 5.90650 6.78513 6.36100
#
# Compressibility (1/GPa) = 0.02960306
#
# Stress axis : x y z
#
# Youngs Moduli (GPa) = 43.55750 78.24531 95.95502
#
# Poissons Ratio (x) = 0.25169 0.19394
# Poissons Ratio (y) = 0.14011 0.29176
# Poissons Ratio (z) = 0.08804 0.23791
#
# Static dielectric constant tensor:
#      x y z
#    x 3.144800 0.000000 0.248990 
#    y 0.000000 3.091360 0.000000 
#    z 0.248990 0.000000 3.513490 
# 
# 
# High freq. dielectric constant tensor:
#      x y z
#    x 1.621550 0.000000 0.017700 
#    y 0.000000 1.617120 0.000000 
#    z 0.017700 0.000000 1.671840 
# 
# From -- ./inp_files/79711.got.cif
#   From: 2010.06.25/outbox.cif.g09.slc.cpg/sg10_40_cif.got.tgz:79711.got - 2010.06.27 22:07:45.
