data_PCOD8057325
_publ_section_title
;
Structure prediction by ZEFSAII (Michael W. Deem and Ramdas Pophale) SiO2 
 PCOD8057325
Probable space group: P 2/M
;
_chemical_formula_sum "Si O2"
_cell_formula_units_Z 28
_cell_length_a 10.342712
_cell_length_b 16.572530
_cell_length_c 18.427916
_cell_angle_alpha 90.000000
_cell_angle_beta 149.451071
_cell_angle_gamma 90.000000
_cell_volume 1605.452095
_symmetry_space_group_name_H-M "P 2/M"
_symmetry_group_IT_number 10
_symmetry_cell_setting 'monoclinic'
loop_
_space_group_symop_operation_xyz
x,y,z
-x,y,-z
-x,-y,-z
x,-y,z
loop_
_atom_site_type_symbol
_atom_site_label
_atom_site_fract_x
_atom_site_fract_y
_atom_site_fract_z
Si Si1 0.588770 0.500000 0.327828
Si Si2 0.257503 0.226839 0.668634
Si Si3 0.414587 0.908309 0.843431
Si Si4 0.987675 0.331477 0.333084
Si Si5 0.237862 0.243360 0.329963
Si Si6 0.888402 0.500000 0.331295
Si Si7 0.907480 0.907349 0.173093
Si Si8 0.506699 0.670715 0.671555
O O1 0.650795 0.500000 0.271993
O O2 0.425266 0.579697 0.269656
O O3 0.853777 0.500000 0.498157
O O4 0.373014 0.142300 0.750272
O O5 0.466411 0.272114 0.721285
O O6 0.000000 0.211141 0.500000
O O7 0.212877 0.279303 0.718912
O O8 0.183182 0.895296 0.787876
O O9 0.423536 0.000000 0.821804
O O10 0.678870 0.884645 0.008844
O O11 0.026622 0.293642 0.272519
O O12 0.251660 0.333247 0.502434
O O13 0.877821 0.422076 0.273939
O O14 0.500000 0.236703 0.500000
O O15 0.271382 0.290945 0.270400
O O16 0.140576 0.152515 0.268795
O O17 0.996173 0.000000 0.203987
#
# Coordination Sequence:
#
# PCOD8057325 Si02
#       8
#     2   4   4   4   4   2   4   4
#     4   9  14  25  41  65 100 133 162 194 242 293
#     4  10  17  29  49  74 102 128 161 202 246 291
#     4   9  18  33  54  76  95 123 168 213 244 283
#     4   9  16  27  44  69  98 130 167 203 235 283
#     4  10  19  31  47  73 104 130 160 202 249 293
#     4   9  14  23  43  67  96 132 165 200 240 280
#     4   9  18  34  54  73  95 128 169 206 243 291
#     4   9  18  27  43  70 102 133 158 196 248 293
#
# _framework density 17.440570000000001
#
# number of rings (size 3 to 8) (size 9 to 14) (size 15 to 20)
#    0.000    2.714    2.857    0.857    0.000    1.143 
#    0.000    4.286    0.000    1.714    0.000    6.000 
#    0.000    0.000    0.000    0.000    0.000    0.000 
#
# Total GULP energy -347118.280237 kJ/mol
# GULP energy per Si atom -12397.081437 kJ/mol
# Density = 1.740087 g / cm^3
# Si number density = 17.440570 Si / 1000 Ang^3
#
#
#
# Elastic Constant Matrix: (Units=GPa)
#
#
# Indices 1 2 3 4 5 6 
#
# 1 130.6763 74.3384 23.1945 0.0000 -1.8018 0.0000
# 2 74.3384 148.5094 36.9427 0.0000 -4.5557 0.0000
# 3 23.1945 36.9427 24.8054 0.0000 -2.9201 0.0000
# 4 0.0000 0.0000 0.0000 3.8869 0.0000 -0.2999
# 5 -1.8018 -4.5557 -2.9201 0.0000 13.3524 0.0000
# 6 0.0000 0.0000 0.0000 -0.2999 0.0000 35.2436
#
#
#
# Elastic Compliance Matrix: (Units=1/GPa)
#
#
# Indices 1 2 3 4 5 6 
#
# 1 0.010873 -0.004630 -0.003371 0.000000 -0.000850 0.000000
# 2 -0.004630 0.012668 -0.014475 0.000000 0.000532 0.000000
# 3 -0.003371 -0.014475 0.066090 0.000000 0.009060 0.000000
# 4 0.000000 0.000000 0.000000 0.257446 0.000000 0.002190
# 5 -0.000850 0.000532 0.009060 0.000000 0.076941 0.000000
# 6 0.000000 0.000000 0.000000 0.002190 0.000000 0.028393
#
#
# Mechanical properties :
#
#
# Convention : Reuss Voigt Hill
#
# Bulk Modulus (GPa) = 22.38189 63.66026 43.02107
# Shear Modulus (GPa) = 9.76072 21.79760 15.77916
#
# Velocity S-wave (km/s) = 2.36827 3.53912 3.01115
# Velocity P-wave (km/s) = 4.50992 7.29938 6.06714
#
# Compressibility (1/GPa) = 0.04467899
#
# Stress axis : x y z
#
# Youngs Moduli (GPa) = 91.96975 78.93741 15.13078
#
# Poissons Ratio (x) = 0.36549 0.05101
# Poissons Ratio (y) = 0.42583 0.21902
# Poissons Ratio (z) = 0.31007 1.14261
#
# Static dielectric constant tensor:
#      x y z
#    x 3.313640 0.000000 -0.023900 
#    y 0.000000 3.436040 0.000000 
#    z -0.023900 0.000000 2.690410 
# 
# 
# High freq. dielectric constant tensor:
#      x y z
#    x 1.667500 0.000000 -0.003700 
#    y 0.000000 1.689070 0.000000 
#    z -0.003700 0.000000 1.617520 
# 
# From -- ./inp_files/30139.got.cif
#   From: 2010.06.25/outbox.cif.g09.slc.cpg/sg10_16_cif.got.tgz:30139.got - 2010.06.27 22:07:45.
