data_PCOD8057271
_publ_section_title
;
Structure prediction by ZEFSAII (Michael W. Deem and Ramdas Pophale) SiO2 
 PCOD8057271
Probable space group: P 2/M
;
_chemical_formula_sum "Si O2"
_cell_formula_units_Z 32
_cell_length_a 17.415684
_cell_length_b 8.827071
_cell_length_c 11.801690
_cell_angle_alpha 90.000000
_cell_angle_beta 94.326279
_cell_angle_gamma 90.000000
_cell_volume 1809.098154
_symmetry_space_group_name_H-M "P 2/M"
_symmetry_group_IT_number 10
_symmetry_cell_setting 'monoclinic'
loop_
_space_group_symop_operation_xyz
x,y,z
-x,y,-z
-x,-y,-z
x,-y,z
loop_
_atom_site_type_symbol
_atom_site_label
_atom_site_fract_x
_atom_site_fract_y
_atom_site_fract_z
Si Si1 0.395918 0.177945 0.246846
Si Si2 0.084544 0.681477 0.475828
Si Si3 0.773956 0.823074 0.388971
Si Si4 0.681100 0.667747 0.563620
Si Si5 0.737236 0.681307 0.911941
Si Si6 0.165554 0.334392 0.273048
Si Si7 0.536954 0.178119 0.117743
Si Si8 0.290584 0.822657 0.860507
O O1 0.384032 0.245997 0.370844
O O2 0.341413 0.249526 0.144856
O O3 0.483494 0.215642 0.220048
O O4 0.379277 0.000000 0.248444
O O5 0.091411 0.500000 0.477009
O O6 0.145154 0.745116 0.572573
O O7 0.103865 0.746534 0.350392
O O8 0.000000 0.738187 0.500000
O O9 0.701846 0.758840 0.452244
O O10 0.758765 0.788055 0.256183
O O11 0.779963 0.000000 0.415325
O O12 0.651044 0.500000 0.528042
O O13 0.756232 0.653767 0.647934
O O14 0.732993 0.500000 0.902498
O O15 0.810433 0.743267 0.843828
O O16 0.750552 0.734652 0.041368
O O17 0.132177 0.500000 0.241476
O O18 0.622816 0.242036 0.147170
O O19 0.543119 0.000000 0.101075
O O20 0.500000 0.250756 0.000000
O O21 0.291552 0.000000 0.889120
#
# Coordination Sequence:
#
# PCOD8057271 Si02
#       8
#     4   4   4   4   4   4   4   4
#     4  10  17  28  49  71  93 124 167 214 258 296
#     4   9  17  32  56  80 102 130 159 193 244 300
#     4  10  20  33  51  74 100 129 164 205 249 297
#     4   9  17  31  49  68  96 128 162 205 249 298
#     4  10  18  28  45  70  99 130 163 204 252 294
#     4   7  13  26  44  69  96 119 151 194 232 277
#     4   9  16  29  48  68  93 128 169 213 254 294
#     4  10  20  34  49  68  96 132 172 210 249 298
#
# _framework density 17.688372000000001
#
# number of rings (size 3 to 8) (size 9 to 14) (size 15 to 20)
#    0.000    2.750    1.250    3.000    0.000    1.250 
#    0.000    3.125    0.000    4.500    0.000    5.250 
#    0.000    0.000    0.000    0.000    0.000    0.000 
#
# Total GULP energy -396514.964703 kJ/mol
# GULP energy per Si atom -12391.092647 kJ/mol
# Density = 1.764811 g / cm^3
# Si number density = 17.688372 Si / 1000 Ang^3
#
#
#
# Elastic Constant Matrix: (Units=GPa)
#
#
# Indices 1 2 3 4 5 6 
#
# 1 101.9646 28.8272 67.3526 0.0000 -26.1841 0.0000
# 2 28.8272 61.0322 40.5129 0.0000 -8.7336 0.0000
# 3 67.3526 40.5129 120.1351 0.0000 -29.2357 0.0000
# 4 0.0000 0.0000 0.0000 25.9091 0.0000 -5.6710
# 5 -26.1841 -8.7336 -29.2357 0.0000 29.0505 0.0000
# 6 0.0000 0.0000 0.0000 -5.6710 0.0000 17.1676
#
#
#
# Elastic Compliance Matrix: (Units=1/GPa)
#
#
# Indices 1 2 3 4 5 6 
#
# 1 0.016976 -0.002374 -0.006843 0.000000 0.007701 0.000000
# 2 -0.002374 0.021468 -0.006435 0.000000 -0.002161 0.000000
# 3 -0.006843 -0.006435 0.016367 0.000000 0.008369 0.000000
# 4 0.000000 0.000000 0.000000 0.041605 0.000000 0.013743
# 5 0.007701 -0.002161 0.008369 0.000000 0.049137 0.000000
# 6 0.000000 0.000000 0.000000 0.013743 0.000000 0.062789
#
#
# Mechanical properties :
#
#
# Convention : Reuss Voigt Hill
#
# Bulk Modulus (GPa) = 42.53849 61.83526 52.18687
# Shear Modulus (GPa) = 20.20360 24.18806 22.19583
#
# Velocity S-wave (km/s) = 3.38331 3.70192 3.54620
# Velocity P-wave (km/s) = 6.27403 7.30112 6.80697
#
# Compressibility (1/GPa) = 0.02350812
#
# Stress axis : x y z
#
# Youngs Moduli (GPa) = 58.90643 46.58070 61.09876
#
# Poissons Ratio (x) = 0.11059 0.41809
# Poissons Ratio (y) = 0.13985 0.39315
# Poissons Ratio (z) = 0.40309 0.29973
#
# Static dielectric constant tensor:
#      x y z
#    x 3.229290 0.000000 -0.445110 
#    y 0.000000 3.153140 0.000000 
#    z -0.445110 0.000000 3.439500 
# 
# 
# High freq. dielectric constant tensor:
#      x y z
#    x 1.655030 0.000000 -0.033620 
#    y 0.000000 1.667300 0.000000 
#    z -0.033620 0.000000 1.683440 
# 
# From -- ./inp_files/52805.got.cif
#   From: 2010.06.25/outbox.cif.g09.slc.cpg/sg10_27_cif.got.tgz:52805.got - 2010.06.27 22:07:45.
