data_PCOD8057504
_publ_section_title
;
Structure prediction by ZEFSAII (Michael W. Deem and Ramdas Pophale) SiO2 
 PCOD8057504
Probable space group: P 2/M
;
_chemical_formula_sum "Si O2"
_cell_formula_units_Z 32
_cell_length_a 16.093434
_cell_length_b 9.257338
_cell_length_c 26.939512
_cell_angle_alpha 90.000000
_cell_angle_beta 142.845810
_cell_angle_gamma 90.000000
_cell_volume 2424.009022
_symmetry_space_group_name_H-M "P 2/M"
_symmetry_group_IT_number 10
_symmetry_cell_setting 'monoclinic'
loop_
_space_group_symop_operation_xyz
x,y,z
-x,y,-z
-x,-y,-z
x,-y,z
loop_
_atom_site_type_symbol
_atom_site_label
_atom_site_fract_x
_atom_site_fract_y
_atom_site_fract_z
Si Si1 0.303736 0.670670 0.000863
Si Si2 0.839615 0.165603 0.868481
Si Si3 0.894660 0.833527 0.721338
Si Si4 0.356916 0.336275 0.412087
Si Si5 0.418797 0.340884 0.909988
Si Si6 0.840416 0.166716 0.981489
Si Si7 0.798038 0.833466 0.143469
Si Si8 0.218229 0.663359 0.249451
O O1 0.276773 0.500000 0.983410
O O2 0.226703 0.748411 0.919075
O O3 0.468387 0.704109 0.077681
O O4 0.248356 0.729149 0.026407
O O5 0.793478 0.197395 0.902687
O O6 0.750202 0.264876 0.788734
O O7 0.811589 0.000000 0.841760
O O8 0.999384 0.203907 0.936916
O O9 0.773784 0.758163 0.630613
O O10 0.900382 0.755319 0.778272
O O11 0.042120 0.816232 0.765162
O O12 0.856557 0.000000 0.711378
O O13 0.500000 0.269398 0.500000
O O14 0.340329 0.500000 0.424123
O O15 0.353685 0.333509 0.349828
O O16 0.358060 0.500000 0.869610
O O17 0.292670 0.228647 0.854067
O O18 0.500000 0.343896 0.000000
O O19 0.813604 0.000000 0.982891
O O20 0.758723 0.000000 0.116234
O O21 0.166141 0.500000 0.216678
#
# Coordination Sequence:
#
# PCOD8057504 Si02
#       8
#     4   4   4   4   4   4   4   4
#     4  10  19  28  38  53  72  96 127 163 198 230
#     4   9  17  29  40  53  73  97 127 162 196 226
#     4   9  17  26  37  56  77  98 125 155 186 220
#     4   8  16  29  41  56  78 102 128 155 185 225
#     4   8  16  28  38  50  70  94 122 158 196 229
#     4   9  18  29  40  52  71  99 128 161 197 229
#     4  10  18  26  38  55  74  96 126 161 191 227
#     4   9  17  26  39  56  74  98 128 157 187 222
#
# _framework density 13.201269999999999
#
# number of rings (size 3 to 8) (size 9 to 14) (size 15 to 20)
#    0.750    2.250    0.000    3.375    0.000    9.000 
#    0.000    1.250    0.000    0.000    0.000    0.000 
#    0.000    0.000    0.000    1.125    0.000   22.000 
#
# Total GULP energy -396458.589036 kJ/mol
# GULP energy per Si atom -12389.330907 kJ/mol
# Density = 1.317122 g / cm^3
# Si number density = 13.201270 Si / 1000 Ang^3
#
#
#
# Elastic Constant Matrix: (Units=GPa)
#
#
# Indices 1 2 3 4 5 6 
#
# 1 75.1748 46.1576 28.7923 0.0000 10.0095 0.0000
# 2 46.1576 91.7075 39.4111 0.0000 10.5699 0.0000
# 3 28.7923 39.4111 58.3690 0.0000 8.0806 0.0000
# 4 0.0000 0.0000 0.0000 17.6348 0.0000 0.2434
# 5 10.0095 10.5699 8.0806 0.0000 14.4862 0.0000
# 6 0.0000 0.0000 0.0000 0.2434 0.0000 22.3968
#
#
#
# Elastic Compliance Matrix: (Units=1/GPa)
#
#
# Indices 1 2 3 4 5 6 
#
# 1 0.020484 -0.007920 -0.003898 0.000000 -0.006200 0.000000
# 2 -0.007920 0.018900 -0.008348 0.000000 -0.003662 0.000000
# 3 -0.003898 -0.008348 0.025440 0.000000 -0.005406 0.000000
# 4 0.000000 0.000000 0.000000 0.056714 0.000000 -0.000616
# 5 -0.006200 -0.003662 -0.005406 0.000000 0.079003 0.000000
# 6 0.000000 0.000000 0.000000 -0.000616 0.000000 0.044656
#
#
# Mechanical properties :
#
#
# Convention : Reuss Voigt Hill
#
# Bulk Modulus (GPa) = 40.82946 50.44146 45.63546
# Shear Modulus (GPa) = 17.02460 18.29626 17.66043
#
# Velocity S-wave (km/s) = 3.59502 3.72687 3.66154
# Velocity P-wave (km/s) = 6.94462 7.53737 7.24706
#
# Compressibility (1/GPa) = 0.02449212
#
# Stress axis : x y z
#
# Youngs Moduli (GPa) = 48.81918 52.91068 39.30780
#
# Poissons Ratio (x) = 0.41904 0.15324
# Poissons Ratio (y) = 0.38664 0.32813
# Poissons Ratio (z) = 0.19031 0.44168
#
# Static dielectric constant tensor:
#      x y z
#    x 2.631100 0.000000 0.091400 
#    y 0.000000 2.733270 0.000000 
#    z 0.091400 0.000000 2.400590 
# 
# 
# High freq. dielectric constant tensor:
#      x y z
#    x 1.479240 0.000000 0.009020 
#    y 0.000000 1.517080 0.000000 
#    z 0.009020 0.000000 1.462430 
# 
# From -- ./inp_files/92962.got.cif
#   From: 2010.06.25/outbox.cif.g09.slc.cpg/sg10_47_cif.got.tgz:92962.got - 2010.06.27 22:07:45.
