data_PCOD8057371
_publ_section_title
;
Structure prediction by ZEFSAII (Michael W. Deem and Ramdas Pophale) SiO2 
 PCOD8057371
Probable space group: P 2/M
;
_chemical_formula_sum "Si O2"
_cell_formula_units_Z 28
_cell_length_a 16.809303
_cell_length_b 8.684486
_cell_length_c 15.152399
_cell_angle_alpha 90.000000
_cell_angle_beta 46.326459
_cell_angle_gamma 90.000000
_cell_volume 1599.872419
_symmetry_space_group_name_H-M "P 2/M"
_symmetry_group_IT_number 10
_symmetry_cell_setting 'monoclinic'
loop_
_space_group_symop_operation_xyz
x,y,z
-x,y,-z
-x,-y,-z
x,-y,z
loop_
_atom_site_type_symbol
_atom_site_label
_atom_site_fract_x
_atom_site_fract_y
_atom_site_fract_z
Si Si1 0.603667 0.183026 0.112840
Si Si2 0.793278 0.677967 0.494565
Si Si3 0.360944 0.678053 0.543521
Si Si4 0.010278 0.181901 0.390034
Si Si5 0.411029 0.181202 0.679580
Si Si6 0.633620 0.182288 0.758219
Si Si7 0.250723 0.816795 0.156361
O O1 0.630858 0.235197 0.191856
O O2 0.485961 0.252526 0.172731
O O3 0.596217 0.000000 0.113847
O O4 0.699005 0.244552 0.974503
O O5 0.786055 0.500000 0.526057
O O6 0.748198 0.707222 0.430228
O O7 0.918222 0.735146 0.402029
O O8 0.721477 0.773632 0.617689
O O9 0.395897 0.500000 0.515485
O O10 0.460638 0.777189 0.427407
O O11 0.338329 0.731848 0.661405
O O12 0.000000 0.230609 0.500000
O O13 0.126440 0.242758 0.263410
O O14 0.996637 0.000000 0.390058
O O15 0.397111 0.000000 0.677268
O O16 0.673408 0.246726 0.822293
O O17 0.627161 0.000000 0.766309
O O18 0.250338 0.000000 0.159549
#
# Coordination Sequence:
#
# PCOD8057371 Si02
#       7
#     4   4   4   4   4   4   4
#     4   9  17  28  48  78 105 130 159 201 249 295
#     4  11  22  33  49  72 102 134 166 206 249 290
#     4  10  20  33  48  69  99 134 165 197 248 299
#     4  10  19  33  53  75  97 129 171 210 245 288
#     4  10  18  29  50  77 101 124 159 205 248 293
#     4  10  17  30  51  74 102 133 166 198 239 296
#     4   9  17  30  49  74 103 132 165 201 245 295
#
# _framework density 17.501394000000001
#
# number of rings (size 3 to 8) (size 9 to 14) (size 15 to 20)
#    0.000    2.143    2.857    2.571    0.000    3.714 
#    0.000    0.000    0.000    6.857    0.000    6.000 
#    0.000    0.000    0.000    0.000    0.000    0.000 
#
# Total GULP energy -347155.890445 kJ/mol
# GULP energy per Si atom -12398.424659 kJ/mol
# Density = 1.746156 g / cm^3
# Si number density = 17.501394 Si / 1000 Ang^3
#
#
#
# Elastic Constant Matrix: (Units=GPa)
#
#
# Indices 1 2 3 4 5 6 
#
# 1 131.5759 20.9432 67.9793 0.0000 14.5834 0.0000
# 2 20.9432 16.9069 4.8322 0.0000 6.0200 0.0000
# 3 67.9793 4.8322 130.0279 0.0000 11.5578 0.0000
# 4 0.0000 0.0000 0.0000 2.1685 0.0000 0.1565
# 5 14.5834 6.0200 11.5578 0.0000 29.1982 0.0000
# 6 0.0000 0.0000 0.0000 0.1565 0.0000 23.4554
#
#
#
# Elastic Compliance Matrix: (Units=1/GPa)
#
#
# Indices 1 2 3 4 5 6 
#
# 1 0.013238 -0.014174 -0.006287 0.000000 -0.001201 0.000000
# 2 -0.014174 0.079205 0.005482 0.000000 -0.011421 0.000000
# 3 -0.006287 0.005482 0.010982 0.000000 -0.002337 0.000000
# 4 0.000000 0.000000 0.000000 0.461363 0.000000 -0.003079
# 5 -0.001201 -0.011421 -0.002337 0.000000 0.038128 0.000000
# 6 0.000000 0.000000 0.000000 -0.003079 0.000000 0.042655
#
#
# Mechanical properties :
#
#
# Convention : Reuss Voigt Hill
#
# Bulk Modulus (GPa) = 13.61172 51.78001 32.69587
# Shear Modulus (GPa) = 7.14269 23.28149 15.21209
#
# Velocity S-wave (km/s) = 2.02239 3.65124 2.95141
# Velocity P-wave (km/s) = 3.63976 6.88664 5.50789
#
# Compressibility (1/GPa) = 0.07346608
#
# Stress axis : x y z
#
# Youngs Moduli (GPa) = 75.54220 12.62549 91.06069
#
# Poissons Ratio (x) = 0.17895 0.57252
# Poissons Ratio (y) = 1.07070 -0.49917
# Poissons Ratio (z) = 0.47495 -0.06921
#
# Static dielectric constant tensor:
#      x y z
#    x 3.515830 0.000000 0.140230 
#    y 0.000000 2.993920 0.000000 
#    z 0.140230 0.000000 3.331430 
# 
# 
# High freq. dielectric constant tensor:
#      x y z
#    x 1.679610 0.000000 0.011280 
#    y 0.000000 1.651920 0.000000 
#    z 0.011280 0.000000 1.659690 
# 
# From -- ./inp_files/54710.got.cif
#   From: 2010.06.25/outbox.cif.g09.slc.cpg/sg10_28_cif.got.tgz:54710.got - 2010.06.27 22:07:45.
