data_PCOD8057021
_publ_section_title
;
Structure prediction by ZEFSAII (Michael W. Deem and Ramdas Pophale) SiO2 
 PCOD8057021
Probable space group: P 2/M
;
_chemical_formula_sum "Si O2"
_cell_formula_units_Z 32
_cell_length_a 20.395406
_cell_length_b 9.246499
_cell_length_c 11.977889
_cell_angle_alpha 90.000000
_cell_angle_beta 64.514504
_cell_angle_gamma 90.000000
_cell_volume 2039.062960
_symmetry_space_group_name_H-M "P 2/M"
_symmetry_group_IT_number 10
_symmetry_cell_setting 'monoclinic'
loop_
_space_group_symop_operation_xyz
x,y,z
-x,y,-z
-x,-y,-z
x,-y,z
loop_
_atom_site_type_symbol
_atom_site_label
_atom_site_fract_x
_atom_site_fract_y
_atom_site_fract_z
Si Si1 0.531755 0.339393 0.851780
Si Si2 0.117958 0.165425 0.914791
Si Si3 0.770734 0.332952 0.043636
Si Si4 0.953237 0.332894 0.644355
Si Si5 0.810374 0.169524 0.788171
Si Si6 0.343986 0.834437 0.166449
Si Si7 0.620072 0.334382 0.078455
Si Si8 0.005444 0.833530 0.813904
O O1 0.559152 0.500000 0.807118
O O2 0.603398 0.241349 0.780648
O O3 0.463008 0.299875 0.820104
O O4 0.500000 0.322355 0.000000
O O5 0.188732 0.266122 0.878651
O O6 0.077713 0.208796 0.829773
O O7 0.143490 0.000000 0.890436
O O8 0.064585 0.189837 0.057823
O O9 0.792882 0.500000 0.013579
O O10 0.682993 0.317224 0.126169
O O11 0.795762 0.247169 0.915956
O O12 0.934254 0.500000 0.681482
O O13 0.879848 0.241710 0.679981
O O14 0.000000 0.313938 0.500000
O O15 0.000251 0.271062 0.712261
O O16 0.742493 0.189059 0.751677
O O17 0.824773 0.000000 0.801358
O O18 0.365639 0.000000 0.153688
O O19 0.360236 0.774725 0.033015
O O20 0.620911 0.500000 0.031370
O O21 0.009532 0.000000 0.771709
#
# Coordination Sequence:
#
# PCOD8057021 Si02
#       8
#     4   4   4   4   4   4   4   4
#     4   8  13  22  33  45  67 101 134 162 195 237
#     4   9  17  29  45  65  87 109 137 174 210 248
#     4  10  17  25  40  61  83 109 139 174 210 242
#     4  11  23  35  47  65  86 106 136 180 218 250
#     4  10  19  30  42  57  79 107 139 172 209 254
#     4   9  16  23  34  52  71  94 130 173 204 231
#     4   8  15  24  32  47  74 105 135 162 195 241
#     4   9  18  32  48  64  84 110 138 170 210 256
#
# _framework density 15.693481999999999
#
# number of rings (size 3 to 8) (size 9 to 14) (size 15 to 20)
#    0.000    2.750    1.250    3.000    0.000    5.750 
#    0.000    1.250    0.000    0.000    0.000    0.000 
#    0.000    0.000    0.000    1.125    0.000   22.125 
#
# Total GULP energy -396442.200698 kJ/mol
# GULP energy per Si atom -12388.818772 kJ/mol
# Density = 1.565776 g / cm^3
# Si number density = 15.693482 Si / 1000 Ang^3
#
#
#
# Elastic Constant Matrix: (Units=GPa)
#
#
# Indices 1 2 3 4 5 6 
#
# 1 164.0050 78.9502 28.1386 0.0000 -11.0745 0.0000
# 2 78.9502 110.4983 27.7774 0.0000 -5.1148 0.0000
# 3 28.1386 27.7774 29.2572 0.0000 2.6031 0.0000
# 4 0.0000 0.0000 0.0000 12.2874 0.0000 0.4734
# 5 -11.0745 -5.1148 2.6031 0.0000 10.8868 0.0000
# 6 0.0000 0.0000 0.0000 0.4734 0.0000 30.6413
#
#
#
# Elastic Compliance Matrix: (Units=1/GPa)
#
#
# Indices 1 2 3 4 5 6 
#
# 1 0.010350 -0.005596 -0.005460 0.000000 0.009204 0.000000
# 2 -0.005596 0.015728 -0.009913 0.000000 0.004067 0.000000
# 3 -0.005460 -0.009913 0.050832 0.000000 -0.022365 0.000000
# 4 0.000000 0.000000 0.000000 0.081433 0.000000 -0.001258
# 5 0.009204 0.004067 -0.022365 0.000000 0.108476 0.000000
# 6 0.000000 0.000000 0.000000 -0.001258 0.000000 0.032655
#
#
# Mechanical properties :
#
#
# Convention : Reuss Voigt Hill
#
# Bulk Modulus (GPa) = 28.59361 63.72143 46.15752
# Shear Modulus (GPa) = 14.16159 22.02271 18.09215
#
# Velocity S-wave (km/s) = 3.00723 3.75013 3.39904
# Velocity P-wave (km/s) = 5.50614 7.70994 6.69928
#
# Compressibility (1/GPa) = 0.03497285
#
# Stress axis : x y z
#
# Youngs Moduli (GPa) = 96.62261 63.57905 19.67278
#
# Poissons Ratio (x) = 0.35580 0.10741
# Poissons Ratio (y) = 0.54072 0.19501
# Poissons Ratio (z) = 0.52753 0.63023
#
# Static dielectric constant tensor:
#      x y z
#    x 3.755400 0.000000 -0.167790 
#    y 0.000000 3.118640 0.000000 
#    z -0.167790 0.000000 2.321670 
# 
# 
# High freq. dielectric constant tensor:
#      x y z
#    x 1.631200 0.000000 -0.012580 
#    y 0.000000 1.614900 0.000000 
#    z -0.012580 0.000000 1.508430 
# 
# From -- ./inp_files/54815.got.cif
#   From: 2010.06.25/outbox.cif.g09.slc.cpg/sg10_28_cif.got.tgz:54815.got - 2010.06.27 22:07:45.
