data_PCOD8057859
_publ_section_title
;
Structure prediction by ZEFSAII (Michael W. Deem and Ramdas Pophale) SiO2 
 PCOD8057859
Probable space group: P 2/M
;
_chemical_formula_sum "Si O2"
_cell_formula_units_Z 32
_cell_length_a 23.583919
_cell_length_b 8.824182
_cell_length_c 11.352998
_cell_angle_alpha 90.000000
_cell_angle_beta 53.258742
_cell_angle_gamma 90.000000
_cell_volume 1893.304971
_symmetry_space_group_name_H-M "P 2/M"
_symmetry_group_IT_number 10
_symmetry_cell_setting 'monoclinic'
loop_
_space_group_symop_operation_xyz
x,y,z
-x,y,-z
-x,-y,-z
x,-y,z
loop_
_atom_site_type_symbol
_atom_site_label
_atom_site_fract_x
_atom_site_fract_y
_atom_site_fract_z
Si Si1 0.400154 0.320150 0.684041
Si Si2 0.535926 0.180194 0.619125
Si Si3 0.869829 0.670450 0.827331
Si Si4 0.148712 0.330304 0.428103
Si Si5 0.709736 0.177798 0.782566
Si Si6 0.272443 0.177286 0.968189
Si Si7 0.009363 0.170538 0.628071
Si Si8 0.433570 0.179567 0.154178
O O1 0.410183 0.500000 0.675947
O O2 0.456311 0.239921 0.700580
O O3 0.411501 0.260704 0.537495
O O4 0.322130 0.273655 0.820817
O O5 0.561565 0.228155 0.716332
O O6 0.536893 0.000000 0.599119
O O7 0.863673 0.500000 0.884199
O O8 0.863500 0.672053 0.695419
O O9 0.945788 0.738269 0.769632
O O10 0.807921 0.773413 0.959431
O O11 0.150038 0.500000 0.476092
O O12 0.223292 0.252524 0.365473
O O13 0.084387 0.243060 0.571460
O O14 0.638923 0.244122 0.810796
O O15 0.717283 0.000000 0.754372
O O16 0.707087 0.218674 0.923568
O O17 0.281398 0.000000 0.931295
O O18 0.000000 0.174629 0.500000
O O19 0.007593 0.000000 0.677981
O O20 0.434172 0.000000 0.139825
O O21 0.500000 0.248489 0.000000
#
# Coordination Sequence:
#
# PCOD8057859 Si02
#       8
#     4   4   4   4   4   4   4   4
#     4  11  21  33  48  66  91 118 147 186 229 268
#     4  10  19  33  52  70  88 114 150 186 222 268
#     4   9  16  25  37  57  86 116 146 182 224 266
#     4   9  16  25  37  55  82 116 150 183 221 264
#     4   9  17  29  45  65  89 117 150 187 224 266
#     4  10  18  29  46  66  89 119 154 186 220 266
#     4   9  15  23  36  54  78 112 152 187 219 259
#     4   9  17  30  49  71  92 115 146 185 225 264
#
# _framework density 16.901662000000002
#
# number of rings (size 3 to 8) (size 9 to 14) (size 15 to 20)
#    0.000    2.500    0.000    4.500    0.000    7.000 
#    0.000    1.250    0.000    2.625    0.000    0.000 
#    0.000    1.000    0.000   10.750    0.000    7.875 
#
# Total GULP energy -396787.429784 kJ/mol
# GULP energy per Si atom -12399.607181 kJ/mol
# Density = 1.686319 g / cm^3
# Si number density = 16.901662 Si / 1000 Ang^3
#
#
#
# Elastic Constant Matrix: (Units=GPa)
#
#
# Indices 1 2 3 4 5 6 
#
# 1 90.7947 32.7766 59.4142 0.0000 -27.7929 0.0000
# 2 32.7766 87.5338 39.1172 0.0000 -9.8278 0.0000
# 3 59.4142 39.1172 88.3503 0.0000 -26.5263 0.0000
# 4 0.0000 0.0000 0.0000 22.9689 0.0000 -10.1149
# 5 -27.7929 -9.8278 -26.5263 0.0000 28.9605 0.0000
# 6 0.0000 0.0000 0.0000 -10.1149 0.0000 15.1796
#
#
#
# Elastic Compliance Matrix: (Units=1/GPa)
#
#
# Indices 1 2 3 4 5 6 
#
# 1 0.022054 -0.002324 -0.010599 0.000000 0.010668 0.000000
# 2 -0.002324 0.014522 -0.005596 0.000000 -0.002427 0.000000
# 3 -0.010599 -0.005596 0.023862 0.000000 0.009785 0.000000
# 4 0.000000 0.000000 0.000000 0.061618 0.000000 0.041059
# 5 0.010668 -0.002427 0.009785 0.000000 0.052907 0.000000
# 6 0.000000 0.000000 0.000000 0.041059 0.000000 0.093238
#
#
# Mechanical properties :
#
#
# Convention : Reuss Voigt Hill
#
# Bulk Modulus (GPa) = 42.73373 58.81055 50.77214
# Shear Modulus (GPa) = 15.97239 22.44653 19.20946
#
# Velocity S-wave (km/s) = 3.07745 3.64822 3.37492
# Velocity P-wave (km/s) = 6.16168 7.25378 6.72991
#
# Compressibility (1/GPa) = 0.02340072
#
# Stress axis : x y z
#
# Youngs Moduli (GPa) = 45.34269 68.85879 41.90748
#
# Poissons Ratio (x) = 0.16001 0.44419
# Poissons Ratio (y) = 0.10536 0.23451
# Poissons Ratio (z) = 0.48060 0.38533
#
# Static dielectric constant tensor:
#      x y z
#    x 3.058630 0.000000 -0.333810 
#    y 0.000000 3.184380 0.000000 
#    z -0.333810 0.000000 3.056330 
# 
# 
# High freq. dielectric constant tensor:
#      x y z
#    x 1.621390 0.000000 -0.040150 
#    y 0.000000 1.655660 0.000000 
#    z -0.040150 0.000000 1.633040 
# 
# From -- ./inp_files/56423.got.cif
#   From: 2010.06.25/outbox.cif.g09.slc.cpg/sg10_29_cif.got.tgz:56423.got - 2010.06.27 22:07:45.
