data_PCOD8057832
_publ_section_title
;
Structure prediction by ZEFSAII (Michael W. Deem and Ramdas Pophale) SiO2 
 PCOD8057832
Probable space group: P 2/M
;
_chemical_formula_sum "Si O2"
_cell_formula_units_Z 32
_cell_length_a 34.303240
_cell_length_b 13.889775
_cell_length_c 10.356940
_cell_angle_alpha 90.000000
_cell_angle_beta 25.072765
_cell_angle_gamma 90.000000
_cell_volume 2091.177588
_symmetry_space_group_name_H-M "P 2/M"
_symmetry_group_IT_number 10
_symmetry_cell_setting 'monoclinic'
loop_
_space_group_symop_operation_xyz
x,y,z
-x,y,-z
-x,-y,-z
x,-y,z
loop_
_atom_site_type_symbol
_atom_site_label
_atom_site_fract_x
_atom_site_fract_y
_atom_site_fract_z
Si Si1 0.390946 0.277190 0.828464
Si Si2 0.931347 0.885510 0.813192
Si Si3 0.277032 0.889549 0.569049
Si Si4 0.611032 0.608583 0.416904
Si Si5 0.931346 0.885510 0.098730
Si Si6 0.607277 0.392956 0.928168
Si Si7 0.609054 0.277189 0.674141
Si Si8 0.277032 0.110451 0.268754
O O1 0.500000 0.261993 0.500000
O O2 0.355316 0.333383 0.809445
O O3 0.357176 0.338675 0.052010
O O4 0.343929 0.172802 0.977557
O O5 0.000000 0.841061 0.500000
O O6 0.937002 0.000000 0.796235
O O7 0.827271 0.854410 0.093454
O O8 0.959496 0.847391 0.871513
O O9 0.343928 0.827199 0.458871
O O10 0.303524 0.877090 0.339426
O O11 0.289529 0.000000 0.574106
O O12 0.652174 0.500000 0.293478
O O13 0.501965 0.601565 0.744108
O O14 0.644684 0.666620 0.441342
O O15 0.827271 0.854410 0.442922
O O16 0.937003 0.000000 0.081751
O O17 0.000000 0.841061 0.000000
O O18 0.649247 0.500000 0.802258
O O19 0.642824 0.338675 0.695065
O O20 0.500000 0.261993 0.000000
O O21 0.289531 0.000000 0.188713
#
# Coordination Sequence:
#
# PCOD8057832 Si02
#       8
#     4   4   4   4   4   4   4   4
#     4  10  18  29  45  64  89 120 151 183 216 259
#     4   8  14  26  44  63  83 109 141 179 221 257
#     4   9  17  30  46  63  89 124 154 179 209 253
#     4   9  18  30  43  63  90 113 139 187 241 264
#     4   8  14  26  44  63  83 109 141 179 221 257
#     4   9  16  28  47  65  80 109 151 189 227 266
#     4  10  18  29  45  64  89 120 151 183 216 259
#     4   9  17  30  46  63  89 124 154 179 209 253
#
# _framework density 15.302384
#
# number of rings (size 3 to 8) (size 9 to 14) (size 15 to 20)
#    0.000    3.000    1.250    2.250    0.000    3.500 
#    2.250    0.625    0.000    0.000    0.000    0.000 
#    0.000    6.000    0.000    0.000    0.000    0.000 
#
# Total GULP energy -396687.244000 kJ/mol
# GULP energy per Si atom -12396.476375 kJ/mol
# Density = 1.526755 g / cm^3
# Si number density = 15.302384 Si / 1000 Ang^3
#
#
#
# Elastic Constant Matrix: (Units=GPa)
#
#
# Indices 1 2 3 4 5 6 
#
# 1 102.9335 49.6651 43.8833 0.0000 17.2178 0.0000
# 2 49.6651 86.5292 39.3011 0.0000 7.6160 0.0000
# 3 43.8833 39.3011 62.1349 0.0000 12.7688 0.0000
# 4 0.0000 0.0000 0.0000 6.9721 0.0000 9.4230
# 5 17.2178 7.6160 12.7688 0.0000 21.0807 0.0000
# 6 0.0000 0.0000 0.0000 9.4230 0.0000 19.7911
#
#
#
# Elastic Compliance Matrix: (Units=1/GPa)
#
#
# Indices 1 2 3 4 5 6 
#
# 1 0.016565 -0.005941 -0.006399 0.000000 -0.007508 0.000000
# 2 -0.005941 0.018349 -0.008046 0.000000 0.003097 0.000000
# 3 -0.006399 -0.008046 0.027448 0.000000 -0.008492 0.000000
# 4 0.000000 0.000000 0.000000 0.402321 0.000000 -0.191555
# 5 -0.007508 0.003097 -0.008492 0.000000 0.057593 0.000000
# 6 0.000000 0.000000 0.000000 -0.191555 0.000000 0.141732
#
#
# Mechanical properties :
#
#
# Convention : Reuss Voigt Hill
#
# Bulk Modulus (GPa) = 46.31880 57.47740 51.89810
# Shear Modulus (GPa) = 7.02270 17.48533 12.25402
#
# Velocity S-wave (km/s) = 2.14459 3.38398 2.83290
# Velocity P-wave (km/s) = 6.03880 7.27400 6.68499
#
# Compressibility (1/GPa) = 0.02158950
#
# Stress axis : x y z
#
# Youngs Moduli (GPa) = 60.36728 54.49976 36.43265
#
# Poissons Ratio (x) = 0.32377 0.23313
# Poissons Ratio (y) = 0.35863 0.29315
# Poissons Ratio (z) = 0.38629 0.43853
#
# Static dielectric constant tensor:
#      x y z
#    x 3.062210 0.000000 0.193140 
#    y 0.000000 2.799300 0.000000 
#    z 0.193140 0.000000 2.799440 
# 
# 
# High freq. dielectric constant tensor:
#      x y z
#    x 1.583360 0.000000 0.017400 
#    y 0.000000 1.565020 0.000000 
#    z 0.017400 0.000000 1.559690 
# 
# From -- ./inp_files/29161.got.cif
#   From: 2010.06.25/outbox.cif.g09.slc.cpg/sg10_15_cif.got.tgz:29161.got - 2010.06.27 22:07:45.
