data_PCOD8057179
_publ_section_title
;
Structure prediction by ZEFSAII (Michael W. Deem and Ramdas Pophale) SiO2 
 PCOD8057179
Probable space group: P 2/M
;
_chemical_formula_sum "Si O2"
_cell_formula_units_Z 28
_cell_length_a 14.380737
_cell_length_b 9.140858
_cell_length_c 17.140228
_cell_angle_alpha 90.000000
_cell_angle_beta 50.010149
_cell_angle_gamma 90.000000
_cell_volume 1726.248070
_symmetry_space_group_name_H-M "P 2/M"
_symmetry_group_IT_number 10
_symmetry_cell_setting 'monoclinic'
loop_
_space_group_symop_operation_xyz
x,y,z
-x,y,-z
-x,-y,-z
x,-y,z
loop_
_atom_site_type_symbol
_atom_site_label
_atom_site_fract_x
_atom_site_fract_y
_atom_site_fract_z
Si Si1 0.035403 0.834044 0.753866
Si Si2 0.668936 0.827757 0.260844
Si Si3 0.976436 0.328979 0.638041
Si Si4 0.594740 0.171500 0.632366
Si Si5 0.685260 0.836082 0.422897
Si Si6 0.911668 0.669248 0.119780
Si Si7 0.193492 0.329647 0.409928
O O1 0.170792 0.829579 0.648512
O O2 0.026128 0.747936 0.840124
O O3 0.954936 0.757669 0.730239
O O4 0.990299 0.000000 0.791439
O O5 0.548343 0.799210 0.274290
O O6 0.643520 0.767619 0.362682
O O7 0.783205 0.741273 0.164359
O O8 0.702908 0.000000 0.246053
O O9 0.985330 0.500000 0.652234
O O10 0.861089 0.294733 0.645632
O O11 0.098684 0.277497 0.527446
O O12 0.628668 0.242225 0.529413
O O13 0.677837 0.247133 0.652789
O O14 0.623927 0.000000 0.618472
O O15 0.634565 0.000000 0.451920
O O16 0.890527 0.500000 0.151863
O O17 0.000000 0.689980 0.000000
O O18 0.218396 0.500000 0.405853
#
# Coordination Sequence:
#
# PCOD8057179 Si02
#       7
#     4   4   4   4   4   4   4
#     4  10  18  29  49  72  93 121 156 195 235 273
#     4   9  18  30  46  67  92 122 155 191 231 274
#     4   9  17  30  44  62  93 130 164 196 230 267
#     4  10  17  27  43  65  94 127 159 192 227 266
#     4   8  14  25  40  61  90 122 152 182 219 264
#     4  10  21  36  52  70  93 120 150 189 236 284
#     4   9  18  29  42  62  93 132 166 196 227 262
#
# _framework density 16.220147999999998
#
# number of rings (size 3 to 8) (size 9 to 14) (size 15 to 20)
#    0.000    2.714    1.429    3.000    0.000    4.000 
#    0.000    1.429    0.000    2.571    0.000    1.000 
#    0.000    8.000    0.000    0.000    0.000    0.000 
#
# Total GULP energy -347039.249387 kJ/mol
# GULP energy per Si atom -12394.258907 kJ/mol
# Density = 1.618323 g / cm^3
# Si number density = 16.220148 Si / 1000 Ang^3
#
#
#
# Elastic Constant Matrix: (Units=GPa)
#
#
# Indices 1 2 3 4 5 6 
#
# 1 118.7035 56.5396 40.5980 0.0000 -5.3526 0.0000
# 2 56.5396 80.5290 40.0656 0.0000 2.1928 0.0000
# 3 40.5980 40.0656 56.5479 0.0000 2.2502 0.0000
# 4 0.0000 0.0000 0.0000 17.3340 0.0000 0.4327
# 5 -5.3526 2.1928 2.2502 0.0000 16.4564 0.0000
# 6 0.0000 0.0000 0.0000 0.4327 0.0000 29.8470
#
#
#
# Elastic Compliance Matrix: (Units=1/GPa)
#
#
# Indices 1 2 3 4 5 6 
#
# 1 0.013983 -0.007520 -0.004959 0.000000 0.006228 0.000000
# 2 -0.007520 0.023231 -0.010900 0.000000 -0.004051 0.000000
# 3 -0.004959 -0.010900 0.029132 0.000000 -0.004144 0.000000
# 4 0.000000 0.000000 0.000000 0.057711 0.000000 -0.000837
# 5 0.006228 -0.004051 -0.004144 0.000000 0.063899 0.000000
# 6 0.000000 0.000000 0.000000 -0.000837 0.000000 0.033516
#
#
# Mechanical properties :
#
#
# Convention : Reuss Voigt Hill
#
# Bulk Modulus (GPa) = 51.04888 58.90965 54.97927
# Shear Modulus (GPa) = 18.19788 20.63264 19.41526
#
# Velocity S-wave (km/s) = 3.35316 3.57043 3.46350
# Velocity P-wave (km/s) = 6.82147 7.30719 7.06850
#
# Compressibility (1/GPa) = 0.01958907
#
# Stress axis : x y z
#
# Youngs Moduli (GPa) = 71.51574 43.04619 34.32697
#
# Poissons Ratio (x) = 0.32371 0.17021
# Poissons Ratio (y) = 0.53780 0.37415
# Poissons Ratio (z) = 0.35462 0.46918
#
# Static dielectric constant tensor:
#      x y z
#    x 3.094030 0.000000 -0.007970 
#    y 0.000000 2.973160 0.000000 
#    z -0.007970 0.000000 2.722350 
# 
# 
# High freq. dielectric constant tensor:
#      x y z
#    x 1.625810 0.000000 -0.001020 
#    y 0.000000 1.613020 0.000000 
#    z -0.001020 0.000000 1.578910 
# 
# From -- ./inp_files/65735.got.cif
#   From: 2010.06.25/outbox.cif.g09.slc.cpg/sg10_33_cif.got.tgz:65735.got - 2010.06.27 22:07:45.
