data_PCOD8057430
_publ_section_title
;
Structure prediction by ZEFSAII (Michael W. Deem and Ramdas Pophale) SiO2 
 PCOD8057430
Probable space group: P 2/M
;
_chemical_formula_sum "Si O2"
_cell_formula_units_Z 32
_cell_length_a 8.548461
_cell_length_b 15.258548
_cell_length_c 25.216276
_cell_angle_alpha 90.000000
_cell_angle_beta 29.718414
_cell_angle_gamma 90.000000
_cell_volume 1630.550051
_symmetry_space_group_name_H-M "P 2/M"
_symmetry_group_IT_number 10
_symmetry_cell_setting 'monoclinic'
loop_
_space_group_symop_operation_xyz
x,y,z
-x,y,-z
-x,-y,-z
x,-y,z
loop_
_atom_site_type_symbol
_atom_site_label
_atom_site_fract_x
_atom_site_fract_y
_atom_site_fract_z
Si Si1 0.327597 0.901652 0.178690
Si Si2 0.245887 0.143255 0.034580
Si Si3 0.588394 0.257206 0.770843
Si Si4 0.333769 0.745712 0.374888
Si Si5 0.074971 0.325839 0.057356
Si Si6 0.829630 0.598461 0.234111
Si Si7 0.218604 0.099543 0.744528
Si Si8 0.652429 0.599681 0.830876
O O1 0.323463 0.835631 0.229031
O O2 0.050230 0.875673 0.219086
O O3 0.278907 0.000000 0.214884
O O4 0.667550 0.895557 0.048670
O O5 0.278464 0.248472 0.024027
O O6 0.906097 0.113995 0.158002
O O7 0.500000 0.103086 0.000000
O O8 0.712188 0.255733 0.674683
O O9 0.761479 0.336426 0.751245
O O10 0.214528 0.275769 0.886194
O O11 0.552792 0.665778 0.329384
O O12 0.484690 0.836740 0.350662
O O13 0.000000 0.733214 0.500000
O O14 0.944031 0.391857 0.140055
O O15 0.290284 0.380323 0.953562
O O16 0.700819 0.500000 0.280014
O O17 0.126406 0.617086 0.184142
O O18 0.334041 0.000000 0.703223
O O19 0.674208 0.500000 0.804058
#
# Coordination Sequence:
#
# PCOD8057430 Si02
#       8
#     4   4   4   4   4   4   4   4
#     4  10  21  36  58  88 124 160 189 225 275 338
#     4  10  17  31  56  84 119 158 193 224 260 329
#     4  11  23  37  55  84 121 151 188 237 294 340
#     4  11  25  44  64  84 107 143 192 252 304 341
#     4  11  20  32  55  88 124 161 191 221 270 330
#     4  10  21  39  62  86 113 155 199 231 273 340
#     4  10  20  38  62  86 115 156 199 233 273 336
#     4  11  22  36  58  87 123 158 188 226 277 340
#
# _framework density 19.625278999999999
#
# number of rings (size 3 to 8) (size 9 to 14) (size 15 to 20)
#    0.000    1.500    3.750    3.000    0.000    6.500 
#    0.000    3.125    0.000    3.000    0.000    0.000 
#    0.000    0.000    0.000    0.000    0.000    0.000 
#
# Total GULP energy -396768.532006 kJ/mol
# GULP energy per Si atom -12399.016625 kJ/mol
# Density = 1.958061 g / cm^3
# Si number density = 19.625279 Si / 1000 Ang^3
#
#
#
# Elastic Constant Matrix: (Units=GPa)
#
#
# Indices 1 2 3 4 5 6 
#
# 1 71.9678 51.5000 27.3275 0.0000 7.5232 0.0000
# 2 51.5000 147.4605 41.4577 0.0000 1.1160 0.0000
# 3 27.3275 41.4577 93.5918 0.0000 -1.0847 0.0000
# 4 0.0000 0.0000 0.0000 15.4482 0.0000 -2.8221
# 5 7.5232 1.1160 -1.0847 0.0000 16.2121 0.0000
# 6 0.0000 0.0000 0.0000 -2.8221 0.0000 29.0609
#
#
#
# Elastic Compliance Matrix: (Units=1/GPa)
#
#
# Indices 1 2 3 4 5 6 
#
# 1 0.020565 -0.006160 -0.003384 0.000000 -0.009346 0.000000
# 2 -0.006160 0.009601 -0.002431 0.000000 0.002035 0.000000
# 3 -0.003384 -0.002431 0.012780 0.000000 0.002593 0.000000
# 4 0.000000 0.000000 0.000000 0.065901 0.000000 0.006400
# 5 -0.009346 0.002035 0.002593 0.000000 0.066053 0.000000
# 6 0.000000 0.000000 0.000000 0.006400 0.000000 0.035032
#
#
# Mechanical properties :
#
#
# Convention : Reuss Voigt Hill
#
# Bulk Modulus (GPa) = 52.64376 61.51005 57.07691
# Shear Modulus (GPa) = 20.81479 24.99323 22.90401
#
# Velocity S-wave (km/s) = 3.26024 3.57252 3.41994
# Velocity P-wave (km/s) = 6.40741 6.95898 6.68888
#
# Compressibility (1/GPa) = 0.01899560
#
# Stress axis : x y z
#
# Youngs Moduli (GPa) = 48.62543 104.15791 78.24974
#
# Poissons Ratio (x) = 0.64163 0.26483
# Poissons Ratio (y) = 0.29954 0.19019
# Poissons Ratio (z) = 0.16457 0.25316
#
# Static dielectric constant tensor:
#      x y z
#    x 3.603940 0.000000 0.012800 
#    y 0.000000 3.689840 0.000000 
#    z 0.012800 0.000000 3.133160 
# 
# 
# High freq. dielectric constant tensor:
#      x y z
#    x 1.767500 0.000000 0.003910 
#    y 0.000000 1.779630 0.000000 
#    z 0.003910 0.000000 1.714450 
# 
# From -- ./inp_files/88248.got.cif
#   From: 2010.06.25/outbox.cif.g09.slc.cpg/sg10_45_cif.got.tgz:88248.got - 2010.06.27 22:07:45.
