data_PCOD8057587
_publ_section_title
;
Structure prediction by ZEFSAII (Michael W. Deem and Ramdas Pophale) SiO2 
 PCOD8057587
Probable space group: P 2/M
;
_chemical_formula_sum "Si O2"
_cell_formula_units_Z 28
_cell_length_a 9.164253
_cell_length_b 16.141134
_cell_length_c 14.590549
_cell_angle_alpha 90.000000
_cell_angle_beta 122.307413
_cell_angle_gamma 90.000000
_cell_volume 1824.141314
_symmetry_space_group_name_H-M "P 2/M"
_symmetry_group_IT_number 10
_symmetry_cell_setting 'monoclinic'
loop_
_space_group_symop_operation_xyz
x,y,z
-x,y,-z
-x,-y,-z
x,-y,z
loop_
_atom_site_type_symbol
_atom_site_label
_atom_site_fract_x
_atom_site_fract_y
_atom_site_fract_z
Si Si1 0.703649 0.000000 0.677508
Si Si2 0.336122 0.595032 0.003556
Si Si3 0.338976 0.594709 0.216486
Si Si4 0.169627 0.826171 0.285353
Si Si5 0.838713 0.173164 0.505641
Si Si6 0.506874 0.719482 0.399153
Si Si7 0.682592 0.000000 0.453022
Si Si8 0.999475 0.696430 0.893931
O O1 0.813314 0.079921 0.745719
O O2 0.675622 0.000000 0.559737
O O3 0.510396 0.000000 0.654832
O O4 0.284809 0.500000 0.964613
O O5 0.177942 0.654225 0.923807
O O6 0.500000 0.623830 0.000000
O O7 0.385756 0.605015 0.126088
O O8 0.342028 0.500000 0.248815
O O9 0.482976 0.643179 0.322345
O O10 0.149312 0.629456 0.174377
O O11 0.108216 0.825481 0.369866
O O12 0.358883 0.787726 0.337614
O O13 0.029180 0.777935 0.177209
O O14 0.687411 0.238309 0.436079
O O15 0.781925 0.081921 0.452655
O O16 0.000000 0.202753 0.500000
O O17 0.500000 0.684336 0.500000
O O18 0.000000 0.723804 0.000000
#
# Coordination Sequence:
#
# PCOD8057587 Si02
#       8
#     2   4   4   4   4   4   2   4
#     4   9  14  26  47  64  84 113 142 174 214 249
#     4   9  17  29  46  67  88 110 138 176 220 258
#     4   9  17  29  46  65  84 110 144 181 214 248
#     4   9  17  29  45  64  86 115 143 175 213 252
#     4  10  18  27  42  66  92 114 141 174 210 253
#     4   9  17  29  43  61  87 116 144 173 211 255
#     4   9  15  26  44  64  87 113 140 176 213 247
#     4   9  17  30  47  66  86 108 144 182 214 249
#
# _framework density 15.349688
#
# number of rings (size 3 to 8) (size 9 to 14) (size 15 to 20)
#    0.000    2.857    1.429    0.643    0.000    3.143 
#    0.000    0.357    0.000    0.429    0.000    0.500 
#    0.000    0.000    0.000    0.000    0.000    0.000 
#
# Total GULP energy -347192.093443 kJ/mol
# GULP energy per Si atom -12399.717623 kJ/mol
# Density = 1.531475 g / cm^3
# Si number density = 15.349688 Si / 1000 Ang^3
#
#
#
# Elastic Constant Matrix: (Units=GPa)
#
#
# Indices 1 2 3 4 5 6 
#
# 1 110.5482 49.2780 41.6232 0.0000 6.1764 0.0000
# 2 49.2780 118.9238 64.2358 0.0000 4.2283 0.0000
# 3 41.6232 64.2358 78.4367 0.0000 9.3011 0.0000
# 4 0.0000 0.0000 0.0000 27.2574 0.0000 0.8133
# 5 6.1764 4.2283 9.3011 0.0000 13.6743 0.0000
# 6 0.0000 0.0000 0.0000 0.8133 0.0000 15.3124
#
#
#
# Elastic Compliance Matrix: (Units=1/GPa)
#
#
# Indices 1 2 3 4 5 6 
#
# 1 0.011813 -0.002804 -0.003744 0.000000 -0.001922 0.000000
# 2 -0.002804 0.015955 -0.012121 0.000000 0.004578 0.000000
# 3 -0.003744 -0.012121 0.026125 0.000000 -0.012331 0.000000
# 4 0.000000 0.000000 0.000000 0.036746 0.000000 -0.001952
# 5 -0.001922 0.004578 -0.012331 0.000000 0.080970 0.000000
# 6 0.000000 0.000000 0.000000 -0.001952 0.000000 0.065410
#
#
# Mechanical properties :
#
#
# Convention : Reuss Voigt Hill
#
# Bulk Modulus (GPa) = 60.40967 68.68697 64.54832
# Shear Modulus (GPa) = 17.86505 21.43359 19.64932
#
# Velocity S-wave (km/s) = 3.41526 3.74084 3.58175
# Velocity P-wave (km/s) = 7.41573 7.96892 7.69730
#
# Compressibility (1/GPa) = 0.01655364
#
# Stress axis : x y z
#
# Youngs Moduli (GPa) = 84.65279 62.67590 38.27744
#
# Poissons Ratio (x) = 0.17575 0.14333
# Poissons Ratio (y) = 0.23737 0.46397
# Poissons Ratio (z) = 0.31697 0.75971
#
# Static dielectric constant tensor:
#      x y z
#    x 2.795230 0.000000 0.023830 
#    y 0.000000 3.018920 0.000000 
#    z 0.023830 0.000000 2.850400 
# 
# 
# High freq. dielectric constant tensor:
#      x y z
#    x 1.579570 0.000000 0.003110 
#    y 0.000000 1.588790 0.000000 
#    z 0.003110 0.000000 1.568330 
# 
# From -- ./inp_files/28988.got.cif
#   From: 2010.06.25/outbox.cif.g09.slc.cpg/sg10_15_cif.got.tgz:28988.got - 2010.06.27 22:07:45.
