data_PCOD8057892
_publ_section_title
;
Structure prediction by ZEFSAII (Michael W. Deem and Ramdas Pophale) SiO2 
 PCOD8057892
Probable space group: P 2/M
;
_chemical_formula_sum "Si O2"
_cell_formula_units_Z 24
_cell_length_a 26.494555
_cell_length_b 8.648392
_cell_length_c 14.035129
_cell_angle_alpha 90.000000
_cell_angle_beta 25.426555
_cell_angle_gamma 90.000000
_cell_volume 1380.777410
_symmetry_space_group_name_H-M "P 2/M"
_symmetry_group_IT_number 10
_symmetry_cell_setting 'monoclinic'
loop_
_space_group_symop_operation_xyz
x,y,z
-x,y,-z
-x,-y,-z
x,-y,z
loop_
_atom_site_type_symbol
_atom_site_label
_atom_site_fract_x
_atom_site_fract_y
_atom_site_fract_z
Si Si1 0.245237 0.820665 0.347155
Si Si2 0.389165 0.325389 0.258024
Si Si3 0.842269 0.818733 0.831737
Si Si4 0.594791 0.679718 0.259332
Si Si5 0.535289 0.821063 0.163398
Si Si6 0.070632 0.681428 0.509950
O O1 0.279872 0.756542 0.392025
O O2 0.129628 0.729805 0.509031
O O3 0.215509 0.000000 0.407134
O O4 0.348999 0.788893 0.095596
O O5 0.354174 0.500000 0.344363
O O6 0.420239 0.232251 0.301006
O O7 0.500000 0.321847 0.000000
O O8 0.861806 0.771172 0.689051
O O9 0.933831 0.729503 0.743991
O O10 0.863211 0.000000 0.806817
O O11 0.710860 0.776806 0.086263
O O12 0.500000 0.723966 0.500000
O O13 0.627442 0.500000 0.205372
O O14 0.541697 0.721435 0.247618
O O15 0.523324 0.000000 0.210561
O O16 0.082920 0.500000 0.471401
#
# Coordination Sequence:
#
# PCOD8057892 Si02
#       6
#     4   4   4   4   4   4
#     4  10  18  29  46  72 102 132 165 202 247 300
#     4   9  17  28  44  67  97 131 165 201 244 299
#     4  11  21  34  50  71  99 131 168 208 251 299
#     4  11  23  37  53  73  99 133 173 213 251 295
#     4  10  19  31  48  69  98 132 166 208 250 295
#     4  11  20  31  50  73 101 134 166 203 250 302
#
# _framework density 17.381513000000002
#
# number of rings (size 3 to 8) (size 9 to 14) (size 15 to 20)
#    0.000    1.667    1.667    6.000    0.000    4.667 
#    0.000    0.000    0.000    0.000    0.000    1.167 
#    0.000    9.333    0.000    0.000    0.000    0.000 
#
# Total GULP energy -297677.585903 kJ/mol
# GULP energy per Si atom -12403.232746 kJ/mol
# Density = 1.734195 g / cm^3
# Si number density = 17.381513 Si / 1000 Ang^3
#
#
#
# Elastic Constant Matrix: (Units=GPa)
#
#
# Indices 1 2 3 4 5 6 
#
# 1 115.5818 23.8787 31.1613 0.0000 -29.1604 0.0000
# 2 23.8787 81.4690 22.4671 0.0000 -8.2644 0.0000
# 3 31.1613 22.4671 53.6718 0.0000 -9.1910 0.0000
# 4 0.0000 0.0000 0.0000 16.9854 0.0000 -6.7605
# 5 -29.1604 -8.2644 -9.1910 0.0000 19.4496 0.0000
# 6 0.0000 0.0000 0.0000 -6.7605 0.0000 35.4352
#
#
#
# Elastic Compliance Matrix: (Units=1/GPa)
#
#
# Indices 1 2 3 4 5 6 
#
# 1 0.015292 -0.001066 -0.004987 0.000000 0.020117 0.000000
# 2 -0.001066 0.014164 -0.004954 0.000000 0.002079 0.000000
# 3 -0.004987 -0.004954 0.023894 0.000000 0.001709 0.000000
# 4 0.000000 0.000000 0.000000 0.063712 0.000000 0.012155
# 5 0.020117 0.002079 0.001709 0.000000 0.083268 0.000000
# 6 0.000000 0.000000 0.000000 0.012155 0.000000 0.030540
#
#
# Mechanical properties :
#
#
# Convention : Reuss Voigt Hill
#
# Bulk Modulus (GPa) = 31.91296 45.08187 38.49741
# Shear Modulus (GPa) = 18.98763 25.92175 22.45469
#
# Velocity S-wave (km/s) = 3.30874 3.86598 3.59816
# Velocity P-wave (km/s) = 5.74431 6.77648 6.28163
#
# Compressibility (1/GPa) = 0.03133523
#
# Stress axis : x y z
#
# Youngs Moduli (GPa) = 65.39294 70.60040 41.85195
#
# Poissons Ratio (x) = 0.07526 0.20872
# Poissons Ratio (y) = 0.06971 0.20734
# Poissons Ratio (z) = 0.32613 0.34977
#
# Static dielectric constant tensor:
#      x y z
#    x 3.453080 0.000000 -0.225380 
#    y 0.000000 3.378700 0.000000 
#    z -0.225380 0.000000 2.807720 
# 
# 
# High freq. dielectric constant tensor:
#      x y z
#    x 1.683250 0.000000 -0.024630 
#    y 0.000000 1.692950 0.000000 
#    z -0.024630 0.000000 1.607840 
# 
# From -- ./inp_files/52393.got.cif
#   From: 2010.06.25/outbox.cif.g09.slc.cpg/sg10_27_cif.got.tgz:52393.got - 2010.06.27 22:07:45.
