data_PCOD8057756
_publ_section_title
;
Structure prediction by ZEFSAII (Michael W. Deem and Ramdas Pophale) SiO2 
 PCOD8057756
Probable space group: P 2/M
;
_chemical_formula_sum "Si O2"
_cell_formula_units_Z 32
_cell_length_a 12.897181
_cell_length_b 9.319083
_cell_length_c 33.357333
_cell_angle_alpha 90.000000
_cell_angle_beta 25.251602
_cell_angle_gamma 90.000000
_cell_volume 1710.306975
_symmetry_space_group_name_H-M "P 2/M"
_symmetry_group_IT_number 10
_symmetry_cell_setting 'monoclinic'
loop_
_space_group_symop_operation_xyz
x,y,z
-x,y,-z
-x,-y,-z
x,-y,z
loop_
_atom_site_type_symbol
_atom_site_label
_atom_site_fract_x
_atom_site_fract_y
_atom_site_fract_z
Si Si1 0.615058 0.840949 0.226872
Si Si2 0.730511 0.169641 0.584356
Si Si3 0.187113 0.335200 0.578298
Si Si4 0.992386 0.663824 0.956794
Si Si5 0.042308 0.338493 0.720984
Si Si6 0.529524 0.830992 0.406518
Si Si7 0.447569 0.663160 0.142398
Si Si8 0.740896 0.159092 0.721193
O O1 0.479997 0.769612 0.312438
O O2 0.409474 0.855331 0.265980
O O3 0.836513 0.746472 0.133734
O O4 0.717417 0.000000 0.201375
O O5 0.644835 0.209227 0.569602
O O6 0.000000 0.233803 0.500000
O O7 0.741136 0.000000 0.587183
O O8 0.214764 0.500000 0.555333
O O9 0.136024 0.321070 0.642936
O O10 0.430034 0.250768 0.480684
O O11 0.968165 0.259331 0.631242
O O12 0.082387 0.500000 0.926990
O O13 0.724200 0.676375 0.030759
O O14 0.000000 0.725066 0.000000
O O15 0.083558 0.500000 0.722366
O O16 0.194713 0.229566 0.695904
O O17 0.752407 0.299796 0.822216
O O18 0.541205 0.000000 0.409809
O O19 0.393176 0.500000 0.176426
O O20 0.427221 0.771388 0.186256
O O21 0.828157 0.000000 0.704491
#
# Coordination Sequence:
#
# PCOD8057756 Si02
#       8
#     4   4   4   4   4   4   4   4
#     4  10  20  33  52  77 106 141 178 216 262 314
#     4   9  19  37  56  74 103 141 176 213 263 312
#     4  10  20  33  50  72 103 140 172 207 261 318
#     4  10  19  32  53  79 110 142 173 213 261 314
#     4   9  19  34  51  71 101 138 171 205 257 320
#     4  11  21  33  53  76  98 129 175 223 262 306
#     4   9  18  33  50  72 105 143 168 196 257 319
#     4  10  18  28  47  75 104 134 171 213 252 301
#
# _framework density 18.710090999999998
#
# number of rings (size 3 to 8) (size 9 to 14) (size 15 to 20)
#    0.000    2.250    1.250    3.000    0.000    7.250 
#    0.000    1.250    0.000    3.375    0.000    5.250 
#    0.000    0.000    0.000    0.000    0.000    0.000 
#
# Total GULP energy -396599.188965 kJ/mol
# GULP energy per Si atom -12393.724655 kJ/mol
# Density = 1.866751 g / cm^3
# Si number density = 18.710091 Si / 1000 Ang^3
#
#
#
# Elastic Constant Matrix: (Units=GPa)
#
#
# Indices 1 2 3 4 5 6 
#
# 1 63.4976 29.1607 32.5428 0.0000 -24.4999 0.0000
# 2 29.1607 86.0202 38.7094 0.0000 -10.1124 0.0000
# 3 32.5428 38.7094 109.5792 0.0000 -15.8788 0.0000
# 4 0.0000 0.0000 0.0000 27.4999 0.0000 -7.6177
# 5 -24.4999 -10.1124 -15.8788 0.0000 30.4051 0.0000
# 6 0.0000 0.0000 0.0000 -7.6177 0.0000 23.5631
#
#
#
# Elastic Compliance Matrix: (Units=1/GPa)
#
#
# Indices 1 2 3 4 5 6 
#
# 1 0.027047 -0.005474 -0.003467 0.000000 0.018163 0.000000
# 2 -0.005474 0.015069 -0.003906 0.000000 -0.001439 0.000000
# 3 -0.003467 -0.003906 0.011838 0.000000 0.002090 0.000000
# 4 0.000000 0.000000 0.000000 0.039941 0.000000 0.012912
# 5 0.018163 -0.001439 0.002090 0.000000 0.048138 0.000000
# 6 0.000000 0.000000 0.000000 0.012912 0.000000 0.046614
#
#
# Mechanical properties :
#
#
# Convention : Reuss Voigt Hill
#
# Bulk Modulus (GPa) = 35.38426 51.10253 43.24339
# Shear Modulus (GPa) = 22.34532 26.87256 24.60894
#
# Velocity S-wave (km/s) = 3.45960 3.79391 3.63061
# Velocity P-wave (km/s) = 5.90859 6.82377 6.38260
#
# Compressibility (1/GPa) = 0.02826115
#
# Stress axis : x y z
#
# Youngs Moduli (GPa) = 36.97251 66.35958 84.47280
#
# Poissons Ratio (x) = 0.36322 0.29286
# Poissons Ratio (y) = 0.20237 0.32997
# Poissons Ratio (z) = 0.12818 0.25922
#
# Static dielectric constant tensor:
#      x y z
#    x 3.338590 0.000000 -0.354580 
#    y 0.000000 3.460140 0.000000 
#    z -0.354580 0.000000 3.574300 
# 
# 
# High freq. dielectric constant tensor:
#      x y z
#    x 1.706220 0.000000 -0.030120 
#    y 0.000000 1.717400 0.000000 
#    z -0.030120 0.000000 1.717050 
# 
# From -- ./inp_files/94998.got.cif
#   From: 2010.06.25/outbox.cif.g09.slc.cpg/sg10_48_cif.got.tgz:94998.got - 2010.06.27 22:07:45.
