data_PCOD8057802
_publ_section_title
;
Structure prediction by ZEFSAII (Michael W. Deem and Ramdas Pophale) SiO2 
 PCOD8057802
Probable space group: P 2/M
;
_chemical_formula_sum "Si O2"
_cell_formula_units_Z 28
_cell_length_a 12.601101
_cell_length_b 26.943628
_cell_length_c 5.251857
_cell_angle_alpha 90.000000
_cell_angle_beta 79.387024
_cell_angle_gamma 90.000000
_cell_volume 1752.604789
_symmetry_space_group_name_H-M "P 2/M"
_symmetry_group_IT_number 10
_symmetry_cell_setting 'monoclinic'
loop_
_space_group_symop_operation_xyz
x,y,z
-x,y,-z
-x,-y,-z
x,-y,z
loop_
_atom_site_type_symbol
_atom_site_label
_atom_site_fract_x
_atom_site_fract_y
_atom_site_fract_z
Si Si1 0.371734 0.218379 0.556782
Si Si2 0.117329 0.055977 0.884134
Si Si3 0.371328 0.556099 0.556880
Si Si4 0.676355 0.055769 0.929402
Si Si5 0.627940 0.723703 0.943389
Si Si6 0.371155 0.387964 0.056961
Si Si7 0.693684 0.892836 0.416427
O O1 0.500000 0.210354 0.500000
O O2 0.331799 0.248030 0.326145
O O3 0.312204 0.166030 0.583868
O O4 0.331782 0.248076 0.822553
O O5 0.179779 0.090381 0.650230
O O6 0.104577 0.000000 0.779010
O O7 0.192571 0.054545 0.104376
O O8 0.000000 0.078692 0.000000
O O9 0.500000 0.556123 0.500000
O O10 0.326970 0.500000 0.576576
O O11 0.327212 0.583993 0.326257
O O12 0.327213 0.584025 0.826403
O O13 0.640064 0.085883 0.696630
O O14 0.629216 0.000000 0.936809
O O15 0.629501 0.083820 0.201719
O O16 0.674958 0.667976 0.922521
O O17 0.500000 0.720982 0.000000
O O18 0.500000 0.387630 0.000000
#
# Coordination Sequence:
#
# PCOD8057802 Si02
#       7
#     4   4   4   4   4   4   4
#     4  10  19  30  43  57  74  98 130 166 204 236
#     4   8  16  29  46  65  83 102 122 145 180 231
#     4   9  15  21  30  46  68  92 115 144 191 243
#     4   9  17  29  45  61  81 101 119 144 180 228
#     4   9  17  28  41  55  69  92 129 169 204 232
#     4   9  15  23  34  47  65  88 118 156 193 230
#     4  10  18  29  44  61  81 101 123 155 192 228
#
# _framework density 15.97622
#
# number of rings (size 3 to 8) (size 9 to 14) (size 15 to 20)
#    0.857    2.000    0.000    3.000    0.000    5.714 
#    0.000    2.143    0.000    4.714    0.000    0.000 
#    0.000    0.000    0.000    0.000    0.000    0.000 
#
# Total GULP energy -346971.516822 kJ/mol
# GULP energy per Si atom -12391.839887 kJ/mol
# Density = 1.593986 g / cm^3
# Si number density = 15.976220 Si / 1000 Ang^3
#
#
#
# Elastic Constant Matrix: (Units=GPa)
#
#
# Indices 1 2 3 4 5 6 
#
# 1 16.3103 13.3879 13.9221 0.0000 -0.3601 0.0000
# 2 13.3879 164.8759 79.8288 0.0000 17.2882 0.0000
# 3 13.9221 79.8288 143.4259 0.0000 34.3355 0.0000
# 4 0.0000 0.0000 0.0000 32.0822 0.0000 11.2812
# 5 -0.3601 17.2882 34.3355 0.0000 13.6632 0.0000
# 6 0.0000 0.0000 0.0000 11.2812 0.0000 -4.7183
#
#
#
# Elastic Compliance Matrix: (Units=1/GPa)
#
#
# Indices 1 2 3 4 5 6 
#
# 1 0.081356 -0.002989 -0.019207 0.000000 0.054193 0.000000
# 2 -0.002989 0.008455 -0.004608 0.000000 0.000803 0.000000
# 3 -0.019207 -0.004608 0.025418 0.000000 -0.058551 0.000000
# 4 0.000000 0.000000 0.000000 0.016933 0.000000 0.040487
# 5 0.054193 0.000803 -0.058551 0.000000 0.220740 0.000000
# 6 0.000000 0.000000 0.000000 0.040487 0.000000 -0.115140
#
#
# Mechanical properties :
#
#
# Convention : Reuss Voigt Hill
#
# Bulk Modulus (GPa) = 16.22822 59.87663 38.05242
# Shear Modulus (GPa) = 16.03025 22.70365 19.36695
#
# Velocity S-wave (km/s) = 3.17106 3.77382 3.48550
# Velocity P-wave (km/s) = 4.85667 7.51990 6.32994
#
# Compressibility (1/GPa) = 0.06162107
#
# Stress axis : x y z
#
# Youngs Moduli (GPa) = 12.29167 118.27765 39.34196
#
# Poissons Ratio (x) = 0.35353 0.75564
# Poissons Ratio (y) = 0.03674 0.18128
# Poissons Ratio (z) = 0.23609 0.54500
#
# Static dielectric constant tensor:
#      x y z
#    x 2.390550 0.000000 0.204110 
#    y 0.000000 3.107870 0.000000 
#    z 0.204110 0.000000 3.148530 
# 
# 
# High freq. dielectric constant tensor:
#      x y z
#    x 1.529630 0.000000 0.025600 
#    y 0.000000 1.620600 0.000000 
#    z 0.025600 0.000000 1.623910 
# 
# From -- ./inp_files/10149.got.cif
#   From: 2010.06.25/outbox.cif.g09.slc.cpg/sg10_6_cif.got.tgz:10149.got - 2010.06.27 22:07:45.
