data_PCOD8057948
_publ_section_title
;
Structure prediction by ZEFSAII (Michael W. Deem and Ramdas Pophale) SiO2 
 PCOD8057948
Probable space group: P 2/M
;
_chemical_formula_sum "Si O2"
_cell_formula_units_Z 30
_cell_length_a 16.824842
_cell_length_b 21.744787
_cell_length_c 16.736915
_cell_angle_alpha 90.000000
_cell_angle_beta 162.287966
_cell_angle_gamma 90.000000
_cell_volume 1862.893765
_symmetry_space_group_name_H-M "P 2/M"
_symmetry_group_IT_number 10
_symmetry_cell_setting 'monoclinic'
loop_
_space_group_symop_operation_xyz
x,y,z
-x,y,-z
-x,-y,-z
x,-y,z
loop_
_atom_site_type_symbol
_atom_site_label
_atom_site_fract_x
_atom_site_fract_y
_atom_site_fract_z
Si Si1 0.418202 0.891230 0.512375
Si Si2 0.041353 0.568486 0.946032
Si Si3 0.225455 0.866096 0.780919
Si Si4 0.390853 0.769337 0.582141
Si Si5 0.141743 0.811063 0.863791
Si Si6 0.226279 0.000000 0.780013
Si Si7 0.886557 0.931993 0.065636
Si Si8 0.541800 0.356692 0.446019
O O1 0.500000 0.891712 0.500000
O O2 0.402789 0.821113 0.526046
O O3 0.138133 0.923696 0.250182
O O4 0.626658 0.928164 0.764120
O O5 0.070498 0.500000 0.937101
O O6 0.793686 0.601697 0.669964
O O7 0.298305 0.607958 0.173962
O O8 0.000000 0.562727 0.000000
O O9 0.193132 0.814628 0.818224
O O10 0.000000 0.857400 0.500000
O O11 0.207443 0.934091 0.807253
O O12 0.500000 0.856502 0.000000
O O13 0.421390 0.706181 0.565133
O O14 0.117695 0.771814 0.367720
O O15 0.619591 0.776899 0.865436
O O16 0.108072 0.880956 0.860900
O O17 0.000000 0.000000 0.500000
O O18 0.500000 0.000000 0.000000
O O19 0.893089 0.000000 0.111533
O O20 0.500000 0.343447 0.500000
#
# Coordination Sequence:
#
# PCOD8057948 Si02
#       8
#     4   4   4   4   4   2   4   4
#     4  10  20  33  47  62  83 110 148 199 231 264
#     4   9  17  28  43  68  97 124 160 202 237 262
#     4  10  19  33  51  71  89 112 145 178 228 286
#     4  10  20  34  46  67  90 120 160 187 231 268
#     4  10  21  34  49  65  92 117 143 192 229 280
#     4   8  16  28  44  68  88 102 131 174 215 272
#     4  10  21  33  46  64  83 111 143 180 242 290
#     4  10  18  29  48  67  91 130 168 202 227 260
#
# _framework density 16.103977
#
# number of rings (size 3 to 8) (size 9 to 14) (size 15 to 20)
#    0.000    2.267    0.000    3.200    0.933    3.200 
#    0.000    4.000    0.000    0.000    0.000    0.000 
#    0.000    0.000    0.000    0.000    0.000  168.000 
#
# Total GULP energy -371891.568480 kJ/mol
# GULP energy per Si atom -12396.385616 kJ/mol
# Density = 1.606732 g / cm^3
# Si number density = 16.103977 Si / 1000 Ang^3
#
#
#
# Elastic Constant Matrix: (Units=GPa)
#
#
# Indices 1 2 3 4 5 6 
#
# 1 63.0011 35.2794 29.1489 0.0000 4.0291 0.0000
# 2 35.2794 114.0673 46.6246 0.0000 6.6216 0.0000
# 3 29.1489 46.6246 107.7123 0.0000 24.2793 0.0000
# 4 0.0000 0.0000 0.0000 12.2864 0.0000 1.3623
# 5 4.0291 6.6216 24.2793 0.0000 14.0494 0.0000
# 6 0.0000 0.0000 0.0000 1.3623 0.0000 23.0054
#
#
#
# Elastic Compliance Matrix: (Units=1/GPa)
#
#
# Indices 1 2 3 4 5 6 
#
# 1 0.020269 -0.004733 -0.004307 0.000000 0.003860 0.000000
# 2 -0.004733 0.011960 -0.004802 0.000000 0.004020 0.000000
# 3 -0.004307 -0.004802 0.019231 0.000000 -0.029735 0.000000
# 4 0.000000 0.000000 0.000000 0.081929 0.000000 -0.004851
# 5 0.003860 0.004020 -0.029735 0.000000 0.119562 0.000000
# 6 0.000000 0.000000 0.000000 -0.004851 0.000000 0.043755
#
#
# Mechanical properties :
#
#
# Convention : Reuss Voigt Hill
#
# Bulk Modulus (GPa) = 42.05887 56.32071 49.18979
# Shear Modulus (GPa) = 15.04604 21.45010 18.24807
#
# Velocity S-wave (km/s) = 3.05996 3.65358 3.36987
# Velocity P-wave (km/s) = 6.21757 7.26962 6.76408
#
# Compressibility (1/GPa) = 0.02377620
#
# Stress axis : x y z
#
# Youngs Moduli (GPa) = 49.33753 83.61137 52.00018
#
# Poissons Ratio (x) = 0.39569 0.22394
# Poissons Ratio (y) = 0.23349 0.24973
# Poissons Ratio (z) = 0.21248 0.40154
#
# Static dielectric constant tensor:
#      x y z
#    x 2.725270 0.000000 0.118640 
#    y 0.000000 3.043660 0.000000 
#    z 0.118640 0.000000 3.190220 
# 
# 
# High freq. dielectric constant tensor:
#      x y z
#    x 1.583860 0.000000 0.014380 
#    y 0.000000 1.603210 0.000000 
#    z 0.014380 0.000000 1.643000 
# 
# From -- ./inp_files/59640.got.cif
#   From: 2010.06.25/outbox.cif.g09.slc.cpg/sg10_30_cif.got.tgz:59640.got - 2010.06.27 22:07:45.
