data_PCOD8057783
_publ_section_title
;
Structure prediction by ZEFSAII (Michael W. Deem and Ramdas Pophale) SiO2 
 PCOD8057783
Probable space group: P 2/M
;
_chemical_formula_sum "Si O2"
_cell_formula_units_Z 26
_cell_length_a 5.319122
_cell_length_b 15.448794
_cell_length_c 17.177946
_cell_angle_alpha 90.000000
_cell_angle_beta 117.658422
_cell_angle_gamma 90.000000
_cell_volume 1250.280542
_symmetry_space_group_name_H-M "P 2/M"
_symmetry_group_IT_number 10
_symmetry_cell_setting 'monoclinic'
loop_
_space_group_symop_operation_xyz
x,y,z
-x,y,-z
-x,-y,-z
x,-y,z
loop_
_atom_site_type_symbol
_atom_site_label
_atom_site_fract_x
_atom_site_fract_y
_atom_site_fract_z
Si Si1 0.500607 0.245386 0.833594
Si Si2 0.649358 0.641522 0.598812
Si Si3 0.693245 0.403083 0.296195
Si Si4 0.163755 0.000000 0.942469
Si Si5 0.272612 0.169222 0.348690
Si Si6 0.718392 0.097706 0.312524
Si Si7 0.037253 0.815909 0.858038
O O1 0.427032 0.336746 0.784655
O O2 0.403678 0.162840 0.768850
O O3 0.341075 0.233518 0.893879
O O4 0.840916 0.233565 0.893860
O O5 0.500000 0.604545 0.500000
O O6 0.471480 0.608636 0.646756
O O7 0.640130 0.745084 0.593240
O O8 0.971631 0.609134 0.645641
O O9 0.635848 0.500000 0.257040
O O10 0.070737 0.083269 0.880423
O O11 0.500000 0.000000 0.000000
O O12 0.000000 0.000000 0.000000
O O13 0.556204 0.113936 0.370971
O O14 0.055795 0.113964 0.370982
O O15 0.119816 0.197286 0.246817
O O16 0.663824 0.000000 0.276078
#
# Coordination Sequence:
#
# PCOD8057783 Si02
#       7
#     4   4   4   2   4   4   4
#     4  10  19  35  55  87 106 149 216 237 286 341
#     4  12  23  40  58  82 120 158 200 266 323 381
#     4  12  23  40  58  85 121 152 203 273 314 374
#     4  12  26  40  56 102 143 158 187 230 292 360
#     4  10  19  35  53  82 106 149 213 230 285 341
#     4  10  18  28  54  78 104 127 189 256 269 332
#     4  10  20  35  61  75 119 164 193 226 276 352
#
# _framework density 20.795332999999999
#
# number of rings (size 3 to 8) (size 9 to 14) (size 15 to 20)
#    0.000    1.231    6.154    2.308    8.615    1.846 
#    0.000    0.000    0.000    2.769    0.000    0.000 
#    0.000   12.308    0.000    0.000    0.000    0.000 
#
# Total GULP energy -322244.932912 kJ/mol
# GULP energy per Si atom -12394.035881 kJ/mol
# Density = 2.074800 g / cm^3
# Si number density = 20.795333 Si / 1000 Ang^3
#
#
#
# Elastic Constant Matrix: (Units=GPa)
#
#
# Indices 1 2 3 4 5 6 
#
# 1 233.5968 42.6630 8.9759 0.0000 1.1165 0.0000
# 2 42.6630 152.5517 12.3705 0.0000 0.3804 0.0000
# 3 8.9759 12.3705 25.0387 0.0000 0.1023 0.0000
# 4 0.0000 0.0000 0.0000 7.9523 0.0000 1.9868
# 5 1.1165 0.3804 0.1023 0.0000 15.1508 0.0000
# 6 0.0000 0.0000 0.0000 1.9868 0.0000 74.2539
#
#
#
# Elastic Compliance Matrix: (Units=1/GPa)
#
#
# Indices 1 2 3 4 5 6 
#
# 1 0.004539 -0.001184 -0.001041 0.000000 -0.000298 0.000000
# 2 -0.001184 0.007138 -0.003102 0.000000 -0.000071 0.000000
# 3 -0.001041 -0.003102 0.041844 0.000000 -0.000128 0.000000
# 4 0.000000 0.000000 0.000000 0.126596 0.000000 -0.003387
# 5 -0.000298 -0.000071 -0.000128 0.000000 0.066028 0.000000
# 6 0.000000 0.000000 0.000000 -0.003387 0.000000 0.013558
#
#
# Mechanical properties :
#
#
# Convention : Reuss Voigt Hill
#
# Bulk Modulus (GPa) = 23.32774 59.91178 41.61976
# Shear Modulus (GPa) = 17.56578 42.61660 30.09119
#
# Velocity S-wave (km/s) = 2.90952 4.53187 3.80809
# Velocity P-wave (km/s) = 4.74650 7.50044 6.27637
#
# Compressibility (1/GPa) = 0.04286742
#
# Stress axis : x y z
#
# Youngs Moduli (GPa) = 220.33432 140.09497 23.89817
#
# Poissons Ratio (x) = 0.16589 0.02487
# Poissons Ratio (y) = 0.26090 0.07413
# Poissons Ratio (z) = 0.22931 0.43455
#
# Static dielectric constant tensor:
#      x y z
#    x 7.413610 0.000000 0.003200 
#    y 0.000000 3.788110 0.000000 
#    z 0.003200 0.000000 3.105240 
# 
# 
# High freq. dielectric constant tensor:
#      x y z
#    x 1.863800 0.000000 0.000090 
#    y 0.000000 1.805110 0.000000 
#    z 0.000090 0.000000 1.746840 
# 
# From -- ./inp_files/73463.got.cif
#   From: 2010.06.25/outbox.cif.g09.slc.cpg/sg10_37_cif.got.tgz:73463.got - 2010.06.27 22:07:45.
