data_PCOD8057446
_publ_section_title
;
Structure prediction by ZEFSAII (Michael W. Deem and Ramdas Pophale) SiO2 
 PCOD8057446
Probable space group: P 2/M
;
_chemical_formula_sum "Si O2"
_cell_formula_units_Z 26
_cell_length_a 4.966812
_cell_length_b 17.178074
_cell_length_c 15.638277
_cell_angle_alpha 90.000000
_cell_angle_beta 96.571178
_cell_angle_gamma 90.000000
_cell_volume 1325.496433
_symmetry_space_group_name_H-M "P 2/M"
_symmetry_group_IT_number 10
_symmetry_cell_setting 'monoclinic'
loop_
_space_group_symop_operation_xyz
x,y,z
-x,y,-z
-x,-y,-z
x,-y,z
loop_
_atom_site_type_symbol
_atom_site_label
_atom_site_fract_x
_atom_site_fract_y
_atom_site_fract_z
Si Si1 0.920977 0.761419 0.903336
Si Si2 0.616697 0.724250 0.201030
Si Si3 0.042226 0.587982 0.592563
Si Si4 0.595146 0.880777 0.286551
Si Si5 0.406633 0.411938 0.300781
Si Si6 0.950150 0.083910 0.821093
Si Si7 0.723255 0.000000 0.436810
O O1 0.096503 0.715731 0.837591
O O2 0.602038 0.751471 0.876885
O O3 0.976452 0.853578 0.897477
O O4 0.000000 0.731442 0.000000
O O5 0.642370 0.786331 0.281187
O O6 0.510400 0.640651 0.227212
O O7 0.927726 0.500000 0.581146
O O8 0.359533 0.589554 0.620105
O O9 0.000000 0.631278 0.500000
O O10 0.863886 0.624453 0.664003
O O11 0.278430 0.896241 0.258136
O O12 0.688116 0.920663 0.379087
O O13 0.765655 0.920299 0.217658
O O14 0.358166 0.500000 0.264183
O O15 0.892987 0.000000 0.861036
O O16 0.500000 0.000000 0.500000
O O17 0.000000 0.000000 0.500000
#
# Coordination Sequence:
#
# PCOD8057446 Si02
#       7
#     4   4   4   4   4   4   2
#     4  10  21  35  55  81 107 137 172 218 274 324
#     4  10  21  37  57  76 106 144 176 217 269 323
#     4   9  17  30  50  78 108 135 168 215 270 317
#     4  10  20  35  52  74 103 140 181 209 256 314
#     4  10  19  33  55  80 105 141 186 221 261 325
#     4  10  17  32  56  77 102 136 168 211 262 319
#     4  12  22  34  54  76 103 140 183 222 250 286
#
# _framework density 19.615292
#
# number of rings (size 3 to 8) (size 9 to 14) (size 15 to 20)
#    0.000    2.000    1.538    2.769    0.000    2.154 
#    0.000    2.308    0.000    8.308    0.000    0.000 
#    0.000    0.000    0.000    0.000    0.000    0.000 
#
# Total GULP energy -322212.236749 kJ/mol
# GULP energy per Si atom -12392.778337 kJ/mol
# Density = 1.957065 g / cm^3
# Si number density = 19.615292 Si / 1000 Ang^3
#
#
#
# Elastic Constant Matrix: (Units=GPa)
#
#
# Indices 1 2 3 4 5 6 
#
# 1 75.2364 -2.2568 5.1615 0.0000 -3.8253 0.0000
# 2 -2.2568 71.0546 23.1152 0.0000 -11.7340 0.0000
# 3 5.1615 23.1152 79.7505 0.0000 0.4447 0.0000
# 4 0.0000 0.0000 0.0000 15.6991 0.0000 -3.8540
# 5 -3.8253 -11.7340 0.4447 0.0000 26.4196 0.0000
# 6 0.0000 0.0000 0.0000 -3.8540 0.0000 16.9247
#
#
#
# Elastic Compliance Matrix: (Units=1/GPa)
#
#
# Indices 1 2 3 4 5 6 
#
# 1 0.013545 0.001258 -0.001255 0.000000 0.002541 0.000000
# 2 0.001258 0.017058 -0.005069 0.000000 0.007844 0.000000
# 3 -0.001255 -0.005069 0.014105 0.000000 -0.002671 0.000000
# 4 0.000000 0.000000 0.000000 0.067470 0.000000 0.015364
# 5 0.002541 0.007844 -0.002671 0.000000 0.041747 0.000000
# 6 0.000000 0.000000 0.000000 0.015364 0.000000 0.062584
#
#
# Mechanical properties :
#
#
# Convention : Reuss Voigt Hill
#
# Bulk Modulus (GPa) = 28.92344 30.89792 29.91068
# Shear Modulus (GPa) = 20.99377 25.14346 23.06862
#
# Velocity S-wave (km/s) = 3.27506 3.58415 3.43308
# Velocity P-wave (km/s) = 5.39247 5.73710 5.56745
#
# Compressibility (1/GPa) = 0.03457404
#
# Stress axis : x y z
#
# Youngs Moduli (GPa) = 73.83066 58.62318 70.89900
#
# Poissons Ratio (x) = -0.07376 0.08901
# Poissons Ratio (y) = -0.09290 0.35941
# Poissons Ratio (z) = 0.09269 0.29718
#
# Static dielectric constant tensor:
#      x y z
#    x 3.769400 0.000000 -0.036150 
#    y 0.000000 3.667020 0.000000 
#    z -0.036150 0.000000 3.210500 
# 
# 
# High freq. dielectric constant tensor:
#      x y z
#    x 1.790110 0.000000 -0.000350 
#    y 0.000000 1.742430 0.000000 
#    z -0.000350 0.000000 1.729760 
# 
# From -- ./inp_files/59254.got.cif
#   From: 2010.06.25/outbox.cif.g09.slc.cpg/sg10_30_cif.got.tgz:59254.got - 2010.06.27 22:07:45.
