data_PCOD8057850
_publ_section_title
;
Structure prediction by ZEFSAII (Michael W. Deem and Ramdas Pophale) SiO2 
 PCOD8057850
Probable space group: P 2/M
;
_chemical_formula_sum "Si O2"
_cell_formula_units_Z 32
_cell_length_a 20.768751
_cell_length_b 21.251658
_cell_length_c 4.966054
_cell_angle_alpha 90.000000
_cell_angle_beta 87.650749
_cell_angle_gamma 90.000000
_cell_volume 2190.027005
_symmetry_space_group_name_H-M "P 2/M"
_symmetry_group_IT_number 10
_symmetry_cell_setting 'monoclinic'
loop_
_space_group_symop_operation_xyz
x,y,z
-x,y,-z
-x,-y,-z
x,-y,z
loop_
_atom_site_type_symbol
_atom_site_label
_atom_site_fract_x
_atom_site_fract_y
_atom_site_fract_z
Si Si1 0.836962 0.929455 0.013427
Si Si2 0.076923 0.692843 0.944006
Si Si3 0.875857 0.761873 0.572470
Si Si4 0.955682 0.568059 0.259389
Si Si5 0.570620 0.927333 0.013895
Si Si6 0.958625 0.877817 0.754853
Si Si7 0.783801 0.865311 0.522882
Si Si8 0.653079 0.073540 0.512989
O O1 0.908233 0.929473 0.871777
O O2 0.787321 0.901066 0.806752
O O3 0.815368 0.000000 0.081891
O O4 0.835023 0.891166 0.293874
O O5 0.101204 0.743497 0.726799
O O6 0.094032 0.623565 0.816812
O O7 0.116826 0.704488 0.214474
O O8 0.000000 0.697467 0.000000
O O9 0.922457 0.816127 0.665411
O O10 0.803058 0.791438 0.566013
O O11 0.922053 0.500000 0.335927
O O12 0.000000 0.591575 0.500000
O O13 0.000000 0.555296 0.000000
O O14 0.622649 0.900406 0.794543
O O15 0.562750 0.000000 0.936742
O O16 0.500000 0.894929 0.000000
O O17 0.597004 0.916953 0.306366
O O18 0.000000 0.906588 0.500000
O O19 0.000000 0.855648 0.000000
O O20 0.712106 0.879676 0.427780
O O21 0.675735 0.000000 0.518844
#
# Coordination Sequence:
#
# PCOD8057850 Si02
#       8
#     4   4   4   4   4   4   4   4
#     4  11  22  34  46  57  72  93 122 165 209 253
#     4  11  19  29  46  62  77 103 132 160 203 250
#     4  11  21  31  43  58  77  99 129 166 197 231
#     4   9  17  28  42  63  87 105 124 154 194 243
#     4   9  17  28  43  65  86 100 119 150 189 235
#     4  11  21  32  44  56  71  91 119 161 210 254
#     4  11  22  34  45  60  79 101 131 165 199 235
#     4  10  18  29  46  61  78 105 129 153 194 244
#
# _framework density 14.611692
#
# number of rings (size 3 to 8) (size 9 to 14) (size 15 to 20)
#    0.000    1.625    0.000    9.000    0.000    3.000 
#    0.000    0.000    0.000    0.000    0.000    0.000 
#    0.000    0.000    0.000    0.000    0.000    0.000 
#
# Total GULP energy -396580.202164 kJ/mol
# GULP energy per Si atom -12393.131318 kJ/mol
# Density = 1.457843 g / cm^3
# Si number density = 14.611692 Si / 1000 Ang^3
#
#
#
# Elastic Constant Matrix: (Units=GPa)
#
#
# Indices 1 2 3 4 5 6 
#
# 1 66.8191 21.9519 11.1643 0.0000 -0.4102 0.0000
# 2 21.9519 60.0134 11.7600 0.0000 2.3792 0.0000
# 3 11.1643 11.7600 74.4028 0.0000 -1.9319 0.0000
# 4 0.0000 0.0000 0.0000 17.8383 0.0000 3.6742
# 5 -0.4102 2.3792 -1.9319 0.0000 18.4115 0.0000
# 6 0.0000 0.0000 0.0000 3.6742 0.0000 6.5692
#
#
#
# Elastic Compliance Matrix: (Units=1/GPa)
#
#
# Indices 1 2 3 4 5 6 
#
# 1 0.017219 -0.006023 -0.001606 0.000000 0.000993 0.000000
# 2 -0.006023 0.019419 -0.002240 0.000000 -0.002879 0.000000
# 3 -0.001606 -0.002240 0.014080 0.000000 0.001731 0.000000
# 4 0.000000 0.000000 0.000000 0.063358 0.000000 -0.035437
# 5 0.000993 -0.002879 0.001731 0.000000 0.054890 0.000000
# 6 0.000000 0.000000 0.000000 -0.035437 0.000000 0.172045
#
#
# Mechanical properties :
#
#
# Convention : Reuss Voigt Hill
#
# Bulk Modulus (GPa) = 32.27908 32.33195 32.30552
# Shear Modulus (GPa) = 13.47430 18.98776 16.23103
#
# Velocity S-wave (km/s) = 3.04000 3.60876 3.33652
# Velocity P-wave (km/s) = 5.87038 6.28806 6.08280
#
# Compressibility (1/GPa) = 0.03097982
#
# Stress axis : x y z
#
# Youngs Moduli (GPa) = 58.07553 51.49537 71.02074
#
# Poissons Ratio (x) = 0.31016 0.11405
# Poissons Ratio (y) = 0.34979 0.15911
# Poissons Ratio (z) = 0.09327 0.11537
#
# Static dielectric constant tensor:
#      x y z
#    x 2.709710 0.000000 0.027960 
#    y 0.000000 2.902440 0.000000 
#    z 0.027960 0.000000 3.107410 
# 
# 
# High freq. dielectric constant tensor:
#      x y z
#    x 1.517440 0.000000 0.003550 
#    y 0.000000 1.517180 0.000000 
#    z 0.003550 0.000000 1.591150 
# 
# From -- ./inp_files/11673.got.cif
#   From: 2010.06.25/outbox.cif.g09.slc.cpg/sg10_6_cif.got.tgz:11673.got - 2010.06.27 22:07:45.
