data_PCOD8057173
_publ_section_title
;
Structure prediction by ZEFSAII (Michael W. Deem and Ramdas Pophale) SiO2 
 PCOD8057173
Probable space group: P 2/M
;
_chemical_formula_sum "Si O2"
_cell_formula_units_Z 32
_cell_length_a 29.066358
_cell_length_b 9.355860
_cell_length_c 14.702753
_cell_angle_alpha 90.000000
_cell_angle_beta 28.574425
_cell_angle_gamma 90.000000
_cell_volume 1912.376025
_symmetry_space_group_name_H-M "P 2/M"
_symmetry_group_IT_number 10
_symmetry_cell_setting 'monoclinic'
loop_
_space_group_symop_operation_xyz
x,y,z
-x,y,-z
-x,-y,-z
x,-y,z
loop_
_atom_site_type_symbol
_atom_site_label
_atom_site_fract_x
_atom_site_fract_y
_atom_site_fract_z
Si Si1 0.411015 0.331057 0.767289
Si Si2 0.809578 0.332579 0.514703
Si Si3 0.624407 0.670692 0.370816
Si Si4 0.319170 0.660733 0.422905
Si Si5 0.499947 0.839363 0.107576
Si Si6 0.994257 0.671246 0.905865
Si Si7 0.207327 0.339737 0.798742
Si Si8 0.333400 0.332429 0.090535
O O1 0.415609 0.500000 0.753446
O O2 0.366267 0.275624 0.749917
O O3 0.521013 0.274969 0.589626
O O4 0.342280 0.281806 0.969972
O O5 0.816762 0.500000 0.483515
O O6 0.730614 0.272833 0.580640
O O7 0.772647 0.300248 0.682147
O O8 0.915067 0.268602 0.310202
O O9 0.627030 0.500000 0.374431
O O10 0.713582 0.738225 0.273460
O O11 0.358562 0.500000 0.336427
O O12 0.405250 0.760098 0.307759
O O13 0.240017 0.658330 0.638158
O O14 0.501728 0.000000 0.143788
O O15 0.500000 0.839472 0.000000
O O16 0.592015 0.754091 0.979692
O O17 0.989168 0.500000 0.915582
O O18 0.898762 0.732675 0.020180
O O19 0.000000 0.727316 0.000000
O O20 0.196479 0.500000 0.855432
O O21 0.357606 0.500000 0.056893
#
# Coordination Sequence:
#
# PCOD8057173 Si02
#       8
#     4   4   4   4   4   4   4   4
#     4   8  14  24  39  58  82 106 137 178 213 248
#     4   9  16  24  37  58  83 108 139 177 211 241
#     4   8  13  22  35  57  84 109 136 173 217 253
#     4  10  17  27  43  63  83 110 146 176 203 246
#     4  11  22  31  39  58  89 119 140 167 210 257
#     4   9  14  22  34  55  87 115 138 172 217 254
#     4   9  15  22  39  63  87 111 140 178 216 253
#     4  10  18  29  45  62  81 113 148 176 207 248
#
# _framework density 16.73311
#
# number of rings (size 3 to 8) (size 9 to 14) (size 15 to 20)
#    0.000    2.750    2.500    1.875    0.000    2.500 
#    0.000    0.000    0.000    0.750    0.000   14.875 
#    0.000    0.000    0.000    1.125    0.000    1.250 
#
# Total GULP energy -396435.220838 kJ/mol
# GULP energy per Si atom -12388.600651 kJ/mol
# Density = 1.669502 g / cm^3
# Si number density = 16.733110 Si / 1000 Ang^3
#
#
#
# Elastic Constant Matrix: (Units=GPa)
#
#
# Indices 1 2 3 4 5 6 
#
# 1 101.0295 4.4916 62.1472 0.0000 -0.2893 0.0000
# 2 4.4916 22.3515 16.8491 0.0000 -0.5778 0.0000
# 3 62.1472 16.8491 134.8394 0.0000 0.2048 0.0000
# 4 0.0000 0.0000 0.0000 0.5319 0.0000 1.5559
# 5 -0.2893 -0.5778 0.2048 0.0000 28.1973 0.0000
# 6 0.0000 0.0000 0.0000 1.5559 0.0000 1.2122
#
#
#
# Elastic Compliance Matrix: (Units=1/GPa)
#
#
# Indices 1 2 3 4 5 6 
#
# 1 0.013918 0.002258 -0.006697 0.000000 0.000238 0.000000
# 2 0.002258 0.049790 -0.007264 0.000000 0.001096 0.000000
# 3 -0.006697 -0.007264 0.011411 0.000000 -0.000300 0.000000
# 4 0.000000 0.000000 0.000000 -0.682564 0.000000 0.876067
# 5 0.000238 0.001096 -0.000300 0.000000 0.035491 0.000000
# 6 0.000000 0.000000 0.000000 0.876067 0.000000 -0.299512
#
#
# Mechanical properties :
#
#
# Convention : Reuss Voigt Hill
#
# Bulk Modulus (GPa) = 19.33764 47.24401 33.29082
# Shear Modulus (GPa) = -6.01815 17.63713 5.80949
#
# Velocity S-wave (km/s) = -1.89851 3.25010 1.86531
# Velocity P-wave (km/s) = 2.60303 6.50994 4.95758
#
# Compressibility (1/GPa) = 0.05171263
#
# Stress axis : x y z
#
# Youngs Moduli (GPa) = 71.84830 20.08432 87.63354
#
# Poissons Ratio (x) = -0.04535 0.58691
# Poissons Ratio (y) = -0.16222 0.63656
# Poissons Ratio (z) = 0.48119 0.14589
#
# Static dielectric constant tensor:
#      x y z
#    x 3.313300 0.000000 0.016850 
#    y 0.000000 2.603310 0.000000 
#    z 0.016850 0.000000 3.412730 
# 
# 
# High freq. dielectric constant tensor:
#      x y z
#    x 1.632490 0.000000 0.002750 
#    y 0.000000 1.570840 0.000000 
#    z 0.002750 0.000000 1.648990 
# 
# From -- ./inp_files/72555.got.cif
#   From: 2010.06.25/outbox.cif.g09.slc.cpg/sg10_37_cif.got.tgz:72555.got - 2010.06.27 22:07:45.
