data_PCOD8057184
_publ_section_title
;
Structure prediction by ZEFSAII (Michael W. Deem and Ramdas Pophale) SiO2 
 PCOD8057184
Probable space group: P 2/M
;
_chemical_formula_sum "Si O2"
_cell_formula_units_Z 28
_cell_length_a 11.954311
_cell_length_b 13.074752
_cell_length_c 11.423917
_cell_angle_alpha 90.000000
_cell_angle_beta 112.836590
_cell_angle_gamma 90.000000
_cell_volume 1645.594453
_symmetry_space_group_name_H-M "P 2/M"
_symmetry_group_IT_number 10
_symmetry_cell_setting 'monoclinic'
loop_
_space_group_symop_operation_xyz
x,y,z
-x,y,-z
-x,-y,-z
x,-y,z
loop_
_atom_site_type_symbol
_atom_site_label
_atom_site_fract_x
_atom_site_fract_y
_atom_site_fract_z
Si Si1 0.555135 0.881027 0.148672
Si Si2 0.322505 0.119799 0.198989
Si Si3 0.760915 0.776269 0.357952
Si Si4 0.891213 0.115926 0.045935
Si Si5 0.757746 0.114105 0.587733
Si Si6 0.115119 0.389171 0.469204
Si Si7 0.994405 0.202372 0.311446
O O1 0.457653 0.857455 0.210147
O O2 0.667679 0.803092 0.215577
O O3 0.597635 0.000000 0.169928
O O4 0.500000 0.855493 0.000000
O O5 0.298451 0.168010 0.318202
O O6 0.294241 0.000000 0.196239
O O7 0.227258 0.162868 0.065366
O O8 0.709651 0.834638 0.450242
O O9 0.775814 0.657629 0.404481
O O10 0.898354 0.810739 0.378846
O O11 0.919058 0.195421 0.161090
O O12 0.867510 0.000000 0.084442
O O13 0.000000 0.113470 0.000000
O O14 0.904953 0.113197 0.649144
O O15 0.708157 0.000000 0.562845
O O16 0.158115 0.500000 0.434715
O O17 0.000000 0.412191 0.500000
O O18 0.073537 0.307956 0.352323
#
# Coordination Sequence:
#
# PCOD8057184 Si02
#       7
#     4   4   4   4   4   4   4
#     4  10  20  33  46  64  97 133 163 193 223 268
#     4   9  18  30  43  62  92 135 170 189 219 265
#     4  10  20  30  46  71  92 122 160 192 238 286
#     4  10  17  27  44  67  98 131 161 190 223 267
#     4  10  18  28  42  66  97 123 156 197 231 272
#     4   8  16  32  51  71  94 117 149 199 251 294
#     4  10  18  28  46  72  95 119 156 195 237 286
#
# _framework density 17.015129000000002
#
# number of rings (size 3 to 8) (size 9 to 14) (size 15 to 20)
#    0.000    2.429    1.429    3.000    0.000    4.571 
#    0.000    2.143    0.000    0.857    0.000    9.000 
#    0.000    0.000    0.000    0.000    0.000    0.000 
#
# Total GULP energy -346867.388659 kJ/mol
# GULP energy per Si atom -12388.121024 kJ/mol
# Density = 1.697640 g / cm^3
# Si number density = 17.015129 Si / 1000 Ang^3
#
#
#
# Elastic Constant Matrix: (Units=GPa)
#
#
# Indices 1 2 3 4 5 6 
#
# 1 65.9456 18.9907 23.0542 0.0000 1.3128 0.0000
# 2 18.9907 79.1732 42.7988 0.0000 6.2436 0.0000
# 3 23.0542 42.7988 96.4696 0.0000 4.1134 0.0000
# 4 0.0000 0.0000 0.0000 -12.8073 0.0000 -19.5553
# 5 1.3128 6.2436 4.1134 0.0000 32.0666 0.0000
# 6 0.0000 0.0000 0.0000 -19.5553 0.0000 -10.9772
#
#
#
# Elastic Compliance Matrix: (Units=1/GPa)
#
#
# Indices 1 2 3 4 5 6 
#
# 1 0.016904 -0.002473 -0.002950 0.000000 0.000168 0.000000
# 2 -0.002473 0.017148 -0.006916 0.000000 -0.002350 0.000000
# 3 -0.002950 -0.006916 0.014154 0.000000 -0.000348 0.000000
# 4 0.000000 0.000000 0.000000 0.045394 0.000000 -0.080866
# 5 0.000168 -0.002350 -0.000348 0.000000 0.031681 0.000000
# 6 0.000000 0.000000 0.000000 -0.080866 0.000000 0.052961
#
#
# Mechanical properties :
#
#
# Convention : Reuss Voigt Hill
#
# Bulk Modulus (GPa) = 42.50353 45.69731 44.10042
# Shear Modulus (GPa) = 23.72332 12.10606 17.91469
#
# Velocity S-wave (km/s) = 3.73801 2.67027 3.24831
# Velocity P-wave (km/s) = 6.60791 6.03509 6.32798
#
# Compressibility (1/GPa) = 0.02352745
#
# Stress axis : x y z
#
# Youngs Moduli (GPa) = 59.15718 58.31589 70.65071
#
# Poissons Ratio (x) = 0.14424 0.20839
# Poissons Ratio (y) = 0.14632 0.48865
# Poissons Ratio (z) = 0.17449 0.40334
#
# Static dielectric constant tensor:
#      x y z
#    x 3.132760 0.000000 -0.069300 
#    y 0.000000 3.022950 0.000000 
#    z -0.069300 0.000000 3.318330 
# 
# 
# High freq. dielectric constant tensor:
#      x y z
#    x 1.652160 0.000000 -0.002740 
#    y 0.000000 1.596940 0.000000 
#    z -0.002740 0.000000 1.663420 
# 
# From -- ./inp_files/47200.got.cif
#   From: 2010.06.25/outbox.cif.g09.slc.cpg/sg10_24_cif.got.tgz:47200.got - 2010.06.27 22:07:45.
