data_PCOD8057169
_publ_section_title
;
Structure prediction by ZEFSAII (Michael W. Deem and Ramdas Pophale) SiO2 
 PCOD8057169
Probable space group: P 2/M
;
_chemical_formula_sum "Si O2"
_cell_formula_units_Z 32
_cell_length_a 28.756957
_cell_length_b 9.173620
_cell_length_c 13.491965
_cell_angle_alpha 90.000000
_cell_angle_beta 144.636147
_cell_angle_gamma 90.000000
_cell_volume 2059.977587
_symmetry_space_group_name_H-M "P 2/M"
_symmetry_group_IT_number 10
_symmetry_cell_setting 'monoclinic'
loop_
_space_group_symop_operation_xyz
x,y,z
-x,y,-z
-x,-y,-z
x,-y,z
loop_
_atom_site_type_symbol
_atom_site_label
_atom_site_fract_x
_atom_site_fract_y
_atom_site_fract_z
Si Si1 0.006226 0.335805 0.393407
Si Si2 0.318617 0.667848 0.879570
Si Si3 0.411151 0.334759 0.243868
Si Si4 0.461628 0.171687 0.036336
Si Si5 0.149033 0.832099 0.880524
Si Si6 0.681935 0.834079 0.753229
Si Si7 0.835284 0.171535 0.321887
Si Si8 0.545703 0.166411 0.380109
O O1 0.015552 0.500000 0.368280
O O2 0.924712 0.265211 0.208914
O O3 0.000000 0.336319 0.500000
O O4 0.081834 0.238474 0.492412
O O5 0.304287 0.500000 0.824308
O O6 0.234670 0.752929 0.736322
O O7 0.357337 0.682005 0.053856
O O8 0.377797 0.743415 0.903257
O O9 0.431662 0.500000 0.304512
O O10 0.362280 0.270236 0.248719
O O11 0.495691 0.254748 0.375057
O O12 0.525619 0.217499 0.233406
O O13 0.443434 0.000000 0.005839
O O14 0.500000 0.222162 0.000000
O O15 0.174705 0.793708 0.812377
O O16 0.122075 0.000000 0.839210
O O17 0.223329 0.796761 0.083449
O O18 0.640531 0.813973 0.572414
O O19 0.671514 0.000000 0.772773
O O20 0.834192 0.000000 0.340722
O O21 0.518662 0.000000 0.344622
#
# Coordination Sequence:
#
# PCOD8057169 Si02
#       8
#     4   4   4   4   4   4   4   4
#     4   9  17  27  39  56  81 112 145 179 213 246
#     4  10  19  29  43  64  87 112 143 178 217 257
#     4  10  19  28  39  57  84 113 142 176 211 246
#     4   9  18  33  50  65  83 109 142 180 221 262
#     4   9  17  27  39  56  80 113 149 178 207 244
#     4  10  18  28  41  58  82 113 146 177 207 246
#     4  10  17  27  43  60  82 112 147 181 209 245
#     4   9  18  30  44  60  80 108 142 177 214 253
#
# _framework density 15.534148
#
# number of rings (size 3 to 8) (size 9 to 14) (size 15 to 20)
#    0.000    2.500    1.250    1.875    0.000    5.750 
#    0.000    0.000    0.000    0.000    0.000    0.000 
#    0.000    1.000    0.000   11.750    0.000    2.250 
#
# Total GULP energy -396707.127498 kJ/mol
# GULP energy per Si atom -12397.097734 kJ/mol
# Density = 1.549879 g / cm^3
# Si number density = 15.534148 Si / 1000 Ang^3
#
#
#
# Elastic Constant Matrix: (Units=GPa)
#
#
# Indices 1 2 3 4 5 6 
#
# 1 63.3686 40.4314 40.7863 0.0000 16.5916 0.0000
# 2 40.4314 85.7824 49.0189 0.0000 15.5012 0.0000
# 3 40.7863 49.0189 102.4095 0.0000 26.4800 0.0000
# 4 0.0000 0.0000 0.0000 12.7111 0.0000 0.9269
# 5 16.5916 15.5012 26.4800 0.0000 18.2975 0.0000
# 6 0.0000 0.0000 0.0000 0.9269 0.0000 10.6533
#
#
#
# Elastic Compliance Matrix: (Units=1/GPa)
#
#
# Indices 1 2 3 4 5 6 
#
# 1 0.026445 -0.008333 -0.003465 0.000000 -0.011905 0.000000
# 2 -0.008333 0.018854 -0.005640 0.000000 -0.000254 0.000000
# 3 -0.003465 -0.005640 0.018850 0.000000 -0.019360 0.000000
# 4 0.000000 0.000000 0.000000 0.079173 0.000000 -0.006888
# 5 -0.011905 -0.000254 -0.019360 0.000000 0.093680 0.000000
# 6 0.000000 0.000000 0.000000 -0.006888 0.000000 0.094467
#
#
# Mechanical properties :
#
#
# Convention : Reuss Voigt Hill
#
# Bulk Modulus (GPa) = 34.16147 56.89264 45.52705
# Shear Modulus (GPa) = 13.29426 16.42065 14.85745
#
# Velocity S-wave (km/s) = 2.92859 3.25479 3.09599
# Velocity P-wave (km/s) = 5.78572 7.12942 6.49242
#
# Compressibility (1/GPa) = 0.02927275
#
# Stress axis : x y z
#
# Youngs Moduli (GPa) = 37.81492 53.04026 53.04948
#
# Poissons Ratio (x) = 0.44196 0.18383
# Poissons Ratio (y) = 0.31509 0.29920
# Poissons Ratio (z) = 0.13104 0.29915
#
# Static dielectric constant tensor:
#      x y z
#    x 2.600070 0.000000 0.127280 
#    y 0.000000 3.098670 0.000000 
#    z 0.127280 0.000000 3.128770 
# 
# 
# High freq. dielectric constant tensor:
#      x y z
#    x 1.539470 0.000000 0.021650 
#    y 0.000000 1.607020 0.000000 
#    z 0.021650 0.000000 1.595210 
# 
# From -- ./inp_files/66001.got.cif
#   From: 2010.06.25/outbox.cif.g09.slc.cpg/sg10_34_cif.got.tgz:66001.got - 2010.06.27 22:07:45.
