data_PCOD8057635
_publ_section_title
;
Structure prediction by ZEFSAII (Michael W. Deem and Ramdas Pophale) SiO2 
 PCOD8057635
Probable space group: P 2/M
;
_chemical_formula_sum "Si O2"
_cell_formula_units_Z 32
_cell_length_a 35.058659
_cell_length_b 8.977757
_cell_length_c 23.739872
_cell_angle_alpha 90.000000
_cell_angle_beta 15.755090
_cell_angle_gamma 90.000000
_cell_volume 2028.863656
_symmetry_space_group_name_H-M "P 2/M"
_symmetry_group_IT_number 10
_symmetry_cell_setting 'monoclinic'
loop_
_space_group_symop_operation_xyz
x,y,z
-x,y,-z
-x,-y,-z
x,-y,z
loop_
_atom_site_type_symbol
_atom_site_label
_atom_site_fract_x
_atom_site_fract_y
_atom_site_fract_z
Si Si1 0.870798 0.174653 0.144853
Si Si2 0.101184 0.334937 0.409606
Si Si3 0.119303 0.828337 0.213264
Si Si4 0.675405 0.323960 0.992140
Si Si5 0.493467 0.671117 0.603241
Si Si6 0.230440 0.826906 0.933406
Si Si7 0.190957 0.670383 0.880632
Si Si8 0.564483 0.174353 0.614516
O O1 0.884379 0.261992 0.067111
O O2 0.728560 0.219114 0.380490
O O3 0.871368 0.000000 0.130256
O O4 0.000000 0.223089 0.000000
O O5 0.114184 0.500000 0.417738
O O6 0.000000 0.340555 0.500000
O O7 0.038285 0.224538 0.545982
O O8 0.252126 0.279881 0.170678
O O9 0.137132 0.000000 0.204289
O O10 0.236052 0.736446 0.080805
O O11 0.136611 0.801299 0.122189
O O12 0.667914 0.500000 0.009047
O O13 0.517922 0.255320 0.217189
O O14 0.461693 0.500000 0.664620
O O15 0.374694 0.734020 0.730962
O O16 0.641822 0.685017 0.361787
O O17 0.490212 0.772932 0.663024
O O18 0.144362 0.762994 0.002138
O O19 0.265198 0.000000 0.874721
O O20 0.142667 0.500000 0.955423
O O21 0.543047 0.000000 0.651592
#
# Coordination Sequence:
#
# PCOD8057635 Si02
#       8
#     4   4   4   4   4   4   4   4
#     4   9  19  36  54  69  89 116 144 181 230 275
#     4   8  16  28  40  56  80 115 153 184 220 261
#     4  10  19  28  40  60  85 117 155 189 221 256
#     4  10  18  28  42  60  86 118 151 186 222 261
#     4  10  19  30  43  60  86 118 150 185 222 258
#     4  11  21  30  42  62  89 120 153 186 219 259
#     4  10  21  33  46  66  87 113 150 186 222 263
#     4  10  18  28  45  68  89 114 150 185 221 266
#
# _framework density 15.772376
#
# number of rings (size 3 to 8) (size 9 to 14) (size 15 to 20)
#    0.000    2.250    1.250    3.375    0.000    8.000 
#    0.000    0.000    0.000    0.000    0.000    0.000 
#    0.000    1.000    0.000   11.250    0.000    5.625 
#
# Total GULP energy -396731.685307 kJ/mol
# GULP energy per Si atom -12397.865166 kJ/mol
# Density = 1.573648 g / cm^3
# Si number density = 15.772376 Si / 1000 Ang^3
#
#
#
# Elastic Constant Matrix: (Units=GPa)
#
#
# Indices 1 2 3 4 5 6 
#
# 1 72.7523 41.4378 47.3344 0.0000 3.1414 0.0000
# 2 41.4378 82.0737 42.3662 0.0000 8.1962 0.0000
# 3 47.3344 42.3662 77.0119 0.0000 7.9540 0.0000
# 4 0.0000 0.0000 0.0000 24.3992 0.0000 6.7418
# 5 3.1414 8.1962 7.9540 0.0000 18.0020 0.0000
# 6 0.0000 0.0000 0.0000 6.7418 0.0000 15.7778
#
#
#
# Elastic Compliance Matrix: (Units=1/GPa)
#
#
# Indices 1 2 3 4 5 6 
#
# 1 0.025524 -0.006957 -0.012289 0.000000 0.004143 0.000000
# 2 -0.006957 0.019162 -0.005752 0.000000 -0.004969 0.000000
# 3 -0.012289 -0.005752 0.024321 0.000000 -0.005982 0.000000
# 4 0.000000 0.000000 0.000000 0.046472 0.000000 -0.019857
# 5 0.004143 -0.004969 -0.005982 0.000000 0.059732 0.000000
# 6 0.000000 0.000000 0.000000 -0.019857 0.000000 0.071865
#
#
# Mechanical properties :
#
#
# Convention : Reuss Voigt Hill
#
# Bulk Modulus (GPa) = 52.60239 54.90162 53.75201
# Shear Modulus (GPa) = 16.47938 18.34912 17.41425
#
# Velocity S-wave (km/s) = 3.23588 3.41452 3.32640
# Velocity P-wave (km/s) = 6.88365 7.10138 6.99336
#
# Compressibility (1/GPa) = 0.01901054
#
# Stress axis : x y z
#
# Youngs Moduli (GPa) = 39.17815 52.18585 41.11741
#
# Poissons Ratio (x) = 0.36307 0.50529
# Poissons Ratio (y) = 0.27257 0.23652
# Poissons Ratio (z) = 0.48146 0.30019
#
# Static dielectric constant tensor:
#      x y z
#    x 2.744100 0.000000 0.330380 
#    y 0.000000 3.121920 0.000000 
#    z 0.330380 0.000000 3.234700 
# 
# 
# High freq. dielectric constant tensor:
#      x y z
#    x 1.563200 0.000000 0.031290 
#    y 0.000000 1.621150 0.000000 
#    z 0.031290 0.000000 1.590180 
# 
# From -- ./inp_files/83337.got.cif
#   From: 2010.06.25/outbox.cif.g09.slc.cpg/sg10_42_cif.got.tgz:83337.got - 2010.06.27 22:07:45.
