data_PCOD8057213
_publ_section_title
;
Structure prediction by ZEFSAII (Michael W. Deem and Ramdas Pophale) SiO2 
 PCOD8057213
Probable space group: P 2/M
;
_chemical_formula_sum "Si O2"
_cell_formula_units_Z 32
_cell_length_a 26.767097
_cell_length_b 8.729181
_cell_length_c 21.347527
_cell_angle_alpha 90.000000
_cell_angle_beta 160.046725
_cell_angle_gamma 90.000000
_cell_volume 1702.157407
_symmetry_space_group_name_H-M "P 2/M"
_symmetry_group_IT_number 10
_symmetry_cell_setting 'monoclinic'
loop_
_space_group_symop_operation_xyz
x,y,z
-x,y,-z
-x,-y,-z
x,-y,z
loop_
_atom_site_type_symbol
_atom_site_label
_atom_site_fract_x
_atom_site_fract_y
_atom_site_fract_z
Si Si1 0.123456 0.182011 0.600621
Si Si2 0.389177 0.322621 0.441847
Si Si3 0.302470 0.820384 0.223590
Si Si4 0.443548 0.182488 0.999420
Si Si5 0.666891 0.180649 0.364383
Si Si6 0.049690 0.181526 0.374296
Si Si7 0.445787 0.675612 0.644898
Si Si8 0.768749 0.319274 0.984744
O O1 0.276948 0.239107 0.810328
O O2 0.102935 0.237307 0.505233
O O3 0.000000 0.253457 0.500000
O O4 0.116982 0.000000 0.593796
O O5 0.424956 0.500000 0.470105
O O6 0.531696 0.220537 0.597842
O O7 0.265170 0.259862 0.247285
O O8 0.348288 0.302508 0.466757
O O9 0.277321 0.000000 0.200186
O O10 0.202019 0.756038 0.049068
O O11 0.454005 0.000000 0.011743
O O12 0.500000 0.247319 0.000000
O O13 0.541548 0.250812 0.171228
O O14 0.827233 0.235510 0.530562
O O15 0.636222 0.228489 0.399026
O O16 0.660825 0.000000 0.352408
O O17 0.897069 0.265235 0.181476
O O18 0.024032 0.000000 0.341774
O O19 0.448485 0.500000 0.669400
O O20 0.612603 0.733388 0.829976
O O21 0.769426 0.500000 0.976494
#
# Coordination Sequence:
#
# PCOD8057213 Si02
#       8
#     4   4   4   4   4   4   4   4
#     4   9  17  28  46  74 105 133 166 211 262 312
#     4   9  16  29  48  72 106 142 173 210 256 309
#     4  10  17  27  48  78 106 134 170 216 262 306
#     4   9  15  28  47  70 101 133 167 209 258 311
#     4  10  20  32  52  78 104 136 173 216 264 311
#     4  10  20  34  51  77 107 135 172 218 263 314
#     4   9  20  35  51  74 104 138 177 215 252 303
#     4  10  21  36  52  73 104 142 178 214 261 315
#
# _framework density 18.799672000000001
#
# number of rings (size 3 to 8) (size 9 to 14) (size 15 to 20)
#    0.000    2.500    1.250    3.375    1.750    3.500 
#    0.000    0.000    0.000    2.250    0.000    5.250 
#    0.000    0.000    0.000    0.000    0.000    0.000 
#
# Total GULP energy -396611.530259 kJ/mol
# GULP energy per Si atom -12394.110321 kJ/mol
# Density = 1.875688 g / cm^3
# Si number density = 18.799672 Si / 1000 Ang^3
#
#
#
# Elastic Constant Matrix: (Units=GPa)
#
#
# Indices 1 2 3 4 5 6 
#
# 1 125.1531 23.4536 35.3441 0.0000 -0.7729 0.0000
# 2 23.4536 43.6707 15.8991 0.0000 -0.6549 0.0000
# 3 35.3441 15.8991 47.7748 0.0000 4.5752 0.0000
# 4 0.0000 0.0000 0.0000 16.8967 0.0000 -0.1201
# 5 -0.7729 -0.6549 4.5752 0.0000 29.0452 0.0000
# 6 0.0000 0.0000 0.0000 -0.1201 0.0000 6.2095
#
#
#
# Elastic Compliance Matrix: (Units=1/GPa)
#
#
# Indices 1 2 3 4 5 6 
#
# 1 0.010525 -0.003133 -0.006867 0.000000 0.001291 0.000000
# 2 -0.003133 0.027101 -0.006855 0.000000 0.001608 0.000000
# 3 -0.006867 -0.006855 0.028760 0.000000 -0.004868 0.000000
# 4 0.000000 0.000000 0.000000 0.059191 0.000000 0.001145
# 5 0.001291 0.001608 -0.004868 0.000000 0.035266 0.000000
# 6 0.000000 0.000000 0.000000 0.001145 0.000000 0.161065
#
#
# Mechanical properties :
#
#
# Convention : Reuss Voigt Hill
#
# Bulk Modulus (GPa) = 30.60498 40.66580 35.63539
# Shear Modulus (GPa) = 13.64218 19.89040 16.76629
#
# Velocity S-wave (km/s) = 2.69673 3.25625 2.98961
# Velocity P-wave (km/s) = 5.10013 5.98462 5.55999
#
# Compressibility (1/GPa) = 0.03267443
#
# Stress axis : x y z
#
# Youngs Moduli (GPa) = 95.01522 36.89899 34.77109
#
# Poissons Ratio (x) = 0.11560 0.23878
# Poissons Ratio (y) = 0.29766 0.23837
# Poissons Ratio (z) = 0.65249 0.25295
#
# Static dielectric constant tensor:
#      x y z
#    x 3.669420 0.000000 -0.333180 
#    y 0.000000 3.086210 0.000000 
#    z -0.333180 0.000000 3.585800 
# 
# 
# High freq. dielectric constant tensor:
#      x y z
#    x 1.729820 0.000000 -0.025630 
#    y 0.000000 1.700350 0.000000 
#    z -0.025630 0.000000 1.716820 
# 
# From -- ./inp_files/87024.got.cif
#   From: 2010.06.25/outbox.cif.g09.slc.cpg/sg10_44_cif.got.tgz:87024.got - 2010.06.27 22:07:45.
