data_PCOD8057226
_publ_section_title
;
Structure prediction by ZEFSAII (Michael W. Deem and Ramdas Pophale) SiO2 
 PCOD8057226
Probable space group: P 2/M
;
_chemical_formula_sum "Si O2"
_cell_formula_units_Z 32
_cell_length_a 28.458428
_cell_length_b 9.016375
_cell_length_c 19.250777
_cell_angle_alpha 90.000000
_cell_angle_beta 156.226040
_cell_angle_gamma 90.000000
_cell_volume 1991.295123
_symmetry_space_group_name_H-M "P 2/M"
_symmetry_group_IT_number 10
_symmetry_cell_setting 'monoclinic'
loop_
_space_group_symop_operation_xyz
x,y,z
-x,y,-z
-x,-y,-z
x,-y,z
loop_
_atom_site_type_symbol
_atom_site_label
_atom_site_fract_x
_atom_site_fract_y
_atom_site_fract_z
Si Si1 0.731147 0.327087 0.887865
Si Si2 0.948119 0.672892 0.272955
Si Si3 0.439281 0.170735 0.119729
Si Si4 0.617433 0.832715 0.615072
Si Si5 0.588932 0.671031 0.057957
Si Si6 0.495907 0.674543 0.332730
Si Si7 0.829660 0.829204 0.393253
Si Si8 0.166445 0.834537 0.760470
O O1 0.722452 0.500000 0.858870
O O2 0.719280 0.238717 0.799621
O O3 0.629637 0.283011 0.804732
O O4 0.855339 0.282931 0.088298
O O5 0.975818 0.500000 0.309403
O O6 0.895774 0.712473 0.277146
O O7 0.067950 0.760981 0.420544
O O8 0.467445 0.248503 0.084802
O O9 0.510011 0.250949 0.276597
O O10 0.477968 0.000000 0.167497
O O11 0.303707 0.187054 0.952473
O O12 0.500000 0.828234 0.500000
O O13 0.599494 0.738040 0.520930
O O14 0.652498 0.000000 0.642664
O O15 0.611204 0.500000 0.069343
O O16 0.500000 0.690578 0.000000
O O17 0.710421 0.743047 0.245627
O O18 0.511869 0.500000 0.346784
O O19 0.872122 0.811616 0.371182
O O20 0.808641 0.000000 0.384211
O O21 0.130789 0.000000 0.737448
#
# Coordination Sequence:
#
# PCOD8057226 Si02
#       8
#     4   4   4   4   4   4   4   4
#     4   9  18  29  40  59  87 123 160 192 230 268
#     4  11  20  29  43  64  90 122 158 193 225 266
#     4  10  19  30  47  70  94 121 154 191 230 275
#     4   9  17  27  40  59  83 117 158 196 232 269
#     4  10  21  37  55  72  91 116 148 189 236 282
#     4  10  17  28  44  62  89 122 157 195 230 269
#     4  10  21  34  47  66  89 118 152 188 230 274
#     4   9  18  30  42  59  88 121 153 189 226 265
#
# _framework density 16.069942000000001
#
# number of rings (size 3 to 8) (size 9 to 14) (size 15 to 20)
#    0.000    2.250    1.250    3.375    0.000    8.000 
#    0.000    0.000    0.000    0.000    0.000    0.000 
#    0.000    1.000    0.000   10.500    0.000    5.000 
#
# Total GULP energy -396839.908877 kJ/mol
# GULP energy per Si atom -12401.247152 kJ/mol
# Density = 1.603337 g / cm^3
# Si number density = 16.069942 Si / 1000 Ang^3
#
#
#
# Elastic Constant Matrix: (Units=GPa)
#
#
# Indices 1 2 3 4 5 6 
#
# 1 59.7783 49.8170 43.8511 0.0000 -14.4886 0.0000
# 2 49.8170 115.2622 54.9978 0.0000 -15.3188 0.0000
# 3 43.8511 54.9978 86.9331 0.0000 -24.2325 0.0000
# 4 0.0000 0.0000 0.0000 26.7540 0.0000 -7.3395
# 5 -14.4886 -15.3188 -24.2325 0.0000 18.8413 0.0000
# 6 0.0000 0.0000 0.0000 -7.3395 0.0000 21.5221
#
#
#
# Elastic Compliance Matrix: (Units=1/GPa)
#
#
# Indices 1 2 3 4 5 6 
#
# 1 0.032075 -0.008800 -0.008934 0.000000 0.006020 0.000000
# 2 -0.008800 0.014842 -0.005414 0.000000 -0.001664 0.000000
# 3 -0.008934 -0.005414 0.025399 0.000000 0.021394 0.000000
# 4 0.000000 0.000000 0.000000 0.041235 0.000000 0.014062
# 5 0.006020 -0.001664 0.021394 0.000000 0.083867 0.000000
# 6 0.000000 0.000000 0.000000 0.014062 0.000000 0.051259
#
#
# Mechanical properties :
#
#
# Convention : Reuss Voigt Hill
#
# Bulk Modulus (GPa) = 38.43463 62.14505 50.28984
# Shear Modulus (GPa) = 16.46659 20.97732 18.72195
#
# Velocity S-wave (km/s) = 3.20454 3.61692 3.41696
# Velocity P-wave (km/s) = 6.13686 7.49656 6.85053
#
# Compressibility (1/GPa) = 0.02601820
#
# Stress axis : x y z
#
# Youngs Moduli (GPa) = 31.17727 67.37816 39.37238
#
# Poissons Ratio (x) = 0.59292 0.35175
# Poissons Ratio (y) = 0.27436 0.21318
# Poissons Ratio (z) = 0.27854 0.36481
#
# Static dielectric constant tensor:
#      x y z
#    x 2.715570 0.000000 -0.282140 
#    y 0.000000 3.188050 0.000000 
#    z -0.282140 0.000000 3.023890 
# 
# 
# High freq. dielectric constant tensor:
#      x y z
#    x 1.571920 0.000000 -0.030130 
#    y 0.000000 1.635240 0.000000 
#    z -0.030130 0.000000 1.605630 
# 
# From -- ./inp_files/87232.got.cif
#   From: 2010.06.25/outbox.cif.g09.slc.cpg/sg10_44_cif.got.tgz:87232.got - 2010.06.27 22:07:45.
