data_PCOD8057808
_publ_section_title
;
Structure prediction by ZEFSAII (Michael W. Deem and Ramdas Pophale) SiO2 
 PCOD8057808
Probable space group: P 2/M
;
_chemical_formula_sum "Si O2"
_cell_formula_units_Z 30
_cell_length_a 5.251297
_cell_length_b 21.701941
_cell_length_c 18.551858
_cell_angle_alpha 90.000000
_cell_angle_beta 85.256722
_cell_angle_gamma 90.000000
_cell_volume 2106.990860
_symmetry_space_group_name_H-M "P 2/M"
_symmetry_group_IT_number 10
_symmetry_cell_setting 'monoclinic'
loop_
_space_group_symop_operation_xyz
x,y,z
-x,y,-z
-x,-y,-z
x,-y,z
loop_
_atom_site_type_symbol
_atom_site_label
_atom_site_fract_x
_atom_site_fract_y
_atom_site_fract_z
Si Si1 0.918566 0.775593 0.419042
Si Si2 0.500000 0.834528 0.500000
Si Si3 0.046445 0.073279 0.833586
Si Si4 0.520692 0.927122 0.919279
Si Si5 0.983947 0.362799 0.585799
Si Si6 0.598771 0.931616 0.601822
Si Si7 0.947243 0.889554 0.325660
Si Si8 0.517121 0.430188 0.413767
O O1 0.616363 0.789383 0.435769
O O2 0.019712 0.821975 0.355677
O O3 0.000000 0.788588 0.500000
O O4 0.989382 0.707822 0.389980
O O5 0.687170 0.882165 0.538603
O O6 0.279293 0.095052 0.878449
O O7 0.075605 0.111619 0.759605
O O8 0.784213 0.094518 0.877054
O O9 0.054541 0.000000 0.818064
O O10 0.517813 0.000000 0.925147
O O11 0.500000 0.898503 0.000000
O O12 0.712974 0.391100 0.616842
O O13 0.000000 0.367065 0.500000
O O14 0.212992 0.401313 0.616979
O O15 0.315480 0.915162 0.635941
O O16 0.809683 0.931995 0.660186
O O17 0.590252 0.000000 0.568830
O O18 0.500000 0.428343 0.500000
O O19 0.499425 0.500000 0.385787
#
# Coordination Sequence:
#
# PCOD8057808 Si02
#       8
#     4   2   4   4   4   4   4   4
#     4  10  20  33  44  57  78 102 144 171 205 238
#     4  10  21  32  44  56  71  96 132 182 210 246
#     4  10  18  29  44  62  83 103 125 154 201 248
#     4   9  17  29  46  65  82  99 120 149 189 246
#     4   9  18  25  43  56  73 100 123 157 195 237
#     4  11  21  33  45  57  73  95 130 170 217 253
#     4  11  22  33  46  61  80 106 130 171 206 248
#     4   9  16  27  39  59  78  93 115 149 199 249
#
# _framework density 14.238315
#
# number of rings (size 3 to 8) (size 9 to 14) (size 15 to 20)
#    0.000    2.133    1.333    3.000    4.667    4.267 
#    0.000    2.000    0.000    0.000    0.000    0.000 
#    0.000    0.000    0.000    0.000    0.000    0.000 
#
# Total GULP energy -371721.399889 kJ/mol
# GULP energy per Si atom -12390.713330 kJ/mol
# Density = 1.420591 g / cm^3
# Si number density = 14.238315 Si / 1000 Ang^3
#
#
#
# Elastic Constant Matrix: (Units=GPa)
#
#
# Indices 1 2 3 4 5 6 
#
# 1 108.1284 42.2681 25.0211 0.0000 8.0658 0.0000
# 2 42.2681 96.9043 26.3460 0.0000 2.2346 0.0000
# 3 25.0211 26.3460 68.1456 0.0000 5.1806 0.0000
# 4 0.0000 0.0000 0.0000 4.5395 0.0000 0.7280
# 5 8.0658 2.2346 5.1806 0.0000 16.1786 0.0000
# 6 0.0000 0.0000 0.0000 0.7280 0.0000 11.8666
#
#
#
# Elastic Compliance Matrix: (Units=1/GPa)
#
#
# Indices 1 2 3 4 5 6 
#
# 1 0.011855 -0.004444 -0.002288 0.000000 -0.004564 0.000000
# 2 -0.004444 0.013198 -0.003588 0.000000 0.001542 0.000000
# 3 -0.002288 -0.003588 0.017196 0.000000 -0.003870 0.000000
# 4 0.000000 0.000000 0.000000 0.222479 0.000000 -0.013649
# 5 -0.004564 0.001542 -0.003870 0.000000 0.065112 0.000000
# 6 0.000000 0.000000 0.000000 -0.013649 0.000000 0.085108
#
#
# Mechanical properties :
#
#
# Convention : Reuss Voigt Hill
#
# Bulk Modulus (GPa) = 46.27589 51.16096 48.71842
# Shear Modulus (GPa) = 11.29204 18.48646 14.88925
#
# Velocity S-wave (km/s) = 2.81921 3.60719 3.23726
# Velocity P-wave (km/s) = 6.57030 7.30472 6.94722
#
# Compressibility (1/GPa) = 0.02160953
#
# Stress axis : x y z
#
# Youngs Moduli (GPa) = 84.35075 75.77073 58.15342
#
# Poissons Ratio (x) = 0.33671 0.13305
# Poissons Ratio (y) = 0.37484 0.20865
# Poissons Ratio (z) = 0.19299 0.27186
#
# Static dielectric constant tensor:
#      x y z
#    x 3.138270 0.000000 0.064280 
#    y 0.000000 2.655640 0.000000 
#    z 0.064280 0.000000 2.534920 
# 
# 
# High freq. dielectric constant tensor:
#      x y z
#    x 1.567670 0.000000 0.008820 
#    y 0.000000 1.515190 0.000000 
#    z 0.008820 0.000000 1.490970 
# 
# From -- ./inp_files/59548.got.cif
#   From: 2010.06.25/outbox.cif.g09.slc.cpg/sg10_30_cif.got.tgz:59548.got - 2010.06.27 22:07:45.
