data_PCOD8057563
_publ_section_title
;
Structure prediction by ZEFSAII (Michael W. Deem and Ramdas Pophale) SiO2 
 PCOD8057563
Probable space group: P 2/M
;
_chemical_formula_sum "Si O2"
_cell_formula_units_Z 28
_cell_length_a 14.087277
_cell_length_b 8.973561
_cell_length_c 28.681312
_cell_angle_alpha 90.000000
_cell_angle_beta 28.647024
_cell_angle_gamma 90.000000
_cell_volume 1738.201178
_symmetry_space_group_name_H-M "P 2/M"
_symmetry_group_IT_number 10
_symmetry_cell_setting 'monoclinic'
loop_
_space_group_symop_operation_xyz
x,y,z
-x,y,-z
-x,-y,-z
x,-y,z
loop_
_atom_site_type_symbol
_atom_site_label
_atom_site_fract_x
_atom_site_fract_y
_atom_site_fract_z
Si Si1 0.801798 0.165051 0.555314
Si Si2 0.072286 0.176183 0.358968
Si Si3 0.606647 0.671117 0.716602
Si Si4 0.199079 0.671452 0.939896
Si Si5 0.650067 0.824831 0.036219
Si Si6 0.771953 0.323738 0.793016
Si Si7 0.730109 0.335229 0.912587
O O1 0.644631 0.276444 0.646751
O O2 0.000000 0.160113 0.500000
O O3 0.870336 0.217940 0.474050
O O4 0.706861 0.000000 0.594095
O O5 0.266595 0.232106 0.302164
O O6 0.062910 0.254335 0.312434
O O7 0.092116 0.000000 0.344646
O O8 0.671507 0.500000 0.693582
O O9 0.376995 0.695261 0.826739
O O10 0.189168 0.500000 0.960767
O O11 0.220443 0.776006 0.975581
O O12 0.000000 0.721111 0.000000
O O13 0.440064 0.743364 0.129235
O O14 0.615282 0.000000 0.051292
O O15 0.769539 0.779225 0.937642
O O16 0.756765 0.500000 0.792446
O O17 0.835605 0.283837 0.818800
O O18 0.804260 0.500000 0.895573
O O19 0.500000 0.342587 0.000000
#
# Coordination Sequence:
#
# PCOD8057563 Si02
#       7
#     4   4   4   4   4   4   4
#     4   8  16  28  40  57  84 114 141 171 214 261
#     4  10  18  27  41  62  88 117 143 174 216 258
#     4  10  18  28  44  61  80 111 148 183 217 255
#     4  10  21  35  48  62  84 116 152 188 224 259
#     4  11  20  29  44  63  85 113 145 183 222 258
#     4  10  18  28  43  63  87 117 148 177 211 256
#     4   8  16  29  43  59  83 114 145 175 211 257
#
# _framework density 16.108606999999999
#
# number of rings (size 3 to 8) (size 9 to 14) (size 15 to 20)
#    0.000    2.429    1.429    4.286    0.000    7.143 
#    0.000    0.000    0.000    0.000    0.000    0.000 
#    0.000    1.143    0.000   12.857    0.000    6.429 
#
# Total GULP energy -347073.126306 kJ/mol
# GULP energy per Si atom -12395.468797 kJ/mol
# Density = 1.607194 g / cm^3
# Si number density = 16.108607 Si / 1000 Ang^3
#
#
#
# Elastic Constant Matrix: (Units=GPa)
#
#
# Indices 1 2 3 4 5 6 
#
# 1 63.2624 43.0395 47.8448 0.0000 24.5712 0.0000
# 2 43.0395 95.4491 46.6753 0.0000 20.7458 0.0000
# 3 47.8448 46.6753 87.4117 0.0000 33.1126 0.0000
# 4 0.0000 0.0000 0.0000 22.5069 0.0000 11.9626
# 5 24.5712 20.7458 33.1126 0.0000 32.5352 0.0000
# 6 0.0000 0.0000 0.0000 11.9626 0.0000 13.8042
#
#
#
# Elastic Compliance Matrix: (Units=1/GPa)
#
#
# Indices 1 2 3 4 5 6 
#
# 1 0.032146 -0.007573 -0.010064 0.000000 -0.009206 0.000000
# 2 -0.007573 0.016058 -0.004422 0.000000 -0.000020 0.000000
# 3 -0.010064 -0.004422 0.025002 0.000000 -0.015025 0.000000
# 4 0.000000 0.000000 0.000000 0.082371 0.000000 -0.071382
# 5 -0.009206 -0.000020 -0.015025 0.000000 0.052992 0.000000
# 6 0.000000 0.000000 0.000000 -0.071382 0.000000 0.134301
#
#
# Mechanical properties :
#
#
# Convention : Reuss Voigt Hill
#
# Bulk Modulus (GPa) = 34.37898 57.91582 46.14740
# Shear Modulus (GPa) = 12.60443 21.00683 16.80563
#
# Velocity S-wave (km/s) = 2.80029 3.61512 3.23347
# Velocity P-wave (km/s) = 5.64304 7.31142 6.53072
#
# Compressibility (1/GPa) = 0.02908754
#
# Stress axis : x y z
#
# Youngs Moduli (GPa) = 31.10764 62.27324 39.99714
#
# Poissons Ratio (x) = 0.47159 0.40255
# Poissons Ratio (y) = 0.23557 0.17688
# Poissons Ratio (z) = 0.31308 0.27539
#
# Static dielectric constant tensor:
#      x y z
#    x 2.945790 0.000000 0.652870 
#    y 0.000000 3.130240 0.000000 
#    z 0.652870 0.000000 3.334230 
# 
# 
# High freq. dielectric constant tensor:
#      x y z
#    x 1.575260 0.000000 0.050690 
#    y 0.000000 1.628160 0.000000 
#    z 0.050690 0.000000 1.603150 
# 
# From -- ./inp_files/95180.got.cif
#   From: 2010.06.25/outbox.cif.g09.slc.cpg/sg10_48_cif.got.tgz:95180.got - 2010.06.27 22:07:45.
