data_PCOD8057502
_publ_section_title
;
Structure prediction by ZEFSAII (Michael W. Deem and Ramdas Pophale) SiO2 
 PCOD8057502
Probable space group: P 2/M
;
_chemical_formula_sum "Si O2"
_cell_formula_units_Z 32
_cell_length_a 8.690421
_cell_length_b 13.743290
_cell_length_c 17.432623
_cell_angle_alpha 90.000000
_cell_angle_beta 91.809197
_cell_angle_gamma 90.000000
_cell_volume 2081.027012
_symmetry_space_group_name_H-M "P 2/M"
_symmetry_group_IT_number 10
_symmetry_cell_setting 'monoclinic'
loop_
_space_group_symop_operation_xyz
x,y,z
-x,y,-z
-x,-y,-z
x,-y,z
loop_
_atom_site_type_symbol
_atom_site_label
_atom_site_fract_x
_atom_site_fract_y
_atom_site_fract_z
Si Si1 0.323682 0.242733 0.489826
Si Si2 0.183188 0.613998 0.383309
Si Si3 0.649405 0.615043 0.766030
Si Si4 0.697488 0.384409 0.239409
Si Si5 0.920162 0.108330 0.580737
Si Si6 0.836026 0.614540 0.082716
Si Si7 0.883271 0.273153 0.368520
Si Si8 0.180524 0.384065 0.084988
O O1 0.500000 0.212222 0.500000
O O2 0.307061 0.345231 0.445708
O O3 0.243396 0.160408 0.435747
O O4 0.250805 0.256764 0.572296
O O5 0.184654 0.500000 0.391707
O O6 0.234218 0.648094 0.298961
O O7 0.013032 0.652428 0.401461
O O8 0.647701 0.500000 0.772880
O O9 0.475923 0.648611 0.744352
O O10 0.707501 0.660270 0.847851
O O11 0.727224 0.500000 0.255429
O O12 0.726001 0.356607 0.151059
O O13 0.812191 0.317922 0.290507
O O14 0.000000 0.104065 0.500000
O O15 0.027551 0.169779 0.641737
O O16 0.895544 0.000000 0.614128
O O17 0.850369 0.500000 0.076703
O O18 0.008164 0.655094 0.098934
O O19 0.768186 0.651852 0.999604
O O20 0.185743 0.500000 0.090284
#
# Coordination Sequence:
#
# PCOD8057502 Si02
#       8
#     4   4   4   4   4   4   4   4
#     4  10  20  31  44  64  85 105 133 168 207 244
#     4  10  19  30  42  56  79 113 147 173 199 234
#     4   9  17  26  37  54  78 110 144 177 210 238
#     4  10  18  26  37  57  84 112 141 171 205 240
#     4   8  16  32  50  65  80 100 129 164 203 247
#     4   8  14  23  36  52  72 103 141 176 205 237
#     4  10  19  30  45  61  79 107 139 169 199 240
#     4   8  13  23  36  50  70 101 143 179 205 237
#
# _framework density 15.377022
#
# number of rings (size 3 to 8) (size 9 to 14) (size 15 to 20)
#    0.000    2.875    0.000    3.750    0.000    4.500 
#    0.000    2.500    0.000    0.000    0.000    0.000 
#    0.000    0.000    0.000   22.500    0.000    3.125 
#
# Total GULP energy -396515.478229 kJ/mol
# GULP energy per Si atom -12391.108695 kJ/mol
# Density = 1.534202 g / cm^3
# Si number density = 15.377022 Si / 1000 Ang^3
#
#
#
# Elastic Constant Matrix: (Units=GPa)
#
#
# Indices 1 2 3 4 5 6 
#
# 1 94.4751 29.1976 28.9976 0.0000 2.9797 0.0000
# 2 29.1976 60.3255 25.9647 0.0000 -0.9045 0.0000
# 3 28.9976 25.9647 53.1284 0.0000 4.4449 0.0000
# 4 0.0000 0.0000 0.0000 6.4694 0.0000 3.2320
# 5 2.9797 -0.9045 4.4449 0.0000 22.8588 0.0000
# 6 0.0000 0.0000 0.0000 3.2320 0.0000 11.0888
#
#
#
# Elastic Compliance Matrix: (Units=1/GPa)
#
#
# Indices 1 2 3 4 5 6 
#
# 1 0.013549 -0.004334 -0.005200 0.000000 -0.000927 0.000000
# 2 -0.004334 0.022566 -0.008930 0.000000 0.003194 0.000000
# 3 -0.005200 -0.008930 0.026427 0.000000 -0.004814 0.000000
# 4 0.000000 0.000000 0.000000 0.180917 0.000000 -0.052731
# 5 -0.000927 0.003194 -0.004814 0.000000 0.044930 0.000000
# 6 0.000000 0.000000 0.000000 -0.052731 0.000000 0.105550
#
#
# Mechanical properties :
#
#
# Convention : Reuss Voigt Hill
#
# Bulk Modulus (GPa) = 39.03923 41.80544 40.42234
# Shear Modulus (GPa) = 11.37900 16.33468 13.85684
#
# Velocity S-wave (km/s) = 2.72325 3.26280 3.00516
# Velocity P-wave (km/s) = 5.94401 6.43742 6.19563
#
# Compressibility (1/GPa) = 0.02561526
#
# Stress axis : x y z
#
# Youngs Moduli (GPa) = 73.80428 44.31490 37.83944
#
# Poissons Ratio (x) = 0.19205 0.19676
# Poissons Ratio (y) = 0.31985 0.33791
# Poissons Ratio (z) = 0.38377 0.39574
#
# Static dielectric constant tensor:
#      x y z
#    x 3.059180 0.000000 0.020550 
#    y 0.000000 2.689950 0.000000 
#    z 0.020550 0.000000 3.117800 
# 
# 
# High freq. dielectric constant tensor:
#      x y z
#    x 1.596920 0.000000 0.001690 
#    y 0.000000 1.526530 0.000000 
#    z 0.001690 0.000000 1.588120 
# 
# From -- ./inp_files/32560.got.cif
#   From: 2010.06.25/outbox.cif.g09.slc.cpg/sg10_17_cif.got.tgz:32560.got - 2010.06.27 22:07:45.
