data_PCOD8057549
_publ_section_title
;
Structure prediction by ZEFSAII (Michael W. Deem and Ramdas Pophale) SiO2 
 PCOD8057549
Probable space group: P 2/M
;
_chemical_formula_sum "Si O2"
_cell_formula_units_Z 32
_cell_length_a 18.506039
_cell_length_b 8.767027
_cell_length_c 13.776022
_cell_angle_alpha 90.000000
_cell_angle_beta 69.612557
_cell_angle_gamma 90.000000
_cell_volume 2095.054389
_symmetry_space_group_name_H-M "P 2/M"
_symmetry_group_IT_number 10
_symmetry_cell_setting 'monoclinic'
loop_
_space_group_symop_operation_xyz
x,y,z
-x,y,-z
-x,-y,-z
x,-y,z
loop_
_atom_site_type_symbol
_atom_site_label
_atom_site_fract_x
_atom_site_fract_y
_atom_site_fract_z
Si Si1 0.733209 0.679242 0.770916
Si Si2 0.741988 0.321573 0.989781
Si Si3 0.964678 0.681670 0.154100
Si Si4 0.579689 0.828524 0.843725
Si Si5 0.965287 0.319213 0.371024
Si Si6 0.882749 0.681641 0.596780
Si Si7 0.889392 0.819686 0.009932
Si Si8 0.588027 0.173114 0.070077
O O1 0.734162 0.500000 0.764852
O O2 0.746605 0.731430 0.875576
O O3 0.650660 0.732357 0.767063
O O4 0.801668 0.749774 0.672750
O O5 0.758385 0.500000 0.994819
O O6 0.803369 0.224515 0.020944
O O7 0.657494 0.281611 0.072985
O O8 0.958113 0.500000 0.145085
O O9 0.945865 0.737919 0.272062
O O10 0.903490 0.765144 0.113585
O O11 0.051345 0.732442 0.088060
O O12 0.494948 0.768012 0.849386
O O13 0.589881 0.000000 0.801550
O O14 0.583367 0.821276 0.957110
O O15 0.970179 0.500000 0.369038
O O16 0.899241 0.265095 0.477992
O O17 0.048527 0.256246 0.366596
O O18 0.880305 0.500000 0.603433
O O19 0.902204 0.000000 0.996044
O O20 0.603568 0.000000 0.097502
#
# Coordination Sequence:
#
# PCOD8057549 Si02
#       8
#     4   4   4   4   4   4   4   4
#     4   9  16  24  38  59  83 107 135 169 201 230
#     4  10  18  27  40  60  82 106 136 171 201 229
#     4  10  18  30  46  62  79 102 134 172 204 232
#     4   8  14  24  37  52  76 108 139 163 192 235
#     4   8  14  24  41  60  80 105 132 164 203 237
#     4   8  13  23  38  60  84 105 131 163 198 239
#     4  11  21  31  42  58  80 108 136 164 201 245
#     4   8  14  25  38  53  75 107 138 164 195 235
#
# _framework density 15.274065999999999
#
# number of rings (size 3 to 8) (size 9 to 14) (size 15 to 20)
#    0.000    3.000    0.000    4.875    0.000    3.000 
#    0.000    2.500    0.000    1.500    0.000    5.250 
#    0.000    1.000    0.000   11.500    0.000    3.375 
#
# Total GULP energy -396528.840616 kJ/mol
# GULP energy per Si atom -12391.526269 kJ/mol
# Density = 1.523930 g / cm^3
# Si number density = 15.274066 Si / 1000 Ang^3
#
#
#
# Elastic Constant Matrix: (Units=GPa)
#
#
# Indices 1 2 3 4 5 6 
#
# 1 109.7607 23.7917 54.8863 0.0000 -19.4222 0.0000
# 2 23.7917 35.1296 16.9720 0.0000 0.1165 0.0000
# 3 54.8863 16.9720 91.0608 0.0000 -8.1511 0.0000
# 4 0.0000 0.0000 0.0000 6.4632 0.0000 -3.1067
# 5 -19.4222 0.1165 -8.1511 0.0000 24.2548 0.0000
# 6 0.0000 0.0000 0.0000 -3.1067 0.0000 24.2752
#
#
#
# Elastic Compliance Matrix: (Units=1/GPa)
#
#
# Indices 1 2 3 4 5 6 
#
# 1 0.016376 -0.007491 -0.007524 0.000000 0.010621 0.000000
# 2 -0.007491 0.034821 -0.002605 0.000000 -0.007041 0.000000
# 3 -0.007524 -0.002605 0.015944 0.000000 -0.000654 0.000000
# 4 0.000000 0.000000 0.000000 0.164863 0.000000 0.021099
# 5 0.010621 -0.007041 -0.000654 0.000000 0.049548 0.000000
# 6 0.000000 0.000000 0.000000 0.021099 0.000000 0.043895
#
#
# Mechanical properties :
#
#
# Convention : Reuss Voigt Hill
#
# Bulk Modulus (GPa) = 31.34686 47.47236 39.40961
# Shear Modulus (GPa) = 13.46549 20.35205 16.90877
#
# Velocity S-wave (km/s) = 2.97238 3.65424 3.33081
# Velocity P-wave (km/s) = 5.68749 6.99661 6.37574
#
# Compressibility (1/GPa) = 0.03190113
#
# Stress axis : x y z
#
# Youngs Moduli (GPa) = 61.06455 28.71805 62.72136
#
# Poissons Ratio (x) = 0.21513 0.47190
# Poissons Ratio (y) = 0.45744 0.16340
# Poissons Ratio (z) = 0.45943 0.07481
#
# Static dielectric constant tensor:
#      x y z
#    x 3.176740 0.000000 -0.254510 
#    y 0.000000 2.761510 0.000000 
#    z -0.254510 0.000000 2.984540 
# 
# 
# High freq. dielectric constant tensor:
#      x y z
#    x 1.581470 0.000000 -0.019070 
#    y 0.000000 1.569410 0.000000 
#    z -0.019070 0.000000 1.548990 
# 
# From -- ./inp_files/68225.got.cif
#   From: 2010.06.25/outbox.cif.g09.slc.cpg/sg10_35_cif.got.tgz:68225.got - 2010.06.27 22:07:45.
