data_PCOD8057717
_publ_section_title
;
Structure prediction by ZEFSAII (Michael W. Deem and Ramdas Pophale) SiO2 
 PCOD8057717
Probable space group: P 2/M
;
_chemical_formula_sum "Si O2"
_cell_formula_units_Z 32
_cell_length_a 16.848420
_cell_length_b 8.803870
_cell_length_c 12.363959
_cell_angle_alpha 90.000000
_cell_angle_beta 86.276761
_cell_angle_gamma 90.000000
_cell_volume 1830.091274
_symmetry_space_group_name_H-M "P 2/M"
_symmetry_group_IT_number 10
_symmetry_cell_setting 'monoclinic'
loop_
_space_group_symop_operation_xyz
x,y,z
-x,y,-z
-x,-y,-z
x,-y,z
loop_
_atom_site_type_symbol
_atom_site_label
_atom_site_fract_x
_atom_site_fract_y
_atom_site_fract_z
Si Si1 0.597110 0.180389 0.585947
Si Si2 0.228092 0.179769 0.374981
Si Si3 0.953210 0.177144 0.213505
Si Si4 0.824010 0.179983 0.057194
Si Si5 0.286775 0.675258 0.774345
Si Si6 0.823804 0.822673 0.388889
Si Si7 0.439291 0.677264 0.638268
Si Si8 0.869914 0.181640 0.817608
O O1 0.680726 0.235750 0.629026
O O2 0.593371 0.232508 0.462330
O O3 0.526426 0.258495 0.661300
O O4 0.588043 0.000000 0.591658
O O5 0.180162 0.231840 0.486582
O O6 0.184353 0.249338 0.273952
O O7 0.226297 0.000000 0.367643
O O8 0.897340 0.244156 0.123001
O O9 0.912100 0.208393 0.333574
O O10 0.040998 0.250027 0.203168
O O11 0.962827 0.000000 0.190586
O O12 0.740975 0.238363 0.114755
O O13 0.822785 0.000000 0.061925
O O14 0.833490 0.239089 0.934161
O O15 0.268111 0.500000 0.793428
O O16 0.240662 0.730681 0.672670
O O17 0.380504 0.704651 0.744936
O O18 0.801720 0.000000 0.379837
O O19 0.444470 0.500000 0.608182
O O20 0.871661 0.000000 0.812821
#
# Coordination Sequence:
#
# PCOD8057717 Si02
#       8
#     4   4   4   4   4   4   4   4
#     4  10  18  28  45  69  97 124 147 181 225 272
#     4   9  17  27  42  67 100 128 151 184 225 275
#     4   8  14  24  43  69  94 120 153 194 233 268
#     4   9  17  29  48  70  92 120 157 198 233 268
#     4  10  19  30  47  69  93 119 150 193 237 275
#     4   9  16  28  45  68  96 123 153 187 227 276
#     4  10  19  30  46  69  93 118 151 187 227 275
#     4   9  16  27  44  69  97 124 155 192 232 269
#
# _framework density 17.485467
#
# number of rings (size 3 to 8) (size 9 to 14) (size 15 to 20)
#    0.000    2.750    1.250    3.000    0.000    3.500 
#    0.000    2.500    0.000    9.000    0.000    8.750 
#    0.000    0.000    0.000    0.000    0.000    0.000 
#
# Total GULP energy -396630.243798 kJ/mol
# GULP energy per Si atom -12394.695119 kJ/mol
# Density = 1.744567 g / cm^3
# Si number density = 17.485467 Si / 1000 Ang^3
#
#
#
# Elastic Constant Matrix: (Units=GPa)
#
#
# Indices 1 2 3 4 5 6 
#
# 1 125.8989 24.6479 82.2094 0.0000 -22.2006 0.0000
# 2 24.6479 25.9593 16.0786 0.0000 -6.2659 0.0000
# 3 82.2094 16.0786 135.6919 0.0000 -12.7155 0.0000
# 4 0.0000 0.0000 0.0000 8.8686 0.0000 -5.9405
# 5 -22.2006 -6.2659 -12.7155 0.0000 26.0771 0.0000
# 6 0.0000 0.0000 0.0000 -5.9405 0.0000 10.2325
#
#
#
# Elastic Compliance Matrix: (Units=1/GPa)
#
#
# Indices 1 2 3 4 5 6 
#
# 1 0.016317 -0.008555 -0.008135 0.000000 0.007869 0.000000
# 2 -0.008555 0.047693 -0.000081 0.000000 0.004137 0.000000
# 3 -0.008135 -0.000081 0.012215 0.000000 -0.000989 0.000000
# 4 0.000000 0.000000 0.000000 0.184510 0.000000 0.107118
# 5 0.007869 0.004137 -0.000989 0.000000 0.045559 0.000000
# 6 0.000000 0.000000 0.000000 0.107118 0.000000 0.159916
#
#
# Mechanical properties :
#
#
# Convention : Reuss Voigt Hill
#
# Bulk Modulus (GPa) = 23.42751 59.26908 41.34830
# Shear Modulus (GPa) = 9.72803 20.00992 14.86898
#
# Velocity S-wave (km/s) = 2.36127 3.38653 2.91926
# Velocity P-wave (km/s) = 4.56743 7.01863 5.92126
#
# Compressibility (1/GPa) = 0.04268486
#
# Stress axis : x y z
#
# Youngs Moduli (GPa) = 61.28520 20.96739 81.86686
#
# Poissons Ratio (x) = 0.17937 0.66596
# Poissons Ratio (y) = 0.52429 0.00659
# Poissons Ratio (z) = 0.49853 0.00169
#
# Static dielectric constant tensor:
#      x y z
#    x 3.571260 0.000000 -0.143530 
#    y 0.000000 2.907150 0.000000 
#    z -0.143530 0.000000 3.317260 
# 
# 
# High freq. dielectric constant tensor:
#      x y z
#    x 1.678040 0.000000 -0.023260 
#    y 0.000000 1.640940 0.000000 
#    z -0.023260 0.000000 1.657010 
# 
# From -- ./inp_files/52797.got.cif
#   From: 2010.06.25/outbox.cif.g09.slc.cpg/sg10_27_cif.got.tgz:52797.got - 2010.06.27 22:07:45.
