data_PCOD8057797
_publ_section_title
;
Structure prediction by ZEFSAII (Michael W. Deem and Ramdas Pophale) SiO2 
 PCOD8057797
Probable space group: P 2/M
;
_chemical_formula_sum "Si O2"
_cell_formula_units_Z 32
_cell_length_a 30.970883
_cell_length_b 9.057547
_cell_length_c 15.071610
_cell_angle_alpha 90.000000
_cell_angle_beta 28.757701
_cell_angle_gamma 90.000000
_cell_volume 2034.066510
_symmetry_space_group_name_H-M "P 2/M"
_symmetry_group_IT_number 10
_symmetry_cell_setting 'monoclinic'
loop_
_space_group_symop_operation_xyz
x,y,z
-x,y,-z
-x,-y,-z
x,-y,z
loop_
_atom_site_type_symbol
_atom_site_label
_atom_site_fract_x
_atom_site_fract_y
_atom_site_fract_z
Si Si1 0.110321 0.674704 0.208142
Si Si2 0.714515 0.174666 0.150438
Si Si3 0.574776 0.825482 0.544638
Si Si4 0.372574 0.826602 0.878201
Si Si5 0.912637 0.674120 0.551879
Si Si6 0.738389 0.324908 0.769419
Si Si7 0.366873 0.825588 0.183655
Si Si8 0.558631 0.825118 0.768854
O O1 0.124814 0.500000 0.175711
O O2 0.114550 0.734022 0.301880
O O3 0.013246 0.723704 0.343114
O O4 0.187675 0.754394 0.012697
O O5 0.650436 0.239839 0.343110
O O6 0.673232 0.222328 0.130679
O O7 0.722870 0.000000 0.142287
O O8 0.477046 0.783332 0.683488
O O9 0.588874 0.760603 0.618973
O O10 0.584904 0.000000 0.528666
O O11 0.360410 0.000000 0.919520
O O12 0.329991 0.736783 0.035057
O O13 0.912873 0.500000 0.560746
O O14 0.839693 0.727183 0.611257
O O15 0.730520 0.500000 0.781069
O O16 0.715803 0.258545 0.713544
O O17 0.371876 0.778539 0.278607
O O18 0.352850 0.000000 0.198387
O O19 0.458338 0.770652 0.971914
O O20 0.553839 0.000000 0.773848
#
# Coordination Sequence:
#
# PCOD8057797 Si02
#       8
#     4   4   4   4   4   4   4   4
#     4   9  16  31  48  60  81 116 150 178 211 262
#     4  10  19  28  43  68  91 113 147 187 218 243
#     4   9  16  28  45  63  87 121 153 176 206 253
#     4  10  18  29  43  61  89 123 153 175 201 251
#     4   8  16  29  46  62  81 115 151 174 209 269
#     4  11  19  28  44  67  90 114 143 180 221 259
#     4   9  16  28  46  66  85 111 149 182 213 257
#     4   8  14  26  46  65  83 114 152 180 203 254
#
# _framework density 15.732032999999999
#
# number of rings (size 3 to 8) (size 9 to 14) (size 15 to 20)
#    0.000    2.750    2.500    2.250    0.000    1.500 
#    0.000    4.375    0.000    1.500    0.000    0.875 
#    0.000    7.000    0.000    0.000    0.000    0.000 
#
# Total GULP energy -396606.248804 kJ/mol
# GULP energy per Si atom -12393.945275 kJ/mol
# Density = 1.569623 g / cm^3
# Si number density = 15.732033 Si / 1000 Ang^3
#
#
#
# Elastic Constant Matrix: (Units=GPa)
#
#
# Indices 1 2 3 4 5 6 
#
# 1 107.5903 23.2775 48.7095 0.0000 -13.4253 0.0000
# 2 23.2775 25.1656 19.3691 0.0000 -5.2607 0.0000
# 3 48.7095 19.3691 97.5614 0.0000 -14.1871 0.0000
# 4 0.0000 0.0000 0.0000 16.2888 0.0000 -6.8666
# 5 -13.4253 -5.2607 -14.1871 0.0000 23.7950 0.0000
# 6 0.0000 0.0000 0.0000 -6.8666 0.0000 17.2558
#
#
#
# Elastic Compliance Matrix: (Units=1/GPa)
#
#
# Indices 1 2 3 4 5 6 
#
# 1 0.013602 -0.008333 -0.004696 0.000000 0.003032 0.000000
# 2 -0.008333 0.052622 -0.005780 0.000000 0.003486 0.000000
# 3 -0.004696 -0.005780 0.014421 0.000000 0.004671 0.000000
# 4 0.000000 0.000000 0.000000 0.073766 0.000000 0.029354
# 5 0.003032 0.003486 0.004671 0.000000 0.047292 0.000000
# 6 0.000000 0.000000 0.000000 0.029354 0.000000 0.069632
#
#
# Mechanical properties :
#
#
# Convention : Reuss Voigt Hill
#
# Bulk Modulus (GPa) = 23.24083 45.89218 34.56651
# Shear Modulus (GPa) = 15.46574 20.73198 18.09886
#
# Velocity S-wave (km/s) = 3.13880 3.63412 3.39550
# Velocity P-wave (km/s) = 5.28593 6.84424 6.11493
#
# Compressibility (1/GPa) = 0.04302772
#
# Stress axis : x y z
#
# Youngs Moduli (GPa) = 73.52058 19.00340 69.34327
#
# Poissons Ratio (x) = 0.15836 0.32560
# Poissons Ratio (y) = 0.61267 0.40078
# Poissons Ratio (z) = 0.34522 0.10983
#
# Static dielectric constant tensor:
#      x y z
#    x 3.311890 0.000000 -0.039730 
#    y 0.000000 2.652330 0.000000 
#    z -0.039730 0.000000 3.085600 
# 
# 
# High freq. dielectric constant tensor:
#      x y z
#    x 1.602880 0.000000 -0.009780 
#    y 0.000000 1.570440 0.000000 
#    z -0.009780 0.000000 1.583580 
# 
# From -- ./inp_files/66008.got.cif
#   From: 2010.06.25/outbox.cif.g09.slc.cpg/sg10_34_cif.got.tgz:66008.got - 2010.06.27 22:07:45.
