data_PCOD8057360
_publ_section_title
;
Structure prediction by ZEFSAII (Michael W. Deem and Ramdas Pophale) SiO2 
 PCOD8057360
Probable space group: P 2/M
;
_chemical_formula_sum "Si O2"
_cell_formula_units_Z 32
_cell_length_a 16.796241
_cell_length_b 8.741932
_cell_length_c 16.546219
_cell_angle_alpha 90.000000
_cell_angle_beta 52.357166
_cell_angle_gamma 90.000000
_cell_volume 1923.765096
_symmetry_space_group_name_H-M "P 2/M"
_symmetry_group_IT_number 10
_symmetry_cell_setting 'monoclinic'
loop_
_space_group_symop_operation_xyz
x,y,z
-x,y,-z
-x,-y,-z
x,-y,z
loop_
_atom_site_type_symbol
_atom_site_label
_atom_site_fract_x
_atom_site_fract_y
_atom_site_fract_z
Si Si1 0.401030 0.179264 0.015300
Si Si2 0.544498 0.321620 0.178324
Si Si3 0.194580 0.682398 0.549786
Si Si4 0.673965 0.671437 0.675302
Si Si5 0.776408 0.671902 0.780661
Si Si6 0.353756 0.818995 0.552655
Si Si7 0.548296 0.679092 0.358599
Si Si8 0.990334 0.317846 0.597869
O O1 0.297159 0.222100 0.122734
O O2 0.411594 0.000000 0.007981
O O3 0.500000 0.249650 0.000000
O O4 0.390274 0.237460 0.930009
O O5 0.546041 0.500000 0.155636
O O6 0.432421 0.248016 0.241219
O O7 0.584466 0.291012 0.244213
O O8 0.198052 0.500000 0.556180
O O9 0.264222 0.749163 0.434777
O O10 0.240649 0.761832 0.601209
O O11 0.081857 0.736879 0.598528
O O12 0.646691 0.500000 0.663636
O O13 0.744237 0.670142 0.708380
O O14 0.773066 0.500000 0.818883
O O15 0.889844 0.738835 0.706908
O O16 0.434854 0.739822 0.442640
O O17 0.374805 0.768957 0.631605
O O18 0.362989 0.000000 0.539406
O O19 0.550098 0.500000 0.378407
O O20 0.987511 0.500000 0.592601
O O21 0.000000 0.251555 0.500000
#
# Coordination Sequence:
#
# PCOD8057360 Si02
#       8
#     4   4   4   4   4   4   4   4
#     4  11  23  34  45  67  99 134 167 200 240 287
#     4  10  19  32  51  73  92 124 168 205 243 287
#     4  10  17  30  49  72 100 131 167 204 243 287
#     4   9  15  25  46  71  95 125 162 201 239 278
#     4  10  18  31  50  71  96 128 167 208 244 281
#     4  11  21  31  45  70 103 135 164 194 238 295
#     4  10  19  33  52  72  95 125 163 206 251 291
#     4   9  16  27  50  78  98 122 165 214 249 280
#
# _framework density 16.634046000000001
#
# number of rings (size 3 to 8) (size 9 to 14) (size 15 to 20)
#    0.000    2.000    3.750    2.625    0.000    1.500 
#    0.000    1.250    0.000    0.750    0.000    0.875 
#    0.000    7.000    0.000    0.000    0.000    0.000 
#
# Total GULP energy -396617.299891 kJ/mol
# GULP energy per Si atom -12394.290622 kJ/mol
# Density = 1.659619 g / cm^3
# Si number density = 16.634046 Si / 1000 Ang^3
#
#
#
# Elastic Constant Matrix: (Units=GPa)
#
#
# Indices 1 2 3 4 5 6 
#
# 1 112.4733 26.7677 47.2961 0.0000 -9.0475 0.0000
# 2 26.7677 54.0469 25.2481 0.0000 2.3118 0.0000
# 3 47.2961 25.2481 90.5666 0.0000 -3.7647 0.0000
# 4 0.0000 0.0000 0.0000 8.6827 0.0000 -1.6854
# 5 -9.0475 2.3118 -3.7647 0.0000 24.2428 0.0000
# 6 0.0000 0.0000 0.0000 -1.6854 0.0000 12.9209
#
#
#
# Elastic Compliance Matrix: (Units=1/GPa)
#
#
# Indices 1 2 3 4 5 6 
#
# 1 0.012326 -0.003859 -0.005188 0.000000 0.004162 0.000000
# 2 -0.003859 0.022695 -0.004491 0.000000 -0.004302 0.000000
# 3 -0.005188 -0.004491 0.015037 0.000000 0.000827 0.000000
# 4 0.000000 0.000000 0.000000 0.118164 0.000000 0.015413
# 5 0.004162 -0.004302 0.000827 0.000000 0.043341 0.000000
# 6 0.000000 0.000000 0.000000 0.015413 0.000000 0.079405
#
#
# Mechanical properties :
#
#
# Convention : Reuss Voigt Hill
#
# Bulk Modulus (GPa) = 43.50991 50.63448 47.07219
# Shear Modulus (GPa) = 15.35131 19.68760 17.51946
#
# Velocity S-wave (km/s) = 3.04120 3.44404 3.24887
# Velocity P-wave (km/s) = 6.20852 6.80600 6.51411
#
# Compressibility (1/GPa) = 0.02298327
#
# Stress axis : x y z
#
# Youngs Moduli (GPa) = 81.13021 44.06164 66.50193
#
# Poissons Ratio (x) = 0.17004 0.34501
# Poissons Ratio (y) = 0.31309 0.29863
# Poissons Ratio (z) = 0.42090 0.19786
#
# Static dielectric constant tensor:
#      x y z
#    x 3.227090 0.000000 -0.020540 
#    y 0.000000 2.858580 0.000000 
#    z -0.020540 0.000000 3.020290 
# 
# 
# High freq. dielectric constant tensor:
#      x y z
#    x 1.635860 0.000000 0.005030 
#    y 0.000000 1.616690 0.000000 
#    z 0.005030 0.000000 1.617490 
# 
# From -- ./inp_files/78519.got.cif
#   From: 2010.06.25/outbox.cif.g09.slc.cpg/sg10_40_cif.got.tgz:78519.got - 2010.06.27 22:07:45.
