data_PCOD8057269
_publ_section_title
;
Structure prediction by ZEFSAII (Michael W. Deem and Ramdas Pophale) SiO2 
 PCOD8057269
Probable space group: P 2/M
;
_chemical_formula_sum "Si O2"
_cell_formula_units_Z 28
_cell_length_a 9.998261
_cell_length_b 12.515528
_cell_length_c 15.488911
_cell_angle_alpha 90.000000
_cell_angle_beta 62.049610
_cell_angle_gamma 90.000000
_cell_volume 1712.100250
_symmetry_space_group_name_H-M "P 2/M"
_symmetry_group_IT_number 10
_symmetry_cell_setting 'monoclinic'
loop_
_space_group_symop_operation_xyz
x,y,z
-x,y,-z
-x,-y,-z
x,-y,z
loop_
_atom_site_type_symbol
_atom_site_label
_atom_site_fract_x
_atom_site_fract_y
_atom_site_fract_z
Si Si1 0.288511 0.713825 0.216731
Si Si2 0.349590 0.500000 0.917814
Si Si3 0.334367 0.879439 0.068916
Si Si4 0.164713 0.621780 0.414841
Si Si5 0.307110 0.500000 0.121103
Si Si6 0.828112 0.878136 0.062120
Si Si7 0.471253 0.623892 0.412358
Si Si8 0.385364 0.295752 0.802630
O O1 0.247617 0.814897 0.170060
O O2 0.188482 0.709381 0.333160
O O3 0.239713 0.608111 0.179874
O O4 0.463625 0.726212 0.188917
O O5 0.519080 0.500000 0.902543
O O6 0.309098 0.398800 0.870345
O O7 0.257888 0.500000 0.035176
O O8 0.352952 0.000000 0.096944
O O9 0.500000 0.828973 0.000000
O O10 0.237971 0.871558 0.012817
O O11 0.180023 0.500000 0.374484
O O12 0.292603 0.639350 0.448693
O O13 0.000000 0.644460 0.500000
O O14 0.731622 0.803144 0.155920
O O15 0.821084 0.000000 0.099895
O O16 0.000000 0.838065 0.000000
O O17 0.500000 0.669421 0.500000
O O18 0.517896 0.500000 0.392730
O O19 0.573823 0.685181 0.310442
#
# Coordination Sequence:
#
# PCOD8057269 Si02
#       8
#     4   2   4   4   2   4   4   4
#     4  10  17  28  48  75  98 129 163 200 241 283
#     4   9  16  24  42  68 100 128 153 192 239 282
#     4  10  19  32  51  75  98 124 165 206 234 282
#     4   9  17  31  48  70 100 128 161 201 242 289
#     4   9  16  22  39  72 102 126 155 187 236 291
#     4  10  21  36  51  70  99 134 165 197 244 293
#     4   9  17  31  51  70  93 129 168 201 237 287
#     4  10  17  30  50  71  97 130 165 200 239 289
#
# _framework density 16.354182999999999
#
# number of rings (size 3 to 8) (size 9 to 14) (size 15 to 20)
#    0.000    2.429    2.857    0.857    2.000    0.000 
#    2.571    0.357    0.000    0.857    0.000    0.000 
#    0.000    0.000    0.000    0.000    0.000    0.000 
#
# Total GULP energy -347017.482374 kJ/mol
# GULP energy per Si atom -12393.481513 kJ/mol
# Density = 1.631696 g / cm^3
# Si number density = 16.354183 Si / 1000 Ang^3
#
#
#
# Elastic Constant Matrix: (Units=GPa)
#
#
# Indices 1 2 3 4 5 6 
#
# 1 66.3190 28.7036 48.3510 0.0000 -8.4894 0.0000
# 2 28.7036 79.7784 54.5408 0.0000 -3.5180 0.0000
# 3 48.3510 54.5408 113.0349 0.0000 5.3040 0.0000
# 4 0.0000 0.0000 0.0000 22.3934 0.0000 2.2002
# 5 -8.4894 -3.5180 5.3040 0.0000 24.4128 0.0000
# 6 0.0000 0.0000 0.0000 2.2002 0.0000 19.7153
#
#
#
# Elastic Compliance Matrix: (Units=1/GPa)
#
#
# Indices 1 2 3 4 5 6 
#
# 1 0.024564 -0.001262 -0.010397 0.000000 0.010619 0.000000
# 2 -0.001262 0.019320 -0.008984 0.000000 0.004297 0.000000
# 3 -0.010397 -0.008984 0.018043 0.000000 -0.008830 0.000000
# 4 0.000000 0.000000 0.000000 0.045151 0.000000 -0.005039
# 5 0.010619 0.004297 -0.008830 0.000000 0.047192 0.000000
# 6 0.000000 0.000000 0.000000 -0.005039 0.000000 0.051284
#
#
# Mechanical properties :
#
#
# Convention : Reuss Voigt Hill
#
# Bulk Modulus (GPa) = 48.44464 58.03590 53.24027
# Shear Modulus (GPa) = 19.70663 21.80677 20.75670
#
# Velocity S-wave (km/s) = 3.47506 3.65555 3.56645
# Velocity P-wave (km/s) = 6.76668 7.30625 7.04163
#
# Compressibility (1/GPa) = 0.02064212
#
# Stress axis : x y z
#
# Youngs Moduli (GPa) = 40.70991 51.75912 55.42206
#
# Poissons Ratio (x) = 0.06532 0.57621
# Poissons Ratio (y) = 0.05137 0.49792
# Poissons Ratio (z) = 0.42325 0.46501
#
# Static dielectric constant tensor:
#      x y z
#    x 2.596010 0.000000 0.168630 
#    y 0.000000 3.085590 0.000000 
#    z 0.168630 0.000000 3.042370 
# 
# 
# High freq. dielectric constant tensor:
#      x y z
#    x 1.607160 0.000000 0.009280 
#    y 0.000000 1.613630 0.000000 
#    z 0.009280 0.000000 1.622860 
# 
# From -- ./inp_files/46177.got.cif
#   From: 2010.06.25/outbox.cif.g09.slc.cpg/sg10_24_cif.got.tgz:46177.got - 2010.06.27 22:07:45.
