data_PCOD8057723
_publ_section_title
;
Structure prediction by ZEFSAII (Michael W. Deem and Ramdas Pophale) SiO2 
 PCOD8057723
Probable space group: P 2/M
;
_chemical_formula_sum "Si O2"
_cell_formula_units_Z 32
_cell_length_a 14.057176
_cell_length_b 9.396247
_cell_length_c 14.665143
_cell_angle_alpha 90.000000
_cell_angle_beta 72.044460
_cell_angle_gamma 90.000000
_cell_volume 1842.699374
_symmetry_space_group_name_H-M "P 2/M"
_symmetry_group_IT_number 10
_symmetry_cell_setting 'monoclinic'
loop_
_space_group_symop_operation_xyz
x,y,z
-x,y,-z
-x,-y,-z
x,-y,z
loop_
_atom_site_type_symbol
_atom_site_label
_atom_site_fract_x
_atom_site_fract_y
_atom_site_fract_z
Si Si1 0.688532 0.169724 0.734378
Si Si2 0.779388 0.337822 0.198323
Si Si3 0.170237 0.837092 0.153358
Si Si4 0.399584 0.168593 0.422240
Si Si5 0.002798 0.662501 0.103082
Si Si6 0.493608 0.836323 0.100094
Si Si7 0.625059 0.168848 0.367054
Si Si8 0.283433 0.158134 0.941206
O O1 0.788147 0.218887 0.760197
O O2 0.678694 0.223976 0.632314
O O3 0.590837 0.235518 0.812738
O O4 0.685083 0.000000 0.736623
O O5 0.741733 0.500000 0.212331
O O6 0.896715 0.327089 0.186706
O O7 0.711913 0.244826 0.285077
O O8 0.774442 0.278675 0.096846
O O9 0.077117 0.747287 0.146509
O O10 0.134647 0.000000 0.172288
O O11 0.262353 0.822794 0.055029
O O12 0.514037 0.217846 0.367774
O O13 0.361543 0.220140 0.531983
O O14 0.403352 0.000000 0.422294
O O15 0.039886 0.500000 0.086157
O O16 0.000000 0.724897 0.000000
O O17 0.600258 0.823777 0.117619
O O18 0.462736 0.000000 0.093620
O O19 0.500000 0.759089 0.000000
O O20 0.639277 0.000000 0.351795
O O21 0.247942 0.000000 0.921179
#
# Coordination Sequence:
#
# PCOD8057723 Si02
#       8
#     4   4   4   4   4   4   4   4
#     4   9  15  25  43  71 104 133 158 191 237 289
#     4  11  22  34  50  70  94 128 166 206 253 297
#     4  10  19  29  47  74  98 123 163 207 240 277
#     4   8  15  29  52  79 107 133 158 192 240 297
#     4  10  21  37  51  64  91 133 171 203 250 303
#     4   9  14  22  39  67 101 130 154 183 223 276
#     4   9  17  32  54  80 102 127 164 202 241 286
#     4  10  18  28  45  71  99 128 161 197 235 284
#
# _framework density 17.365828
#
# number of rings (size 3 to 8) (size 9 to 14) (size 15 to 20)
#    0.000    2.500    2.500    1.875    0.000    3.250 
#    0.000    1.250    0.000    4.875    0.000    5.250 
#    0.000    0.000    0.000    0.000    0.000    0.000 
#
# Total GULP energy -396501.386131 kJ/mol
# GULP energy per Si atom -12390.668317 kJ/mol
# Density = 1.732630 g / cm^3
# Si number density = 17.365828 Si / 1000 Ang^3
#
#
#
# Elastic Constant Matrix: (Units=GPa)
#
#
# Indices 1 2 3 4 5 6 
#
# 1 93.6776 37.5708 46.5361 0.0000 20.7327 0.0000
# 2 37.5708 50.1543 27.9417 0.0000 5.4887 0.0000
# 3 46.5361 27.9417 84.9947 0.0000 20.4067 0.0000
# 4 0.0000 0.0000 0.0000 8.1083 0.0000 -10.3442
# 5 20.7327 5.4887 20.4067 0.0000 33.4337 0.0000
# 6 0.0000 0.0000 0.0000 -10.3442 0.0000 7.3937
#
#
#
# Elastic Compliance Matrix: (Units=1/GPa)
#
#
# Indices 1 2 3 4 5 6 
#
# 1 0.019076 -0.010574 -0.005325 0.000000 -0.006843 0.000000
# 2 -0.010574 0.030301 -0.005334 0.000000 0.004838 0.000000
# 3 -0.005325 -0.005334 0.018081 0.000000 -0.006858 0.000000
# 4 0.000000 0.000000 0.000000 -0.157140 0.000000 -0.219848
# 5 -0.006843 0.004838 -0.006858 0.000000 0.037545 0.000000
# 6 0.000000 0.000000 0.000000 -0.219848 0.000000 -0.172329
#
#
# Mechanical properties :
#
#
# Convention : Reuss Voigt Hill
#
# Bulk Modulus (GPa) = 40.01187 50.32488 45.16837
# Shear Modulus (GPa) = -28.79039 17.57234 -5.60902
#
# Velocity S-wave (km/s) = -4.07612 3.18448 -1.79915
# Velocity P-wave (km/s) = 0.96829 6.52406 4.66374
#
# Compressibility (1/GPa) = 0.02499259
#
# Stress axis : x y z
#
# Youngs Moduli (GPa) = 52.42296 33.00167 55.30647
#
# Poissons Ratio (x) = 0.34896 0.29451
# Poissons Ratio (y) = 0.55432 0.29498
# Poissons Ratio (z) = 0.27916 0.17602
#
# Static dielectric constant tensor:
#      x y z
#    x 3.214360 0.000000 0.191920 
#    y 0.000000 2.831740 0.000000 
#    z 0.191920 0.000000 3.420220 
# 
# 
# High freq. dielectric constant tensor:
#      x y z
#    x 1.665650 0.000000 0.009700 
#    y 0.000000 1.622750 0.000000 
#    z 0.009700 0.000000 1.663040 
# 
# From -- ./inp_files/66019.got.cif
#   From: 2010.06.25/outbox.cif.g09.slc.cpg/sg10_34_cif.got.tgz:66019.got - 2010.06.27 22:07:45.
