data_PCOD8057654
_publ_section_title
;
Structure prediction by ZEFSAII (Michael W. Deem and Ramdas Pophale) SiO2 
 PCOD8057654
Probable space group: P 2/M
;
_chemical_formula_sum "Si O2"
_cell_formula_units_Z 32
_cell_length_a 30.611321
_cell_length_b 13.813000
_cell_length_c 15.456405
_cell_angle_alpha 90.000000
_cell_angle_beta 19.087541
_cell_angle_gamma 90.000000
_cell_volume 2137.188402
_symmetry_space_group_name_H-M "P 2/M"
_symmetry_group_IT_number 10
_symmetry_cell_setting 'monoclinic'
loop_
_space_group_symop_operation_xyz
x,y,z
-x,y,-z
-x,-y,-z
x,-y,z
loop_
_atom_site_type_symbol
_atom_site_label
_atom_site_fract_x
_atom_site_fract_y
_atom_site_fract_z
Si Si1 0.652420 0.700320 0.232726
Si Si2 0.825299 0.608524 0.253366
Si Si3 0.862229 0.609686 0.367469
Si Si4 0.786935 0.891732 0.935303
Si Si5 0.209680 0.616384 0.866182
Si Si6 0.061233 0.107880 0.521568
Si Si7 0.864148 0.613099 0.711355
Si Si8 0.916829 0.300972 0.436739
O O1 0.500000 0.675734 0.500000
O O2 0.684036 0.669289 0.271835
O O3 0.677562 0.814410 0.170827
O O4 0.741257 0.635199 0.003510
O O5 0.773734 0.500000 0.361304
O O6 0.796439 0.656784 0.402273
O O7 0.755191 0.652349 0.298433
O O8 0.980901 0.608382 0.941272
O O9 0.811184 0.500000 0.479020
O O10 0.832180 0.673417 0.508795
O O11 0.830266 0.869494 0.755857
O O12 0.914267 0.882911 0.758130
O O13 0.725886 0.000000 0.056338
O O14 0.217919 0.500000 0.858937
O O15 0.060891 0.648332 0.170406
O O16 0.074185 0.184338 0.575395
O O17 0.084169 0.000000 0.516124
O O18 0.878764 0.500000 0.669553
O O19 0.836816 0.662251 0.670234
O O20 0.000000 0.655808 0.500000
#
# Coordination Sequence:
#
# PCOD8057654 Si02
#       8
#     4   4   4   4   4   4   4   4
#     4  12  23  32  43  65  94 122 149 183 221 264
#     4   7  12  23  37  56  85 114 145 179 212 248
#     4   8  13  21  36  63  90 109 136 182 221 248
#     4   9  17  32  47  61  82 113 152 189 220 254
#     4  10  18  28  43  62  87 124 155 176 208 259
#     4   9  16  27  47  67  84 110 146 186 224 261
#     4  11  20  30  44  62  89 124 154 176 207 259
#     4  11  16  25  45  67  87 110 147 186 217 260
#
# _framework density 14.972943000000001
#
# number of rings (size 3 to 8) (size 9 to 14) (size 15 to 20)
#    0.000    2.375    3.750    3.750    0.000    1.250 
#    0.000    0.000    0.000    0.000    0.000    8.750 
#    0.000    4.000    0.000    2.750    0.000    0.000 
#
# Total GULP energy -396457.928840 kJ/mol
# GULP energy per Si atom -12389.310276 kJ/mol
# Density = 1.493886 g / cm^3
# Si number density = 14.972943 Si / 1000 Ang^3
#
#
#
# Elastic Constant Matrix: (Units=GPa)
#
#
# Indices 1 2 3 4 5 6 
#
# 1 123.6391 37.5028 30.0850 0.0000 16.8777 0.0000
# 2 37.5028 74.6519 14.0536 0.0000 7.1053 0.0000
# 3 30.0850 14.0536 44.0456 0.0000 -2.9002 0.0000
# 4 0.0000 0.0000 0.0000 10.0442 0.0000 2.7586
# 5 16.8777 7.1053 -2.9002 0.0000 15.3415 0.0000
# 6 0.0000 0.0000 0.0000 2.7586 0.0000 11.3226
#
#
#
# Elastic Compliance Matrix: (Units=1/GPa)
#
#
# Indices 1 2 3 4 5 6 
#
# 1 0.013378 -0.003635 -0.008948 0.000000 -0.014726 0.000000
# 2 -0.003635 0.016159 -0.002939 0.000000 -0.004041 0.000000
# 3 -0.008948 -0.002939 0.030875 0.000000 0.017042 0.000000
# 4 0.000000 0.000000 0.000000 0.106700 0.000000 -0.025996
# 5 -0.014726 -0.004041 0.017042 0.000000 0.086476 0.000000
# 6 0.000000 0.000000 0.000000 -0.025996 0.000000 0.094652
#
#
# Mechanical properties :
#
#
# Convention : Reuss Voigt Hill
#
# Bulk Modulus (GPa) = 34.04915 45.06882 39.55898
# Shear Modulus (GPa) = 12.85103 18.05467 15.45285
#
# Velocity S-wave (km/s) = 2.93283 3.47626 3.21604
# Velocity P-wave (km/s) = 5.85307 6.80279 6.34573
#
# Compressibility (1/GPa) = 0.02936931
#
# Stress axis : x y z
#
# Youngs Moduli (GPa) = 74.75014 61.88325 32.38836
#
# Poissons Ratio (x) = 0.22492 0.28980
# Poissons Ratio (y) = 0.27169 0.09520
# Poissons Ratio (z) = 0.66883 0.18190
#
# Static dielectric constant tensor:
#      x y z
#    x 3.309610 0.000000 0.231890 
#    y 0.000000 3.002570 0.000000 
#    z 0.231890 0.000000 2.459280 
# 
# 
# High freq. dielectric constant tensor:
#      x y z
#    x 1.569710 0.000000 0.019740 
#    y 0.000000 1.562310 0.000000 
#    z 0.019740 0.000000 1.523330 
# 
# From -- ./inp_files/29053.got.cif
#   From: 2010.06.25/outbox.cif.g09.slc.cpg/sg10_15_cif.got.tgz:29053.got - 2010.06.27 22:07:45.
