data_PCOD8057267
_publ_section_title
;
Structure prediction by ZEFSAII (Michael W. Deem and Ramdas Pophale) SiO2 
 PCOD8057267
Probable space group: P 2/M
;
_chemical_formula_sum "Si O2"
_cell_formula_units_Z 24
_cell_length_a 16.526168
_cell_length_b 13.875577
_cell_length_c 9.133301
_cell_angle_alpha 90.000000
_cell_angle_beta 145.323430
_cell_angle_gamma 90.000000
_cell_volume 1191.571082
_symmetry_space_group_name_H-M "P 2/M"
_symmetry_group_IT_number 10
_symmetry_cell_setting 'monoclinic'
loop_
_space_group_symop_operation_xyz
x,y,z
-x,y,-z
-x,-y,-z
x,-y,z
loop_
_atom_site_type_symbol
_atom_site_label
_atom_site_fract_x
_atom_site_fract_y
_atom_site_fract_z
Si Si1 0.323958 0.108939 0.020710
Si Si2 0.348883 0.295797 0.233660
Si Si3 0.835250 0.389206 0.288901
Si Si4 0.843534 0.226795 0.807635
Si Si5 0.221477 0.783489 0.608814
Si Si6 0.052298 0.896032 0.794415
O O1 0.332209 0.150094 0.866088
O O2 0.157697 0.102022 0.813739
O O3 0.392165 0.000000 0.133902
O O4 0.388509 0.188667 0.227621
O O5 0.500000 0.343704 0.500000
O O6 0.249576 0.296642 0.229751
O O7 0.263119 0.361585 0.994101
O O8 0.812405 0.500000 0.295975
O O9 0.775966 0.327866 0.337987
O O10 0.000000 0.367381 0.500000
O O11 0.750334 0.206074 0.522689
O O12 0.865817 0.127868 0.931412
O O13 0.000000 0.271375 0.000000
O O14 0.061923 0.815433 0.407937
O O15 0.979120 0.000000 0.705552
#
# Coordination Sequence:
#
# PCOD8057267 Si02
#       6
#     4   4   4   4   4   4
#     4   9  17  29  47  72 104 144 181 211 255 318
#     4  10  21  38  58  79 107 144 182 219 263 319
#     4  10  20  36  58  81 106 140 181 222 267 323
#     4   9  18  31  51  78 110 141 176 220 268 313
#     4  10  17  28  48  74 106 136 173 223 270 309
#     4   9  16  26  45  75 109 143 179 217 257 308
#
# _framework density 20.141475
#
# number of rings (size 3 to 8) (size 9 to 14) (size 15 to 20)
#    0.000    2.500    0.000    5.000    0.000    5.667 
#    0.000    4.167    0.000    9.000    0.000    0.000 
#    0.000    0.000    0.000    0.000    0.000    0.000 
#
# Total GULP energy -297317.244016 kJ/mol
# GULP energy per Si atom -12388.218501 kJ/mol
# Density = 2.009563 g / cm^3
# Si number density = 20.141475 Si / 1000 Ang^3
#
#
#
# Elastic Constant Matrix: (Units=GPa)
#
#
# Indices 1 2 3 4 5 6 
#
# 1 72.2460 12.9714 29.9941 0.0000 -26.4572 0.0000
# 2 12.9714 96.1957 20.6321 0.0000 -9.1735 0.0000
# 3 29.9941 20.6321 94.0294 0.0000 -11.7471 0.0000
# 4 0.0000 0.0000 0.0000 9.6713 0.0000 -4.9002
# 5 -26.4572 -9.1735 -11.7471 0.0000 35.8326 0.0000
# 6 0.0000 0.0000 0.0000 -4.9002 0.0000 8.0204
#
#
#
# Elastic Compliance Matrix: (Units=1/GPa)
#
#
# Indices 1 2 3 4 5 6 
#
# 1 0.020997 -0.000472 -0.004872 0.000000 0.013786 0.000000
# 2 -0.000472 0.011072 -0.002052 0.000000 0.001813 0.000000
# 3 -0.004872 -0.002052 0.012642 0.000000 0.000022 0.000000
# 4 0.000000 0.000000 0.000000 0.149758 0.000000 0.091497
# 5 0.013786 0.001813 0.000022 0.000000 0.038557 0.000000
# 6 0.000000 0.000000 0.000000 0.091497 0.000000 0.180583
#
#
# Mechanical properties :
#
#
# Convention : Reuss Voigt Hill
#
# Bulk Modulus (GPa) = 33.42345 43.29626 38.35986
# Shear Modulus (GPa) = 11.40573 23.96310 17.68442
#
# Velocity S-wave (km/s) = 2.38225 3.45300 2.96634
# Velocity P-wave (km/s) = 4.91906 6.11885 5.55147
#
# Compressibility (1/GPa) = 0.02991911
#
# Stress axis : x y z
#
# Youngs Moduli (GPa) = 47.62486 90.31605 79.10027
#
# Poissons Ratio (x) = 0.04261 0.38539
# Poissons Ratio (y) = 0.02247 0.16235
# Poissons Ratio (z) = 0.23204 0.18537
#
# Static dielectric constant tensor:
#      x y z
#    x 3.519360 0.000000 -0.322530 
#    y 0.000000 3.570750 0.000000 
#    z -0.322530 0.000000 3.615600 
# 
# 
# High freq. dielectric constant tensor:
#      x y z
#    x 1.766080 0.000000 -0.027780 
#    y 0.000000 1.759460 0.000000 
#    z -0.027780 0.000000 1.781000 
# 
# From -- ./inp_files/29686.got.cif
#   From: 2010.06.25/outbox.cif.g09.slc.cpg/sg10_15_cif.got.tgz:29686.got - 2010.06.27 22:07:45.
