data_PCOD8057157
_publ_section_title
;
Structure prediction by ZEFSAII (Michael W. Deem and Ramdas Pophale) SiO2 
 PCOD8057157
Probable space group: P 2/M
;
_chemical_formula_sum "Si O2"
_cell_formula_units_Z 28
_cell_length_a 16.638007
_cell_length_b 8.445941
_cell_length_c 18.589870
_cell_angle_alpha 90.000000
_cell_angle_beta 142.431023
_cell_angle_gamma 90.000000
_cell_volume 1592.771045
_symmetry_space_group_name_H-M "P 2/M"
_symmetry_group_IT_number 10
_symmetry_cell_setting 'monoclinic'
loop_
_space_group_symop_operation_xyz
x,y,z
-x,y,-z
-x,-y,-z
x,-y,z
loop_
_atom_site_type_symbol
_atom_site_label
_atom_site_fract_x
_atom_site_fract_y
_atom_site_fract_z
Si Si1 0.828857 0.815387 0.921707
Si Si2 0.001682 0.183899 0.768525
Si Si3 0.515219 0.688851 0.091580
Si Si4 0.273457 0.313965 0.015253
Si Si5 0.101341 0.315985 0.168227
Si Si6 0.796143 0.312527 0.338615
Si Si7 0.966675 0.687419 0.591127
O O1 0.715203 0.771493 0.898428
O O2 0.795992 0.763673 0.816091
O O3 0.862519 0.000000 0.948590
O O4 0.953907 0.713205 0.035462
O O5 0.889399 0.237488 0.746197
O O6 0.945085 0.221191 0.650001
O O7 0.031136 0.000000 0.799313
O O8 0.137712 0.277367 0.877688
O O9 0.517079 0.500000 0.092156
O O10 0.393912 0.751761 0.053085
O O11 0.651058 0.757518 0.221206
O O12 0.500000 0.754501 0.000000
O O13 0.285569 0.500000 0.035850
O O14 0.133339 0.500000 0.196981
O O15 0.793540 0.500000 0.334044
O O16 0.847934 0.260257 0.453886
O O17 0.895867 0.255697 0.346932
O O18 0.966504 0.500000 0.604966
#
# Coordination Sequence:
#
# PCOD8057157 Si02
#       7
#     4   4   4   4   4   4   4
#     4  10  17  27  41  60  90 121 148 180 223 269
#     4  11  20  29  42  64  94 122 150 185 228 270
#     4   9  16  26  44  70  95 117 148 190 227 259
#     4  10  18  28  44  65  90 122 157 187 220 266
#     4  10  17  27  43  63  87 115 150 185 221 267
#     4   8  15  28  47  70  91 115 150 191 229 263
#     4   9  16  29  49  68  88 116 152 190 227 268
#
# _framework density 17.579426000000002
#
# number of rings (size 3 to 8) (size 9 to 14) (size 15 to 20)
#    0.000    2.429    0.000    8.571    0.000    2.286 
#    0.000    1.429    0.000    9.429    0.000    1.000 
#    0.000    8.000    0.000    0.000    0.000    0.000 
#
# Total GULP energy -347058.983158 kJ/mol
# GULP energy per Si atom -12394.963684 kJ/mol
# Density = 1.753941 g / cm^3
# Si number density = 17.579426 Si / 1000 Ang^3
#
#
#
# Elastic Constant Matrix: (Units=GPa)
#
#
# Indices 1 2 3 4 5 6 
#
# 1 164.9119 28.2326 62.0864 0.0000 -27.5909 0.0000
# 2 28.2326 52.5227 11.2820 0.0000 -7.1805 0.0000
# 3 62.0864 11.2820 85.0085 0.0000 -12.2938 0.0000
# 4 0.0000 0.0000 0.0000 5.2278 0.0000 -4.1556
# 5 -27.5909 -7.1805 -12.2938 0.0000 28.3316 0.0000
# 6 0.0000 0.0000 0.0000 -4.1556 0.0000 7.5076
#
#
#
# Elastic Compliance Matrix: (Units=1/GPa)
#
#
# Indices 1 2 3 4 5 6 
#
# 1 0.009870 -0.003187 -0.005881 0.000000 0.006252 0.000000
# 2 -0.003187 0.021083 -0.000156 0.000000 0.002172 0.000000
# 3 -0.005881 -0.000156 0.016266 0.000000 0.001291 0.000000
# 4 0.000000 0.000000 0.000000 0.341577 0.000000 0.189068
# 5 0.006252 0.002172 0.001291 0.000000 0.042495 0.000000
# 6 0.000000 0.000000 0.000000 0.189068 0.000000 0.237851
#
#
# Mechanical properties :
#
#
# Convention : Reuss Voigt Hill
#
# Bulk Modulus (GPa) = 34.75863 56.18278 45.47071
# Shear Modulus (GPa) = 7.17173 21.60286 14.38730
#
# Velocity S-wave (km/s) = 2.02200 3.50933 2.86390
# Velocity P-wave (km/s) = 5.02659 6.96055 6.07107
#
# Compressibility (1/GPa) = 0.02876983
#
# Stress axis : x y z
#
# Youngs Moduli (GPa) = 101.32094 47.43141 61.47649
#
# Poissons Ratio (x) = 0.15117 0.36156
# Poissons Ratio (y) = 0.32293 0.00960
# Poissons Ratio (z) = 0.59589 0.00741
#
# Static dielectric constant tensor:
#      x y z
#    x 3.908640 0.000000 -0.229960 
#    y 0.000000 2.980180 0.000000 
#    z -0.229960 0.000000 3.115060 
# 
# 
# High freq. dielectric constant tensor:
#      x y z
#    x 1.693080 0.000000 -0.028080 
#    y 0.000000 1.663510 0.000000 
#    z -0.028080 0.000000 1.629580 
# 
# From -- ./inp_files/77776.got.cif
#   From: 2010.06.25/outbox.cif.g09.slc.cpg/sg10_39_cif.got.tgz:77776.got - 2010.06.27 22:07:45.
