data_PCOD8057798
_publ_section_title
;
Structure prediction by ZEFSAII (Michael W. Deem and Ramdas Pophale) SiO2 
 PCOD8057798
Probable space group: P 2/M
;
_chemical_formula_sum "Si O2"
_cell_formula_units_Z 32
_cell_length_a 26.264296
_cell_length_b 12.805662
_cell_length_c 7.922215
_cell_angle_alpha 90.000000
_cell_angle_beta 45.568894
_cell_angle_gamma 90.000000
_cell_volume 1902.694367
_symmetry_space_group_name_H-M "P 2/M"
_symmetry_group_IT_number 10
_symmetry_cell_setting 'monoclinic'
loop_
_space_group_symop_operation_xyz
x,y,z
-x,y,-z
-x,-y,-z
x,-y,z
loop_
_atom_site_type_symbol
_atom_site_label
_atom_site_fract_x
_atom_site_fract_y
_atom_site_fract_z
Si Si1 0.920194 0.875995 0.191665
Si Si2 0.537152 0.885445 0.738265
Si Si3 0.552561 0.727142 0.253201
Si Si4 0.673053 0.122447 0.955754
Si Si5 0.178418 0.876588 0.889572
Si Si6 0.172444 0.122800 0.285163
Si Si7 0.671518 0.189821 0.571931
Si Si8 0.418683 0.618649 0.136471
O O1 0.880546 0.842855 0.110736
O O2 0.881540 0.829191 0.449235
O O3 0.922576 0.000000 0.198144
O O4 0.000000 0.829608 0.000000
O O5 0.508284 0.802294 0.677406
O O6 0.622627 0.881084 0.564488
O O7 0.515589 0.000000 0.724122
O O8 0.500000 0.857810 0.000000
O O9 0.500000 0.663014 0.500000
O O10 0.614341 0.803877 0.183017
O O11 0.587316 0.642864 0.048531
O O12 0.748171 0.160832 0.856012
O O13 0.669977 0.142089 0.762841
O O14 0.658830 0.000000 0.026315
O O15 0.249084 0.810693 0.685274
O O16 0.195499 0.000000 0.837337
O O17 0.151514 0.846349 0.141094
O O18 0.169368 0.000000 0.314222
O O19 0.638041 0.306655 0.638907
O O20 0.396351 0.500000 0.226181
O O21 0.500000 0.641504 0.000000
#
# Coordination Sequence:
#
# PCOD8057798 Si02
#       8
#     4   4   4   4   4   4   4   4
#     4   9  17  30  46  65  94 133 170 196 221 263
#     4  11  19  29  43  64  90 120 158 195 230 283
#     4  11  22  32  43  66  94 124 161 198 248 287
#     4  10  18  29  43  61  93 128 157 195 236 285
#     4  10  19  29  46  69  97 130 159 193 235 283
#     4   9  18  29  41  65  95 130 167 194 228 269
#     4  11  18  31  48  67  84 120 158 197 251 289
#     4  10  20  37  54  65  82 115 163 211 252 293
#
# _framework density 16.818255000000001
#
# number of rings (size 3 to 8) (size 9 to 14) (size 15 to 20)
#    0.000    1.875    5.000    1.500    1.750    1.750 
#    0.000    2.500    0.000    0.000    0.000    0.000 
#    0.000    0.500    0.000    1.250    0.000    0.625 
#
# Total GULP energy -396523.070171 kJ/mol
# GULP energy per Si atom -12391.345943 kJ/mol
# Density = 1.677998 g / cm^3
# Si number density = 16.818255 Si / 1000 Ang^3
#
#
#
# Elastic Constant Matrix: (Units=GPa)
#
#
# Indices 1 2 3 4 5 6 
#
# 1 96.2213 13.0332 52.3555 0.0000 -14.3549 0.0000
# 2 13.0332 50.0806 18.0415 0.0000 -3.1001 0.0000
# 3 52.3555 18.0415 102.6260 0.0000 -10.6610 0.0000
# 4 0.0000 0.0000 0.0000 10.6857 0.0000 -0.7250
# 5 -14.3549 -3.1001 -10.6610 0.0000 25.9770 0.0000
# 6 0.0000 0.0000 0.0000 -0.7250 0.0000 5.7041
#
#
#
# Elastic Compliance Matrix: (Units=1/GPa)
#
#
# Indices 1 2 3 4 5 6 
#
# 1 0.015136 -0.001095 -0.006971 0.000000 0.005372 0.000000
# 2 -0.001095 0.021425 -0.003139 0.000000 0.000664 0.000000
# 3 -0.006971 -0.003139 0.014010 0.000000 0.001523 0.000000
# 4 0.000000 0.000000 0.000000 0.094397 0.000000 0.011998
# 5 0.005372 0.000664 0.001523 0.000000 0.042169 0.000000
# 6 0.000000 0.000000 0.000000 0.011998 0.000000 0.176837
#
#
# Mechanical properties :
#
#
# Convention : Reuss Voigt Hill
#
# Bulk Modulus (GPa) = 35.51024 46.19872 40.85448
# Shear Modulus (GPa) = 12.63362 19.50655 16.07008
#
# Velocity S-wave (km/s) = 2.74375 3.40934 3.09449
# Velocity P-wave (km/s) = 5.58547 6.55951 6.09199
#
# Compressibility (1/GPa) = 0.02816089
#
# Stress axis : x y z
#
# Youngs Moduli (GPa) = 66.06983 46.67526 71.37552
#
# Poissons Ratio (x) = 0.05111 0.49755
# Poissons Ratio (y) = 0.07235 0.22403
# Poissons Ratio (z) = 0.46057 0.14650
#
# Static dielectric constant tensor:
#      x y z
#    x 2.593520 0.000000 -0.439450 
#    y 0.000000 2.702680 0.000000 
#    z -0.439450 0.000000 3.004450 
# 
# 
# High freq. dielectric constant tensor:
#      x y z
#    x 1.652680 0.000000 0.008290 
#    y 0.000000 1.585100 0.000000 
#    z 0.008290 0.000000 1.645600 
# 
# From -- ./inp_files/37641.got.cif
#   From: 2010.06.25/outbox.cif.g09.slc.cpg/sg10_19_cif.got.tgz:37641.got - 2010.06.27 22:07:45.
