data_PCOD8057595
_publ_section_title
;
Structure prediction by ZEFSAII (Michael W. Deem and Ramdas Pophale) SiO2 
 PCOD8057595
Probable space group: P 2/M
;
_chemical_formula_sum "Si O2"
_cell_formula_units_Z 32
_cell_length_a 16.982615
_cell_length_b 8.957745
_cell_length_c 13.733656
_cell_angle_alpha 90.000000
_cell_angle_beta 102.717788
_cell_angle_gamma 90.000000
_cell_volume 2037.988221
_symmetry_space_group_name_H-M "P 2/M"
_symmetry_group_IT_number 10
_symmetry_cell_setting 'monoclinic'
loop_
_space_group_symop_operation_xyz
x,y,z
-x,y,-z
-x,-y,-z
x,-y,z
loop_
_atom_site_type_symbol
_atom_site_label
_atom_site_fract_x
_atom_site_fract_y
_atom_site_fract_z
Si Si1 0.175353 0.172408 0.933774
Si Si2 0.999321 0.176484 0.106270
Si Si3 0.173065 0.827792 0.164873
Si Si4 0.671994 0.326785 0.767600
Si Si5 0.427006 0.172374 0.762427
Si Si6 0.671808 0.676277 0.113119
Si Si7 0.409908 0.827694 0.080874
Si Si8 0.512804 0.673808 0.612838
O O1 0.239597 0.273637 0.895673
O O2 0.086243 0.218744 0.866371
O O3 0.194922 0.000000 0.916378
O O4 0.176913 0.200522 0.049890
O O5 0.083921 0.222186 0.181635
O O6 0.001368 0.000000 0.093026
O O7 0.000000 0.251721 0.000000
O O8 0.238881 0.727121 0.240347
O O9 0.190405 0.000000 0.194140
O O10 0.672251 0.500000 0.796275
O O11 0.653325 0.229140 0.857117
O O12 0.605983 0.293972 0.666282
O O13 0.349576 0.257100 0.786091
O O14 0.500001 0.196512 0.857577
O O15 0.450601 0.239068 0.664465
O O16 0.405712 0.000000 0.742203
O O17 0.668322 0.500000 0.117675
O O18 0.603421 0.735208 0.020707
O O19 0.391117 0.000000 0.053381
O O20 0.500000 0.731760 0.500000
O O21 0.492190 0.500000 0.617075
#
# Coordination Sequence:
#
# PCOD8057595 Si02
#       8
#     4   4   4   4   4   4   4   4
#     4   9  16  27  42  58  83 119 155 185 214 250
#     4   7  12  23  39  58  78 111 154 185 212 250
#     4   9  15  25  42  61  85 116 150 185 218 254
#     4  10  18  27  43  67  90 114 146 181 219 262
#     4  10  21  34  48  65  84 110 148 186 220 258
#     4  12  22  29  41  62  90 119 149 182 217 259
#     4  10  19  31  44  59  83 116 150 184 218 252
#     4   9  19  36  53  67  88 116 143 177 224 270
#
# _framework density 15.70176
#
# number of rings (size 3 to 8) (size 9 to 14) (size 15 to 20)
#    0.000    2.500    1.250    4.125    0.000    3.750 
#    0.000    0.625    0.000    2.250    0.000    0.000 
#    0.000    1.000    0.000   11.500    0.000    3.500 
#
# Total GULP energy -396544.232222 kJ/mol
# GULP energy per Si atom -12392.007257 kJ/mol
# Density = 1.566602 g / cm^3
# Si number density = 15.701760 Si / 1000 Ang^3
#
#
#
# Elastic Constant Matrix: (Units=GPa)
#
#
# Indices 1 2 3 4 5 6 
#
# 1 85.5489 40.5881 41.2044 0.0000 -2.9320 0.0000
# 2 40.5881 78.6188 34.4517 0.0000 -8.1716 0.0000
# 3 41.2044 34.4517 62.3230 0.0000 -6.1782 0.0000
# 4 0.0000 0.0000 0.0000 13.5189 0.0000 -1.5971
# 5 -2.9320 -8.1716 -6.1782 0.0000 12.8687 0.0000
# 6 0.0000 0.0000 0.0000 -1.5971 0.0000 17.5200
#
#
#
# Elastic Compliance Matrix: (Units=1/GPa)
#
#
# Indices 1 2 3 4 5 6 
#
# 1 0.019075 -0.006033 -0.009686 0.000000 -0.004135 0.000000
# 2 -0.006033 0.019231 -0.005846 0.000000 0.008030 0.000000
# 3 -0.009686 -0.005846 0.026348 0.000000 0.006731 0.000000
# 4 0.000000 0.000000 0.000000 0.074776 0.000000 0.006817
# 5 -0.004135 0.008030 0.006731 0.000000 0.085096 0.000000
# 6 0.000000 0.000000 0.000000 0.006817 0.000000 0.057699
#
#
# Mechanical properties :
#
#
# Convention : Reuss Voigt Hill
#
# Bulk Modulus (GPa) = 46.46039 50.99768 48.72903
# Shear Modulus (GPa) = 15.03622 16.13129 15.58375
#
# Velocity S-wave (km/s) = 3.09789 3.20872 3.15379
# Velocity P-wave (km/s) = 6.51532 6.80274 6.66058
#
# Compressibility (1/GPa) = 0.02152371
#
# Stress axis : x y z
#
# Youngs Moduli (GPa) = 52.42397 52.00044 37.95318
#
# Poissons Ratio (x) = 0.31372 0.36763
# Poissons Ratio (y) = 0.31627 0.22187
# Poissons Ratio (z) = 0.50780 0.30398
#
# Static dielectric constant tensor:
#      x y z
#    x 3.319680 0.000000 0.148840 
#    y 0.000000 2.897460 0.000000 
#    z 0.148840 0.000000 2.641490 
# 
# 
# High freq. dielectric constant tensor:
#      x y z
#    x 1.612610 0.000000 0.010460 
#    y 0.000000 1.599060 0.000000 
#    z 0.010460 0.000000 1.541570 
# 
# From -- ./inp_files/68232.got.cif
#   From: 2010.06.25/outbox.cif.g09.slc.cpg/sg10_35_cif.got.tgz:68232.got - 2010.06.27 22:07:45.
