data_PCOD8057829
_publ_section_title
;
Structure prediction by ZEFSAII (Michael W. Deem and Ramdas Pophale) SiO2 
 PCOD8057829
Probable space group: P 2/M
;
_chemical_formula_sum "Si O2"
_cell_formula_units_Z 32
_cell_length_a 24.907642
_cell_length_b 14.191825
_cell_length_c 20.988971
_cell_angle_alpha 90.000000
_cell_angle_beta 163.206082
_cell_angle_gamma 90.000000
_cell_volume 2143.655094
_symmetry_space_group_name_H-M "P 2/M"
_symmetry_group_IT_number 10
_symmetry_cell_setting 'monoclinic'
loop_
_space_group_symop_operation_xyz
x,y,z
-x,y,-z
-x,-y,-z
x,-y,z
loop_
_atom_site_type_symbol
_atom_site_label
_atom_site_fract_x
_atom_site_fract_y
_atom_site_fract_z
Si Si1 0.614740 0.763565 0.536059
Si Si2 0.383404 0.392461 0.563236
Si Si3 0.422804 0.612559 0.845616
Si Si4 0.021754 0.388101 0.350946
Si Si5 0.081336 0.895058 0.162673
Si Si6 0.363378 0.388098 0.034184
Si Si7 0.772092 0.236437 0.850771
Si Si8 0.976219 0.392463 0.156053
O O1 0.585073 0.667329 0.464221
O O2 0.721637 0.840652 0.614528
O O3 0.414258 0.805222 0.328511
O O4 0.736489 0.738656 0.736489
O O5 0.437775 0.500000 0.609196
O O6 0.514199 0.351183 0.767671
O O7 0.172423 0.384562 0.344862
O O8 0.422978 0.500000 0.845951
O O9 0.554838 0.651731 0.939136
O O10 0.213748 0.651734 0.598044
O O11 0.500000 0.652313 0.000000
O O12 0.033954 0.500000 0.362463
O O13 0.992717 0.351173 0.246190
O O14 0.849828 0.354332 0.199664
O O15 0.113409 0.000000 0.226831
O O16 0.000000 0.902302 0.000000
O O17 0.935830 0.840662 0.042937
O O18 0.376959 0.500000 0.048450
O O19 0.826751 0.332669 0.947603
O O20 0.905034 0.500000 0.076461
#
# Coordination Sequence:
#
# PCOD8057829 Si02
#       8
#     4   4   4   4   4   4   4   4
#     4  10  20  32  46  65  86 108 139 177 215 255
#     4  10  18  29  45  61  83 115 145 175 212 252
#     4   9  16  25  36  52  73  96 130 176 215 242
#     4   9  16  26  39  54  74 103 137 169 204 246
#     4   9  18  33  49  63  81 104 133 173 218 259
#     4   9  16  26  39  54  74 103 137 169 204 246
#     4  10  20  32  46  65  86 108 139 177 215 255
#     4  10  18  29  45  61  83 115 145 175 212 252
#
# _framework density 14.927775
#
# number of rings (size 3 to 8) (size 9 to 14) (size 15 to 20)
#    0.000    2.500    2.500    0.750    0.000    3.000 
#    0.000    7.500    0.000    0.000    0.000    0.000 
#    0.000    0.000    0.000    0.000    0.000   10.000 
#
# Total GULP energy -396728.661173 kJ/mol
# GULP energy per Si atom -12397.770662 kJ/mol
# Density = 1.489380 g / cm^3
# Si number density = 14.927775 Si / 1000 Ang^3
#
#
#
# Elastic Constant Matrix: (Units=GPa)
#
#
# Indices 1 2 3 4 5 6 
#
# 1 91.2134 31.8041 55.5968 0.0000 5.5844 0.0000
# 2 31.8041 53.0018 31.7475 0.0000 -0.1261 0.0000
# 3 55.5968 31.7475 98.0873 0.0000 9.5049 0.0000
# 4 0.0000 0.0000 0.0000 6.6670 0.0000 4.6403
# 5 5.5844 -0.1261 9.5049 0.0000 27.6887 0.0000
# 6 0.0000 0.0000 0.0000 4.6403 0.0000 4.5527
#
#
#
# Elastic Compliance Matrix: (Units=1/GPa)
#
#
# Indices 1 2 3 4 5 6 
#
# 1 0.018122 -0.005920 -0.008274 0.000000 -0.000842 0.000000
# 2 -0.005920 0.025551 -0.005215 0.000000 0.003101 0.000000
# 3 -0.008274 -0.005215 0.016978 0.000000 -0.004183 0.000000
# 4 0.000000 0.000000 0.000000 0.516167 0.000000 -0.526101
# 5 -0.000842 0.003101 -0.004183 0.000000 0.037736 0.000000
# 6 0.000000 0.000000 0.000000 -0.526101 0.000000 0.755875
#
#
# Mechanical properties :
#
#
# Convention : Reuss Voigt Hill
#
# Bulk Modulus (GPa) = 45.80253 53.39992 49.60123
# Shear Modulus (GPa) = 3.52976 15.99197 9.76087
#
# Velocity S-wave (km/s) = 1.53938 3.27661 2.55987
# Velocity P-wave (km/s) = 5.82314 7.08271 6.48358
#
# Compressibility (1/GPa) = 0.02183285
#
# Stress axis : x y z
#
# Youngs Moduli (GPa) = 55.18014 39.13786 58.89959
#
# Poissons Ratio (x) = 0.23171 0.48735
# Poissons Ratio (y) = 0.32669 0.30714
# Poissons Ratio (z) = 0.45657 0.20409
#
# Static dielectric constant tensor:
#      x y z
#    x 2.976460 0.000000 0.145870 
#    y 0.000000 2.523040 0.000000 
#    z 0.145870 0.000000 3.042840 
# 
# 
# High freq. dielectric constant tensor:
#      x y z
#    x 1.571720 0.000000 0.019670 
#    y 0.000000 1.505540 0.000000 
#    z 0.019670 0.000000 1.580670 
# 
# From -- ./inp_files/67755.got.cif
#   From: 2010.06.25/outbox.cif.g09.slc.cpg/sg10_34_cif.got.tgz:67755.got - 2010.06.27 22:07:45.
