data_PCOD8057980
_publ_section_title
;
Structure prediction by ZEFSAII (Michael W. Deem and Ramdas Pophale) SiO2 
 PCOD8057980
Probable space group: P 2/M
;
_chemical_formula_sum "Si O2"
_cell_formula_units_Z 32
_cell_length_a 27.046472
_cell_length_b 12.327215
_cell_length_c 5.092818
_cell_angle_alpha 90.000000
_cell_angle_beta 86.759902
_cell_angle_gamma 90.000000
_cell_volume 1695.270303
_symmetry_space_group_name_H-M "P 2/M"
_symmetry_group_IT_number 10
_symmetry_cell_setting 'monoclinic'
loop_
_space_group_symop_operation_xyz
x,y,z
-x,y,-z
-x,-y,-z
x,-y,z
loop_
_atom_site_type_symbol
_atom_site_label
_atom_site_fract_x
_atom_site_fract_y
_atom_site_fract_z
Si Si1 0.315472 0.128105 0.924845
Si Si2 0.444270 0.752897 0.551682
Si Si3 0.884320 0.127850 0.003576
Si Si4 0.216812 0.249194 0.983586
Si Si5 0.655179 0.744252 0.594981
Si Si6 0.054881 0.127681 0.507031
Si Si7 0.443558 0.114978 0.052988
Si Si8 0.754383 0.373035 0.539204
O O1 0.259062 0.158915 0.010397
O O2 0.329326 0.171173 0.634507
O O3 0.320250 0.000000 0.931822
O O4 0.351589 0.183826 0.134324
O O5 0.500000 0.700148 0.500000
O O6 0.396663 0.681254 0.467070
O O7 0.431047 0.789111 0.850195
O O8 0.437888 0.854902 0.360027
O O9 0.833587 0.189389 0.072968
O O10 0.922720 0.158122 0.219921
O O11 0.873043 0.000000 0.998884
O O12 0.908834 0.172336 0.729475
O O13 0.230968 0.333005 0.752260
O O14 0.210882 0.315534 0.255664
O O15 0.696895 0.653122 0.621278
O O16 0.000000 0.179642 0.500000
O O17 0.050416 0.000000 0.466820
O O18 0.414778 0.000000 0.006451
O O19 0.500000 0.088806 0.000000
O O20 0.762926 0.500000 0.552563
#
# Coordination Sequence:
#
# PCOD8057980 Si02
#       8
#     4   4   4   4   4   4   4   4
#     4  10  20  33  48  69 101 132 158 192 233 290
#     4  10  19  30  43  61  87 115 147 190 230 269
#     4  10  18  29  48  74 109 145 173 208 245 283
#     4  10  20  34  53  78 100 125 166 204 251 305
#     4  10  21  33  49  71  92 125 162 189 235 297
#     4   9  17  28  43  68 107 154 190 208 230 270
#     4   9  17  27  39  57  83 117 151 180 213 254
#     4  10  21  38  56  72  95 122 155 208 260 303
#
# _framework density 18.876047
#
# number of rings (size 3 to 8) (size 9 to 14) (size 15 to 20)
#    0.000    2.250    0.000    3.375    0.000    6.000 
#    0.000    3.750    0.000    0.375    0.000    0.000 
#    0.000   44.000    0.000    0.000    0.000    1.500 
#
# Total GULP energy -396525.910980 kJ/mol
# GULP energy per Si atom -12391.434718 kJ/mol
# Density = 1.883308 g / cm^3
# Si number density = 18.876047 Si / 1000 Ang^3
#
#
#
# Elastic Constant Matrix: (Units=GPa)
#
#
# Indices 1 2 3 4 5 6 
#
# 1 101.0750 26.5356 2.9519 0.0000 10.3065 0.0000
# 2 26.5356 44.3887 11.6473 0.0000 7.2275 0.0000
# 3 2.9519 11.6473 86.7831 0.0000 -1.1163 0.0000
# 4 0.0000 0.0000 0.0000 15.6127 0.0000 -1.2746
# 5 10.3065 7.2275 -1.1163 0.0000 26.4034 0.0000
# 6 0.0000 0.0000 0.0000 -1.2746 0.0000 7.9419
#
#
#
# Elastic Compliance Matrix: (Units=1/GPa)
#
#
# Indices 1 2 3 4 5 6 
#
# 1 0.011953 -0.006817 0.000473 0.000000 -0.002780 0.000000
# 2 -0.006817 0.028420 -0.003650 0.000000 -0.005273 0.000000
# 3 0.000473 -0.003650 0.012014 0.000000 0.001323 0.000000
# 4 0.000000 0.000000 0.000000 0.064901 0.000000 0.010416
# 5 -0.002780 -0.005273 0.001323 0.000000 0.040458 0.000000
# 6 0.000000 0.000000 0.000000 0.010416 0.000000 0.127587
#
#
# Mechanical properties :
#
#
# Convention : Reuss Voigt Hill
#
# Bulk Modulus (GPa) = 30.86663 34.94629 32.90646
# Shear Modulus (GPa) = 15.81677 22.73239 19.27458
#
# Velocity S-wave (km/s) = 2.89784 3.47407 3.19895
# Velocity P-wave (km/s) = 5.25209 5.88608 5.57810
#
# Compressibility (1/GPa) = 0.03239744
#
# Stress axis : x y z
#
# Youngs Moduli (GPa) = 83.66123 35.18689 83.23751
#
# Poissons Ratio (x) = 0.23986 -0.03933
# Poissons Ratio (y) = 0.57031 0.30383
# Poissons Ratio (z) = -0.03954 0.12844
#
# Static dielectric constant tensor:
#      x y z
#    x 3.217590 0.000000 0.656660 
#    y 0.000000 2.920730 0.000000 
#    z 0.656660 0.000000 2.965960 
# 
# 
# High freq. dielectric constant tensor:
#      x y z
#    x 1.749180 0.000000 0.003020 
#    y 0.000000 1.662450 0.000000 
#    z 0.003020 0.000000 1.756940 
# 
# From -- ./inp_files/13174.got.cif
#   From: 2010.06.25/outbox.cif.g09.slc.cpg/sg10_7_cif.got.tgz:13174.got - 2010.06.27 22:07:45.
