data_PCOD8057613
_publ_section_title
;
Structure prediction by ZEFSAII (Michael W. Deem and Ramdas Pophale) SiO2 
 PCOD8057613
Probable space group: P 2/M
;
_chemical_formula_sum "Si O2"
_cell_formula_units_Z 24
_cell_length_a 14.276742
_cell_length_b 8.721302
_cell_length_c 12.121535
_cell_angle_alpha 90.000000
_cell_angle_beta 110.724012
_cell_angle_gamma 90.000000
_cell_volume 1411.617540
_symmetry_space_group_name_H-M "P 2/M"
_symmetry_group_IT_number 10
_symmetry_cell_setting 'monoclinic'
loop_
_space_group_symop_operation_xyz
x,y,z
-x,y,-z
-x,-y,-z
x,-y,z
loop_
_atom_site_type_symbol
_atom_site_label
_atom_site_fract_x
_atom_site_fract_y
_atom_site_fract_z
Si Si1 0.944239 0.821635 0.589262
Si Si2 0.671161 0.824049 0.731989
Si Si3 0.523357 0.669969 0.380935
Si Si4 0.005006 0.679772 0.836657
Si Si5 0.735038 0.680465 0.533995
Si Si6 0.855804 0.822887 0.945719
O O1 0.000072 0.725666 0.707152
O O2 0.829020 0.773217 0.527211
O O3 0.000000 0.782134 0.500000
O O4 0.950218 0.000000 0.621576
O O5 0.556054 0.780375 0.713387
O O6 0.714719 0.719859 0.652832
O O7 0.738698 0.796823 0.869062
O O8 0.676053 0.000000 0.695591
O O9 0.500000 0.667344 0.500000
O O10 0.511257 0.500000 0.325704
O O11 0.638751 0.725913 0.417845
O O12 0.987015 0.500000 0.842663
O O13 0.919580 0.770764 0.866483
O O14 0.113130 0.725502 0.933266
O O15 0.756586 0.500000 0.536394
O O16 0.878596 0.000000 0.978995
#
# Coordination Sequence:
#
# PCOD8057613 Si02
#       6
#     4   4   4   4   4   4
#     4  11  23  37  52  70  95 129 166 204 246 290
#     4  10  18  27  45  71  98 130 161 192 236 289
#     4   8  16  28  42  64  95 127 157 193 238 285
#     4  11  21  32  49  71  95 127 165 201 242 289
#     4  10  19  31  47  67  95 128 161 201 242 284
#     4  10  19  31  48  70 101 132 160 197 241 288
#
# _framework density 17.001771999999999
#
# number of rings (size 3 to 8) (size 9 to 14) (size 15 to 20)
#    0.000    2.000    1.667    5.500    0.000    7.000 
#    0.000    0.000    0.000    0.000    0.000    1.167 
#    0.000    9.333    0.000    0.000    0.000    0.000 
#
# Total GULP energy -297527.542558 kJ/mol
# GULP energy per Si atom -12396.980940 kJ/mol
# Density = 1.696307 g / cm^3
# Si number density = 17.001772 Si / 1000 Ang^3
#
#
#
# Elastic Constant Matrix: (Units=GPa)
#
#
# Indices 1 2 3 4 5 6 
#
# 1 82.3408 21.1597 50.7143 0.0000 22.5385 0.0000
# 2 21.1597 48.3985 28.8072 0.0000 7.7311 0.0000
# 3 50.7143 28.8072 81.8542 0.0000 22.4189 0.0000
# 4 0.0000 0.0000 0.0000 21.0676 0.0000 9.7499
# 5 22.5385 7.7311 22.4189 0.0000 29.8146 0.0000
# 6 0.0000 0.0000 0.0000 9.7499 0.0000 23.1346
#
#
#
# Elastic Compliance Matrix: (Units=1/GPa)
#
#
# Indices 1 2 3 4 5 6 
#
# 1 0.021069 -0.001856 -0.010289 0.000000 -0.007709 0.000000
# 2 -0.001856 0.026301 -0.008340 0.000000 0.000854 0.000000
# 3 -0.010289 -0.008340 0.023681 0.000000 -0.007866 0.000000
# 4 0.000000 0.000000 0.000000 0.058967 0.000000 -0.024851
# 5 -0.007709 0.000854 -0.007866 0.000000 0.045062 0.000000
# 6 0.000000 0.000000 0.000000 -0.024851 0.000000 0.053698
#
#
# Mechanical properties :
#
#
# Convention : Reuss Voigt Hill
#
# Bulk Modulus (GPa) = 33.24384 45.99508 39.61946
# Shear Modulus (GPa) = 17.87145 22.26418 20.06782
#
# Velocity S-wave (km/s) = 3.24567 3.62266 3.43933
# Velocity P-wave (km/s) = 5.80012 6.67907 6.25506
#
# Compressibility (1/GPa) = 0.03008076
#
# Stress axis : x y z
#
# Youngs Moduli (GPa) = 47.46361 38.02146 42.22721
#
# Poissons Ratio (x) = 0.07055 0.43448
# Poissons Ratio (y) = 0.08807 0.35220
# Poissons Ratio (z) = 0.48836 0.31712
#
# Static dielectric constant tensor:
#      x y z
#    x 3.288050 0.000000 0.549880 
#    y 0.000000 3.285260 0.000000 
#    z 0.549880 0.000000 3.141710 
# 
# 
# High freq. dielectric constant tensor:
#      x y z
#    x 1.630920 0.000000 0.046950 
#    y 0.000000 1.671170 0.000000 
#    z 0.046950 0.000000 1.628650 
# 
# From -- ./inp_files/48665.got.cif
#   From: 2010.06.25/outbox.cif.g09.slc.cpg/sg10_25_cif.got.tgz:48665.got - 2010.06.27 22:07:45.
