data_PCOD8057499
_publ_section_title
;
Structure prediction by ZEFSAII (Michael W. Deem and Ramdas Pophale) SiO2 
 PCOD8057499
Probable space group: P 2/M
;
_chemical_formula_sum "Si O2"
_cell_formula_units_Z 32
_cell_length_a 19.961851
_cell_length_b 9.083216
_cell_length_c 29.781197
_cell_angle_alpha 90.000000
_cell_angle_beta 22.894829
_cell_angle_gamma 90.000000
_cell_volume 2100.766399
_symmetry_space_group_name_H-M "P 2/M"
_symmetry_group_IT_number 10
_symmetry_cell_setting 'monoclinic'
loop_
_space_group_symop_operation_xyz
x,y,z
-x,y,-z
-x,-y,-z
x,-y,z
loop_
_atom_site_type_symbol
_atom_site_label
_atom_site_fract_x
_atom_site_fract_y
_atom_site_fract_z
Si Si1 0.678987 0.323984 0.484236
Si Si2 0.069105 0.324359 0.409224
Si Si3 0.244117 0.665849 0.172000
Si Si4 0.370735 0.830701 0.178574
Si Si5 0.367142 0.663417 0.622920
Si Si6 0.258259 0.832663 0.072317
Si Si7 0.117018 0.335850 0.561414
Si Si8 0.118572 0.170690 0.719616
O O1 0.705365 0.500000 0.464366
O O2 0.479478 0.282459 0.596709
O O3 0.726593 0.266122 0.505537
O O4 0.808577 0.251422 0.368965
O O5 0.084697 0.500000 0.395280
O O6 0.259118 0.258590 0.284131
O O7 0.000000 0.273601 0.500000
O O8 0.937712 0.259372 0.452040
O O9 0.316742 0.500000 0.131466
O O10 0.342393 0.769886 0.146105
O O11 0.276841 0.722414 0.102064
O O12 0.042094 0.667277 0.306336
O O13 0.312606 0.000000 0.216313
O O14 0.574808 0.812865 0.063068
O O15 0.500000 0.661668 0.500000
O O16 0.292889 0.500000 0.677095
O O17 0.207557 0.769967 0.710468
O O18 0.085839 0.799059 0.150327
O O19 0.251114 0.000000 0.095358
O O20 0.172178 0.500000 0.514236
O O21 0.162705 0.000000 0.687851
#
# Coordination Sequence:
#
# PCOD8057499 Si02
#       8
#     4   4   4   4   4   4   4   4
#     4   9  15  26  40  55  78 108 142 172 200 242
#     4   9  18  33  50  67  86 105 133 175 216 253
#     4  10  18  28  43  61  82 110 145 178 208 242
#     4  10  20  32  44  59  83 111 141 172 208 253
#     4   8  15  25  37  52  74 106 141 173 204 239
#     4  10  20  30  39  56  84 116 144 174 207 244
#     4   8  14  25  42  62  81 106 136 166 204 246
#     4  10  18  26  37  54  79 110 144 174 206 238
#
# _framework density 15.232536
#
# number of rings (size 3 to 8) (size 9 to 14) (size 15 to 20)
#    0.000    2.750    1.250    3.000    0.000    5.500 
#    0.000    0.000    0.000    0.000    0.000    0.000 
#    0.000    1.000    0.000   12.500    0.000    1.000 
#
# Total GULP energy -396464.317722 kJ/mol
# GULP energy per Si atom -12389.509929 kJ/mol
# Density = 1.519787 g / cm^3
# Si number density = 15.232536 Si / 1000 Ang^3
#
#
#
# Elastic Constant Matrix: (Units=GPa)
#
#
# Indices 1 2 3 4 5 6 
#
# 1 103.6347 30.9084 60.1957 0.0000 -11.9763 0.0000
# 2 30.9084 52.7594 31.4145 0.0000 -6.0243 0.0000
# 3 60.1957 31.4145 70.0021 0.0000 -9.8830 0.0000
# 4 0.0000 0.0000 0.0000 16.9362 0.0000 -4.2550
# 5 -11.9763 -6.0243 -9.8830 0.0000 20.7332 0.0000
# 6 0.0000 0.0000 0.0000 -4.2550 0.0000 16.4780
#
#
#
# Elastic Compliance Matrix: (Units=1/GPa)
#
#
# Indices 1 2 3 4 5 6 
#
# 1 0.019643 -0.001840 -0.015588 0.000000 0.003381 0.000000
# 2 -0.001840 0.026125 -0.009886 0.000000 0.001816 0.000000
# 3 -0.015588 -0.009886 0.032647 0.000000 0.003685 0.000000
# 4 0.000000 0.000000 0.000000 0.063141 0.000000 0.016305
# 5 0.003381 0.001816 0.003685 0.000000 0.052469 0.000000
# 6 0.000000 0.000000 0.000000 0.016305 0.000000 0.064897
#
#
# Mechanical properties :
#
#
# Convention : Reuss Voigt Hill
#
# Bulk Modulus (GPa) = 42.03915 52.38149 47.21032
# Shear Modulus (GPa) = 15.55305 17.75465 16.65385
#
# Velocity S-wave (km/s) = 3.19884 3.41775 3.31011
# Velocity P-wave (km/s) = 6.42663 7.07370 6.75792
#
# Compressibility (1/GPa) = 0.02378735
#
# Stress axis : x y z
#
# Youngs Moduli (GPa) = 50.90814 38.27694 30.63108
#
# Poissons Ratio (x) = 0.07042 0.47749
# Poissons Ratio (y) = 0.09366 0.30281
# Poissons Ratio (z) = 0.79358 0.37839
#
# Static dielectric constant tensor:
#      x y z
#    x 3.179860 0.000000 -0.373690 
#    y 0.000000 2.915060 0.000000 
#    z -0.373690 0.000000 2.758820 
# 
# 
# High freq. dielectric constant tensor:
#      x y z
#    x 1.571280 0.000000 -0.033280 
#    y 0.000000 1.580390 0.000000 
#    z -0.033280 0.000000 1.544320 
# 
# From -- ./inp_files/95656.got.cif
#   From: 2010.06.25/outbox.cif.g09.slc.cpg/sg10_48_cif.got.tgz:95656.got - 2010.06.27 22:07:45.
