data_PCOD8057194
_publ_section_title
;
Structure prediction by ZEFSAII (Michael W. Deem and Ramdas Pophale) SiO2 
 PCOD8057194
Probable space group: P 2/M
;
_chemical_formula_sum "Si O2"
_cell_formula_units_Z 32
_cell_length_a 20.567446
_cell_length_b 9.199492
_cell_length_c 21.640343
_cell_angle_alpha 90.000000
_cell_angle_beta 26.040756
_cell_angle_gamma 90.000000
_cell_volume 1797.558912
_symmetry_space_group_name_H-M "P 2/M"
_symmetry_group_IT_number 10
_symmetry_cell_setting 'monoclinic'
loop_
_space_group_symop_operation_xyz
x,y,z
-x,y,-z
-x,-y,-z
x,-y,z
loop_
_atom_site_type_symbol
_atom_site_label
_atom_site_fract_x
_atom_site_fract_y
_atom_site_fract_z
Si Si1 0.456335 0.827393 0.470811
Si Si2 0.841983 0.169242 0.336962
Si Si3 0.683624 0.833764 0.597750
Si Si4 0.692623 0.667988 0.948823
Si Si5 0.380994 0.830386 0.788374
Si Si6 0.324248 0.835673 0.155961
Si Si7 0.346905 0.668562 0.256433
Si Si8 0.856095 0.671931 0.933098
O O1 0.500000 0.760277 0.500000
O O2 0.293299 0.774489 0.590073
O O3 0.578086 0.780304 0.316153
O O4 0.452396 0.000000 0.476477
O O5 0.802244 0.194589 0.442610
O O6 0.980274 0.266099 0.200136
O O7 0.876611 0.000000 0.295328
O O8 0.519840 0.796330 0.713688
O O9 0.725383 0.731324 0.619470
O O10 0.689605 0.000000 0.615059
O O11 0.719035 0.500000 0.910480
O O12 0.746602 0.760489 0.843812
O O13 0.788381 0.720190 0.925258
O O14 0.521798 0.697729 0.109970
O O15 0.339763 0.000000 0.826101
O O16 0.241302 0.736741 0.928478
O O17 0.274596 0.749150 0.259468
O O18 0.265288 0.000000 0.210651
O O19 0.500000 0.830125 0.000000
O O20 0.307996 0.500000 0.284163
O O21 0.858491 0.500000 0.937978
#
# Coordination Sequence:
#
# PCOD8057194 Si02
#       8
#     4   4   4   4   4   4   4   4
#     4   8  15  32  58  83 104 129 167 211 249 290
#     4   9  19  34  52  76 103 132 166 207 253 298
#     4   9  17  30  48  71  98 126 164 212 256 298
#     4   9  18  30  43  64  95 130 165 202 248 297
#     4   9  17  30  52  78 101 129 166 209 252 292
#     4   9  17  27  41  65  94 125 163 207 253 298
#     4  10  17  27  45  68  96 128 164 206 252 300
#     4  11  21  33  49  73 105 138 169 205 247 298
#
# _framework density 17.801919999999999
#
# number of rings (size 3 to 8) (size 9 to 14) (size 15 to 20)
#    0.000    2.750    1.250    2.625    0.000    3.500 
#    0.000    2.500    0.000    6.000    0.000    5.250 
#    0.000    0.000    0.000    0.000    0.000    0.000 
#
# Total GULP energy -396791.665655 kJ/mol
# GULP energy per Si atom -12399.739552 kJ/mol
# Density = 1.776140 g / cm^3
# Si number density = 17.801920 Si / 1000 Ang^3
#
#
#
# Elastic Constant Matrix: (Units=GPa)
#
#
# Indices 1 2 3 4 5 6 
#
# 1 113.9242 48.9249 56.4854 0.0000 24.7781 0.0000
# 2 48.9249 79.9695 48.9850 0.0000 13.3355 0.0000
# 3 56.4854 48.9850 103.0184 0.0000 8.9385 0.0000
# 4 0.0000 0.0000 0.0000 10.5691 0.0000 -1.1085
# 5 24.7781 13.3355 8.9385 0.0000 26.2894 0.0000
# 6 0.0000 0.0000 0.0000 -1.1085 0.0000 19.0840
#
#
#
# Elastic Compliance Matrix: (Units=1/GPa)
#
#
# Indices 1 2 3 4 5 6 
#
# 1 0.015807 -0.004433 -0.005627 0.000000 -0.010736 0.000000
# 2 -0.004433 0.019955 -0.006741 0.000000 -0.003652 0.000000
# 3 -0.005627 -0.006741 0.015704 0.000000 0.003384 0.000000
# 4 0.000000 0.000000 0.000000 0.095195 0.000000 0.005529
# 5 -0.010736 -0.003652 0.003384 0.000000 0.048859 0.000000
# 6 0.000000 0.000000 0.000000 0.005529 0.000000 0.052721
#
#
# Mechanical properties :
#
#
# Convention : Reuss Voigt Hill
#
# Bulk Modulus (GPa) = 55.98170 67.30032 61.64101
# Shear Modulus (GPa) = 17.37322 20.68963 19.03142
#
# Velocity S-wave (km/s) = 3.12736 3.41282 3.27320
# Velocity P-wave (km/s) = 6.67501 7.30869 6.99903
#
# Compressibility (1/GPa) = 0.01786298
#
# Stress axis : x y z
#
# Youngs Moduli (GPa) = 63.26389 50.11235 63.67677
#
# Poissons Ratio (x) = 0.22215 0.35834
# Poissons Ratio (y) = 0.28046 0.42925
# Poissons Ratio (z) = 0.35602 0.33781
#
# Static dielectric constant tensor:
#      x y z
#    x 3.388260 0.000000 0.223850 
#    y 0.000000 3.142550 0.000000 
#    z 0.223850 0.000000 3.073930 
# 
# 
# High freq. dielectric constant tensor:
#      x y z
#    x 1.678420 0.000000 0.018860 
#    y 0.000000 1.678090 0.000000 
#    z 0.018860 0.000000 1.668650 
# 
# From -- ./inp_files/86093.got.cif
#   From: 2010.06.25/outbox.cif.g09.slc.cpg/sg10_44_cif.got.tgz:86093.got - 2010.06.27 22:07:45.
