data_PCOD8057677
_publ_section_title
;
Structure prediction by ZEFSAII (Michael W. Deem and Ramdas Pophale) SiO2 
 PCOD8057677
Probable space group: P 2/M
;
_chemical_formula_sum "Si O2"
_cell_formula_units_Z 32
_cell_length_a 23.300042
_cell_length_b 9.159175
_cell_length_c 11.280748
_cell_angle_alpha 90.000000
_cell_angle_beta 125.756792
_cell_angle_gamma 90.000000
_cell_volume 1953.628613
_symmetry_space_group_name_H-M "P 2/M"
_symmetry_group_IT_number 10
_symmetry_cell_setting 'monoclinic'
loop_
_space_group_symop_operation_xyz
x,y,z
-x,y,-z
-x,-y,-z
x,-y,z
loop_
_atom_site_type_symbol
_atom_site_label
_atom_site_fract_x
_atom_site_fract_y
_atom_site_fract_z
Si Si1 0.298067 0.668145 0.309579
Si Si2 0.390809 0.831807 0.807562
Si Si3 0.866184 0.171839 0.670749
Si Si4 0.144185 0.331424 0.094976
Si Si5 0.018964 0.836709 0.884769
Si Si6 0.433987 0.326722 0.342293
Si Si7 0.732090 0.673404 0.462511
Si Si8 0.464715 0.832278 0.140909
O O1 0.317167 0.500000 0.348784
O O2 0.224994 0.687274 0.145976
O O3 0.363033 0.740773 0.316937
O O4 0.290353 0.731352 0.433610
O O5 0.325317 0.727005 0.700870
O O6 0.456205 0.788284 0.802312
O O7 0.369730 0.000000 0.760943
O O8 0.411306 0.805609 0.968290
O O9 0.860339 0.233821 0.794910
O O10 0.808180 0.255004 0.520091
O O11 0.947209 0.201358 0.724211
O O12 0.850114 0.000000 0.652830
O O13 0.128618 0.500000 0.106512
O O14 0.084262 0.272040 0.931165
O O15 0.044106 0.000000 0.884433
O O16 0.000000 0.823051 0.000000
O O17 0.500000 0.273160 0.500000
O O18 0.431060 0.500000 0.330121
O O19 0.439754 0.267834 0.217300
O O20 0.739970 0.500000 0.466725
O O21 0.462868 0.000000 0.178676
#
# Coordination Sequence:
#
# PCOD8057677 Si02
#       8
#     4   4   4   4   4   4   4   4
#     4   8  16  28  39  58  88 116 142 176 218 257
#     4   9  18  33  49  63  86 115 139 174 222 260
#     4   9  16  25  36  53  81 113 141 172 214 258
#     4   9  15  23  36  53  77 110 146 181 212 248
#     4   8  14  23  34  50  75 108 143 175 209 253
#     4  10  19  31  47  65  88 117 145 177 218 255
#     4  10  18  28  44  65  87 112 147 182 209 251
#     4   9  19  34  49  66  86 111 145 179 213 256
#
# _framework density 16.379777000000001
#
# number of rings (size 3 to 8) (size 9 to 14) (size 15 to 20)
#    0.000    3.000    0.000    4.125    0.000    5.000 
#    0.000    5.000    0.000    0.000    0.000    0.000 
#    0.000    1.000    0.000   11.250    0.000    7.125 
#
# Total GULP energy -396504.435669 kJ/mol
# GULP energy per Si atom -12390.763615 kJ/mol
# Density = 1.634250 g / cm^3
# Si number density = 16.379777 Si / 1000 Ang^3
#
#
#
# Elastic Constant Matrix: (Units=GPa)
#
#
# Indices 1 2 3 4 5 6 
#
# 1 65.0567 32.0952 47.9150 0.0000 21.9014 0.0000
# 2 32.0952 67.8824 46.0400 0.0000 19.3964 0.0000
# 3 47.9150 46.0400 90.2491 0.0000 30.9857 0.0000
# 4 0.0000 0.0000 0.0000 27.9498 0.0000 5.7235
# 5 21.9014 19.3964 30.9857 0.0000 32.3051 0.0000
# 6 0.0000 0.0000 0.0000 5.7235 0.0000 19.9893
#
#
#
# Elastic Compliance Matrix: (Units=1/GPa)
#
#
# Indices 1 2 3 4 5 6 
#
# 1 0.026877 -0.004141 -0.010071 0.000000 -0.006075 0.000000
# 2 -0.004141 0.023469 -0.008797 0.000000 -0.002846 0.000000
# 3 -0.010071 -0.008797 0.024985 0.000000 -0.011856 0.000000
# 4 0.000000 0.000000 0.000000 0.038007 0.000000 -0.010882
# 5 -0.006075 -0.002846 -0.011856 0.000000 0.048154 0.000000
# 6 0.000000 0.000000 0.000000 -0.010882 0.000000 0.053143
#
#
# Mechanical properties :
#
#
# Convention : Reuss Voigt Hill
#
# Bulk Modulus (GPa) = 34.11433 52.80985 43.46209
# Shear Modulus (GPa) = 18.48956 22.52471 20.50713
#
# Velocity S-wave (km/s) = 3.36341 3.71233 3.54217
# Velocity P-wave (km/s) = 5.99631 7.11941 6.58186
#
# Compressibility (1/GPa) = 0.02931319
#
# Stress axis : x y z
#
# Youngs Moduli (GPa) = 37.20673 42.61001 40.02352
#
# Poissons Ratio (x) = 0.17645 0.40308
# Poissons Ratio (y) = 0.15408 0.35207
# Poissons Ratio (z) = 0.37471 0.37482
#
# Static dielectric constant tensor:
#      x y z
#    x 3.190020 0.000000 0.616010 
#    y 0.000000 3.040610 0.000000 
#    z 0.616010 0.000000 3.236150 
# 
# 
# High freq. dielectric constant tensor:
#      x y z
#    x 1.598300 0.000000 0.045970 
#    y 0.000000 1.627500 0.000000 
#    z 0.045970 0.000000 1.615690 
# 
# From -- ./inp_files/54513.got.cif
#   From: 2010.06.25/outbox.cif.g09.slc.cpg/sg10_28_cif.got.tgz:54513.got - 2010.06.27 22:07:45.
