data_PCOD8057159
_publ_section_title
;
Structure prediction by ZEFSAII (Michael W. Deem and Ramdas Pophale) SiO2 
 PCOD8057159
Probable space group: P 2/M
;
_chemical_formula_sum "Si O2"
_cell_formula_units_Z 32
_cell_length_a 35.873905
_cell_length_b 9.138104
_cell_length_c 24.338972
_cell_angle_alpha 90.000000
_cell_angle_beta 15.227362
_cell_angle_gamma 90.000000
_cell_volume 2095.628928
_symmetry_space_group_name_H-M "P 2/M"
_symmetry_group_IT_number 10
_symmetry_cell_setting 'monoclinic'
loop_
_space_group_symop_operation_xyz
x,y,z
-x,y,-z
-x,-y,-z
x,-y,z
loop_
_atom_site_type_symbol
_atom_site_label
_atom_site_fract_x
_atom_site_fract_y
_atom_site_fract_z
Si Si1 0.002014 0.834045 0.399773
Si Si2 0.297520 0.827821 0.023073
Si Si3 0.818848 0.170857 0.017627
Si Si4 0.058753 0.328553 0.620798
Si Si5 0.382132 0.335047 0.620992
Si Si6 0.314354 0.166729 0.117939
Si Si7 0.585394 0.828569 0.257860
Si Si8 0.628632 0.328087 0.854089
O O1 0.130664 0.789208 0.256562
O O2 0.005430 0.718401 0.345934
O O3 0.855901 0.824126 0.640248
O O4 0.024747 0.000000 0.344027
O O5 0.358741 0.768864 0.994559
O O6 0.316256 0.000000 0.997243
O O7 0.381248 0.767260 0.850756
O O8 0.753206 0.244848 0.165265
O O9 0.721235 0.202679 0.103261
O O10 0.834909 0.000000 0.006377
O O11 0.974636 0.240936 0.787582
O O12 0.035612 0.500000 0.662764
O O13 0.225382 0.285161 0.384407
O O14 0.500000 0.334430 0.500000
O O15 0.335873 0.500000 0.671879
O O16 0.446456 0.257310 0.475768
O O17 0.384291 0.258891 0.067135
O O18 0.365080 0.000000 0.053555
O O19 0.549919 0.000000 0.308840
O O20 0.618478 0.500000 0.877399
O O21 0.500000 0.268323 0.000000
#
# Coordination Sequence:
#
# PCOD8057159 Si02
#       8
#     4   4   4   4   4   4   4   4
#     4   9  15  26  40  57  82 114 144 170 205 248
#     4   9  15  25  40  60  85 114 144 173 205 246
#     4  10  17  27  42  59  81 111 145 176 209 252
#     4  10  18  27  42  63  83 107 142 181 216 248
#     4   9  17  27  38  55  80 110 145 182 213 237
#     4   9  17  27  44  65  83 105 141 182 212 243
#     4   9  16  26  39  55  80 116 150 172 201 247
#     4   9  19  35  49  60  82 114 142 173 219 267
#
# _framework density 15.269880000000001
#
# number of rings (size 3 to 8) (size 9 to 14) (size 15 to 20)
#    0.000    2.750    1.250    1.500    0.000    4.250 
#    0.000    1.250    0.000    3.000    0.000    0.000 
#    0.000    1.000    0.000   11.500    0.000    3.500 
#
# Total GULP energy -396626.665105 kJ/mol
# GULP energy per Si atom -12394.583285 kJ/mol
# Density = 1.523513 g / cm^3
# Si number density = 15.269880 Si / 1000 Ang^3
#
#
#
# Elastic Constant Matrix: (Units=GPa)
#
#
# Indices 1 2 3 4 5 6 
#
# 1 93.7466 33.0830 57.6794 0.0000 9.9528 0.0000
# 2 33.0830 62.3543 40.6066 0.0000 7.4448 0.0000
# 3 57.6794 40.6066 79.9079 0.0000 13.8422 0.0000
# 4 0.0000 0.0000 0.0000 21.5451 0.0000 2.8846
# 5 9.9528 7.4448 13.8422 0.0000 20.6444 0.0000
# 6 0.0000 0.0000 0.0000 2.8846 0.0000 13.1197
#
#
#
# Elastic Compliance Matrix: (Units=1/GPa)
#
#
# Indices 1 2 3 4 5 6 
#
# 1 0.019316 -0.001747 -0.013069 0.000000 0.000080 0.000000
# 2 -0.001747 0.024133 -0.010908 0.000000 -0.000547 0.000000
# 3 -0.013069 -0.010908 0.029097 0.000000 -0.009276 0.000000
# 4 0.000000 0.000000 0.000000 0.047822 0.000000 -0.010515
# 5 0.000080 -0.000547 -0.009276 0.000000 0.054817 0.000000
# 6 0.000000 0.000000 0.000000 -0.010515 0.000000 0.078533
#
#
# Mechanical properties :
#
#
# Convention : Reuss Voigt Hill
#
# Bulk Modulus (GPa) = 47.39536 55.41634 51.40585
# Shear Modulus (GPa) = 16.01542 18.03784 17.02663
#
# Velocity S-wave (km/s) = 3.24207 3.44069 3.34285
# Velocity P-wave (km/s) = 6.71718 7.22181 6.97406
#
# Compressibility (1/GPa) = 0.02109911
#
# Stress axis : x y z
#
# Youngs Moduli (GPa) = 51.77079 41.43694 34.36725
#
# Poissons Ratio (x) = 0.07240 0.44913
# Poissons Ratio (y) = 0.09046 0.37487
# Poissons Ratio (z) = 0.67658 0.45198
#
# Static dielectric constant tensor:
#      x y z
#    x 2.828150 0.000000 0.271110 
#    y 0.000000 2.893360 0.000000 
#    z 0.271110 0.000000 2.967580 
# 
# 
# High freq. dielectric constant tensor:
#      x y z
#    x 1.550250 0.000000 0.030000 
#    y 0.000000 1.580210 0.000000 
#    z 0.030000 0.000000 1.568760 
# 
# From -- ./inp_files/68223.got.cif
#   From: 2010.06.25/outbox.cif.g09.slc.cpg/sg10_35_cif.got.tgz:68223.got - 2010.06.27 22:07:45.
