data_PCOD8057671
_publ_section_title
;
Structure prediction by ZEFSAII (Michael W. Deem and Ramdas Pophale) SiO2 
 PCOD8057671
Probable space group: P 2/M
;
_chemical_formula_sum "Si O2"
_cell_formula_units_Z 28
_cell_length_a 7.993270
_cell_length_b 18.000085
_cell_length_c 14.155958
_cell_angle_alpha 90.000000
_cell_angle_beta 40.604472
_cell_angle_gamma 90.000000
_cell_volume 1325.586853
_symmetry_space_group_name_H-M "P 2/M"
_symmetry_group_IT_number 10
_symmetry_cell_setting 'monoclinic'
loop_
_space_group_symop_operation_xyz
x,y,z
-x,y,-z
-x,-y,-z
x,-y,z
loop_
_atom_site_type_symbol
_atom_site_label
_atom_site_fract_x
_atom_site_fract_y
_atom_site_fract_z
Si Si1 0.953848 0.912443 0.151311
Si Si2 0.907009 0.415388 0.675034
Si Si3 0.283893 0.082612 0.173059
Si Si4 0.381881 0.160404 0.837016
Si Si5 0.590189 0.334605 0.178292
Si Si6 0.776503 0.417781 0.930305
Si Si7 0.524262 0.585300 0.593791
O O1 0.012242 0.897845 0.237699
O O2 0.674309 0.880268 0.240069
O O3 0.977098 0.000000 0.118629
O O4 0.162809 0.866878 0.002039
O O5 0.797065 0.500000 0.711931
O O6 0.698240 0.356973 0.728163
O O7 0.972836 0.400748 0.759411
O O8 0.174846 0.407919 0.503621
O O9 0.342997 0.137080 0.235703
O O10 0.275351 0.000000 0.219246
O O11 0.500000 0.087886 0.000000
O O12 0.380841 0.247557 0.822589
O O13 0.650111 0.371804 0.254554
O O14 0.794676 0.361219 0.011065
O O15 0.820845 0.500000 0.952736
O O16 0.500000 0.410726 0.000000
O O17 0.500000 0.620625 0.500000
O O18 0.432821 0.500000 0.631900
#
# Coordination Sequence:
#
# PCOD8057671 Si02
#       7
#     4   4   4   4   4   4   4
#     4   9  17  32  51  70 109 158 188 214 258 325
#     4   9  18  35  58  76  97 139 192 234 272 327
#     4   8  14  26  46  68  96 140 184 215 250 312
#     4  10  18  28  43  76 111 142 175 217 275 329
#     4  11  20  31  50  82 111 141 174 228 291 336
#     4   8  15  29  49  75 102 133 173 221 275 332
#     4  10  21  39  57  74  98 144 203 244 269 320
#
# _framework density 21.122719
#
# number of rings (size 3 to 8) (size 9 to 14) (size 15 to 20)
#    0.000    2.714    0.000    5.143    0.000    6.286 
#    7.714    0.000    0.000    3.429    0.000    0.000 
#    0.000   25.714    0.000    0.000    0.000    0.000 
#
# Total GULP energy -346926.597501 kJ/mol
# GULP energy per Si atom -12390.235625 kJ/mol
# Density = 2.107464 g / cm^3
# Si number density = 21.122719 Si / 1000 Ang^3
#
#
#
# Elastic Constant Matrix: (Units=GPa)
#
#
# Indices 1 2 3 4 5 6 
#
# 1 108.5211 54.5593 8.0009 0.0000 27.2709 0.0000
# 2 54.5593 136.6065 30.1090 0.0000 20.6213 0.0000
# 3 8.0009 30.1090 62.4235 0.0000 10.8420 0.0000
# 4 0.0000 0.0000 0.0000 7.6077 0.0000 -5.1136
# 5 27.2709 20.6213 10.8420 0.0000 25.3923 0.0000
# 6 0.0000 0.0000 0.0000 -5.1136 0.0000 16.6848
#
#
#
# Elastic Compliance Matrix: (Units=1/GPa)
#
#
# Indices 1 2 3 4 5 6 
#
# 1 0.014529 -0.004378 0.002530 0.000000 -0.013128 0.000000
# 2 -0.004378 0.010248 -0.004053 0.000000 -0.001889 0.000000
# 3 0.002530 -0.004053 0.018956 0.000000 -0.007519 0.000000
# 4 0.000000 0.000000 0.000000 0.165549 0.000000 0.050738
# 5 -0.013128 -0.001889 -0.007519 0.000000 0.058226 0.000000
# 6 0.000000 0.000000 0.000000 0.050738 0.000000 0.075485
#
#
# Mechanical properties :
#
#
# Convention : Reuss Voigt Hill
#
# Bulk Modulus (GPa) = 31.32012 54.76550 43.04281
# Shear Modulus (GPa) = 13.68217 24.26243 18.97230
#
# Velocity S-wave (km/s) = 2.54785 3.39284 3.00024
# Velocity P-wave (km/s) = 4.84925 6.42900 5.69418
#
# Compressibility (1/GPa) = 0.03192836
#
# Stress axis : x y z
#
# Youngs Moduli (GPa) = 68.83017 97.58416 52.75249
#
# Poissons Ratio (x) = 0.42727 -0.13345
# Poissons Ratio (y) = 0.30137 0.21383
# Poissons Ratio (z) = -0.17413 0.39555
#
# Static dielectric constant tensor:
#      x y z
#    x 4.818400 0.000000 0.264460 
#    y 0.000000 3.482870 0.000000 
#    z 0.264460 0.000000 3.704750 
# 
# 
# High freq. dielectric constant tensor:
#      x y z
#    x 1.853990 0.000000 0.015410 
#    y 0.000000 1.796690 0.000000 
#    z 0.015410 0.000000 1.776270 
# 
# From -- ./inp_files/61785.got.cif
#   From: 2010.06.25/outbox.cif.g09.slc.cpg/sg10_31_cif.got.tgz:61785.got - 2010.06.27 22:07:45.
