data_PCOD8057718
_publ_section_title
;
Structure prediction by ZEFSAII (Michael W. Deem and Ramdas Pophale) SiO2 
 PCOD8057718
Probable space group: P 2/M
;
_chemical_formula_sum "Si O2"
_cell_formula_units_Z 32
_cell_length_a 21.834598
_cell_length_b 8.815979
_cell_length_c 12.308009
_cell_angle_alpha 90.000000
_cell_angle_beta 46.361786
_cell_angle_gamma 90.000000
_cell_volume 1714.625102
_symmetry_space_group_name_H-M "P 2/M"
_symmetry_group_IT_number 10
_symmetry_cell_setting 'monoclinic'
loop_
_space_group_symop_operation_xyz
x,y,z
-x,y,-z
-x,-y,-z
x,-y,z
loop_
_atom_site_type_symbol
_atom_site_label
_atom_site_fract_x
_atom_site_fract_y
_atom_site_fract_z
Si Si1 0.289486 0.679485 0.446524
Si Si2 0.067279 0.163898 0.828686
Si Si3 0.278401 0.322842 0.124407
Si Si4 0.401984 0.823252 0.131030
Si Si5 0.146145 0.679482 0.459606
Si Si6 0.792486 0.678217 0.017728
Si Si7 0.758294 0.177938 0.283403
Si Si8 0.979178 0.675177 0.753198
O O1 0.291415 0.500000 0.454571
O O2 0.367125 0.731309 0.276530
O O3 0.201726 0.737343 0.495955
O O4 0.303441 0.750982 0.549433
O O5 0.149477 0.225255 0.788945
O O6 0.030807 0.298499 0.800271
O O7 0.084596 0.000000 0.747088
O O8 0.000000 0.124991 0.000000
O O9 0.294927 0.500000 0.126441
O O10 0.356999 0.228709 0.074416
O O11 0.192017 0.271571 0.292109
O O12 0.268271 0.287805 0.009716
O O13 0.385157 0.000000 0.170431
O O14 0.500000 0.784865 0.000000
O O15 0.141701 0.500000 0.473938
O O16 0.048094 0.740829 0.580373
O O17 0.801808 0.500000 0.028680
O O18 0.747125 0.753008 0.176918
O O19 0.885778 0.750802 0.875112
O O20 0.741968 0.000000 0.295418
O O21 0.962927 0.500000 0.750160
#
# Coordination Sequence:
#
# PCOD8057718 Si02
#       8
#     4   4   4   4   4   4   4   4
#     4  10  19  33  55  83 111 136 171 217 265 313
#     4  10  19  30  42  63  96 137 183 231 272 306
#     4   9  19  36  54  76 107 141 179 218 262 316
#     4  10  21  38  62  90 113 133 162 202 255 319
#     4   8  15  28  47  71  98 132 174 223 268 303
#     4  10  21  33  48  72 104 146 190 228 263 307
#     4  11  21  32  49  72 104 145 184 224 270 315
#     4  10  18  28  45  69  98 137 184 231 271 303
#
# _framework density 18.662972
#
# number of rings (size 3 to 8) (size 9 to 14) (size 15 to 20)
#    0.000    2.250    2.500    1.875    0.000    2.750 
#    0.000    2.500    0.000    0.750    0.000    8.750 
#    0.000    0.000    0.000    0.000    0.000    0.000 
#
# Total GULP energy -396464.288714 kJ/mol
# GULP energy per Si atom -12389.509022 kJ/mol
# Density = 1.862049 g / cm^3
# Si number density = 18.662972 Si / 1000 Ang^3
#
#
#
# Elastic Constant Matrix: (Units=GPa)
#
#
# Indices 1 2 3 4 5 6 
#
# 1 71.7282 30.3652 56.8701 0.0000 9.6406 0.0000
# 2 30.3652 54.2441 37.7161 0.0000 3.6887 0.0000
# 3 56.8701 37.7161 101.6857 0.0000 11.6148 0.0000
# 4 0.0000 0.0000 0.0000 23.5255 0.0000 -0.2172
# 5 9.6406 3.6887 11.6148 0.0000 29.4868 0.0000
# 6 0.0000 0.0000 0.0000 -0.2172 0.0000 18.7201
#
#
#
# Elastic Compliance Matrix: (Units=1/GPa)
#
#
# Indices 1 2 3 4 5 6 
#
# 1 0.026736 -0.006206 -0.012294 0.000000 -0.003122 0.000000
# 2 -0.006206 0.026291 -0.006426 0.000000 0.001271 0.000000
# 3 -0.012294 -0.006426 0.019416 0.000000 -0.002825 0.000000
# 4 0.000000 0.000000 0.000000 0.042512 0.000000 0.000493
# 5 -0.003122 0.001271 -0.002825 0.000000 0.035888 0.000000
# 6 0.000000 0.000000 0.000000 0.000493 0.000000 0.053424
#
#
# Mechanical properties :
#
#
# Convention : Reuss Voigt Hill
#
# Bulk Modulus (GPa) = 44.26603 53.06232 48.66417
# Shear Modulus (GPa) = 19.10960 21.19357 20.15158
#
# Velocity S-wave (km/s) = 3.20336 3.37351 3.28954
# Velocity P-wave (km/s) = 6.11982 6.60816 6.36867
#
# Compressibility (1/GPa) = 0.02259069
#
# Stress axis : x y z
#
# Youngs Moduli (GPa) = 37.40288 38.03635 51.50370
#
# Poissons Ratio (x) = 0.23605 0.63320
# Poissons Ratio (y) = 0.23212 0.33095
# Poissons Ratio (z) = 0.45984 0.24441
#
# Static dielectric constant tensor:
#      x y z
#    x 3.187260 0.000000 0.051550 
#    y 0.000000 3.293730 0.000000 
#    z 0.051550 0.000000 3.565000 
# 
# 
# High freq. dielectric constant tensor:
#      x y z
#    x 1.690380 0.000000 0.010340 
#    y 0.000000 1.709960 0.000000 
#    z 0.010340 0.000000 1.725570 
# 
# From -- ./inp_files/55270.got.cif
#   From: 2010.06.25/outbox.cif.g09.slc.cpg/sg10_28_cif.got.tgz:55270.got - 2010.06.27 22:07:45.
