data_PCOD8057382
_publ_section_title
;
Structure prediction by ZEFSAII (Michael W. Deem and Ramdas Pophale) SiO2 
 PCOD8057382
Probable space group: P 2/M
;
_chemical_formula_sum "Si O2"
_cell_formula_units_Z 28
_cell_length_a 31.682893
_cell_length_b 8.505837
_cell_length_c 9.677456
_cell_angle_alpha 90.000000
_cell_angle_beta 145.023367
_cell_angle_gamma 90.000000
_cell_volume 1495.000479
_symmetry_space_group_name_H-M "P 2/M"
_symmetry_group_IT_number 10
_symmetry_cell_setting 'monoclinic'
loop_
_space_group_symop_operation_xyz
x,y,z
-x,y,-z
-x,-y,-z
x,-y,z
loop_
_atom_site_type_symbol
_atom_site_label
_atom_site_fract_x
_atom_site_fract_y
_atom_site_fract_z
Si Si1 0.193725 0.683426 0.178786
Si Si2 0.581202 0.815711 0.214407
Si Si3 0.699415 0.183253 0.316638
Si Si4 0.299676 0.184048 0.250374
Si Si5 0.944531 0.686416 0.038322
Si Si6 0.900704 0.686633 0.621716
Si Si7 0.738718 0.684581 0.138051
O O1 0.198276 0.500000 0.153826
O O2 0.238600 0.715322 0.439857
O O3 0.224416 0.781200 0.131909
O O4 0.109035 0.738463 0.979862
O O5 0.619975 0.778643 0.171927
O O6 0.631982 0.750734 0.475480
O O7 0.573390 0.000000 0.217017
O O8 0.500000 0.736640 0.000000
O O9 0.695770 0.229858 0.146846
O O10 0.718240 0.000000 0.386471
O O11 0.305026 0.000000 0.235960
O O12 0.302349 0.274959 0.113467
O O13 0.942133 0.500000 0.020516
O O14 0.029650 0.742520 0.286897
O O15 0.913189 0.753727 0.809391
O O16 0.898230 0.500000 0.616832
O O17 0.822893 0.749668 0.355049
O O18 0.736236 0.500000 0.158751
#
# Coordination Sequence:
#
# PCOD8057382 Si02
#       7
#     4   4   4   4   4   4   4
#     4  10  17  30  52  76  99 131 173 214 251 298
#     4   8  16  34  58  79  97 125 168 206 238 291
#     4  10  19  31  52  79 105 132 164 207 252 295
#     4  10  21  35  52  75 104 134 163 207 258 301
#     4   8  13  24  45  72  97 123 168 219 251 279
#     4   8  14  25  44  71  98 127 167 215 250 280
#     4  11  20  33  52  75 103 137 173 208 248 300
#
# _framework density 18.729089999999999
#
# number of rings (size 3 to 8) (size 9 to 14) (size 15 to 20)
#    0.000    2.714    1.429    3.429    0.000    0.000 
#    0.000    1.429    0.000   28.286    0.000    0.000 
#    0.000    0.000    0.000    0.000    0.000    0.000 
#
# Total GULP energy -347005.415727 kJ/mol
# GULP energy per Si atom -12393.050562 kJ/mol
# Density = 1.868646 g / cm^3
# Si number density = 18.729090 Si / 1000 Ang^3
#
#
#
# Elastic Constant Matrix: (Units=GPa)
#
#
# Indices 1 2 3 4 5 6 
#
# 1 122.1964 13.4174 64.3320 0.0000 10.0851 0.0000
# 2 13.4174 28.6028 12.1518 0.0000 7.0256 0.0000
# 3 64.3320 12.1518 88.8552 0.0000 7.2001 0.0000
# 4 0.0000 0.0000 0.0000 9.7742 0.0000 2.9752
# 5 10.0851 7.0256 7.2001 0.0000 34.4349 0.0000
# 6 0.0000 0.0000 0.0000 2.9752 0.0000 21.0111
#
#
#
# Elastic Compliance Matrix: (Units=1/GPa)
#
#
# Indices 1 2 3 4 5 6 
#
# 1 0.013445 -0.001949 -0.009339 0.000000 -0.001587 0.000000
# 2 -0.001949 0.038948 -0.003375 0.000000 -0.006670 0.000000
# 3 -0.009339 -0.003375 0.018514 0.000000 -0.000447 0.000000
# 4 0.000000 0.000000 0.000000 0.106919 0.000000 -0.015140
# 5 -0.001587 -0.006670 -0.000447 0.000000 0.030960 0.000000
# 6 0.000000 0.000000 0.000000 -0.015140 0.000000 0.049738
#
#
# Mechanical properties :
#
#
# Convention : Reuss Voigt Hill
#
# Bulk Modulus (GPa) = 24.04982 46.60633 35.32808
# Shear Modulus (GPa) = 16.57218 23.02758 19.79988
#
# Velocity S-wave (km/s) = 2.97785 3.51024 3.25495
# Velocity P-wave (km/s) = 4.96912 6.43176 5.74716
#
# Compressibility (1/GPa) = 0.04158034
#
# Stress axis : x y z
#
# Youngs Moduli (GPa) = 74.37451 25.67524 54.01363
#
# Poissons Ratio (x) = 0.05005 0.50446
# Poissons Ratio (y) = 0.14499 0.18227
# Poissons Ratio (z) = 0.69461 0.08664
#
# Static dielectric constant tensor:
#      x y z
#    x 3.680170 0.000000 0.332290 
#    y 0.000000 3.065410 0.000000 
#    z 0.332290 0.000000 3.479540 
# 
# 
# High freq. dielectric constant tensor:
#      x y z
#    x 1.732940 0.000000 0.010800 
#    y 0.000000 1.694700 0.000000 
#    z 0.010800 0.000000 1.700840 
# 
# From -- ./inp_files/37099.got.cif
#   From: 2010.06.25/outbox.cif.g09.slc.cpg/sg10_19_cif.got.tgz:37099.got - 2010.06.27 22:07:45.
