data_PCOD8057748
_publ_section_title
;
Structure prediction by ZEFSAII (Michael W. Deem and Ramdas Pophale) SiO2 
 PCOD8057748
Probable space group: P 2/M
;
_chemical_formula_sum "Si O2"
_cell_formula_units_Z 30
_cell_length_a 12.548932
_cell_length_b 14.624806
_cell_length_c 8.795660
_cell_angle_alpha 90.000000
_cell_angle_beta 71.231574
_cell_angle_gamma 90.000000
_cell_volume 1528.395719
_symmetry_space_group_name_H-M "P 2/M"
_symmetry_group_IT_number 10
_symmetry_cell_setting 'monoclinic'
loop_
_space_group_symop_operation_xyz
x,y,z
-x,y,-z
-x,-y,-z
x,-y,z
loop_
_atom_site_type_symbol
_atom_site_label
_atom_site_fract_x
_atom_site_fract_y
_atom_site_fract_z
Si Si1 0.174861 0.100668 0.487013
Si Si2 0.299007 0.396714 0.545317
Si Si3 0.683591 0.746939 0.700304
Si Si4 0.959692 0.101654 0.762567
Si Si5 0.858290 0.282024 0.878205
Si Si6 0.961356 0.393808 0.353559
Si Si7 0.321202 0.394126 0.875905
Si Si8 0.500000 0.700642 0.000000
O O1 0.282305 0.167228 0.421003
O O2 0.109651 0.097004 0.359594
O O3 0.088017 0.131181 0.660617
O O4 0.222075 0.000000 0.504602
O O5 0.315975 0.500000 0.480963
O O6 0.357244 0.333588 0.392836
O O7 0.168017 0.371333 0.615064
O O8 0.355246 0.381977 0.684127
O O9 0.789260 0.714678 0.752046
O O10 0.577742 0.767057 0.860375
O O11 0.899894 0.177812 0.897983
O O12 0.957492 0.000000 0.840433
O O13 0.969653 0.342167 0.808092
O O14 0.784026 0.326351 0.045301
O O15 0.989197 0.500000 0.325583
O O16 0.000000 0.356478 0.500000
O O17 0.287535 0.500000 0.924043
O O18 0.425556 0.366488 0.931758
#
# Coordination Sequence:
#
# PCOD8057748 Si02
#       8
#     4   4   4   4   4   4   4   2
#     4   8  14  26  47  76 107 135 166 209 255 304
#     4  10  21  34  51  76 105 135 172 211 255 312
#     4  10  19  33  52  75 101 133 175 217 260 309
#     4   8  14  24  44  76 108 137 171 207 247 301
#     4  10  18  29  51  74 106 142 173 207 252 302
#     4  10  18  28  46  75 105 136 169 201 243 305
#     4  10  22  38  52  73 102 136 178 223 264 305
#     4  10  23  38  55  74  96 132 175 228 275 308
#
# _framework density 19.628423999999999
#
# number of rings (size 3 to 8) (size 9 to 14) (size 15 to 20)
#    0.000    2.533    1.333    2.200    1.867    3.733 
#    0.000    3.667    0.000    1.600    0.000    3.733 
#    0.000    0.000    0.000    0.000    0.000    0.000 
#
# Total GULP energy -371845.312680 kJ/mol
# GULP energy per Si atom -12394.843756 kJ/mol
# Density = 1.958375 g / cm^3
# Si number density = 19.628424 Si / 1000 Ang^3
#
#
#
# Elastic Constant Matrix: (Units=GPa)
#
#
# Indices 1 2 3 4 5 6 
#
# 1 56.8308 33.2035 31.1529 0.0000 -10.3268 0.0000
# 2 33.2035 105.5788 48.9521 0.0000 -21.5147 0.0000
# 3 31.1529 48.9521 66.0225 0.0000 -16.4032 0.0000
# 4 0.0000 0.0000 0.0000 22.7965 0.0000 -6.2409
# 5 -10.3268 -21.5147 -16.4032 0.0000 28.7153 0.0000
# 6 0.0000 0.0000 0.0000 -6.2409 0.0000 9.6574
#
#
#
# Elastic Compliance Matrix: (Units=1/GPa)
#
#
# Indices 1 2 3 4 5 6 
#
# 1 0.024635 -0.003419 -0.008769 0.000000 0.001289 0.000000
# 2 -0.003419 0.015688 -0.008628 0.000000 0.005596 0.000000
# 3 -0.008769 -0.008628 0.027144 0.000000 0.005888 0.000000
# 4 0.000000 0.000000 0.000000 0.053295 0.000000 0.034441
# 5 0.001289 0.005596 0.005888 0.000000 0.042844 0.000000
# 6 0.000000 0.000000 0.000000 0.034441 0.000000 0.125804
#
#
# Mechanical properties :
#
#
# Convention : Reuss Voigt Hill
#
# Bulk Modulus (GPa) = 38.70796 50.56101 44.63448
# Shear Modulus (GPa) = 14.72096 19.90875 17.31485
#
# Velocity S-wave (km/s) = 2.74155 3.18823 2.97329
# Velocity P-wave (km/s) = 5.45753 6.27440 5.88017
#
# Compressibility (1/GPa) = 0.02583448
#
# Stress axis : x y z
#
# Youngs Moduli (GPa) = 40.59333 63.74501 36.84080
#
# Poissons Ratio (x) = 0.21795 0.32305
# Poissons Ratio (y) = 0.13879 0.31786
# Poissons Ratio (z) = 0.35595 0.54999
#
# Static dielectric constant tensor:
#      x y z
#    x 3.383130 0.000000 -0.115610 
#    y 0.000000 3.864550 0.000000 
#    z -0.115610 0.000000 3.444330 
# 
# 
# High freq. dielectric constant tensor:
#      x y z
#    x 1.738140 0.000000 -0.009750 
#    y 0.000000 1.758860 0.000000 
#    z -0.009750 0.000000 1.747750 
# 
# From -- ./inp_files/25287.got.cif
#   From: 2010.06.25/outbox.cif.g09.slc.cpg/sg10_13_cif.got.tgz:25287.got - 2010.06.27 22:07:45.
