data_PCOD8057721
_publ_section_title
;
Structure prediction by ZEFSAII (Michael W. Deem and Ramdas Pophale) SiO2 
 PCOD8057721
Probable space group: P 2/M
;
_chemical_formula_sum "Si O2"
_cell_formula_units_Z 32
_cell_length_a 23.286460
_cell_length_b 8.862412
_cell_length_c 12.590821
_cell_angle_alpha 90.000000
_cell_angle_beta 46.950033
_cell_angle_gamma 90.000000
_cell_volume 1898.818389
_symmetry_space_group_name_H-M "P 2/M"
_symmetry_group_IT_number 10
_symmetry_cell_setting 'monoclinic'
loop_
_space_group_symop_operation_xyz
x,y,z
-x,y,-z
-x,-y,-z
x,-y,z
loop_
_atom_site_type_symbol
_atom_site_label
_atom_site_fract_x
_atom_site_fract_y
_atom_site_fract_z
Si Si1 0.516700 0.332800 0.603384
Si Si2 0.083445 0.177572 0.431627
Si Si3 0.654254 0.321506 0.159802
Si Si4 0.933618 0.825187 0.309239
Si Si5 0.903576 0.323171 0.944734
Si Si6 0.666478 0.173414 0.369336
Si Si7 0.198649 0.821111 0.107541
Si Si8 0.836291 0.827709 0.229151
O O1 0.500000 0.338253 0.500000
O O2 0.538042 0.500000 0.618053
O O3 0.435200 0.274769 0.759667
O O4 0.590263 0.223905 0.534283
O O5 0.100252 0.219892 0.532478
O O6 0.152875 0.241317 0.269115
O O7 0.000000 0.247984 0.500000
O O8 0.080066 0.000000 0.418142
O O9 0.663758 0.500000 0.145549
O O10 0.676058 0.268662 0.250513
O O11 0.713526 0.246579 0.000903
O O12 0.864558 0.793843 0.312804
O O13 0.007159 0.721097 0.190070
O O14 0.960908 0.000000 0.274064
O O15 0.892036 0.500000 0.940458
O O16 0.845515 0.231879 0.942213
O O17 0.882941 0.282057 0.091672
O O18 0.742994 0.201449 0.344768
O O19 0.656473 0.000000 0.349592
O O20 0.204511 0.000000 0.098166
O O21 0.855813 0.000000 0.172004
#
# Coordination Sequence:
#
# PCOD8057721 Si02
#       8
#     4   4   4   4   4   4   4   4
#     4   8  16  29  44  64  95 130 159 188 235 290
#     4   9  17  32  54  74  91 119 163 208 247 287
#     4  10  19  31  46  69  99 129 158 194 242 291
#     4  10  20  37  55  69  93 129 166 204 245 289
#     4  12  23  33  48  71 100 131 163 201 243 285
#     4  10  18  28  45  70  98 128 162 195 231 283
#     4  11  20  32  52  74  96 126 165 203 243 291
#     4  10  21  34  50  72  98 131 165 198 239 288
#
# _framework density 16.852587
#
# number of rings (size 3 to 8) (size 9 to 14) (size 15 to 20)
#    0.000    2.000    2.500    3.375    0.000    5.250 
#    0.000    1.875    0.000    0.000    0.000    0.875 
#    0.000    7.000    0.000    0.000    0.000    0.000 
#
# Total GULP energy -396758.509628 kJ/mol
# GULP energy per Si atom -12398.703426 kJ/mol
# Density = 1.681423 g / cm^3
# Si number density = 16.852587 Si / 1000 Ang^3
#
#
#
# Elastic Constant Matrix: (Units=GPa)
#
#
# Indices 1 2 3 4 5 6 
#
# 1 52.7862 24.6157 60.3897 0.0000 -2.8745 0.0000
# 2 24.6157 65.5177 42.3128 0.0000 -9.3915 0.0000
# 3 60.3897 42.3128 139.3635 0.0000 -16.4667 0.0000
# 4 0.0000 0.0000 0.0000 17.0956 0.0000 -10.4051
# 5 -2.8745 -9.3915 -16.4667 0.0000 30.1720 0.0000
# 6 0.0000 0.0000 0.0000 -10.4051 0.0000 10.7024
#
#
#
# Elastic Compliance Matrix: (Units=1/GPa)
#
#
# Indices 1 2 3 4 5 6 
#
# 1 0.039925 -0.005332 -0.016492 0.000000 -0.006857 0.000000
# 2 -0.005332 0.019948 -0.003284 0.000000 0.003909 0.000000
# 3 -0.016492 -0.003284 0.016047 0.000000 0.006165 0.000000
# 4 0.000000 0.000000 0.000000 0.143274 0.000000 0.139294
# 5 -0.006857 0.003909 0.006165 0.000000 0.037071 0.000000
# 6 0.000000 0.000000 0.000000 0.139294 0.000000 0.228861
#
#
# Mechanical properties :
#
#
# Convention : Reuss Voigt Hill
#
# Bulk Modulus (GPa) = 38.90482 56.92265 47.91374
# Shear Modulus (GPa) = 9.19271 20.28395 14.73833
#
# Velocity S-wave (km/s) = 2.33808 3.47307 2.96048
# Velocity P-wave (km/s) = 5.51582 7.06634 6.33867
#
# Compressibility (1/GPa) = 0.02570375
#
# Stress axis : x y z
#
# Youngs Moduli (GPa) = 25.04723 50.13143 62.31662
#
# Poissons Ratio (x) = 0.26732 1.02769
# Poissons Ratio (y) = 0.13356 0.20464
# Poissons Ratio (z) = 0.41307 0.16463
#
# Static dielectric constant tensor:
#      x y z
#    x 3.133090 0.000000 -0.319220 
#    y 0.000000 3.111620 0.000000 
#    z -0.319220 0.000000 3.445350 
# 
# 
# High freq. dielectric constant tensor:
#      x y z
#    x 1.623820 0.000000 -0.025330 
#    y 0.000000 1.643970 0.000000 
#    z -0.025330 0.000000 1.643440 
# 
# From -- ./inp_files/52742.got.cif
#   From: 2010.06.25/outbox.cif.g09.slc.cpg/sg10_27_cif.got.tgz:52742.got - 2010.06.27 22:07:45.
