data_PCOD8057531
_publ_section_title
;
Structure prediction by ZEFSAII (Michael W. Deem and Ramdas Pophale) SiO2 
 PCOD8057531
Probable space group: P 2/M
;
_chemical_formula_sum "Si O2"
_cell_formula_units_Z 26
_cell_length_a 17.236899
_cell_length_b 9.461217
_cell_length_c 7.615463
_cell_angle_alpha 90.000000
_cell_angle_beta 71.092473
_cell_angle_gamma 90.000000
_cell_volume 1174.933364
_symmetry_space_group_name_H-M "P 2/M"
_symmetry_group_IT_number 10
_symmetry_cell_setting 'monoclinic'
loop_
_space_group_symop_operation_xyz
x,y,z
-x,y,-z
-x,-y,-z
x,-y,z
loop_
_atom_site_type_symbol
_atom_site_label
_atom_site_fract_x
_atom_site_fract_y
_atom_site_fract_z
Si Si1 0.962769 0.656930 0.223390
Si Si2 0.500000 0.245221 0.500000
Si Si3 0.697026 0.659611 0.842193
Si Si4 0.864309 0.663362 0.847057
Si Si5 0.820022 0.830961 0.222137
Si Si6 0.671244 0.342140 0.265388
Si Si7 0.561816 0.842959 0.812116
O O1 0.928223 0.500000 0.289746
O O2 0.889726 0.770289 0.304633
O O3 0.042463 0.689653 0.290427
O O4 0.000000 0.663239 0.000000
O O5 0.578845 0.341125 0.403878
O O6 0.480653 0.148781 0.346351
O O7 0.673327 0.500000 0.812891
O O8 0.795432 0.685536 0.746215
O O9 0.646282 0.755282 0.744330
O O10 0.671859 0.698328 0.059676
O O11 0.856703 0.500000 0.923097
O O12 0.844460 0.775442 0.012936
O O13 0.729622 0.767170 0.330300
O O14 0.817779 0.000000 0.233964
O O15 0.706494 0.500000 0.265101
O O16 0.584334 0.000000 0.857841
O O17 0.500000 0.773521 0.000000
#
# Coordination Sequence:
#
# PCOD8057531 Si02
#       7
#     4   2   4   4   4   4   4
#     4   8  13  24  42  65 101 145 188 233 283 337
#     4  12  24  42  64  88 110 150 202 248 284 350
#     4   9  18  35  57  82 113 149 191 241 289 342
#     4   8  15  28  46  71 104 146 191 236 286 339
#     4  10  18  26  42  71 109 148 187 234 288 343
#     4  10  21  37  57  81 110 147 195 244 295 346
#     4  11  24  41  60  85 118 155 192 237 294 350
#
# _framework density 22.128914999999999
#
# number of rings (size 3 to 8) (size 9 to 14) (size 15 to 20)
#    0.000    2.462    1.538    3.692    0.000    8.000 
#    0.000    0.000    0.000    0.000    0.000    1.077 
#    0.000    7.385    0.000    0.000    0.000    0.000 
#
# Total GULP energy -322150.066987 kJ/mol
# GULP energy per Si atom -12390.387192 kJ/mol
# Density = 2.207855 g / cm^3
# Si number density = 22.128915 Si / 1000 Ang^3
#
#
#
# Elastic Constant Matrix: (Units=GPa)
#
#
# Indices 1 2 3 4 5 6 
#
# 1 205.8104 88.4363 31.5827 0.0000 3.2995 0.0000
# 2 88.4363 138.3401 13.6932 0.0000 -1.2846 0.0000
# 3 31.5827 13.6932 39.3276 0.0000 3.3971 0.0000
# 4 0.0000 0.0000 0.0000 5.0481 0.0000 7.0656
# 5 3.2995 -1.2846 3.3971 0.0000 24.1269 0.0000
# 6 0.0000 0.0000 0.0000 7.0656 0.0000 26.5893
#
#
#
# Elastic Compliance Matrix: (Units=1/GPa)
#
#
# Indices 1 2 3 4 5 6 
#
# 1 0.007386 -0.004294 -0.004383 0.000000 -0.000622 0.000000
# 2 -0.004294 0.009997 -0.000131 0.000000 0.001138 0.000000
# 3 -0.004383 -0.000131 0.029298 0.000000 -0.003533 0.000000
# 4 0.000000 0.000000 0.000000 0.315407 0.000000 -0.083814
# 5 -0.000622 0.001138 -0.003533 0.000000 0.042091 0.000000
# 6 0.000000 0.000000 0.000000 -0.083814 0.000000 0.059881
#
#
# Mechanical properties :
#
#
# Convention : Reuss Voigt Hill
#
# Bulk Modulus (GPa) = 34.40447 72.32250 53.36349
# Shear Modulus (GPa) = 10.17575 27.80389 18.98982
#
# Velocity S-wave (km/s) = 2.14671 3.54849 2.93259
# Velocity P-wave (km/s) = 4.66107 7.03863 5.96942
#
# Compressibility (1/GPa) = 0.02906599
#
# Stress axis : x y z
#
# Youngs Moduli (GPa) = 135.38247 100.02992 34.13197
#
# Poissons Ratio (x) = 0.42951 0.14960
# Poissons Ratio (y) = 0.58131 0.00447
# Poissons Ratio (z) = 0.59339 0.01309
#
# Static dielectric constant tensor:
#      x y z
#    x 4.743570 0.000000 -0.039120 
#    y 0.000000 3.620220 0.000000 
#    z -0.039120 0.000000 3.409320 
# 
# 
# High freq. dielectric constant tensor:
#      x y z
#    x 1.899030 0.000000 -0.003040 
#    y 0.000000 1.845100 0.000000 
#    z -0.003040 0.000000 1.821210 
# 
# From -- ./inp_files/31551.got.cif
#   From: 2010.06.25/outbox.cif.g09.slc.cpg/sg10_16_cif.got.tgz:31551.got - 2010.06.27 22:07:45.
