data_PCOD8057140
_publ_section_title
;
Structure prediction by ZEFSAII (Michael W. Deem and Ramdas Pophale) SiO2 
 PCOD8057140
Probable space group: P 2/M
;
_chemical_formula_sum "Si O2"
_cell_formula_units_Z 24
_cell_length_a 15.090878
_cell_length_b 14.469496
_cell_length_c 9.000089
_cell_angle_alpha 90.000000
_cell_angle_beta 35.413384
_cell_angle_gamma 90.000000
_cell_volume 1138.798397
_symmetry_space_group_name_H-M "P 2/M"
_symmetry_group_IT_number 10
_symmetry_cell_setting 'monoclinic'
loop_
_space_group_symop_operation_xyz
x,y,z
-x,y,-z
-x,-y,-z
x,-y,z
loop_
_atom_site_type_symbol
_atom_site_label
_atom_site_fract_x
_atom_site_fract_y
_atom_site_fract_z
Si Si1 0.892189 0.103042 0.003569
Si Si2 0.810837 0.891816 0.548536
Si Si3 0.843006 0.604452 0.293430
Si Si4 0.387205 0.238421 0.013169
Si Si5 0.156870 0.394654 0.358542
Si Si6 0.327437 0.782514 0.537703
O O1 0.004310 0.123565 0.709428
O O2 0.824522 0.000000 0.084384
O O3 0.747120 0.173176 0.210776
O O4 0.000000 0.112620 0.000000
O O5 0.736236 0.843906 0.795023
O O6 0.736785 0.843756 0.507977
O O7 0.769953 0.000000 0.604049
O O8 0.792644 0.500000 0.321774
O O9 0.866347 0.617471 0.435367
O O10 0.714703 0.674559 0.412728
O O11 0.000000 0.631613 0.000000
O O12 0.297873 0.333780 0.107955
O O13 0.500000 0.250606 0.000000
O O14 0.487602 0.214672 0.728277
O O15 0.193798 0.500000 0.263309
O O16 0.000000 0.360428 0.500000
#
# Coordination Sequence:
#
# PCOD8057140 Si02
#       6
#     4   4   4   4   4   4
#     4   8  14  24  40  65 101 137 165 201 258 308
#     4   9  16  26  42  69 105 138 170 214 260 305
#     4  10  19  31  51  79 103 131 173 219 261 306
#     4  10  19  30  47  80 104 133 172 221 266 306
#     4  10  21  37  55  75 104 143 178 210 258 323
#     4  10  17  26  44  73 106 130 165 216 268 298
#
# _framework density 21.074845
#
# number of rings (size 3 to 8) (size 9 to 14) (size 15 to 20)
#    0.000    2.500    3.333    3.000    0.000    4.667 
#    0.000    0.000    0.000    1.500    0.000    4.667 
#    0.000    2.667    0.000    0.000    0.000    0.000 
#
# Total GULP energy -297406.206512 kJ/mol
# GULP energy per Si atom -12391.925271 kJ/mol
# Density = 2.102688 g / cm^3
# Si number density = 21.074845 Si / 1000 Ang^3
#
#
#
# Elastic Constant Matrix: (Units=GPa)
#
#
# Indices 1 2 3 4 5 6 
#
# 1 13.1659 20.7691 15.2245 0.0000 -14.7769 0.0000
# 2 20.7691 144.0354 90.4764 0.0000 -18.2897 0.0000
# 3 15.2245 90.4764 199.0704 0.0000 -29.3829 0.0000
# 4 0.0000 0.0000 0.0000 29.2223 0.0000 -4.7392
# 5 -14.7769 -18.2897 -29.3829 0.0000 12.1891 0.0000
# 6 0.0000 0.0000 0.0000 -4.7392 0.0000 7.7922
#
#
#
# Elastic Compliance Matrix: (Units=1/GPa)
#
#
# Indices 1 2 3 4 5 6 
#
# 1 -0.119764 0.007169 -0.021641 0.000000 -0.186601 0.000000
# 2 0.007169 0.009590 -0.002329 0.000000 0.017466 0.000000
# 3 -0.021641 -0.002329 0.005198 0.000000 -0.017199 0.000000
# 4 0.000000 0.000000 0.000000 0.037965 0.000000 0.023090
# 5 -0.186601 0.017466 -0.017199 0.000000 -0.159429 0.000000
# 6 0.000000 0.000000 0.000000 0.023090 0.000000 0.142378
#
#
# Mechanical properties :
#
#
# Convention : Reuss Voigt Hill
#
# Bulk Modulus (GPa) = -7.21613 67.69020 30.23703
# Shear Modulus (GPa) = -51.73211 25.16083 -13.28564
#
# Velocity S-wave (km/s) = -4.95985 3.45901 -2.51351
# Velocity P-wave (km/s) = 6.01928 6.93842 2.44028
#
# Compressibility (1/GPa) = -0.13857837
#
# Stress axis : x y z
#
# Youngs Moduli (GPa) = -8.34979 104.27844 192.37534
#
# Poissons Ratio (x) = -0.74753 4.16325
# Poissons Ratio (y) = 0.05986 0.44798
# Poissons Ratio (z) = -0.18070 0.24283
#
# Static dielectric constant tensor:
#      x y z
#    x 3.053260 0.000000 -0.120770 
#    y 0.000000 4.073180 0.000000 
#    z -0.120770 0.000000 4.963660 
# 
# 
# High freq. dielectric constant tensor:
#      x y z
#    x 1.750750 0.000000 -0.007210 
#    y 0.000000 1.837820 0.000000 
#    z -0.007210 0.000000 1.846870 
# 
# From -- ./inp_files/29280.got.cif
#   From: 2010.06.25/outbox.cif.g09.slc.cpg/sg10_15_cif.got.tgz:29280.got - 2010.06.27 22:07:45.
