data_PCOD8057104
_publ_section_title
;
Structure prediction by ZEFSAII (Michael W. Deem and Ramdas Pophale) SiO2 
 PCOD8057104
Probable space group: P 2/M
;
_chemical_formula_sum "Si O2"
_cell_formula_units_Z 28
_cell_length_a 18.410639
_cell_length_b 8.550832
_cell_length_c 25.692412
_cell_angle_alpha 90.000000
_cell_angle_beta 157.282948
_cell_angle_gamma 90.000000
_cell_volume 1561.969503
_symmetry_space_group_name_H-M "P 2/M"
_symmetry_group_IT_number 10
_symmetry_cell_setting 'monoclinic'
loop_
_space_group_symop_operation_xyz
x,y,z
-x,y,-z
-x,-y,-z
x,-y,z
loop_
_atom_site_type_symbol
_atom_site_label
_atom_site_fract_x
_atom_site_fract_y
_atom_site_fract_z
Si Si1 0.209102 0.317315 0.806886
Si Si2 0.479678 0.817743 0.914294
Si Si3 0.247571 0.181326 0.201426
Si Si4 0.134086 0.680040 0.021544
Si Si5 0.448400 0.681949 0.523676
Si Si6 0.945878 0.180992 0.712133
Si Si7 0.731053 0.822585 0.990372
O O1 0.170460 0.500000 0.774142
O O2 0.269208 0.240345 0.790583
O O3 0.022320 0.234758 0.706077
O O4 0.378110 0.287189 0.958450
O O5 0.509384 0.000000 0.948304
O O6 0.530909 0.791928 0.887286
O O7 0.254667 0.274775 0.151865
O O8 0.430119 0.220601 0.355272
O O9 0.245751 0.000000 0.186658
O O10 0.059780 0.223174 0.109556
O O11 0.079046 0.500000 0.988245
O O12 0.256914 0.710777 0.051344
O O13 0.500000 0.739244 0.500000
O O14 0.493922 0.500000 0.560777
O O15 0.230814 0.713650 0.390106
O O16 0.101782 0.212900 0.858913
O O17 0.888028 0.000000 0.671246
O O18 0.743193 0.000000 0.978425
#
# Coordination Sequence:
#
# PCOD8057104 Si02
#       7
#     4   4   4   4   4   4   4
#     4  10  17  26  42  65  95 128 163 202 244 290
#     4   9  16  27  43  64  94 129 163 200 242 292
#     4  11  22  37  55  72  96 130 167 202 241 292
#     4  11  21  34  53  75 100 127 161 206 250 289
#     4  11  23  37  53  75 102 129 161 203 247 289
#     4  10  20  33  49  70  99 135 170 201 240 293
#     4   9  18  31  48  72 101 132 166 202 243 293
#
# _framework density 17.926086000000002
#
# number of rings (size 3 to 8) (size 9 to 14) (size 15 to 20)
#    0.000    1.857    0.000    8.571    0.000    6.857 
#    0.000    0.000    0.000    0.000    0.000    1.000 
#    0.000    8.000    0.000    0.000    0.000    0.000 
#
# Total GULP energy -347169.051950 kJ/mol
# GULP energy per Si atom -12398.894713 kJ/mol
# Density = 1.788529 g / cm^3
# Si number density = 17.926086 Si / 1000 Ang^3
#
#
#
# Elastic Constant Matrix: (Units=GPa)
#
#
# Indices 1 2 3 4 5 6 
#
# 1 135.1829 30.4816 36.1507 0.0000 20.4637 0.0000
# 2 30.4816 73.3562 11.9403 0.0000 -1.7049 0.0000
# 3 36.1507 11.9403 45.6876 0.0000 8.3074 0.0000
# 4 0.0000 0.0000 0.0000 24.1077 0.0000 3.2619
# 5 20.4637 -1.7049 8.3074 0.0000 23.7466 0.0000
# 6 0.0000 0.0000 0.0000 3.2619 0.0000 28.8099
#
#
#
# Elastic Compliance Matrix: (Units=1/GPa)
#
#
# Indices 1 2 3 4 5 6 
#
# 1 0.011112 -0.003747 -0.006432 0.000000 -0.007595 0.000000
# 2 -0.003747 0.015639 -0.002044 0.000000 0.005067 0.000000
# 3 -0.006432 -0.002044 0.028333 0.000000 -0.004515 0.000000
# 4 0.000000 0.000000 0.000000 0.042126 0.000000 -0.004770
# 5 -0.007595 0.005067 -0.004515 0.000000 0.050599 0.000000
# 6 0.000000 0.000000 0.000000 -0.004770 0.000000 0.035250
#
#
# Mechanical properties :
#
#
# Convention : Reuss Voigt Hill
#
# Bulk Modulus (GPa) = 32.63921 45.70799 39.17360
# Shear Modulus (GPa) = 22.96544 27.04312 25.00428
#
# Velocity S-wave (km/s) = 3.58315 3.88827 3.73883
# Velocity P-wave (km/s) = 5.94692 6.76103 6.36700
#
# Compressibility (1/GPa) = 0.03063799
#
# Stress axis : x y z
#
# Youngs Moduli (GPa) = 89.99244 63.94078 35.29499
#
# Poissons Ratio (x) = 0.23958 0.22703
# Poissons Ratio (y) = 0.33719 0.07214
# Poissons Ratio (z) = 0.57886 0.13069
#
# Static dielectric constant tensor:
#      x y z
#    x 3.691610 0.000000 0.319310 
#    y 0.000000 3.344580 0.000000 
#    z 0.319310 0.000000 2.941460 
# 
# 
# High freq. dielectric constant tensor:
#      x y z
#    x 1.705540 0.000000 0.025140 
#    y 0.000000 1.708090 0.000000 
#    z 0.025140 0.000000 1.639670 
# 
# From -- ./inp_files/95627.got.cif
#   From: 2010.06.25/outbox.cif.g09.slc.cpg/sg10_48_cif.got.tgz:95627.got - 2010.06.27 22:07:45.
