data_PCOD8057285
_publ_section_title
;
Structure prediction by ZEFSAII (Michael W. Deem and Ramdas Pophale) SiO2 
 PCOD8057285
Probable space group: P 2/M
;
_chemical_formula_sum "Si O2"
_cell_formula_units_Z 32
_cell_length_a 20.148598
_cell_length_b 14.293326
_cell_length_c 14.200035
_cell_angle_alpha 90.000000
_cell_angle_beta 24.191640
_cell_angle_gamma 90.000000
_cell_volume 1675.825680
_symmetry_space_group_name_H-M "P 2/M"
_symmetry_group_IT_number 10
_symmetry_cell_setting 'monoclinic'
loop_
_space_group_symop_operation_xyz
x,y,z
-x,y,-z
-x,-y,-z
x,-y,z
loop_
_atom_site_type_symbol
_atom_site_label
_atom_site_fract_x
_atom_site_fract_y
_atom_site_fract_z
Si Si1 0.171108 0.782747 0.909112
Si Si2 0.334447 0.203560 0.512652
Si Si3 0.994752 0.108769 0.614265
Si Si4 0.673559 0.398096 0.227181
Si Si5 0.619906 0.606361 0.764013
Si Si6 0.336113 0.108854 0.853666
Si Si7 0.472648 0.396073 0.319952
Si Si8 0.836886 0.779095 0.445482
O O1 0.195547 0.819675 0.770039
O O2 0.209826 0.674386 0.874799
O O3 0.296056 0.846776 0.805107
O O4 0.989339 0.788034 0.179095
O O5 0.504189 0.154766 0.311564
O O6 0.344689 0.316017 0.512099
O O7 0.294819 0.175289 0.455456
O O8 0.128628 0.163440 0.503809
O O9 0.000000 0.144124 0.500000
O O10 0.040620 0.000000 0.562593
O O11 0.813492 0.128821 0.883226
O O12 0.500000 0.392901 0.500000
O O13 0.754023 0.500000 0.135263
O O14 0.642391 0.377180 0.155550
O O15 0.682526 0.500000 0.702461
O O16 0.504167 0.607772 0.822194
O O17 0.776847 0.674604 0.551682
O O18 0.500000 0.643044 0.000000
O O19 0.367597 0.000000 0.798607
O O20 0.407181 0.500000 0.434766
#
# Coordination Sequence:
#
# PCOD8057285 Si02
#       8
#     4   4   4   4   4   4   4   4
#     4  11  20  35  51  78 114 150 177 221 274 329
#     4  11  20  34  54  79 111 146 185 223 266 319
#     4   9  20  41  63  81 108 143 177 229 293 333
#     4  10  17  28  50  78 106 141 186 226 261 309
#     4   9  19  37  57  77 110 150 185 223 275 329
#     4  10  21  36  56  81 108 144 189 224 264 330
#     4   9  17  30  50  77 104 137 181 223 264 311
#     4  10  23  36  55  84 111 141 181 228 276 332
#
# _framework density 19.095064000000001
#
# number of rings (size 3 to 8) (size 9 to 14) (size 15 to 20)
#    0.000    2.125    2.500    0.750    0.000    4.000 
#    0.000    0.000    0.000   10.500    0.000    0.000 
#    0.000    0.000    0.000    0.000    0.000    0.000 
#
# Total GULP energy -396425.036883 kJ/mol
# GULP energy per Si atom -12388.282403 kJ/mol
# Density = 1.905160 g / cm^3
# Si number density = 19.095064 Si / 1000 Ang^3
#
#
#
# Elastic Constant Matrix: (Units=GPa)
#
#
# Indices 1 2 3 4 5 6 
#
# 1 125.6427 48.2370 30.0966 0.0000 8.2036 0.0000
# 2 48.2370 88.8255 30.8037 0.0000 -3.0713 0.0000
# 3 30.0966 30.8037 48.8875 0.0000 -3.3077 0.0000
# 4 0.0000 0.0000 0.0000 21.7939 0.0000 0.6535
# 5 8.2036 -3.0713 -3.3077 0.0000 25.5026 0.0000
# 6 0.0000 0.0000 0.0000 0.6535 0.0000 23.5722
#
#
#
# Elastic Compliance Matrix: (Units=1/GPa)
#
#
# Indices 1 2 3 4 5 6 
#
# 1 0.011077 -0.004738 -0.004150 0.000000 -0.004672 0.000000
# 2 -0.004738 0.016440 -0.007269 0.000000 0.002561 0.000000
# 3 -0.004150 -0.007269 0.027866 0.000000 0.004074 0.000000
# 4 0.000000 0.000000 0.000000 0.045923 0.000000 -0.001273
# 5 -0.004672 0.002561 0.004074 0.000000 0.041551 0.000000
# 6 0.000000 0.000000 0.000000 -0.001273 0.000000 0.042458
#
#
# Mechanical properties :
#
#
# Convention : Reuss Voigt Hill
#
# Bulk Modulus (GPa) = 43.34752 53.51446 48.43099
# Shear Modulus (GPa) = 22.19072 24.45497 23.32285
#
# Velocity S-wave (km/s) = 3.41268 3.58256 3.49865
# Velocity P-wave (km/s) = 6.18698 6.72303 6.46057
#
# Compressibility (1/GPa) = 0.02306937
#
# Stress axis : x y z
#
# Youngs Moduli (GPa) = 90.27499 60.82646 35.88617
#
# Poissons Ratio (x) = 0.28818 0.14894
# Poissons Ratio (y) = 0.42770 0.26085
# Poissons Ratio (z) = 0.37467 0.44214
#
# Static dielectric constant tensor:
#      x y z
#    x 3.926220 0.000000 0.046880 
#    y 0.000000 3.623990 0.000000 
#    z 0.046880 0.000000 3.255790 
# 
# 
# High freq. dielectric constant tensor:
#      x y z
#    x 1.758400 0.000000 0.009880 
#    y 0.000000 1.742130 0.000000 
#    z 0.009880 0.000000 1.710110 
# 
# From -- ./inp_files/70732.got.cif
#   From: 2010.06.25/outbox.cif.g09.slc.cpg/sg10_36_cif.got.tgz:70732.got - 2010.06.27 22:07:45.
