data_PCOD8058806
_publ_section_title
;
Structure prediction by ZEFSAII (Michael W. Deem and Ramdas Pophale) SiO2 
 PCOD8058806
Probable space group: P 2/M
;
_chemical_formula_sum "Si O2"
_cell_formula_units_Z 28
_cell_length_a 21.421101
_cell_length_b 8.841722
_cell_length_c 17.518698
_cell_angle_alpha 90.000000
_cell_angle_beta 152.657023
_cell_angle_gamma 90.000000
_cell_volume 1524.024732
_symmetry_space_group_name_H-M "P 2/M"
_symmetry_group_IT_number 10
_symmetry_cell_setting 'monoclinic'
loop_
_space_group_symop_operation_xyz
x,y,z
-x,y,-z
-x,-y,-z
x,-y,z
loop_
_atom_site_type_symbol
_atom_site_label
_atom_site_fract_x
_atom_site_fract_y
_atom_site_fract_z
Si Si1 0.359084 0.680029 0.317823
Si Si2 0.809080 0.179305 0.172455
Si Si3 0.776368 0.322124 0.980663
Si Si4 0.886658 0.175194 0.515948
Si Si5 0.861078 0.674479 0.804958
Si Si6 0.346662 0.819896 0.846195
Si Si7 0.943357 0.175371 0.746555
O O1 0.500000 0.748200 0.500000
O O2 0.355570 0.500000 0.317148
O O3 0.331298 0.731124 0.200583
O O4 0.249260 0.743503 0.257652
O O5 0.714434 0.234180 0.139087
O O6 0.965204 0.241590 0.348977
O O7 0.813934 0.000000 0.172079
O O8 0.740313 0.240520 0.020583
O O9 0.772412 0.500000 0.989965
O O10 0.923151 0.277559 0.108158
O O11 0.758341 0.246963 0.331332
O O12 0.862161 0.202361 0.579291
O O13 0.889420 0.000000 0.497499
O O14 0.834702 0.500000 0.754941
O O15 0.851232 0.771772 0.716856
O O16 0.000000 0.696401 0.000000
O O17 0.353257 0.000000 0.849094
O O18 0.500000 0.754736 0.000000
O O19 0.984363 0.000000 0.798666
#
# Coordination Sequence:
#
# PCOD8058806 Si02
#       7
#     4   4   4   4   4   4   4
#     4   9  18  33  51  70  95 131 172 205 236 289
#     4   9  17  30  50  75  97 124 161 202 246 288
#     4  10  18  32  53  74  98 129 168 205 244 291
#     4   8  15  28  46  68  96 127 160 195 234 288
#     4  10  18  32  53  75  97 128 170 207 240 286
#     4   9  16  28  48  72  97 128 163 197 237 290
#     4  10  19  31  50  77 104 128 160 205 255 289
#
# _framework density 18.372405000000001
#
# number of rings (size 3 to 8) (size 9 to 14) (size 15 to 20)
#    0.000    2.714    1.429    2.143    0.000    2.000 
#    2.571    0.000    0.000   11.143    0.000    0.000 
#    0.000    0.000    0.000    0.000    0.000    0.000 
#
# Total GULP energy -347037.742035 kJ/mol
# GULP energy per Si atom -12394.205073 kJ/mol
# Density = 1.833059 g / cm^3
# Si number density = 18.372405 Si / 1000 Ang^3
#
#
#
# Elastic Constant Matrix: (Units=GPa)
#
#
# Indices 1 2 3 4 5 6 
#
# 1 147.6973 22.0391 80.3861 0.0000 -12.0397 0.0000
# 2 22.0391 18.4362 16.2463 0.0000 -6.3365 0.0000
# 3 80.3861 16.2463 140.9093 0.0000 -10.4580 0.0000
# 4 0.0000 0.0000 0.0000 -0.9255 0.0000 -7.4521
# 5 -12.0397 -6.3365 -10.4580 0.0000 30.0672 0.0000
# 6 0.0000 0.0000 0.0000 -7.4521 0.0000 20.0553
#
#
#
# Elastic Compliance Matrix: (Units=1/GPa)
#
#
# Indices 1 2 3 4 5 6 
#
# 1 0.010890 -0.008139 -0.005212 0.000000 0.000832 0.000000
# 2 -0.008139 0.069922 -0.002635 0.000000 0.010560 0.000000
# 3 -0.005212 -0.002635 0.010448 0.000000 0.000991 0.000000
# 4 0.000000 0.000000 0.000000 -0.270664 0.000000 -0.100573
# 5 0.000832 0.010560 0.000991 0.000000 0.036163 0.000000
# 6 0.000000 0.000000 0.000000 -0.100573 0.000000 0.012491
#
#
# Mechanical properties :
#
#
# Convention : Reuss Voigt Hill
#
# Bulk Modulus (GPa) = 16.86697 60.48732 38.67714
# Shear Modulus (GPa) = -63.27791 22.39746 -20.44022
#
# Velocity S-wave (km/s) = -5.87508 3.49532 -3.33911
# Velocity P-wave (km/s) = 6.06808 7.02026 2.49625
#
# Compressibility (1/GPa) = 0.05928746
#
# Stress axis : x y z
#
# Youngs Moduli (GPa) = 91.82970 14.30167 95.71529
#
# Poissons Ratio (x) = 0.11640 0.49889
# Poissons Ratio (y) = 0.74737 0.25221
# Poissons Ratio (z) = 0.47864 0.03769
#
# Static dielectric constant tensor:
#      x y z
#    x 3.317120 0.000000 -0.154360 
#    y 0.000000 2.949260 0.000000 
#    z -0.154360 0.000000 3.559840 
# 
# 
# High freq. dielectric constant tensor:
#      x y z
#    x 1.721010 0.000000 -0.014640 
#    y 0.000000 1.666390 0.000000 
#    z -0.014640 0.000000 1.705000 
# 
# From -- ./inp_files/79289.got.cif
#   From: 2010.06.25/outbox.cif.g09.slc.cpg/sg10_40_cif.got.tgz:79289.got - 2010.06.27 22:07:45.
