data_PCOD8058441
_publ_section_title
;
Structure prediction by ZEFSAII (Michael W. Deem and Ramdas Pophale) SiO2 
 PCOD8058441
Probable space group: P 2/M
;
_chemical_formula_sum "Si O2"
_cell_formula_units_Z 32
_cell_length_a 21.394154
_cell_length_b 8.938078
_cell_length_c 30.906227
_cell_angle_alpha 90.000000
_cell_angle_beta 19.176002
_cell_angle_gamma 90.000000
_cell_volume 1941.254051
_symmetry_space_group_name_H-M "P 2/M"
_symmetry_group_IT_number 10
_symmetry_cell_setting 'monoclinic'
loop_
_space_group_symop_operation_xyz
x,y,z
-x,y,-z
-x,-y,-z
x,-y,z
loop_
_atom_site_type_symbol
_atom_site_label
_atom_site_fract_x
_atom_site_fract_y
_atom_site_fract_z
Si Si1 0.694631 0.322785 0.710553
Si Si2 0.335225 0.822907 0.983429
Si Si3 0.951762 0.322972 0.464745
Si Si4 0.324120 0.673307 0.525387
Si Si5 0.365255 0.831592 0.629435
Si Si6 0.669701 0.673963 0.922183
Si Si7 0.945703 0.677729 0.372667
Si Si8 0.056129 0.325904 0.781446
O O1 0.656282 0.500000 0.738201
O O2 0.501270 0.232923 0.843300
O O3 0.778148 0.274504 0.609192
O O4 0.845876 0.271419 0.648195
O O5 0.328703 0.000000 0.988424
O O6 0.375753 0.763351 0.004838
O O7 0.139715 0.762408 0.091761
O O8 0.954679 0.500000 0.460280
O O9 0.923493 0.253559 0.435320
O O10 0.379906 0.500000 0.488983
O O11 0.517765 0.764916 0.406596
O O12 0.236093 0.725554 0.537144
O O13 0.166058 0.705651 0.665019
O O14 0.500000 0.825407 0.500000
O O15 0.178248 0.733502 0.742324
O O16 0.302986 0.000000 0.681219
O O17 0.691988 0.500000 0.920122
O O18 0.861694 0.738555 0.775221
O O19 0.500000 0.700064 0.000000
O O20 0.961009 0.500000 0.364898
O O21 0.014998 0.500000 0.815074
#
# Coordination Sequence:
#
# PCOD8058441 Si02
#       8
#     4   4   4   4   4   4   4   4
#     4   9  17  32  52  72  92 121 165 209 247 282
#     4  12  23  32  45  68 101 133 161 196 241 287
#     4   8  15  29  52  75  92 116 160 214 249 277
#     4   9  16  27  44  66  94 125 158 193 232 282
#     4   9  17  28  43  65  94 125 156 189 233 282
#     4  10  19  32  50  69  93 128 165 198 236 285
#     4   9  15  26  45  72  97 120 155 200 244 280
#     4  10  18  31  48  67  92 125 164 198 233 278
#
# _framework density 16.484190000000002
#
# number of rings (size 3 to 8) (size 9 to 14) (size 15 to 20)
#    0.000    2.500    1.250    3.375    0.000    4.250 
#    0.000    1.250    0.000    2.250    0.000    0.875 
#    0.000    7.000    0.000    0.000    0.000    0.000 
#
# Total GULP energy -396759.366111 kJ/mol
# GULP energy per Si atom -12398.730191 kJ/mol
# Density = 1.644667 g / cm^3
# Si number density = 16.484190 Si / 1000 Ang^3
#
#
#
# Elastic Constant Matrix: (Units=GPa)
#
#
# Indices 1 2 3 4 5 6 
#
# 1 95.0456 32.5795 50.1589 0.0000 -11.1323 0.0000
# 2 32.5795 72.9325 44.3705 0.0000 -9.7103 0.0000
# 3 50.1589 44.3705 84.7352 0.0000 -8.5783 0.0000
# 4 0.0000 0.0000 0.0000 13.3975 0.0000 -2.6674
# 5 -11.1323 -9.7103 -8.5783 0.0000 23.1549 0.0000
# 6 0.0000 0.0000 0.0000 -2.6674 0.0000 11.7767
#
#
#
# Elastic Compliance Matrix: (Units=1/GPa)
#
#
# Indices 1 2 3 4 5 6 
#
# 1 0.015819 -0.001598 -0.008130 0.000000 0.003923 0.000000
# 2 -0.001598 0.020790 -0.009492 0.000000 0.004434 0.000000
# 3 -0.008130 -0.009492 0.021596 0.000000 0.000111 0.000000
# 4 0.000000 0.000000 0.000000 0.078166 0.000000 0.017705
# 5 0.003923 0.004434 0.000111 0.000000 0.046974 0.000000
# 6 0.000000 0.000000 0.000000 0.017705 0.000000 0.088923
#
#
# Mechanical properties :
#
#
# Convention : Reuss Voigt Hill
#
# Bulk Modulus (GPa) = 50.59416 56.32567 53.45991
# Shear Modulus (GPa) = 15.75817 18.03946 16.89882
#
# Velocity S-wave (km/s) = 3.09521 3.31168 3.20527
# Velocity P-wave (km/s) = 6.59795 6.99047 6.79704
#
# Compressibility (1/GPa) = 0.01976513
#
# Stress axis : x y z
#
# Youngs Moduli (GPa) = 63.21478 48.10013 46.30583
#
# Poissons Ratio (x) = 0.07686 0.37647
# Poissons Ratio (y) = 0.10101 0.43952
# Poissons Ratio (z) = 0.51395 0.45655
#
# Static dielectric constant tensor:
#      x y z
#    x 3.332390 0.000000 -0.066530 
#    y 0.000000 2.903800 0.000000 
#    z -0.066530 0.000000 3.017460 
# 
# 
# High freq. dielectric constant tensor:
#      x y z
#    x 1.629820 0.000000 -0.019550 
#    y 0.000000 1.612660 0.000000 
#    z -0.019550 0.000000 1.615450 
# 
# From -- ./inp_files/79978.got.cif
#   From: 2010.06.25/outbox.cif.g09.slc.cpg/sg10_40_cif.got.tgz:79978.got - 2010.06.27 22:07:45.
