data_PCOD8058414
_publ_section_title
;
Structure prediction by ZEFSAII (Michael W. Deem and Ramdas Pophale) SiO2 
 PCOD8058414
Probable space group: P 2/M
;
_chemical_formula_sum "Si O2"
_cell_formula_units_Z 30
_cell_length_a 14.691247
_cell_length_b 9.082960
_cell_length_c 12.288604
_cell_angle_alpha 90.000000
_cell_angle_beta 106.360994
_cell_angle_gamma 90.000000
_cell_volume 1573.389656
_symmetry_space_group_name_H-M "P 2/M"
_symmetry_group_IT_number 10
_symmetry_cell_setting 'monoclinic'
loop_
_space_group_symop_operation_xyz
x,y,z
-x,y,-z
-x,-y,-z
x,-y,z
loop_
_atom_site_type_symbol
_atom_site_label
_atom_site_fract_x
_atom_site_fract_y
_atom_site_fract_z
Si Si1 0.694712 0.669784 0.293857
Si Si2 0.202021 0.826567 0.859748
Si Si3 0.494200 0.835282 0.739246
Si Si4 0.828370 0.173705 0.754803
Si Si5 0.500000 0.246332 0.500000
Si Si6 0.291743 0.338760 0.452966
Si Si7 0.309425 0.171974 0.107631
Si Si8 0.986659 0.326515 0.121555
O O1 0.694523 0.500000 0.257554
O O2 0.766993 0.761783 0.244853
O O3 0.588866 0.731398 0.246252
O O4 0.730644 0.690389 0.428527
O O5 0.107313 0.748652 0.866425
O O6 0.183333 0.000000 0.843769
O O7 0.285580 0.791914 0.974737
O O8 0.501569 0.849510 0.610744
O O9 0.589117 0.761976 0.822721
O O10 0.476491 0.000000 0.778531
O O11 0.762292 0.211240 0.629733
O O12 0.774669 0.233238 0.844388
O O13 0.926904 0.260174 0.779801
O O14 0.848251 0.000000 0.763625
O O15 0.404718 0.343148 0.469723
O O16 0.253321 0.500000 0.405699
O O17 0.315659 0.000000 0.133522
O O18 0.980649 0.500000 0.138942
O O19 0.000000 0.285670 0.000000
#
# Coordination Sequence:
#
# PCOD8058414 Si02
#       8
#     4   4   4   4   2   4   4   4
#     4  10  23  41  57  81 119 160 199 242 291 347
#     4  11  22  40  64  85 113 155 199 243 291 346
#     4  10  19  34  55  84 117 155 200 240 286 343
#     4  11  21  37  60  90 122 151 190 242 293 345
#     4  10  18  30  56  86 116 154 196 242 288 338
#     4  10  21  37  57  83 119 158 194 238 294 349
#     4   9  19  34  55  86 120 151 186 239 295 338
#     4  11  23  39  61  91 121 152 189 235 293 354
#
# _framework density 19.067115999999999
#
# number of rings (size 3 to 8) (size 9 to 14) (size 15 to 20)
#    0.000    1.733    2.667    2.000    0.000    4.267 
#    0.000    4.667    0.000    4.000    0.000    0.000 
#    0.000    0.000    0.000    0.000    0.000    0.000 
#
# Total GULP energy -372008.156189 kJ/mol
# GULP energy per Si atom -12400.271873 kJ/mol
# Density = 1.902372 g / cm^3
# Si number density = 19.067116 Si / 1000 Ang^3
#
#
#
# Elastic Constant Matrix: (Units=GPa)
#
#
# Indices 1 2 3 4 5 6 
#
# 1 116.0988 52.8924 50.9454 0.0000 -5.4010 0.0000
# 2 52.8924 98.0519 42.3666 0.0000 -2.6661 0.0000
# 3 50.9454 42.3666 81.0527 0.0000 -1.3864 0.0000
# 4 0.0000 0.0000 0.0000 24.7606 0.0000 -1.0691
# 5 -5.4010 -2.6661 -1.3864 0.0000 32.4889 0.0000
# 6 0.0000 0.0000 0.0000 -1.0691 0.0000 26.2272
#
#
#
# Elastic Compliance Matrix: (Units=1/GPa)
#
#
# Indices 1 2 3 4 5 6 
#
# 1 0.013417 -0.004601 -0.006001 0.000000 0.001597 0.000000
# 2 -0.004601 0.014772 -0.004825 0.000000 0.000241 0.000000
# 3 -0.006001 -0.004825 0.018621 0.000000 -0.000599 0.000000
# 4 0.000000 0.000000 0.000000 0.040458 0.000000 0.001649
# 5 0.001597 0.000241 -0.000599 0.000000 0.031039 0.000000
# 6 0.000000 0.000000 0.000000 0.001649 0.000000 0.038196
#
#
# Mechanical properties :
#
#
# Convention : Reuss Voigt Hill
#
# Bulk Modulus (GPa) = 62.67257 65.29024 63.98140
# Shear Modulus (GPa) = 25.95011 26.62860 26.28935
#
# Velocity S-wave (km/s) = 3.69316 3.74113 3.71722
# Velocity P-wave (km/s) = 7.15029 7.27860 7.21473
#
# Compressibility (1/GPa) = 0.01595594
#
# Stress axis : x y z
#
# Youngs Moduli (GPa) = 74.53135 67.69432 53.70170
#
# Poissons Ratio (x) = 0.31149 0.32226
# Poissons Ratio (y) = 0.34295 0.25912
# Poissons Ratio (z) = 0.44725 0.32664
#
# Static dielectric constant tensor:
#      x y z
#    x 3.486910 0.000000 0.021000 
#    y 0.000000 3.372740 0.000000 
#    z 0.021000 0.000000 3.491180 
# 
# 
# High freq. dielectric constant tensor:
#      x y z
#    x 1.739410 0.000000 0.004870 
#    y 0.000000 1.737430 0.000000 
#    z 0.004870 0.000000 1.737620 
# 
# From -- ./inp_files/50017.got.cif
#   From: 2010.06.25/outbox.cif.g09.slc.cpg/sg10_26_cif.got.tgz:50017.got - 2010.06.27 22:07:45.
