data_PCOD8058356
_publ_section_title
;
Structure prediction by ZEFSAII (Michael W. Deem and Ramdas Pophale) SiO2 
 PCOD8058356
Probable space group: P 2/M
;
_chemical_formula_sum "Si O2"
_cell_formula_units_Z 24
_cell_length_a 18.243137
_cell_length_b 8.949409
_cell_length_c 24.368953
_cell_angle_alpha 90.000000
_cell_angle_beta 18.698022
_cell_angle_gamma 90.000000
_cell_volume 1275.462117
_symmetry_space_group_name_H-M "P 2/M"
_symmetry_group_IT_number 10
_symmetry_cell_setting 'monoclinic'
loop_
_space_group_symop_operation_xyz
x,y,z
-x,y,-z
-x,-y,-z
x,-y,z
loop_
_atom_site_type_symbol
_atom_site_label
_atom_site_fract_x
_atom_site_fract_y
_atom_site_fract_z
Si Si1 0.300674 0.664353 0.185484
Si Si2 0.676064 0.322893 0.999080
Si Si3 0.322988 0.822143 0.670506
Si Si4 0.482120 0.822907 0.674635
Si Si5 0.808139 0.822592 0.016332
Si Si6 0.000025 0.176046 0.318457
O O1 0.189341 0.500000 0.272243
O O2 0.423390 0.719070 0.154549
O O3 0.107697 0.778297 0.301042
O O4 0.500000 0.653138 0.000000
O O5 0.710905 0.500000 0.974673
O O6 0.685076 0.256592 0.053117
O O7 0.875247 0.252990 0.820862
O O8 0.500000 0.758898 0.500000
O O9 0.390988 0.756450 0.681728
O O10 0.333001 0.000000 0.664920
O O11 0.069907 0.768632 0.833990
O O12 0.318805 0.765963 0.838965
O O13 0.739428 0.768263 0.502935
O O14 0.473640 0.000000 0.677986
O O15 0.789586 0.000000 0.022115
O O16 0.021553 0.000000 0.295528
#
# Coordination Sequence:
#
# PCOD8058356 Si02
#       6
#     4   4   4   4   4   4
#     4   8  16  31  49  70  98 131 166 206 251 295
#     4  10  20  34  51  72 101 134 168 208 251 296
#     4   9  16  28  50  78 103 128 162 204 248 295
#     4   9  18  31  48  76 108 132 160 202 252 300
#     4  10  19  32  52  75 101 134 168 204 246 293
#     4  10  18  30  52  78 101 128 166 210 250 293
#
# _framework density 18.81671
#
# number of rings (size 3 to 8) (size 9 to 14) (size 15 to 20)
#    0.000    2.667    0.000    3.500    0.000    8.333 
#    0.000    2.500    0.000   12.500    0.000    0.000 
#    0.000    0.000    0.000    0.000    0.000    0.000 
#
# Total GULP energy -297541.039564 kJ/mol
# GULP energy per Si atom -12397.543315 kJ/mol
# Density = 1.877388 g / cm^3
# Si number density = 18.816710 Si / 1000 Ang^3
#
#
#
# Elastic Constant Matrix: (Units=GPa)
#
#
# Indices 1 2 3 4 5 6 
#
# 1 182.7219 36.4994 67.5699 0.0000 -3.5317 0.0000
# 2 36.4994 44.8866 20.2829 0.0000 -1.6358 0.0000
# 3 67.5699 20.2829 73.5840 0.0000 9.9926 0.0000
# 4 0.0000 0.0000 0.0000 0.9440 0.0000 2.6301
# 5 -3.5317 -1.6358 9.9926 0.0000 28.7646 0.0000
# 6 0.0000 0.0000 0.0000 2.6301 0.0000 10.8901
#
#
#
# Elastic Compliance Matrix: (Units=1/GPa)
#
#
# Indices 1 2 3 4 5 6 
#
# 1 0.009235 -0.003790 -0.007935 0.000000 0.003675 0.000000
# 2 -0.003790 0.027467 -0.004450 0.000000 0.002642 0.000000
# 3 -0.007935 -0.004450 0.023372 0.000000 -0.009346 0.000000
# 4 0.000000 0.000000 0.000000 3.237732 0.000000 -0.781943
# 5 0.003675 0.002642 -0.009346 0.000000 0.038613 0.000000
# 6 0.000000 0.000000 0.000000 -0.781943 0.000000 0.280674
#
#
# Mechanical properties :
#
#
# Convention : Reuss Voigt Hill
#
# Bulk Modulus (GPa) = 36.06804 61.09965 48.58385
# Shear Modulus (GPa) = 1.36661 19.90911 10.63786
#
# Velocity S-wave (km/s) = 0.85314 3.25630 2.38027
# Velocity P-wave (km/s) = 4.49223 6.83224 5.78185
#
# Compressibility (1/GPa) = 0.02772538
#
# Stress axis : x y z
#
# Youngs Moduli (GPa) = 108.28223 36.40702 42.78669
#
# Poissons Ratio (x) = 0.13799 0.33950
# Poissons Ratio (y) = 0.41041 0.19038
# Poissons Ratio (z) = 0.85918 0.16200
#
# Static dielectric constant tensor:
#      x y z
#    x 3.866470 0.000000 -0.181720 
#    y 0.000000 3.105970 0.000000 
#    z -0.181720 0.000000 3.435160 
# 
# 
# High freq. dielectric constant tensor:
#      x y z
#    x 1.747100 0.000000 -0.013110 
#    y 0.000000 1.693540 0.000000 
#    z -0.013110 0.000000 1.719500 
# 
# From -- ./inp_files/33441.got.cif
#   From: 2010.06.25/outbox.cif.g09.slc.cpg/sg10_17_cif.got.tgz:33441.got - 2010.06.27 22:07:45.
