data_PCOD8058821
_publ_section_title
;
Structure prediction by ZEFSAII (Michael W. Deem and Ramdas Pophale) SiO2 
 PCOD8058821
Probable space group: P 2/M
;
_chemical_formula_sum "Si O2"
_cell_formula_units_Z 28
_cell_length_a 14.702974
_cell_length_b 17.255558
_cell_length_c 8.844947
_cell_angle_alpha 90.000000
_cell_angle_beta 143.561473
_cell_angle_gamma 90.000000
_cell_volume 1332.866391
_symmetry_space_group_name_H-M "P 2/M"
_symmetry_group_IT_number 10
_symmetry_cell_setting 'monoclinic'
loop_
_space_group_symop_operation_xyz
x,y,z
-x,y,-z
-x,-y,-z
x,-y,z
loop_
_atom_site_type_symbol
_atom_site_label
_atom_site_fract_x
_atom_site_fract_y
_atom_site_fract_z
Si Si1 0.708701 0.656272 0.958105
Si Si2 0.445564 0.588703 0.757219
Si Si3 0.947174 0.589523 0.093978
Si Si4 0.799444 0.659459 0.407190
Si Si5 0.682506 0.165780 0.245709
Si Si6 0.861221 0.812068 0.212234
Si Si7 0.946041 0.090578 0.760615
O O1 0.767958 0.605225 0.894138
O O2 0.772334 0.623594 0.204758
O O3 0.754214 0.745991 0.995119
O O4 0.525532 0.642645 0.735079
O O5 0.473209 0.500000 0.750039
O O6 0.266741 0.608748 0.537682
O O7 0.500000 0.610731 0.000000
O O8 0.988182 0.500000 0.178008
O O9 0.021492 0.650094 0.314979
O O10 0.000000 0.615951 0.000000
O O11 0.727515 0.744495 0.322638
O O12 0.752061 0.137365 0.177772
O O13 0.770730 0.118996 0.496671
O O14 0.500000 0.151950 0.000000
O O15 0.000000 0.774359 0.500000
O O16 0.931146 0.867970 0.181922
O O17 0.954340 0.000000 0.739843
O O18 0.000000 0.111903 0.000000
#
# Coordination Sequence:
#
# PCOD8058821 Si02
#       7
#     4   4   4   4   4   4   4
#     4  10  18  32  53  77 102 134 182 233 277 328
#     4   9  17  29  49  76 103 134 175 224 273 317
#     4  11  23  34  45  69 105 143 186 235 284 334
#     4  10  19  34  55  77 104 138 182 230 280 335
#     4  10  20  36  60  89 118 146 184 236 285 335
#     4   9  18  33  56  83 112 147 187 231 282 339
#     4  10  22  40  61  86 117 153 190 226 274 343
#
# _framework density 21.007356000000001
#
# number of rings (size 3 to 8) (size 9 to 14) (size 15 to 20)
#    0.000    2.143    0.000    6.000    0.000    7.429 
#    0.000    1.429    0.000    9.429    0.000    0.000 
#    0.000    0.000    0.000    0.000    0.000    0.000 
#
# Total GULP energy -346871.156029 kJ/mol
# GULP energy per Si atom -12388.255572 kJ/mol
# Density = 2.095954 g / cm^3
# Si number density = 21.007356 Si / 1000 Ang^3
#
#
#
# Elastic Constant Matrix: (Units=GPa)
#
#
# Indices 1 2 3 4 5 6 
#
# 1 151.3107 42.8040 35.0071 0.0000 7.1398 0.0000
# 2 42.8040 83.9588 31.3452 0.0000 -4.6253 0.0000
# 3 35.0071 31.3452 60.6723 0.0000 7.7967 0.0000
# 4 0.0000 0.0000 0.0000 21.7597 0.0000 0.3280
# 5 7.1398 -4.6253 7.7967 0.0000 27.4615 0.0000
# 6 0.0000 0.0000 0.0000 0.3280 0.0000 30.7055
#
#
#
# Elastic Compliance Matrix: (Units=1/GPa)
#
#
# Indices 1 2 3 4 5 6 
#
# 1 0.008280 -0.003262 -0.002849 0.000000 -0.001893 0.000000
# 2 -0.003262 0.016685 -0.007481 0.000000 0.005782 0.000000
# 3 -0.002849 -0.007481 0.022893 0.000000 -0.007019 0.000000
# 4 0.000000 0.000000 0.000000 0.045964 0.000000 -0.000491
# 5 -0.001893 0.005782 -0.007019 0.000000 0.039873 0.000000
# 6 0.000000 0.000000 0.000000 -0.000491 0.000000 0.032573
#
#
# Mechanical properties :
#
#
# Convention : Reuss Voigt Hill
#
# Bulk Modulus (GPa) = 48.36992 57.13938 52.75465
# Shear Modulus (GPa) = 24.95714 28.43772 26.69743
#
# Velocity S-wave (km/s) = 3.45050 3.68326 3.56878
# Velocity P-wave (km/s) = 6.24098 6.73404 6.49219
#
# Compressibility (1/GPa) = 0.02067400
#
# Stress axis : x y z
#
# Youngs Moduli (GPa) = 120.77009 59.93346 43.68217
#
# Poissons Ratio (x) = 0.19551 0.12445
# Poissons Ratio (y) = 0.39396 0.32678
# Poissons Ratio (z) = 0.34407 0.44836
#
# Static dielectric constant tensor:
#      x y z
#    x 4.346950 0.000000 0.319320 
#    y 0.000000 3.452890 0.000000 
#    z 0.319320 0.000000 3.672710 
# 
# 
# High freq. dielectric constant tensor:
#      x y z
#    x 1.847330 0.000000 0.017040 
#    y 0.000000 1.797740 0.000000 
#    z 0.017040 0.000000 1.795920 
# 
# From -- ./inp_files/30194.got.cif
#   From: 2010.06.25/outbox.cif.g09.slc.cpg/sg10_16_cif.got.tgz:30194.got - 2010.06.27 22:07:45.
