data_PCOD8058231
_publ_section_title
;
Structure prediction by ZEFSAII (Michael W. Deem and Ramdas Pophale) SiO2 
 PCOD8058231
Probable space group: P 2/M
;
_chemical_formula_sum "Si O2"
_cell_formula_units_Z 32
_cell_length_a 12.003604
_cell_length_b 8.880772
_cell_length_c 28.990133
_cell_angle_alpha 90.000000
_cell_angle_beta 31.506566
_cell_angle_gamma 90.000000
_cell_volume 1615.023683
_symmetry_space_group_name_H-M "P 2/M"
_symmetry_group_IT_number 10
_symmetry_cell_setting 'monoclinic'
loop_
_space_group_symop_operation_xyz
x,y,z
-x,y,-z
-x,-y,-z
x,-y,z
loop_
_atom_site_type_symbol
_atom_site_label
_atom_site_fract_x
_atom_site_fract_y
_atom_site_fract_z
Si Si1 0.030449 0.177782 0.226898
Si Si2 0.604736 0.177822 0.836672
Si Si3 0.834390 0.179957 0.665165
Si Si4 0.287614 0.172762 0.474459
Si Si5 0.629204 0.323137 0.409768
Si Si6 0.424846 0.172500 0.327771
Si Si7 0.125112 0.820386 0.001474
Si Si8 0.894496 0.179463 0.175092
O O1 0.860123 0.247601 0.322705
O O2 0.004254 0.239400 0.183778
O O3 0.268549 0.220356 0.161026
O O4 0.994483 0.000000 0.241418
O O5 0.742362 0.241692 0.745496
O O6 0.366262 0.245169 0.918386
O O7 0.586323 0.000000 0.838176
O O8 0.687185 0.249419 0.676613
O O9 0.075898 0.237813 0.573441
O O10 0.838243 0.000000 0.660430
O O11 0.487716 0.276099 0.416193
O O12 0.264325 0.185543 0.427516
O O13 0.334082 0.000000 0.472465
O O14 0.500000 0.262627 0.500000
O O15 0.663174 0.500000 0.400101
O O16 0.655039 0.245634 0.257253
O O17 0.470922 0.000000 0.298798
O O18 0.125974 0.000000 0.000189
O O19 0.000000 0.760614 0.000000
O O20 0.015360 0.760417 0.087000
O O21 0.898964 0.000000 0.174917
#
# Coordination Sequence:
#
# PCOD8058231 Si02
#       8
#     4   4   4   4   4   4   4   4
#     4  10  19  33  51  73 101 130 168 211 250 291
#     4   9  17  27  41  66 100 135 167 201 243 294
#     4   9  16  25  41  67  97 129 166 206 245 290
#     4  10  18  30  49  73  97 127 166 207 251 291
#     4  11  23  36  50  70  99 135 171 206 248 300
#     4   9  15  25  42  67  97 126 163 205 244 289
#     4   9  16  26  41  66 105 142 163 192 251 309
#     4   9  16  26  43  67  97 134 168 202 246 296
#
# _framework density 19.813950999999999
#
# number of rings (size 3 to 8) (size 9 to 14) (size 15 to 20)
#    0.000    2.500    1.250    2.250    0.000    7.000 
#    0.000    2.500    0.000    1.500    0.000    1.750 
#    0.000    1.000    0.000    0.000    0.000    0.000 
#
# Total GULP energy -396628.775701 kJ/mol
# GULP energy per Si atom -12394.649241 kJ/mol
# Density = 1.976885 g / cm^3
# Si number density = 19.813951 Si / 1000 Ang^3
#
#
#
# Elastic Constant Matrix: (Units=GPa)
#
#
# Indices 1 2 3 4 5 6 
#
# 1 122.5481 13.2639 53.9632 0.0000 -6.8900 0.0000
# 2 13.2639 13.1315 10.2682 0.0000 0.1080 0.0000
# 3 53.9632 10.2682 141.9988 0.0000 -4.4131 0.0000
# 4 0.0000 0.0000 0.0000 7.1767 0.0000 1.5452
# 5 -6.8900 0.1080 -4.4131 0.0000 39.3807 0.0000
# 6 0.0000 0.0000 0.0000 1.5452 0.0000 3.4259
#
#
#
# Elastic Compliance Matrix: (Units=1/GPa)
#
#
# Indices 1 2 3 4 5 6 
#
# 1 0.010617 -0.008075 -0.003404 0.000000 0.001498 0.000000
# 2 -0.008075 0.086888 -0.003277 0.000000 -0.002018 0.000000
# 3 -0.003404 -0.003277 0.008585 0.000000 0.000375 0.000000
# 4 0.000000 0.000000 0.000000 0.154325 0.000000 -0.069605
# 5 0.001498 -0.002018 0.000375 0.000000 0.025703 0.000000
# 6 0.000000 0.000000 0.000000 -0.069605 0.000000 0.323290
#
#
# Mechanical properties :
#
#
# Convention : Reuss Voigt Hill
#
# Bulk Modulus (GPa) = 13.05867 48.07437 30.56652
# Shear Modulus (GPa) = 7.52506 23.34221 15.43364
#
# Velocity S-wave (km/s) = 1.95092 3.43603 2.79396
# Velocity P-wave (km/s) = 3.41757 6.32908 5.08611
#
# Compressibility (1/GPa) = 0.07657745
#
# Stress axis : x y z
#
# Youngs Moduli (GPa) = 94.18538 11.50909 116.48594
#
# Poissons Ratio (x) = 0.09293 0.39657
# Poissons Ratio (y) = 0.76051 0.38175
# Poissons Ratio (z) = 0.32065 0.03772
#
# Static dielectric constant tensor:
#      x y z
#    x 3.871030 0.000000 -0.018180 
#    y 0.000000 2.782660 0.000000 
#    z -0.018180 0.000000 3.788270 
# 
# 
# High freq. dielectric constant tensor:
#      x y z
#    x 1.790190 0.000000 -0.001320 
#    y 0.000000 1.681220 0.000000 
#    z -0.001320 0.000000 1.779610 
# 
# From -- ./inp_files/87191.got.cif
#   From: 2010.06.25/outbox.cif.g09.slc.cpg/sg10_44_cif.got.tgz:87191.got - 2010.06.27 22:07:45.
