data_PCOD8058054
_publ_section_title
;
Structure prediction by ZEFSAII (Michael W. Deem and Ramdas Pophale) SiO2 
 PCOD8058054
Probable space group: P 2/M
;
_chemical_formula_sum "Si O2"
_cell_formula_units_Z 28
_cell_length_a 9.314013
_cell_length_b 13.775943
_cell_length_c 12.706087
_cell_angle_alpha 90.000000
_cell_angle_beta 113.340335
_cell_angle_gamma 90.000000
_cell_volume 1496.897322
_symmetry_space_group_name_H-M "P 2/M"
_symmetry_group_IT_number 10
_symmetry_cell_setting 'monoclinic'
loop_
_space_group_symop_operation_xyz
x,y,z
-x,y,-z
-x,-y,-z
x,-y,z
loop_
_atom_site_type_symbol
_atom_site_label
_atom_site_fract_x
_atom_site_fract_y
_atom_site_fract_z
Si Si1 0.827128 0.888051 0.684415
Si Si2 0.550866 0.889751 0.767967
Si Si3 0.360846 0.799584 0.543992
Si Si4 0.477506 0.396366 0.613150
Si Si5 0.635920 0.268200 0.962658
Si Si6 0.030157 0.775450 0.890843
Si Si7 0.222627 0.387566 0.172568
O O1 0.695379 0.870003 0.733202
O O2 0.794114 0.832038 0.564243
O O3 0.983784 0.848961 0.784444
O O4 0.845390 0.000000 0.660367
O O5 0.394837 0.869743 0.653177
O O6 0.568025 0.819314 0.872202
O O7 0.546183 0.000000 0.808135
O O8 0.500000 0.804439 0.500000
O O9 0.350493 0.689995 0.589906
O O10 0.500000 0.419886 0.500000
O O11 0.426162 0.500000 0.652675
O O12 0.647823 0.362040 0.702523
O O13 0.694849 0.359892 0.912941
O O14 0.500000 0.304444 0.000000
O O15 0.785220 0.235238 0.074203
O O16 0.933713 0.674617 0.851866
O O17 0.000000 0.818263 0.000000
O O18 0.173577 0.500000 0.157915
#
# Coordination Sequence:
#
# PCOD8058054 Si02
#       7
#     4   4   4   4   4   4   4
#     4  10  18  29  51  81 106 134 171 218 270 311
#     4  10  18  31  50  74 103 137 172 217 267 311
#     4   9  15  27  46  75 110 131 163 215 266 316
#     4   9  15  24  47  80 110 134 160 206 263 310
#     4  11  23  37  51  73 105 141 182 215 255 308
#     4  10  19  34  52  76 104 139 172 218 258 304
#     4  10  19  35  56  81 107 134 171 216 262 308
#
# _framework density 18.705356999999999
#
# number of rings (size 3 to 8) (size 9 to 14) (size 15 to 20)
#    0.000    2.143    4.286    2.143    0.000    5.714 
#    0.000    0.000    0.000    0.857    0.000    2.000 
#    0.000    6.857    0.000    0.000    0.000    0.000 
#
# Total GULP energy -346942.858126 kJ/mol
# GULP energy per Si atom -12390.816362 kJ/mol
# Density = 1.866278 g / cm^3
# Si number density = 18.705357 Si / 1000 Ang^3
#
#
#
# Elastic Constant Matrix: (Units=GPa)
#
#
# Indices 1 2 3 4 5 6 
#
# 1 48.7823 7.2941 19.4795 0.0000 11.4511 0.0000
# 2 7.2941 86.6466 39.3475 0.0000 -0.3190 0.0000
# 3 19.4795 39.3475 145.9115 0.0000 20.9719 0.0000
# 4 0.0000 0.0000 0.0000 38.1097 0.0000 0.7670
# 5 11.4511 -0.3190 20.9719 0.0000 13.2105 0.0000
# 6 0.0000 0.0000 0.0000 0.7670 0.0000 10.4729
#
#
#
# Elastic Compliance Matrix: (Units=1/GPa)
#
#
# Indices 1 2 3 4 5 6 
#
# 1 0.026216 -0.002570 0.000607 0.000000 -0.023750 0.000000
# 2 -0.002570 0.014038 -0.004938 0.000000 0.010406 0.000000
# 3 0.000607 -0.004938 0.010620 0.000000 -0.017505 0.000000
# 4 0.000000 0.000000 0.000000 0.026279 0.000000 -0.001924
# 5 -0.023750 0.010406 -0.017505 0.000000 0.124325 0.000000
# 6 0.000000 0.000000 0.000000 -0.001924 0.000000 0.095626
#
#
# Mechanical properties :
#
#
# Convention : Reuss Voigt Hill
#
# Bulk Modulus (GPa) = 26.97470 45.95360 36.46415
# Shear Modulus (GPa) = 15.46721 26.70657 21.08689
#
# Velocity S-wave (km/s) = 2.87868 3.78266 3.36120
# Velocity P-wave (km/s) = 5.04988 6.61048 5.88216
#
# Compressibility (1/GPa) = 0.03707178
#
# Stress axis : x y z
#
# Youngs Moduli (GPa) = 38.14421 71.23352 94.16084
#
# Poissons Ratio (x) = 0.18306 -0.05712
# Poissons Ratio (y) = 0.09803 0.46499
# Poissons Ratio (z) = -0.02314 0.35177
#
# Static dielectric constant tensor:
#      x y z
#    x 2.814710 0.000000 0.168860 
#    y 0.000000 3.693040 0.000000 
#    z 0.168860 0.000000 3.909790 
# 
# 
# High freq. dielectric constant tensor:
#      x y z
#    x 1.639940 0.000000 0.006770 
#    y 0.000000 1.736710 0.000000 
#    z 0.006770 0.000000 1.753490 
# 
# From -- ./inp_files/61915.got.cif
#   From: 2010.06.25/outbox.cif.g09.slc.cpg/sg10_31_cif.got.tgz:61915.got - 2010.06.27 22:07:45.
