data_PCOD8058471
_publ_section_title
;
Structure prediction by ZEFSAII (Michael W. Deem and Ramdas Pophale) SiO2 
 PCOD8058471
Probable space group: P 2/M
;
_chemical_formula_sum "Si O2"
_cell_formula_units_Z 24
_cell_length_a 11.994674
_cell_length_b 8.922052
_cell_length_c 20.423730
_cell_angle_alpha 90.000000
_cell_angle_beta 140.307912
_cell_angle_gamma 90.000000
_cell_volume 1395.915212
_symmetry_space_group_name_H-M "P 2/M"
_symmetry_group_IT_number 10
_symmetry_cell_setting 'monoclinic'
loop_
_space_group_symop_operation_xyz
x,y,z
-x,y,-z
-x,-y,-z
x,-y,z
loop_
_atom_site_type_symbol
_atom_site_label
_atom_site_fract_x
_atom_site_fract_y
_atom_site_fract_z
Si Si1 0.099588 0.825190 0.864979
Si Si2 0.845697 0.679645 0.384393
Si Si3 0.829501 0.673494 0.230060
Si Si4 0.531430 0.330847 0.769163
Si Si5 0.428946 0.333265 0.059801
Si Si6 0.893480 0.679109 0.888216
O O1 0.060878 0.766845 0.773832
O O2 0.971979 0.743008 0.857391
O O3 0.063819 0.000000 0.852625
O O4 0.300391 0.790069 0.972422
O O5 0.835785 0.500000 0.379765
O O6 0.877602 0.733988 0.324345
O O7 0.659746 0.745485 0.327186
O O8 0.000000 0.741335 0.500000
O O9 0.880362 0.500000 0.246997
O O10 0.624035 0.697960 0.122960
O O11 0.514115 0.500000 0.736638
O O12 0.581725 0.325508 0.867468
O O13 0.693542 0.257794 0.803032
O O14 0.368794 0.500000 0.009881
O O15 0.897731 0.500000 0.887540
O O16 0.000000 0.735725 0.000000
#
# Coordination Sequence:
#
# PCOD8058471 Si02
#       6
#     4   4   4   4   4   4
#     4  12  23  30  41  65 100 132 160 196 234 272
#     4   8  14  27  51  80 100 111 139 199 256 284
#     4   9  18  31  49  70  94 125 159 191 233 290
#     4   8  14  26  46  71  94 120 154 190 233 281
#     4   9  16  30  48  66  91 126 164 193 225 278
#     4  10  18  31  50  66  90 130 169 195 220 273
#
# _framework density 17.193023
#
# number of rings (size 3 to 8) (size 9 to 14) (size 15 to 20)
#    0.000    2.667    1.667    4.000    0.000    3.000 
#    0.000    0.000    0.000    1.500    0.000    7.000 
#    0.000    0.000    0.000    0.000    0.000    0.000 
#
# Total GULP energy -297412.788202 kJ/mol
# GULP energy per Si atom -12392.199508 kJ/mol
# Density = 1.715389 g / cm^3
# Si number density = 17.193023 Si / 1000 Ang^3
#
#
#
# Elastic Constant Matrix: (Units=GPa)
#
#
# Indices 1 2 3 4 5 6 
#
# 1 143.5764 27.2298 59.0549 0.0000 1.7588 0.0000
# 2 27.2298 29.5482 17.7214 0.0000 2.8031 0.0000
# 3 59.0549 17.7214 100.3826 0.0000 7.8825 0.0000
# 4 0.0000 0.0000 0.0000 1.9642 0.0000 1.6067
# 5 1.7588 2.8031 7.8825 0.0000 9.4912 0.0000
# 6 0.0000 0.0000 0.0000 1.6067 0.0000 6.4921
#
#
#
# Elastic Compliance Matrix: (Units=1/GPa)
#
#
# Indices 1 2 3 4 5 6 
#
# 1 0.010360 -0.006827 -0.005239 0.000000 0.004447 0.000000
# 2 -0.006827 0.042674 -0.002810 0.000000 -0.009004 0.000000
# 3 -0.005239 -0.002810 0.014333 0.000000 -0.010103 0.000000
# 4 0.000000 0.000000 0.000000 0.638340 0.000000 -0.157981
# 5 0.004447 -0.009004 -0.010103 0.000000 0.115587 0.000000
# 6 0.000000 0.000000 0.000000 -0.157981 0.000000 0.193131
#
#
# Mechanical properties :
#
#
# Convention : Reuss Voigt Hill
#
# Bulk Modulus (GPa) = 26.58499 53.50216 40.04357
# Shear Modulus (GPa) = 4.73164 14.88958 9.81061
#
# Velocity S-wave (km/s) = 1.66074 2.94602 2.39135
# Velocity P-wave (km/s) = 4.37877 6.53897 5.56470
#
# Compressibility (1/GPa) = 0.03761522
#
# Stress axis : x y z
#
# Youngs Moduli (GPa) = 96.52496 23.43345 69.76759
#
# Poissons Ratio (x) = 0.15998 0.36550
# Poissons Ratio (y) = 0.65899 0.19606
# Poissons Ratio (z) = 0.50567 0.06585
#
# Static dielectric constant tensor:
#      x y z
#    x 3.447680 0.000000 0.089280 
#    y 0.000000 2.756100 0.000000 
#    z 0.089280 0.000000 3.175440 
# 
# 
# High freq. dielectric constant tensor:
#      x y z
#    x 1.677280 0.000000 -0.000770 
#    y 0.000000 1.614930 0.000000 
#    z -0.000770 0.000000 1.633050 
# 
# From -- ./inp_files/45147.got.cif
#   From: 2010.06.25/outbox.cif.g09.slc.cpg/sg10_23_cif.got.tgz:45147.got - 2010.06.27 22:07:45.
