data_PCOD8058578
_publ_section_title
;
Structure prediction by ZEFSAII (Michael W. Deem and Ramdas Pophale) SiO2 
 PCOD8058578
Probable space group: P 2/M
;
_chemical_formula_sum "Si O2"
_cell_formula_units_Z 32
_cell_length_a 26.052823
_cell_length_b 8.879670
_cell_length_c 14.637144
_cell_angle_alpha 90.000000
_cell_angle_beta 32.072924
_cell_angle_gamma 90.000000
_cell_volume 1798.046873
_symmetry_space_group_name_H-M "P 2/M"
_symmetry_group_IT_number 10
_symmetry_cell_setting 'monoclinic'
loop_
_space_group_symop_operation_xyz
x,y,z
-x,y,-z
-x,-y,-z
x,-y,z
loop_
_atom_site_type_symbol
_atom_site_label
_atom_site_fract_x
_atom_site_fract_y
_atom_site_fract_z
Si Si1 0.840980 0.672391 0.094293
Si Si2 0.939580 0.822862 0.432685
Si Si3 0.605436 0.322225 0.941690
Si Si4 0.778249 0.823137 0.362283
Si Si5 0.859965 0.672666 0.863718
Si Si6 0.933287 0.324926 0.253247
Si Si7 0.389547 0.678503 0.271780
Si Si8 0.216465 0.674674 0.211674
O O1 0.817001 0.500000 0.154781
O O2 0.779466 0.779110 0.253476
O O3 0.810756 0.711290 0.035363
O O4 0.954602 0.704582 0.935414
O O5 0.902205 0.745561 0.396487
O O6 0.872446 0.769790 0.616385
O O7 0.048665 0.778192 0.292602
O O8 0.932561 0.000000 0.431146
O O9 0.599627 0.500000 0.952469
O O10 0.636421 0.272770 0.792870
O O11 0.683366 0.261736 0.897481
O O12 0.498460 0.263908 0.128873
O O13 0.872694 0.750450 0.264550
O O14 0.680311 0.763168 0.554053
O O15 0.782933 0.000000 0.366928
O O16 0.898057 0.500000 0.809931
O O17 0.781921 0.695501 0.900683
O O18 0.907471 0.500000 0.294969
O O19 0.378149 0.500000 0.302309
O O20 0.202129 0.500000 0.259908
#
# Coordination Sequence:
#
# PCOD8058578 Si02
#       8
#     4   4   4   4   4   4   4   4
#     4   9  19  35  51  68  93 130 172 209 246 288
#     4  11  21  31  46  73 107 137 166 201 243 294
#     4   8  16  31  54  79  98 123 162 204 244 290
#     4  12  23  32  48  76 103 129 163 201 246 299
#     4   9  19  34  51  70  96 133 174 212 248 288
#     4  10  20  35  53  72  98 133 169 204 244 290
#     4   9  17  33  54  75 101 131 161 195 242 299
#     4  10  18  31  52  75  99 130 170 211 250 294
#
# _framework density 17.797089
#
# number of rings (size 3 to 8) (size 9 to 14) (size 15 to 20)
#    0.000    2.250    0.000    5.625    0.000    7.000 
#    0.000    1.875    0.000    0.750    0.000    5.250 
#    0.000    0.000    0.000    0.000    0.000    0.000 
#
# Total GULP energy -396800.782456 kJ/mol
# GULP energy per Si atom -12400.024452 kJ/mol
# Density = 1.775658 g / cm^3
# Si number density = 17.797089 Si / 1000 Ang^3
#
#
#
# Elastic Constant Matrix: (Units=GPa)
#
#
# Indices 1 2 3 4 5 6 
#
# 1 128.7809 39.2569 60.8855 0.0000 10.2063 0.0000
# 2 39.2569 91.0603 46.2558 0.0000 8.8094 0.0000
# 3 60.8855 46.2558 98.6515 0.0000 16.0305 0.0000
# 4 0.0000 0.0000 0.0000 1.3090 0.0000 -3.0981
# 5 10.2063 8.8094 16.0305 0.0000 22.4131 0.0000
# 6 0.0000 0.0000 0.0000 -3.0981 0.0000 11.6077
#
#
#
# Elastic Compliance Matrix: (Units=1/GPa)
#
#
# Indices 1 2 3 4 5 6 
#
# 1 0.011167 -0.001723 -0.006074 0.000000 -0.000064 0.000000
# 2 -0.001723 0.014698 -0.005677 0.000000 -0.000932 0.000000
# 3 -0.006074 -0.005677 0.017805 0.000000 -0.007737 0.000000
# 4 0.000000 0.000000 0.000000 2.074061 0.000000 0.553568
# 5 -0.000064 -0.000932 -0.007737 0.000000 0.050546 0.000000
# 6 0.000000 0.000000 0.000000 0.553568 0.000000 0.233898
#
#
# Mechanical properties :
#
#
# Convention : Reuss Voigt Hill
#
# Bulk Modulus (GPa) = 59.79975 67.92103 63.86039
# Shear Modulus (GPa) = 2.05364 18.53892 10.29628
#
# Velocity S-wave (km/s) = 1.07537 3.23101 2.40789
# Velocity P-wave (km/s) = 5.93428 7.22262 6.60991
#
# Compressibility (1/GPa) = 0.01672248
#
# Stress axis : x y z
#
# Youngs Moduli (GPa) = 89.54998 68.03481 56.16555
#
# Poissons Ratio (x) = 0.11720 0.34114
# Poissons Ratio (y) = 0.15426 0.31886
# Poissons Ratio (z) = 0.54392 0.38624
#
# Static dielectric constant tensor:
#      x y z
#    x 3.559850 0.000000 0.013020 
#    y 0.000000 3.114060 0.000000 
#    z 0.013020 0.000000 3.239970 
# 
# 
# High freq. dielectric constant tensor:
#      x y z
#    x 1.687500 0.000000 0.012610 
#    y 0.000000 1.672770 0.000000 
#    z 0.012610 0.000000 1.671180 
# 
# From -- ./inp_files/72194.got.cif
#   From: 2010.06.25/outbox.cif.g09.slc.cpg/sg10_37_cif.got.tgz:72194.got - 2010.06.27 22:07:45.
