data_PCOD8058486
_publ_section_title
;
Structure prediction by ZEFSAII (Michael W. Deem and Ramdas Pophale) SiO2 
 PCOD8058486
Probable space group: P 2/M
;
_chemical_formula_sum "Si O2"
_cell_formula_units_Z 28
_cell_length_a 11.715698
_cell_length_b 8.419601
_cell_length_c 18.986291
_cell_angle_alpha 90.000000
_cell_angle_beta 52.463364
_cell_angle_gamma 90.000000
_cell_volume 1485.091601
_symmetry_space_group_name_H-M "P 2/M"
_symmetry_group_IT_number 10
_symmetry_cell_setting 'monoclinic'
loop_
_space_group_symop_operation_xyz
x,y,z
-x,y,-z
-x,-y,-z
x,-y,z
loop_
_atom_site_type_symbol
_atom_site_label
_atom_site_fract_x
_atom_site_fract_y
_atom_site_fract_z
Si Si1 0.126620 0.688761 0.404561
Si Si2 0.847390 0.314378 0.763358
Si Si3 0.731036 0.183940 0.180946
Si Si4 0.556395 0.814399 0.860124
Si Si5 0.737318 0.685553 0.024029
Si Si6 0.440369 0.317224 0.293729
Si Si7 0.993661 0.814587 0.837048
O O1 0.114245 0.500000 0.408223
O O2 0.110926 0.751280 0.330039
O O3 0.281744 0.738066 0.380273
O O4 0.000000 0.763933 0.500000
O O5 0.817361 0.500000 0.772423
O O6 0.702478 0.226956 0.847605
O O7 0.974255 0.275358 0.770208
O O8 0.745383 0.286458 0.104750
O O9 0.573306 0.215395 0.275354
O O10 0.851979 0.238487 0.190492
O O11 0.748312 0.000000 0.154490
O O12 0.408810 0.762245 0.954498
O O13 0.564640 0.705157 0.788064
O O14 0.548787 0.000000 0.844424
O O15 0.741792 0.500000 0.005045
O O16 0.873124 0.769625 0.938583
O O17 0.468279 0.500000 0.301867
O O18 0.989308 0.000000 0.823694
#
# Coordination Sequence:
#
# PCOD8058486 Si02
#       7
#     4   4   4   4   4   4   4
#     4   8  15  30  54  82 106 125 150 194 249 299
#     4  10  20  34  52  75 101 129 164 204 248 297
#     4  10  20  34  51  70  98 135 172 208 246 290
#     4  10  18  31  50  70  99 134 165 201 248 298
#     4  11  21  33  51  74  98 127 171 218 251 283
#     4   9  16  28  50  77 101 127 163 204 243 286
#     4  11  23  36  49  68  98 136 172 206 249 296
#
# _framework density 18.854056
#
# number of rings (size 3 to 8) (size 9 to 14) (size 15 to 20)
#    0.000    2.143    0.000    7.286    0.000    4.571 
#    0.000    2.857    0.000   16.286    0.000    6.000 
#    0.000    0.000    0.000    0.000    0.000    0.000 
#
# Total GULP energy -347061.742470 kJ/mol
# GULP energy per Si atom -12395.062231 kJ/mol
# Density = 1.881114 g / cm^3
# Si number density = 18.854056 Si / 1000 Ang^3
#
#
#
# Elastic Constant Matrix: (Units=GPa)
#
#
# Indices 1 2 3 4 5 6 
#
# 1 99.0163 1.1019 56.1311 0.0000 -11.8797 0.0000
# 2 1.1019 30.4765 10.3388 0.0000 1.7974 0.0000
# 3 56.1311 10.3388 97.1665 0.0000 -24.7824 0.0000
# 4 0.0000 0.0000 0.0000 9.5131 0.0000 -5.7901
# 5 -11.8797 1.7974 -24.7824 0.0000 24.7899 0.0000
# 6 0.0000 0.0000 0.0000 -5.7901 0.0000 30.5443
#
#
#
# Elastic Compliance Matrix: (Units=1/GPa)
#
#
# Indices 1 2 3 4 5 6 
#
# 1 0.015333 0.002955 -0.009869 0.000000 -0.002732 0.000000
# 2 0.002955 0.035890 -0.007823 0.000000 -0.009007 0.000000
# 3 -0.009869 -0.007823 0.021158 0.000000 0.016990 0.000000
# 4 0.000000 0.000000 0.000000 0.118829 0.000000 0.022526
# 5 -0.002732 -0.009007 0.016990 0.000000 0.056667 0.000000
# 6 0.000000 0.000000 0.000000 0.022526 0.000000 0.037009
#
#
# Mechanical properties :
#
#
# Convention : Reuss Voigt Hill
#
# Bulk Modulus (GPa) = 23.30586 40.20033 31.75310
# Shear Modulus (GPa) = 15.21308 23.57528 19.39418
#
# Velocity S-wave (km/s) = 2.84366 3.53995 3.21073
# Velocity P-wave (km/s) = 4.81351 6.17061 5.53382
#
# Compressibility (1/GPa) = 0.04290766
#
# Stress axis : x y z
#
# Youngs Moduli (GPa) = 65.21769 27.86257 47.26259
#
# Poissons Ratio (x) = -0.08233 0.46643
# Poissons Ratio (y) = -0.19270 0.36973
# Poissons Ratio (z) = 0.64363 0.21797
#
# Static dielectric constant tensor:
#      x y z
#    x 3.760660 0.000000 -0.450050 
#    y 0.000000 3.310340 0.000000 
#    z -0.450050 0.000000 3.526130 
# 
# 
# High freq. dielectric constant tensor:
#      x y z
#    x 1.732750 0.000000 -0.028220 
#    y 0.000000 1.730520 0.000000 
#    z -0.028220 0.000000 1.697980 
# 
# From -- ./inp_files/83305.got.cif
#   From: 2010.06.25/outbox.cif.g09.slc.cpg/sg10_42_cif.got.tgz:83305.got - 2010.06.27 22:07:45.
