data_PCOD8058796
_publ_section_title
;
Structure prediction by ZEFSAII (Michael W. Deem and Ramdas Pophale) SiO2 
 PCOD8058796
Probable space group: P 2/M
;
_chemical_formula_sum "Si O2"
_cell_formula_units_Z 28
_cell_length_a 9.235594
_cell_length_b 11.335785
_cell_length_c 15.888009
_cell_angle_alpha 90.000000
_cell_angle_beta 116.745597
_cell_angle_gamma 90.000000
_cell_volume 1485.401811
_symmetry_space_group_name_H-M "P 2/M"
_symmetry_group_IT_number 10
_symmetry_cell_setting 'monoclinic'
loop_
_space_group_symop_operation_xyz
x,y,z
-x,y,-z
-x,-y,-z
x,-y,z
loop_
_atom_site_type_symbol
_atom_site_label
_atom_site_fract_x
_atom_site_fract_y
_atom_site_fract_z
Si Si1 0.753868 0.500000 0.001636
Si Si2 0.727776 0.726527 0.765023
Si Si3 0.593788 0.357609 0.237942
Si Si4 0.874947 0.500000 0.857313
Si Si5 0.332190 0.729092 0.927048
Si Si6 0.326540 0.369942 0.420256
Si Si7 0.179739 0.640389 0.548720
Si Si8 0.015856 0.138172 0.908508
O O1 0.664970 0.613854 0.013822
O O2 0.941345 0.500000 0.069174
O O3 0.741926 0.500000 0.897799
O O4 0.576581 0.708610 0.788470
O O5 0.850258 0.616756 0.797635
O O6 0.667186 0.726648 0.652909
O O7 0.841841 0.837525 0.818100
O O8 0.573409 0.500000 0.230077
O O9 0.666953 0.308005 0.170490
O O10 0.717542 0.317210 0.343813
O O11 0.170812 0.804849 0.902485
O O12 0.500000 0.795543 0.000000
O O13 0.500000 0.399207 0.500000
O O14 0.254688 0.500000 0.373773
O O15 0.238073 0.308298 0.475083
O O16 0.187078 0.500000 0.548167
O O17 0.000000 0.690844 0.500000
O O18 0.047103 0.000000 0.916433
O O19 0.000000 0.187517 0.000000
#
# Coordination Sequence:
#
# PCOD8058796 Si02
#       8
#     2   4   4   2   4   4   4   4
#     4  11  21  34  50  85 127 152 185 227 302 374
#     4  12  21  36  61  88 119 158 199 244 297 349
#     4  11  21  34  53  90 130 160 187 228 291 367
#     4  11  20  30  55  85 118 153 188 237 292 367
#     4  12  24  37  57  88 122 157 187 233 301 363
#     4  10  18  32  52  86 123 161 195 228 283 359
#     4   9  19  31  47  75 124 166 193 223 271 345
#     4  11  26  47  65  83 110 153 212 261 295 341
#
# _framework density 18.850118999999999
#
# number of rings (size 3 to 8) (size 9 to 14) (size 15 to 20)
#    0.000    1.143    5.000    2.786    2.000    0.286 
#    0.000    0.714    0.000    0.429    0.000    1.000 
#    0.000    0.000    0.000    0.000    0.000    0.000 
#
# Total GULP energy -346932.446162 kJ/mol
# GULP energy per Si atom -12390.444506 kJ/mol
# Density = 1.880721 g / cm^3
# Si number density = 18.850119 Si / 1000 Ang^3
#
#
#
# Elastic Constant Matrix: (Units=GPa)
#
#
# Indices 1 2 3 4 5 6 
#
# 1 139.2684 29.1877 46.8351 0.0000 -4.8505 0.0000
# 2 29.1877 41.9662 17.7798 0.0000 -0.1388 0.0000
# 3 46.8351 17.7798 94.7115 0.0000 -6.7034 0.0000
# 4 0.0000 0.0000 0.0000 16.8397 0.0000 0.3625
# 5 -4.8505 -0.1388 -6.7034 0.0000 37.1367 0.0000
# 6 0.0000 0.0000 0.0000 0.3625 0.0000 17.3332
#
#
#
# Elastic Compliance Matrix: (Units=1/GPa)
#
#
# Indices 1 2 3 4 5 6 
#
# 1 0.009504 -0.005034 -0.003716 0.000000 0.000552 0.000000
# 2 -0.005034 0.028577 -0.002952 0.000000 -0.001084 0.000000
# 3 -0.003716 -0.002952 0.013082 0.000000 0.001865 0.000000
# 4 0.000000 0.000000 0.000000 0.059410 0.000000 -0.001242
# 5 0.000552 -0.001084 0.001865 0.000000 0.027332 0.000000
# 6 0.000000 0.000000 0.000000 -0.001242 0.000000 0.057719
#
#
# Mechanical properties :
#
#
# Convention : Reuss Voigt Hill
#
# Bulk Modulus (GPa) = 36.02366 51.50570 43.76468
# Shear Modulus (GPa) = 21.90280 26.40482 24.15381
#
# Velocity S-wave (km/s) = 3.41243 3.74676 3.58349
# Velocity P-wave (km/s) = 5.88883 6.78975 6.35527
#
# Compressibility (1/GPa) = 0.02775954
#
# Stress axis : x y z
#
# Youngs Moduli (GPa) = 105.21611 34.99311 76.44089
#
# Poissons Ratio (x) = 0.17616 0.28404
# Poissons Ratio (y) = 0.52968 0.22565
# Poissons Ratio (z) = 0.39096 0.10330
#
# Static dielectric constant tensor:
#      x y z
#    x 3.620030 0.000000 -0.029420 
#    y 0.000000 2.962050 0.000000 
#    z -0.029420 0.000000 3.676370 
# 
# 
# High freq. dielectric constant tensor:
#      x y z
#    x 1.753680 0.000000 0.000750 
#    y 0.000000 1.660450 0.000000 
#    z 0.000750 0.000000 1.749090 
# 
# From -- ./inp_files/61035.got.cif
#   From: 2010.06.25/outbox.cif.g09.slc.cpg/sg10_31_cif.got.tgz:61035.got - 2010.06.27 22:07:45.
