data_PCOD8058140
_publ_section_title
;
Structure prediction by ZEFSAII (Michael W. Deem and Ramdas Pophale) SiO2 
 PCOD8058140
Probable space group: P 2/M
;
_chemical_formula_sum "Si O2"
_cell_formula_units_Z 28
_cell_length_a 17.768494
_cell_length_b 13.390960
_cell_length_c 20.322423
_cell_angle_alpha 90.000000
_cell_angle_beta 160.018187
_cell_angle_gamma 90.000000
_cell_volume 1652.382410
_symmetry_space_group_name_H-M "P 2/M"
_symmetry_group_IT_number 10
_symmetry_cell_setting 'monoclinic'
loop_
_space_group_symop_operation_xyz
x,y,z
-x,y,-z
-x,-y,-z
x,-y,z
loop_
_atom_site_type_symbol
_atom_site_label
_atom_site_fract_x
_atom_site_fract_y
_atom_site_fract_z
Si Si1 0.892363 0.117183 0.321153
Si Si2 0.030116 0.699825 0.821617
Si Si3 0.388314 0.613675 0.588834
Si Si4 0.514821 0.612807 0.841486
Si Si5 0.668726 0.193537 0.259293
Si Si6 0.120620 0.382685 0.032752
Si Si7 0.779054 0.886915 0.079062
O O1 0.109967 0.177987 0.517971
O O2 0.695254 0.155523 0.206215
O O3 0.835296 0.142705 0.199898
O O4 0.929170 0.000000 0.363405
O O5 0.086740 0.816923 0.860386
O O6 0.800844 0.682392 0.596385
O O7 0.223810 0.633314 0.948573
O O8 0.005089 0.675934 0.878099
O O9 0.333387 0.500000 0.525077
O O10 0.401135 0.628220 0.677490
O O11 0.622324 0.645495 0.749660
O O12 0.480489 0.500000 0.839155
O O13 0.398086 0.689152 0.795966
O O14 0.481787 0.129934 0.143364
O O15 0.093632 0.500000 0.996237
O O16 0.000000 0.349473 0.000000
O O17 0.842896 0.000000 0.114438
#
# Coordination Sequence:
#
# PCOD8058140 Si02
#       7
#     4   4   4   4   4   4   4
#     4  10  19  31  47  67  89 114 152 198 240 277
#     4  10  18  30  49  68  92 122 151 183 225 270
#     4   9  16  28  47  69  93 122 152 180 217 263
#     4   9  18  30  44  65  93 123 155 188 220 266
#     4  10  18  30  48  66  90 121 152 189 237 278
#     4   9  18  31  48  74 101 120 146 183 218 260
#     4  10  20  32  48  69  90 115 151 194 233 270
#
# _framework density 16.945231
#
# number of rings (size 3 to 8) (size 9 to 14) (size 15 to 20)
#    0.000    2.429    0.000    5.143    0.000    1.714 
#    0.000    3.571    0.000    9.000    0.000    1.000 
#    0.000    0.000    0.000    0.000    0.000    0.000 
#
# Total GULP energy -347225.219818 kJ/mol
# GULP energy per Si atom -12400.900708 kJ/mol
# Density = 1.690666 g / cm^3
# Si number density = 16.945231 Si / 1000 Ang^3
#
#
#
# Elastic Constant Matrix: (Units=GPa)
#
#
# Indices 1 2 3 4 5 6 
#
# 1 61.3357 37.7522 16.7114 0.0000 1.7652 0.0000
# 2 37.7522 97.8224 24.3595 0.0000 -0.0616 0.0000
# 3 16.7114 24.3595 76.2385 0.0000 0.2053 0.0000
# 4 0.0000 0.0000 0.0000 18.5331 0.0000 0.0198
# 5 1.7652 -0.0616 0.2053 0.0000 14.7352 0.0000
# 6 0.0000 0.0000 0.0000 0.0198 0.0000 26.0278
#
#
#
# Elastic Compliance Matrix: (Units=1/GPa)
#
#
# Indices 1 2 3 4 5 6 
#
# 1 0.021837 -0.007865 -0.002267 0.000000 -0.002617 0.000000
# 2 -0.007865 0.013939 -0.002733 0.000000 0.001038 0.000000
# 3 -0.002267 -0.002733 0.014487 0.000000 0.000058 0.000000
# 4 0.000000 0.000000 0.000000 0.053957 0.000000 -0.000041
# 5 -0.002617 0.001038 0.000058 0.000000 0.068182 0.000000
# 6 0.000000 0.000000 0.000000 -0.000041 0.000000 0.038421
#
#
# Mechanical properties :
#
#
# Convention : Reuss Voigt Hill
#
# Bulk Modulus (GPa) = 40.75865 43.67141 42.21503
# Shear Modulus (GPa) = 20.43075 22.29745 21.36410
#
# Velocity S-wave (km/s) = 3.47608 3.63141 3.55459
# Velocity P-wave (km/s) = 6.34162 6.58869 6.46634
#
# Compressibility (1/GPa) = 0.02453467
#
# Stress axis : x y z
#
# Youngs Moduli (GPa) = 45.79297 71.74134 69.02951
#
# Poissons Ratio (x) = 0.56423 0.15647
# Poissons Ratio (y) = 0.36015 0.18863
# Poissons Ratio (z) = 0.10380 0.19604
#
# Static dielectric constant tensor:
#      x y z
#    x 3.035180 0.000000 0.013770 
#    y 0.000000 3.112360 0.000000 
#    z 0.013770 0.000000 3.162000 
# 
# 
# High freq. dielectric constant tensor:
#      x y z
#    x 1.627940 0.000000 -0.002320 
#    y 0.000000 1.642520 0.000000 
#    z -0.002320 0.000000 1.663660 
# 
# From -- ./inp_files/85815.got.cif
#   From: 2010.06.25/outbox.cif.g09.slc.cpg/sg10_43_cif.got.tgz:85815.got - 2010.06.27 22:07:45.
