data_PCOD8058213
_publ_section_title
;
Structure prediction by ZEFSAII (Michael W. Deem and Ramdas Pophale) SiO2 
 PCOD8058213
Probable space group: P 2/M
;
_chemical_formula_sum "Si O2"
_cell_formula_units_Z 32
_cell_length_a 24.836426
_cell_length_b 9.199494
_cell_length_c 20.038237
_cell_angle_alpha 90.000000
_cell_angle_beta 156.202962
_cell_angle_gamma 90.000000
_cell_volume 1847.370189
_symmetry_space_group_name_H-M "P 2/M"
_symmetry_group_IT_number 10
_symmetry_cell_setting 'monoclinic'
loop_
_space_group_symop_operation_xyz
x,y,z
-x,y,-z
-x,-y,-z
x,-y,z
loop_
_atom_site_type_symbol
_atom_site_label
_atom_site_fract_x
_atom_site_fract_y
_atom_site_fract_z
Si Si1 0.207580 0.172430 0.622731
Si Si2 0.453108 0.330712 0.661644
Si Si3 0.570822 0.172647 0.229947
Si Si4 0.385001 0.836891 0.460993
Si Si5 0.244600 0.330712 0.036048
Si Si6 0.715051 0.172528 0.145191
Si Si7 0.911679 0.827351 0.252577
Si Si8 0.309010 0.836892 0.233001
O O1 0.313508 0.226434 0.688392
O O2 0.246323 0.238195 0.738905
O O3 0.061363 0.226437 0.436268
O O4 0.210124 0.000000 0.630359
O O5 0.425304 0.500000 0.638518
O O6 0.403144 0.247325 0.670012
O O7 0.364275 0.273015 0.498943
O O8 0.608945 0.296986 0.826873
O O9 0.571193 0.000000 0.240553
O O10 0.431263 0.227797 0.041056
O O11 0.295789 0.788185 0.295778
O O12 0.537455 0.835007 0.612376
O O13 0.344666 0.000000 0.437457
O O14 0.212116 0.500000 0.998882
O O15 0.229622 0.273022 0.094934
O O16 0.136312 0.247316 0.869423
O O17 0.821459 0.227792 0.211687
O O18 0.716920 0.000000 0.150814
O O19 0.901818 0.000000 0.232482
O O20 0.251879 0.000000 0.159064
#
# Coordination Sequence:
#
# PCOD8058213 Si02
#       8
#     4   4   4   4   4   4   4   4
#     4   9  18  30  47  73  98 117 152 203 243 280
#     4  10  19  29  43  65  95 128 161 196 231 275
#     4  10  18  30  49  71  94 123 157 195 239 284
#     4   8  14  25  42  65  93 123 155 192 234 279
#     4  10  19  29  43  65  95 128 161 196 231 275
#     4   9  16  28  49  73  94 119 152 195 245 288
#     4  10  18  30  49  71  94 123 157 195 239 284
#     4   8  14  25  42  65  93 123 155 192 234 279
#
# _framework density 17.321919999999999
#
# number of rings (size 3 to 8) (size 9 to 14) (size 15 to 20)
#    0.000    2.750    1.250    2.250    0.000    4.500 
#    0.000    3.125    0.000    4.500    0.000    0.875 
#    0.000    7.000    0.000    0.000    0.000    0.000 
#
# Total GULP energy -396715.437581 kJ/mol
# GULP energy per Si atom -12397.357424 kJ/mol
# Density = 1.728249 g / cm^3
# Si number density = 17.321920 Si / 1000 Ang^3
#
#
#
# Elastic Constant Matrix: (Units=GPa)
#
#
# Indices 1 2 3 4 5 6 
#
# 1 113.5597 42.5902 87.4813 0.0000 -25.1009 0.0000
# 2 42.5902 52.5060 37.1142 0.0000 -14.0830 0.0000
# 3 87.4813 37.1142 98.2754 0.0000 -14.0488 0.0000
# 4 0.0000 0.0000 0.0000 7.2853 0.0000 2.0402
# 5 -25.1009 -14.0830 -14.0488 0.0000 36.6312 0.0000
# 6 0.0000 0.0000 0.0000 2.0402 0.0000 6.4941
#
#
#
# Elastic Compliance Matrix: (Units=1/GPa)
#
#
# Indices 1 2 3 4 5 6 
#
# 1 0.033345 -0.005847 -0.025952 0.000000 0.010648 0.000000
# 2 -0.005847 0.028601 -0.004864 0.000000 0.005124 0.000000
# 3 -0.025952 -0.004864 0.034178 0.000000 -0.006545 0.000000
# 4 0.000000 0.000000 0.000000 0.150503 0.000000 -0.047282
# 5 0.010648 0.005124 -0.006545 0.000000 0.034055 0.000000
# 6 0.000000 0.000000 0.000000 -0.047282 0.000000 0.168841
#
#
# Mechanical properties :
#
#
# Convention : Reuss Voigt Hill
#
# Bulk Modulus (GPa) = 43.86408 66.52360 55.19384
# Shear Modulus (GPa) = 9.42601 16.55914 12.99257
#
# Velocity S-wave (km/s) = 2.33527 3.09522 2.74170
# Velocity P-wave (km/s) = 5.71394 7.15972 6.47729
#
# Compressibility (1/GPa) = 0.02279770
#
# Stress axis : x y z
#
# Youngs Moduli (GPa) = 29.98983 34.96429 29.25856
#
# Poissons Ratio (x) = 0.20445 0.75931
# Poissons Ratio (y) = 0.17536 0.14230
# Poissons Ratio (z) = 0.77829 0.17005
#
# Static dielectric constant tensor:
#      x y z
#    x 3.325820 0.000000 -0.307780 
#    y 0.000000 2.941970 0.000000 
#    z -0.307780 0.000000 3.206310 
# 
# 
# High freq. dielectric constant tensor:
#      x y z
#    x 1.663430 0.000000 -0.031260 
#    y 0.000000 1.638160 0.000000 
#    z -0.031260 0.000000 1.651290 
# 
# From -- ./inp_files/86105.got.cif
#   From: 2010.06.25/outbox.cif.g09.slc.cpg/sg10_44_cif.got.tgz:86105.got - 2010.06.27 22:07:45.
