data_PCOD8058883
_publ_section_title
;
Structure prediction by ZEFSAII (Michael W. Deem and Ramdas Pophale) SiO2 
 PCOD8058883
Probable space group: P 2/M
;
_chemical_formula_sum "Si O2"
_cell_formula_units_Z 32
_cell_length_a 11.765472
_cell_length_b 8.914243
_cell_length_c 21.036769
_cell_angle_alpha 90.000000
_cell_angle_beta 127.572469
_cell_angle_gamma 90.000000
_cell_volume 1748.708684
_symmetry_space_group_name_H-M "P 2/M"
_symmetry_group_IT_number 10
_symmetry_cell_setting 'monoclinic'
loop_
_space_group_symop_operation_xyz
x,y,z
-x,y,-z
-x,-y,-z
x,-y,z
loop_
_atom_site_type_symbol
_atom_site_label
_atom_site_fract_x
_atom_site_fract_y
_atom_site_fract_z
Si Si1 0.078781 0.827351 0.158878
Si Si2 0.721557 0.324921 0.152723
Si Si3 0.000141 0.829059 0.275265
Si Si4 0.549838 0.173193 0.877952
Si Si5 0.599771 0.826629 0.751563
Si Si6 0.496241 0.321656 0.594082
Si Si7 0.796903 0.675659 0.035207
Si Si8 0.292634 0.822998 0.432776
O O1 0.234766 0.774341 0.188900
O O2 0.070564 0.797479 0.231100
O O3 0.959773 0.730753 0.081311
O O4 0.050967 0.000000 0.132408
O O5 0.698998 0.500000 0.153774
O O6 0.862141 0.275008 0.240227
O O7 0.581850 0.244158 0.130166
O O8 0.741100 0.278611 0.086087
O O9 0.122359 0.793056 0.369056
O O10 0.947458 0.000000 0.262675
O O11 0.527985 0.197565 0.795481
O O12 0.558076 0.000000 0.898665
O O13 0.698348 0.247647 0.949202
O O14 0.510961 0.724624 0.672449
O O15 0.592606 0.000000 0.727142
O O16 0.494881 0.500000 0.586476
O O17 0.627713 0.252638 0.599561
O O18 0.347465 0.252951 0.516506
O O19 0.790881 0.500000 0.022678
O O20 0.326107 0.000000 0.443502
#
# Coordination Sequence:
#
# PCOD8058883 Si02
#       8
#     4   4   4   4   4   4   4   4
#     4   9  17  33  54  76 103 136 176 215 258 312
#     4  10  21  36  55  78 107 138 171 220 273 316
#     4   9  17  31  55  81 104 136 176 217 258 307
#     4  11  23  37  56  77 100 138 185 224 260 312
#     4  10  21  38  55  74 105 144 181 217 261 315
#     4  11  21  31  49  80 113 143 175 214 260 314
#     4  10  21  36  54  78 107 136 170 218 274 319
#     4  10  18  32  54  79 110 144 177 215 259 307
#
# _framework density 18.299216999999999
#
# number of rings (size 3 to 8) (size 9 to 14) (size 15 to 20)
#    0.000    2.000    1.250    3.750    0.000    6.000 
#    0.000    2.500    0.000    0.750    0.000    5.250 
#    0.000    0.000    0.000    0.000    0.000    0.000 
#
# Total GULP energy -396882.110937 kJ/mol
# GULP energy per Si atom -12402.565967 kJ/mol
# Density = 1.825757 g / cm^3
# Si number density = 18.299217 Si / 1000 Ang^3
#
#
#
# Elastic Constant Matrix: (Units=GPa)
#
#
# Indices 1 2 3 4 5 6 
#
# 1 21.0243 17.4217 11.6184 0.0000 0.3888 0.0000
# 2 17.4217 96.2971 50.6954 0.0000 -0.6937 0.0000
# 3 11.6184 50.6954 104.3863 0.0000 8.8442 0.0000
# 4 0.0000 0.0000 0.0000 8.3043 0.0000 -10.5254
# 5 0.3888 -0.6937 8.8442 0.0000 19.4621 0.0000
# 6 0.0000 0.0000 0.0000 -10.5254 0.0000 12.0378
#
#
#
# Elastic Compliance Matrix: (Units=1/GPa)
#
#
# Indices 1 2 3 4 5 6 
#
# 1 0.056203 -0.009284 -0.001688 0.000000 -0.000686 0.000000
# 2 -0.009284 0.015749 -0.006946 0.000000 0.003903 0.000000
# 3 -0.001688 -0.006946 0.013686 0.000000 -0.006433 0.000000
# 4 0.000000 0.000000 0.000000 -1.112845 0.000000 -0.973025
# 5 -0.000686 0.003903 -0.006433 0.000000 0.054458 0.000000
# 6 0.000000 0.000000 0.000000 -0.973025 0.000000 -0.767700
#
#
# Mechanical properties :
#
#
# Convention : Reuss Voigt Hill
#
# Bulk Modulus (GPa) = 20.07985 42.35320 31.21652
# Shear Modulus (GPa) = -2.96206 17.42566 7.23180
#
# Velocity S-wave (km/s) = -1.27366 3.08922 1.99011
# Velocity P-wave (km/s) = 2.97220 5.99328 4.73040
#
# Compressibility (1/GPa) = 0.04980118
#
# Stress axis : x y z
#
# Youngs Moduli (GPa) = 17.79260 63.49634 73.06698
#
# Poissons Ratio (x) = 0.58951 0.12337
# Poissons Ratio (y) = 0.16519 0.50751
# Poissons Ratio (z) = 0.03004 0.44104
#
# Static dielectric constant tensor:
#      x y z
#    x 3.137740 0.000000 0.164370 
#    y 0.000000 3.400760 0.000000 
#    z 0.164370 0.000000 3.537340 
# 
# 
# High freq. dielectric constant tensor:
#      x y z
#    x 1.680990 0.000000 0.015180 
#    y 0.000000 1.715880 0.000000 
#    z 0.015180 0.000000 1.713280 
# 
# From -- ./inp_files/83628.got.cif
#   From: 2010.06.25/outbox.cif.g09.slc.cpg/sg10_42_cif.got.tgz:83628.got - 2010.06.27 22:07:45.
