data_PCOD8058813
_publ_section_title
;
Structure prediction by ZEFSAII (Michael W. Deem and Ramdas Pophale) SiO2 
 PCOD8058813
Probable space group: P 2/M
;
_chemical_formula_sum "Si O2"
_cell_formula_units_Z 28
_cell_length_a 31.646806
_cell_length_b 8.808855
_cell_length_c 9.711753
_cell_angle_alpha 90.000000
_cell_angle_beta 34.482408
_cell_angle_gamma 90.000000
_cell_volume 1532.783862
_symmetry_space_group_name_H-M "P 2/M"
_symmetry_group_IT_number 10
_symmetry_cell_setting 'monoclinic'
loop_
_space_group_symop_operation_xyz
x,y,z
-x,y,-z
-x,-y,-z
x,-y,z
loop_
_atom_site_type_symbol
_atom_site_label
_atom_site_fract_x
_atom_site_fract_y
_atom_site_fract_z
Si Si1 0.553962 0.174215 0.552065
Si Si2 0.084569 0.319817 0.288435
Si Si3 0.605578 0.824557 0.105796
Si Si4 0.760170 0.320610 0.643583
Si Si5 0.807497 0.179605 0.791275
Si Si6 0.203827 0.678630 0.752072
Si Si7 0.688153 0.677593 0.304260
O O1 0.465896 0.211806 0.799367
O O2 0.582598 0.210866 0.322890
O O3 0.601066 0.276159 0.533023
O O4 0.568093 0.000000 0.551770
O O5 0.089971 0.500000 0.290902
O O6 0.119330 0.245901 0.331396
O O7 0.000000 0.263587 0.500000
O O8 0.130353 0.263598 0.030835
O O9 0.629927 0.000000 0.025240
O O10 0.672420 0.715755 0.882769
O O11 0.771153 0.500000 0.629624
O O12 0.806825 0.236351 0.636108
O O13 0.792186 0.255306 0.412654
O O14 0.810488 0.000000 0.786583
O O15 0.731616 0.235152 0.066644
O O16 0.200510 0.500000 0.747995
O O17 0.277539 0.725937 0.640644
O O18 0.698834 0.500000 0.249020
#
# Coordination Sequence:
#
# PCOD8058813 Si02
#       7
#     4   4   4   4   4   4   4
#     4   9  17  30  48  71 101 135 171 218 266 304
#     4   9  18  37  63  85 104 131 170 211 249 297
#     4   9  18  31  47  70 103 137 171 215 263 306
#     4  11  20  33  52  75 104 138 174 212 255 304
#     4  11  21  33  52  78 108 138 170 209 252 303
#     4   8  18  34  52  77 107 133 164 211 261 303
#     4  10  18  32  53  76 100 132 178 223 257 303
#
# _framework density 18.267415
#
# number of rings (size 3 to 8) (size 9 to 14) (size 15 to 20)
#    0.000    2.429    1.429    3.857    0.000    0.857 
#    0.000   10.000    0.000    8.571    0.000    0.000 
#    0.000    0.000    0.000    0.000    0.000    0.000 
#
# Total GULP energy -347132.156475 kJ/mol
# GULP energy per Si atom -12397.577017 kJ/mol
# Density = 1.822584 g / cm^3
# Si number density = 18.267415 Si / 1000 Ang^3
#
#
#
# Elastic Constant Matrix: (Units=GPa)
#
#
# Indices 1 2 3 4 5 6 
#
# 1 142.7660 43.1959 68.8516 0.0000 -3.5549 0.0000
# 2 43.1959 63.9936 28.6045 0.0000 -1.7013 0.0000
# 3 68.8516 28.6045 80.9355 0.0000 -0.5008 0.0000
# 4 0.0000 0.0000 0.0000 9.3068 0.0000 -8.4324
# 5 -3.5549 -1.7013 -0.5008 0.0000 35.1735 0.0000
# 6 0.0000 0.0000 0.0000 -8.4324 0.0000 24.3810
#
#
#
# Elastic Compliance Matrix: (Units=1/GPa)
#
#
# Indices 1 2 3 4 5 6 
#
# 1 0.012920 -0.004496 -0.009396 0.000000 0.000955 0.000000
# 2 -0.004496 0.020145 -0.003293 0.000000 0.000473 0.000000
# 3 -0.009396 -0.003293 0.021508 0.000000 -0.000803 0.000000
# 4 0.000000 0.000000 0.000000 0.156485 0.000000 0.054122
# 5 0.000955 0.000473 -0.000803 0.000000 0.028538 0.000000
# 6 0.000000 0.000000 0.000000 0.054122 0.000000 0.059734
#
#
# Mechanical properties :
#
#
# Convention : Reuss Voigt Hill
#
# Bulk Modulus (GPa) = 49.49459 63.22213 56.35836
# Shear Modulus (GPa) = 14.68715 23.57514 19.13114
#
# Velocity S-wave (km/s) = 2.83858 3.59633 3.23969
# Velocity P-wave (km/s) = 6.15603 7.20619 6.70171
#
# Compressibility (1/GPa) = 0.02020423
#
# Stress axis : x y z
#
# Youngs Moduli (GPa) = 77.39969 49.63901 46.49539
#
# Poissons Ratio (x) = 0.22316 0.43688
# Poissons Ratio (y) = 0.34796 0.15309
# Poissons Ratio (z) = 0.72726 0.16344
#
# Static dielectric constant tensor:
#      x y z
#    x 3.571310 0.000000 -0.029010 
#    y 0.000000 3.173260 0.000000 
#    z -0.029010 0.000000 3.420360 
# 
# 
# High freq. dielectric constant tensor:
#      x y z
#    x 1.715450 0.000000 -0.007330 
#    y 0.000000 1.695520 0.000000 
#    z -0.007330 0.000000 1.680710 
# 
# From -- ./inp_files/37965.got.cif
#   From: 2010.06.25/outbox.cif.g09.slc.cpg/sg10_19_cif.got.tgz:37965.got - 2010.06.27 22:07:45.
