data_PCOD8058105
_publ_section_title
;
Structure prediction by ZEFSAII (Michael W. Deem and Ramdas Pophale) SiO2 
 PCOD8058105
Probable space group: P 2/M
;
_chemical_formula_sum "Si O2"
_cell_formula_units_Z 24
_cell_length_a 9.808312
_cell_length_b 8.712449
_cell_length_c 20.610545
_cell_angle_alpha 90.000000
_cell_angle_beta 48.983601
_cell_angle_gamma 90.000000
_cell_volume 1328.910627
_symmetry_space_group_name_H-M "P 2/M"
_symmetry_group_IT_number 10
_symmetry_cell_setting 'monoclinic'
loop_
_space_group_symop_operation_xyz
x,y,z
-x,y,-z
-x,-y,-z
x,-y,z
loop_
_atom_site_type_symbol
_atom_site_label
_atom_site_fract_x
_atom_site_fract_y
_atom_site_fract_z
Si Si1 0.645701 0.683495 0.404275
Si Si2 0.586399 0.682503 0.786069
Si Si3 0.043682 0.681777 0.277960
Si Si4 0.393466 0.820201 0.969180
Si Si5 0.642761 0.318511 0.260337
Si Si6 0.950132 0.319559 0.870890
O O1 0.500000 0.752621 0.500000
O O2 0.639812 0.500000 0.406823
O O3 0.601570 0.745329 0.345514
O O4 0.846502 0.742274 0.362368
O O5 0.582278 0.500000 0.785877
O O6 0.794097 0.742768 0.726777
O O7 0.471625 0.734372 0.883058
O O8 0.499943 0.750314 0.746828
O O9 0.036815 0.500000 0.280938
O O10 0.085135 0.734854 0.191828
O O11 0.413388 0.000000 0.951975
O O12 0.500000 0.764962 0.000000
O O13 0.183557 0.774222 0.041016
O O14 0.625715 0.500000 0.268597
O O15 0.844844 0.275092 0.174237
O O16 0.914494 0.500000 0.890698
#
# Coordination Sequence:
#
# PCOD8058105 Si02
#       6
#     4   4   4   4   4   4
#     4   8  13  24  42  65  95 124 145 176 227 274
#     4  10  18  30  47  66  91 122 156 190 222 260
#     4   8  14  24  42  64  85 118 157 182 211 266
#     4  11  22  32  44  66  93 117 153 196 231 266
#     4   8  16  28  44  67  92 119 152 188 222 264
#     4   9  16  30  48  64  86 121 160 187 217 264
#
# _framework density 18.059906999999999
#
# number of rings (size 3 to 8) (size 9 to 14) (size 15 to 20)
#    0.000    3.000    1.667    2.500    0.000    1.333 
#    0.000    5.000    0.000    5.000    0.000    0.000 
#    0.000   25.333    0.000    0.000    0.000    0.000 
#
# Total GULP energy -297422.693282 kJ/mol
# GULP energy per Si atom -12392.612220 kJ/mol
# Density = 1.801880 g / cm^3
# Si number density = 18.059907 Si / 1000 Ang^3
#
#
#
# Elastic Constant Matrix: (Units=GPa)
#
#
# Indices 1 2 3 4 5 6 
#
# 1 173.9576 11.4671 78.9925 0.0000 -9.1280 0.0000
# 2 11.4671 5.5730 2.4600 0.0000 -1.3182 0.0000
# 3 78.9925 2.4600 135.3920 0.0000 -15.4300 0.0000
# 4 0.0000 0.0000 0.0000 -1.1181 0.0000 1.7546
# 5 -9.1280 -1.3182 -15.4300 0.0000 23.5167 0.0000
# 6 0.0000 0.0000 0.0000 1.7546 0.0000 9.0524
#
#
#
# Elastic Compliance Matrix: (Units=1/GPa)
#
#
# Indices 1 2 3 4 5 6 
#
# 1 0.009131 -0.016708 -0.005108 0.000000 -0.000744 0.000000
# 2 -0.016708 0.213097 0.007024 0.000000 0.010068 0.000000
# 3 -0.005108 0.007024 0.010870 0.000000 0.005543 0.000000
# 4 0.000000 0.000000 0.000000 -0.685803 0.000000 0.132925
# 5 -0.000744 0.010068 0.005543 0.000000 0.046436 0.000000
# 6 0.000000 0.000000 0.000000 0.132925 0.000000 0.084704
#
#
# Mechanical properties :
#
#
# Convention : Reuss Voigt Hill
#
# Bulk Modulus (GPa) = 4.91371 55.64020 30.27695
# Shear Modulus (GPa) = -22.30717 21.09041 -0.60838
#
# Velocity S-wave (km/s) = -3.51832 3.42102 -0.58103
# Velocity P-wave (km/s) = 3.71188 6.81763 4.04364
#
# Compressibility (1/GPa) = 0.20351214
#
# Stress axis : x y z
#
# Youngs Moduli (GPa) = 109.52298 4.69270 91.99243
#
# Poissons Ratio (x) = 0.07841 0.46993
# Poissons Ratio (y) = 1.82994 -0.64614
# Poissons Ratio (z) = 0.55948 -0.03296
#
# Static dielectric constant tensor:
#      x y z
#    x 3.929760 0.000000 -0.153590 
#    y 0.000000 2.745190 0.000000 
#    z -0.153590 0.000000 3.439810 
# 
# 
# High freq. dielectric constant tensor:
#      x y z
#    x 1.705230 0.000000 -0.013440 
#    y 0.000000 1.641530 0.000000 
#    z -0.013440 0.000000 1.690300 
# 
# From -- ./inp_files/33730.got.cif
#   From: 2010.06.25/outbox.cif.g09.slc.cpg/sg10_17_cif.got.tgz:33730.got - 2010.06.27 22:07:45.
