data_PCOD8058286
_publ_section_title
;
Structure prediction by ZEFSAII (Michael W. Deem and Ramdas Pophale) SiO2 
 PCOD8058286
Probable space group: P 2/M
;
_chemical_formula_sum "Si O2"
_cell_formula_units_Z 28
_cell_length_a 15.489366
_cell_length_b 9.709215
_cell_length_c 18.198168
_cell_angle_alpha 90.000000
_cell_angle_beta 144.410731
_cell_angle_gamma 90.000000
_cell_volume 1592.746026
_symmetry_space_group_name_H-M "P 2/M"
_symmetry_group_IT_number 10
_symmetry_cell_setting 'monoclinic'
loop_
_space_group_symop_operation_xyz
x,y,z
-x,y,-z
-x,-y,-z
x,-y,z
loop_
_atom_site_type_symbol
_atom_site_label
_atom_site_fract_x
_atom_site_fract_y
_atom_site_fract_z
Si Si1 0.660952 0.837129 0.132929
Si Si2 0.765897 0.655212 0.809566
Si Si3 0.831863 0.164166 0.392977
Si Si4 0.499783 0.837634 0.584875
Si Si5 0.215499 0.163213 0.477314
Si Si6 0.085848 0.837492 0.804696
Si Si7 0.049098 0.655220 0.916081
O O1 0.723854 0.777780 0.253963
O O2 0.774297 0.795912 0.147595
O O3 0.647467 0.000000 0.130986
O O4 0.500000 0.774088 0.000000
O O5 0.706630 0.500000 0.755928
O O6 0.634028 0.763356 0.717830
O O7 0.883284 0.693625 0.827288
O O8 0.840397 0.667148 0.939849
O O9 0.768213 0.215843 0.427410
O O10 0.000000 0.219985 0.500000
O O11 0.835976 0.000000 0.391460
O O12 0.500000 0.795119 0.500000
O O13 0.350047 0.783491 0.520065
O O14 0.520400 0.000000 0.609321
O O15 0.062001 0.218246 0.337371
O O16 0.211346 0.000000 0.474510
O O17 0.104745 0.762855 0.894940
O O18 0.078349 0.000000 0.813737
O O19 0.051687 0.500000 0.886118
#
# Coordination Sequence:
#
# PCOD8058286 Si02
#       7
#     4   4   4   4   4   4   4
#     4   9  17  27  42  70 103 127 159 211 255 289
#     4   9  19  36  53  69  94 131 171 205 242 294
#     4   9  14  25  43  62  92 133 167 198 243 296
#     4  10  20  32  47  73 108 134 158 204 257 296
#     4   9  17  28  45  70 100 136 170 199 243 304
#     4  10  18  30  50  75 100 127 163 203 249 303
#     4   9  19  35  53  71  95 129 166 205 248 297
#
# _framework density 17.579702000000001
#
# number of rings (size 3 to 8) (size 9 to 14) (size 15 to 20)
#    0.000    2.714    1.429    1.714    0.000    3.714 
#    0.000    5.000    0.000    0.429    0.000    3.000 
#    0.000    0.000    0.000    0.000    0.000    0.000 
#
# Total GULP energy -347132.291975 kJ/mol
# GULP energy per Si atom -12397.581856 kJ/mol
# Density = 1.753969 g / cm^3
# Si number density = 17.579702 Si / 1000 Ang^3
#
#
#
# Elastic Constant Matrix: (Units=GPa)
#
#
# Indices 1 2 3 4 5 6 
#
# 1 154.3731 35.6288 71.9628 0.0000 0.8038 0.0000
# 2 35.6288 29.6611 27.5001 0.0000 0.6795 0.0000
# 3 71.9628 27.5001 114.8071 0.0000 14.0333 0.0000
# 4 0.0000 0.0000 0.0000 18.2572 0.0000 0.4566
# 5 0.8038 0.6795 14.0333 0.0000 34.3002 0.0000
# 6 0.0000 0.0000 0.0000 0.4566 0.0000 12.3200
#
#
#
# Elastic Compliance Matrix: (Units=1/GPa)
#
#
# Indices 1 2 3 4 5 6 
#
# 1 0.010690 -0.008295 -0.004951 0.000000 0.001939 0.000000
# 2 -0.008295 0.050194 -0.007080 0.000000 0.002097 0.000000
# 3 -0.004951 -0.007080 0.014188 0.000000 -0.005548 0.000000
# 4 0.000000 0.000000 0.000000 0.054824 0.000000 -0.002032
# 5 0.001939 0.002097 -0.005548 0.000000 0.031337 0.000000
# 6 0.000000 0.000000 0.000000 -0.002032 0.000000 0.081244
#
#
# Mechanical properties :
#
#
# Convention : Reuss Voigt Hill
#
# Bulk Modulus (GPa) = 29.05272 63.22496 46.13884
# Shear Modulus (GPa) = 16.97203 23.89213 20.43208
#
# Velocity S-wave (km/s) = 3.11051 3.69056 3.41288
# Velocity P-wave (km/s) = 5.42794 7.36228 6.46783
#
# Compressibility (1/GPa) = 0.03442018
#
# Stress axis : x y z
#
# Youngs Moduli (GPa) = 93.54455 19.92255 70.48432
#
# Poissons Ratio (x) = 0.16526 0.34895
# Poissons Ratio (y) = 0.77597 0.49902
# Poissons Ratio (z) = 0.46312 0.14105
#
# Static dielectric constant tensor:
#      x y z
#    x 3.445360 0.000000 0.028260 
#    y 0.000000 2.783060 0.000000 
#    z 0.028260 0.000000 3.385450 
# 
# 
# High freq. dielectric constant tensor:
#      x y z
#    x 1.689710 0.000000 -0.002410 
#    y 0.000000 1.624990 0.000000 
#    z -0.002410 0.000000 1.686690 
# 
# From -- ./inp_files/77807.got.cif
#   From: 2010.06.25/outbox.cif.g09.slc.cpg/sg10_39_cif.got.tgz:77807.got - 2010.06.27 22:07:45.
