data_PCOD8058612
_publ_section_title
;
Structure prediction by ZEFSAII (Michael W. Deem and Ramdas Pophale) SiO2 
 PCOD8058612
Probable space group: P 2/M
;
_chemical_formula_sum "Si O2"
_cell_formula_units_Z 32
_cell_length_a 12.187803
_cell_length_b 14.086126
_cell_length_c 14.888108
_cell_angle_alpha 90.000000
_cell_angle_beta 37.823630
_cell_angle_gamma 90.000000
_cell_volume 1567.407558
_symmetry_space_group_name_H-M "P 2/M"
_symmetry_group_IT_number 10
_symmetry_cell_setting 'monoclinic'
loop_
_space_group_symop_operation_xyz
x,y,z
-x,y,-z
-x,-y,-z
x,-y,z
loop_
_atom_site_type_symbol
_atom_site_label
_atom_site_fract_x
_atom_site_fract_y
_atom_site_fract_z
Si Si1 0.669777 0.896518 0.676277
Si Si2 0.299365 0.893354 0.139521
Si Si3 0.268478 0.892167 0.887681
Si Si4 0.012642 0.394931 0.700364
Si Si5 0.036554 0.792645 0.177423
Si Si6 0.815199 0.704728 0.567232
Si Si7 0.308464 0.888405 0.656094
Si Si8 0.642332 0.394023 0.837766
O O1 0.750840 0.893742 0.723646
O O2 0.456110 0.884966 0.817969
O O3 0.760933 0.809361 0.564854
O O4 0.715120 0.000000 0.602354
O O5 0.156534 0.826147 0.183778
O O6 0.288598 0.000000 0.105253
O O7 0.500000 0.852904 0.000000
O O8 0.287043 0.859396 0.773527
O O9 0.193422 0.000000 0.942236
O O10 0.130128 0.820413 0.023498
O O11 0.060840 0.500000 0.706834
O O12 0.990796 0.321015 0.796793
O O13 0.831827 0.400042 0.762035
O O14 0.168592 0.362019 0.530507
O O15 0.842712 0.840731 0.307186
O O16 0.658797 0.667980 0.735948
O O17 0.000000 0.709495 0.500000
O O18 0.500000 0.849805 0.500000
O O19 0.295778 0.000000 0.649973
O O20 0.577354 0.500000 0.852737
O O21 0.500000 0.348332 0.000000
#
# Coordination Sequence:
#
# PCOD8058612 Si02
#       8
#     4   4   4   4   4   4   4   4
#     4  10  21  34  53  86 128 163 196 239 289 360
#     4  10  18  31  52  88 133 166 193 230 288 364
#     4  10  21  39  62  90 124 158 198 247 295 352
#     4  10  23  39  55  83 117 153 201 260 311 356
#     4  12  22  36  65  90 117 165 208 246 304 370
#     4  10  20  35  54  77 114 169 206 242 300 364
#     4  10  23  42  64  92 123 156 205 258 294 343
#     4   9  18  33  56  83 112 152 208 264 303 347
#
# _framework density 20.415876999999998
#
# number of rings (size 3 to 8) (size 9 to 14) (size 15 to 20)
#    0.000    1.875    1.250    3.375    3.500    3.750 
#    0.000    1.250    0.000    1.875    0.000    0.000 
#    0.000    0.000    0.000    0.000    0.000    0.000 
#
# Total GULP energy -396750.184494 kJ/mol
# GULP energy per Si atom -12398.443265 kJ/mol
# Density = 2.036941 g / cm^3
# Si number density = 20.415877 Si / 1000 Ang^3
#
#
#
# Elastic Constant Matrix: (Units=GPa)
#
#
# Indices 1 2 3 4 5 6 
#
# 1 73.5173 36.0089 33.9485 0.0000 -7.2641 0.0000
# 2 36.0089 147.5795 68.0749 0.0000 2.4237 0.0000
# 3 33.9485 68.0749 117.3491 0.0000 6.5288 0.0000
# 4 0.0000 0.0000 0.0000 24.6192 0.0000 6.7279
# 5 -7.2641 2.4237 6.5288 0.0000 26.6497 0.0000
# 6 0.0000 0.0000 0.0000 6.7279 0.0000 -3.8233
#
#
#
# Elastic Compliance Matrix: (Units=1/GPa)
#
#
# Indices 1 2 3 4 5 6 
#
# 1 0.017186 -0.002520 -0.003836 0.000000 0.005853 0.000000
# 2 -0.002520 0.009627 -0.004835 0.000000 -0.000378 0.000000
# 3 -0.003836 -0.004835 0.012642 0.000000 -0.003703 0.000000
# 4 0.000000 0.000000 0.000000 0.027429 0.000000 0.048266
# 5 0.005853 -0.000378 -0.003703 0.000000 0.040061 0.000000
# 6 0.000000 0.000000 0.000000 0.048266 0.000000 -0.176619
#
#
# Mechanical properties :
#
#
# Convention : Reuss Voigt Hill
#
# Bulk Modulus (GPa) = 58.56747 68.27894 63.42321
# Shear Modulus (GPa) = -120.18631 22.85004 -48.66813
#
# Velocity S-wave (km/s) = -7.68094 3.34912 -4.88775
# Velocity P-wave (km/s) = 7.06491 6.96219 0.84878
#
# Compressibility (1/GPa) = 0.01707432
#
# Stress axis : x y z
#
# Youngs Moduli (GPa) = 58.18629 103.87140 79.10252
#
# Poissons Ratio (x) = 0.26178 0.30340
# Poissons Ratio (y) = 0.14665 0.38244
# Poissons Ratio (z) = 0.22317 0.50219
#
# Static dielectric constant tensor:
#      x y z
#    x 3.427180 0.000000 -0.035630 
#    y 0.000000 3.958980 0.000000 
#    z -0.035630 0.000000 3.807600 
# 
# 
# High freq. dielectric constant tensor:
#      x y z
#    x 1.762260 0.000000 -0.001730 
#    y 0.000000 1.788740 0.000000 
#    z -0.001730 0.000000 1.803350 
# 
# From -- ./inp_files/65081.got.cif
#   From: 2010.06.25/outbox.cif.g09.slc.cpg/sg10_33_cif.got.tgz:65081.got - 2010.06.27 22:07:45.
