data_PCOD8058654
_publ_section_title
;
Structure prediction by ZEFSAII (Michael W. Deem and Ramdas Pophale) SiO2 
 PCOD8058654
Probable space group: P 2/M
;
_chemical_formula_sum "Si O2"
_cell_formula_units_Z 32
_cell_length_a 23.694183
_cell_length_b 9.015082
_cell_length_c 12.494621
_cell_angle_alpha 90.000000
_cell_angle_beta 133.791510
_cell_angle_gamma 90.000000
_cell_volume 1926.589359
_symmetry_space_group_name_H-M "P 2/M"
_symmetry_group_IT_number 10
_symmetry_cell_setting 'monoclinic'
loop_
_space_group_symop_operation_xyz
x,y,z
-x,y,-z
-x,-y,-z
x,-y,z
loop_
_atom_site_type_symbol
_atom_site_label
_atom_site_fract_x
_atom_site_fract_y
_atom_site_fract_z
Si Si1 0.921003 0.827159 0.169541
Si Si2 0.810771 0.826275 0.219166
Si Si3 0.659582 0.827107 0.325405
Si Si4 0.908753 0.175226 0.547193
Si Si5 0.490321 0.163876 0.113958
Si Si6 0.818735 0.173090 0.637894
Si Si7 0.917687 0.324547 0.940545
Si Si8 0.337327 0.675054 0.896646
O O1 0.850307 0.795468 0.157155
O O2 0.001205 0.773834 0.331399
O O3 0.926834 0.000000 0.146437
O O4 0.906167 0.733550 0.044523
O O5 0.866981 0.761400 0.386397
O O6 0.729128 0.739526 0.113008
O O7 0.794752 0.000000 0.215571
O O8 0.575870 0.784224 0.269596
O O9 0.726676 0.795619 0.500359
O O10 0.676520 0.734674 0.240890
O O11 0.659449 0.000000 0.290802
O O12 0.865084 0.234377 0.595459
O O13 0.902661 0.000000 0.534150
O O14 0.469051 0.000000 0.129996
O O15 0.500000 0.158842 0.000000
O O16 0.421493 0.276293 0.055567
O O17 0.846271 0.262618 0.777171
O O18 0.835920 0.000000 0.678803
O O19 0.913823 0.500000 0.935988
O O20 0.000000 0.267555 0.000000
O O21 0.333339 0.500000 0.890325
#
# Coordination Sequence:
#
# PCOD8058654 Si02
#       8
#     4   4   4   4   4   4   4   4
#     4  10  20  34  54  74  92 125 171 213 246 285
#     4  10  19  33  51  72  99 129 166 205 246 291
#     4   9  17  31  49  71  97 127 162 203 246 288
#     4   9  16  29  51  75  97 122 159 208 248 283
#     4   8  15  28  46  66  94 129 162 195 238 288
#     4  10  18  31  54  75  95 126 166 207 245 287
#     4  11  23  36  49  68  99 133 165 204 249 293
#     4  11  20  28  43  69 102 135 164 193 235 292
#
# _framework density 16.609663999999999
#
# number of rings (size 3 to 8) (size 9 to 14) (size 15 to 20)
#    0.000    2.250    2.500    2.625    0.000    5.250 
#    0.000    0.625    0.000    1.500    0.000    0.875 
#    0.000    7.000    0.000    0.000    0.000    0.000 
#
# Total GULP energy -396759.473278 kJ/mol
# GULP energy per Si atom -12398.733540 kJ/mol
# Density = 1.657186 g / cm^3
# Si number density = 16.609664 Si / 1000 Ang^3
#
#
#
# Elastic Constant Matrix: (Units=GPa)
#
#
# Indices 1 2 3 4 5 6 
#
# 1 102.3105 49.7437 62.6250 0.0000 19.2130 0.0000
# 2 49.7437 71.5784 42.8902 0.0000 8.5863 0.0000
# 3 62.6250 42.8902 88.8601 0.0000 17.0038 0.0000
# 4 0.0000 0.0000 0.0000 9.9169 0.0000 -0.3243
# 5 19.2130 8.5863 17.0038 0.0000 30.8349 0.0000
# 6 0.0000 0.0000 0.0000 -0.3243 0.0000 15.6410
#
#
#
# Elastic Compliance Matrix: (Units=1/GPa)
#
#
# Indices 1 2 3 4 5 6 
#
# 1 0.020463 -0.007811 -0.009646 0.000000 -0.005256 0.000000
# 2 -0.007811 0.022639 -0.005755 0.000000 0.001736 0.000000
# 3 -0.009646 -0.005755 0.021658 0.000000 -0.004331 0.000000
# 4 0.000000 0.000000 0.000000 0.100906 0.000000 0.002092
# 5 -0.005256 0.001736 -0.004331 0.000000 0.037611 0.000000
# 6 0.000000 0.000000 0.000000 0.002092 0.000000 0.063978
#
#
# Mechanical properties :
#
#
# Convention : Reuss Voigt Hill
#
# Bulk Modulus (GPa) = 54.53291 63.69631 59.11461
# Shear Modulus (GPa) = 15.63531 18.44456 17.03994
#
# Velocity S-wave (km/s) = 3.07145 3.33599 3.20645
# Velocity P-wave (km/s) = 6.74401 7.29867 7.02682
#
# Compressibility (1/GPa) = 0.01833755
#
# Stress axis : x y z
#
# Youngs Moduli (GPa) = 48.86868 44.17226 46.17250
#
# Poissons Ratio (x) = 0.34501 0.44537
# Poissons Ratio (y) = 0.38169 0.26571
# Poissons Ratio (z) = 0.47138 0.25420
#
# Static dielectric constant tensor:
#      x y z
#    x 3.152430 0.000000 0.368020 
#    y 0.000000 2.914920 0.000000 
#    z 0.368020 0.000000 3.204350 
# 
# 
# High freq. dielectric constant tensor:
#      x y z
#    x 1.626010 0.000000 0.026410 
#    y 0.000000 1.621450 0.000000 
#    z 0.026410 0.000000 1.626440 
# 
# From -- ./inp_files/56475.got.cif
#   From: 2010.06.25/outbox.cif.g09.slc.cpg/sg10_29_cif.got.tgz:56475.got - 2010.06.27 22:07:45.
