data_PCOD8058067
_publ_section_title
;
Structure prediction by ZEFSAII (Michael W. Deem and Ramdas Pophale) SiO2 
 PCOD8058067
Probable space group: P 2/M
;
_chemical_formula_sum "Si O2"
_cell_formula_units_Z 30
_cell_length_a 11.623166
_cell_length_b 9.767379
_cell_length_c 15.734552
_cell_angle_alpha 90.000000
_cell_angle_beta 101.125797
_cell_angle_gamma 90.000000
_cell_volume 1752.738013
_symmetry_space_group_name_H-M "P 2/M"
_symmetry_group_IT_number 10
_symmetry_cell_setting 'monoclinic'
loop_
_space_group_symop_operation_xyz
x,y,z
-x,y,-z
-x,-y,-z
x,-y,z
loop_
_atom_site_type_symbol
_atom_site_label
_atom_site_fract_x
_atom_site_fract_y
_atom_site_fract_z
Si Si1 0.027445 0.160088 0.100751
Si Si2 0.741763 0.849600 0.777078
Si Si3 0.924936 0.339998 0.230063
Si Si4 0.744147 0.153679 0.470675
Si Si5 0.500000 0.247403 0.500000
Si Si6 0.543110 0.346872 0.692502
Si Si7 0.090447 0.152934 0.355432
Si Si8 0.715641 0.654581 0.314039
O O1 0.163809 0.196470 0.137841
O O2 0.944110 0.256432 0.145849
O O3 0.003875 0.000000 0.120093
O O4 0.000000 0.193507 0.000000
O O5 0.634193 0.747767 0.754415
O O6 0.806067 0.853746 0.697139
O O7 0.691598 0.000000 0.792351
O O8 0.961500 0.500000 0.224653
O O9 0.788416 0.327092 0.237102
O O10 0.998314 0.269694 0.316604
O O11 0.614856 0.159166 0.494450
O O12 0.847667 0.197204 0.548913
O O13 0.765833 0.249251 0.393961
O O14 0.763009 0.000000 0.441927
O O15 0.532059 0.334453 0.588578
O O16 0.584142 0.500000 0.717560
O O17 0.420462 0.311544 0.721172
O O18 0.032914 0.000000 0.353728
O O19 0.727920 0.500000 0.350177
#
# Coordination Sequence:
#
# PCOD8058067 Si02
#       8
#     4   4   4   4   2   4   4   4
#     4   9  19  37  60  83 105 127 152 195 257 313
#     4   9  17  31  50  75 104 128 158 206 256 299
#     4  10  20  35  53  73  99 131 166 205 245 296
#     4  10  19  30  47  68  93 131 178 218 251 291
#     4  10  18  30  44  68 100 134 174 220 256 284
#     4  10  19  31  48  69  98 138 176 210 248 292
#     4   9  18  32  47  69  99 131 166 212 261 297
#     4   9  21  36  46  65 100 138 173 208 248 289
#
# _framework density 17.116078000000002
#
# number of rings (size 3 to 8) (size 9 to 14) (size 15 to 20)
#    0.000    2.533    1.333    1.600    0.000    7.200 
#    0.000    2.667    0.000    0.800    0.000    5.600 
#    0.000    0.000    0.000    0.000    0.000    0.000 
#
# Total GULP energy -371801.412483 kJ/mol
# GULP energy per Si atom -12393.380416 kJ/mol
# Density = 1.707712 g / cm^3
# Si number density = 17.116078 Si / 1000 Ang^3
#
#
#
# Elastic Constant Matrix: (Units=GPa)
#
#
# Indices 1 2 3 4 5 6 
#
# 1 91.1130 58.2221 58.7350 0.0000 1.6549 0.0000
# 2 58.2221 99.9608 59.6589 0.0000 7.0686 0.0000
# 3 58.7350 59.6589 94.3802 0.0000 11.2006 0.0000
# 4 0.0000 0.0000 0.0000 -1.7692 0.0000 -3.8632
# 5 1.6549 7.0686 11.2006 0.0000 19.5222 0.0000
# 6 0.0000 0.0000 0.0000 -3.8632 0.0000 21.3077
#
#
#
# Elastic Compliance Matrix: (Units=1/GPa)
#
#
# Indices 1 2 3 4 5 6 
#
# 1 0.021805 -0.007388 -0.009655 0.000000 0.006366 0.000000
# 2 -0.007388 0.018568 -0.006884 0.000000 -0.002147 0.000000
# 3 -0.009655 -0.006884 0.022065 0.000000 -0.009348 0.000000
# 4 0.000000 0.000000 0.000000 -0.404919 0.000000 -0.073415
# 5 0.006366 -0.002147 -0.009348 0.000000 0.056825 0.000000
# 6 0.000000 0.000000 0.000000 -0.073415 0.000000 0.033621
#
#
# Mechanical properties :
#
#
# Convention : Reuss Voigt Hill
#
# Bulk Modulus (GPa) = 68.57428 70.96511 69.76969
# Shear Modulus (GPa) = -25.08529 15.06801 -5.00864
#
# Velocity S-wave (km/s) = -3.83247 2.97027 -1.71249
# Velocity P-wave (km/s) = 4.53514 7.30168 6.07791
#
# Compressibility (1/GPa) = 0.01458273
#
# Stress axis : x y z
#
# Youngs Moduli (GPa) = 45.86146 53.85747 45.32044
#
# Poissons Ratio (x) = 0.39790 0.43757
# Poissons Ratio (y) = 0.33882 0.31200
# Poissons Ratio (z) = 0.44280 0.37077
#
# Static dielectric constant tensor:
#      x y z
#    x 3.340460 0.000000 0.080560 
#    y 0.000000 3.282660 0.000000 
#    z 0.080560 0.000000 2.982750 
# 
# 
# High freq. dielectric constant tensor:
#      x y z
#    x 1.657140 0.000000 0.003110 
#    y 0.000000 1.667970 0.000000 
#    z 0.003110 0.000000 1.629750 
# 
# From -- ./inp_files/63443.got.cif
#   From: 2010.06.25/outbox.cif.g09.slc.cpg/sg10_32_cif.got.tgz:63443.got - 2010.06.27 22:07:45.
