data_PCOD8058836
_publ_section_title
;
Structure prediction by ZEFSAII (Michael W. Deem and Ramdas Pophale) SiO2 
 PCOD8058836
Probable space group: P 2/M
;
_chemical_formula_sum "Si O2"
_cell_formula_units_Z 32
_cell_length_a 21.977467
_cell_length_b 8.840086
_cell_length_c 30.417497
_cell_angle_alpha 90.000000
_cell_angle_beta 15.886879
_cell_angle_gamma 90.000000
_cell_volume 1617.685999
_symmetry_space_group_name_H-M "P 2/M"
_symmetry_group_IT_number 10
_symmetry_cell_setting 'monoclinic'
loop_
_space_group_symop_operation_xyz
x,y,z
-x,y,-z
-x,-y,-z
x,-y,z
loop_
_atom_site_type_symbol
_atom_site_label
_atom_site_fract_x
_atom_site_fract_y
_atom_site_fract_z
Si Si1 0.624334 0.320363 0.369294
Si Si2 0.662211 0.330560 0.513847
Si Si3 0.716384 0.320919 0.822362
Si Si4 0.952699 0.820759 0.894287
Si Si5 0.452652 0.178679 0.243674
Si Si6 0.552686 0.178737 0.851237
Si Si7 0.100682 0.329654 0.157666
Si Si8 0.174875 0.821352 0.518112
O O1 0.500000 0.264812 0.500000
O O2 0.650475 0.500000 0.351969
O O3 0.490561 0.265876 0.419193
O O4 0.866261 0.242166 0.197210
O O5 0.584384 0.500000 0.580516
O O6 0.652074 0.223091 0.563513
O O7 0.917719 0.334061 0.322182
O O8 0.728434 0.500000 0.813427
O O9 0.711767 0.259082 0.775697
O O10 0.937450 0.256282 0.691284
O O11 0.500000 0.265529 0.000000
O O12 0.011099 0.743184 0.807446
O O13 0.971058 0.000000 0.876878
O O14 0.703965 0.769635 0.080981
O O15 0.384900 0.233324 0.241654
O O16 0.280463 0.242055 0.399195
O O17 0.446027 0.000000 0.249102
O O18 0.577478 0.000000 0.839266
O O19 0.300588 0.226972 0.036498
O O20 0.185617 0.500000 0.088506
O O21 0.143481 0.000000 0.538950
#
# Coordination Sequence:
#
# PCOD8058836 Si02
#       8
#     4   4   4   4   4   4   4   4
#     4  10  19  35  55  81 116 153 184 224 287 345
#     4  10  21  36  54  78 114 150 184 228 284 341
#     4  11  24  41  59  84 120 152 179 222 285 342
#     4  10  19  33  55  83 113 144 186 235 276 327
#     4   8  19  39  58  80 113 150 186 232 286 327
#     4  10  20  36  59  86 113 145 190 236 275 324
#     4  10  18  32  53  79 114 152 182 221 285 343
#     4  11  23  40  61  81 108 149 193 233 277 331
#
# _framework density 19.78134
#
# number of rings (size 3 to 8) (size 9 to 14) (size 15 to 20)
#    0.000    2.000    1.250    3.375    0.000    6.250 
#    0.000   10.625    0.000    3.750    0.000    0.000 
#    0.000    0.000    0.000    0.000    0.000    0.000 
#
# Total GULP energy -396767.622798 kJ/mol
# GULP energy per Si atom -12398.988212 kJ/mol
# Density = 1.973632 g / cm^3
# Si number density = 19.781340 Si / 1000 Ang^3
#
#
#
# Elastic Constant Matrix: (Units=GPa)
#
#
# Indices 1 2 3 4 5 6 
#
# 1 138.8505 37.9923 44.3718 0.0000 -3.9256 0.0000
# 2 37.9923 60.8023 27.9249 0.0000 5.7118 0.0000
# 3 44.3718 27.9249 77.0341 0.0000 3.9699 0.0000
# 4 0.0000 0.0000 0.0000 12.0720 0.0000 -0.2538
# 5 -3.9256 5.7118 3.9699 0.0000 22.8998 0.0000
# 6 0.0000 0.0000 0.0000 -0.2538 0.0000 33.8347
#
#
#
# Elastic Compliance Matrix: (Units=1/GPa)
#
#
# Indices 1 2 3 4 5 6 
#
# 1 0.009909 -0.004585 -0.004230 0.000000 0.003576 0.000000
# 2 -0.004585 0.022172 -0.005116 0.000000 -0.005429 0.000000
# 3 -0.004230 -0.005116 0.017400 0.000000 -0.002465 0.000000
# 4 0.000000 0.000000 0.000000 0.082850 0.000000 0.000621
# 5 0.003576 -0.005429 -0.002465 0.000000 0.046063 0.000000
# 6 0.000000 0.000000 0.000000 0.000621 0.000000 0.029560
#
#
# Mechanical properties :
#
#
# Convention : Reuss Voigt Hill
#
# Bulk Modulus (GPa) = 46.25878 55.25164 50.75521
# Shear Modulus (GPa) = 20.57427 24.85449 22.71438
#
# Velocity S-wave (km/s) = 3.22853 3.54851 3.39229
# Velocity P-wave (km/s) = 6.11013 6.69186 6.40760
#
# Compressibility (1/GPa) = 0.02161752
#
# Stress axis : x y z
#
# Youngs Moduli (GPa) = 100.91418 45.10282 57.47284
#
# Poissons Ratio (x) = 0.20680 0.24311
# Poissons Ratio (y) = 0.46270 0.29405
# Poissons Ratio (z) = 0.42687 0.23076
#
# Static dielectric constant tensor:
#      x y z
#    x 3.783170 0.000000 0.017760 
#    y 0.000000 3.484370 0.000000 
#    z 0.017760 0.000000 3.626910 
# 
# 
# High freq. dielectric constant tensor:
#      x y z
#    x 1.778290 0.000000 -0.008720 
#    y 0.000000 1.762380 0.000000 
#    z -0.008720 0.000000 1.753150 
# 
# From -- ./inp_files/93572.got.cif
#   From: 2010.06.25/outbox.cif.g09.slc.cpg/sg10_47_cif.got.tgz:93572.got - 2010.06.27 22:07:45.
