data_PCOD8058853
_publ_section_title
;
Structure prediction by ZEFSAII (Michael W. Deem and Ramdas Pophale) SiO2 
 PCOD8058853
Probable space group: P 2/M
;
_chemical_formula_sum "Si O2"
_cell_formula_units_Z 24
_cell_length_a 15.382292
_cell_length_b 9.698692
_cell_length_c 16.436195
_cell_angle_alpha 90.000000
_cell_angle_beta 31.150590
_cell_angle_gamma 90.000000
_cell_volume 1268.436988
_symmetry_space_group_name_H-M "P 2/M"
_symmetry_group_IT_number 10
_symmetry_cell_setting 'monoclinic'
loop_
_space_group_symop_operation_xyz
x,y,z
-x,y,-z
-x,-y,-z
x,-y,z
loop_
_atom_site_type_symbol
_atom_site_label
_atom_site_fract_x
_atom_site_fract_y
_atom_site_fract_z
Si Si1 0.587112 0.840821 0.511511
Si Si2 0.809711 0.212198 0.560603
Si Si3 0.754303 0.660382 0.932627
Si Si4 0.455683 0.850872 0.787219
Si Si5 0.181797 0.154791 0.266720
Si Si6 0.860479 0.650692 0.361682
O O1 0.500000 0.782526 0.500000
O O2 0.456607 0.818719 0.690163
O O3 0.760316 0.761233 0.389096
O O4 0.636453 0.000000 0.460996
O O5 0.647834 0.127184 0.662100
O O6 0.790815 0.242202 0.671960
O O7 0.823779 0.343722 0.488895
O O8 0.984055 0.129975 0.407596
O O9 0.706951 0.500000 0.954293
O O10 0.726593 0.752381 0.874189
O O11 0.943389 0.674223 0.813043
O O12 0.633401 0.723301 0.097932
O O13 0.366438 0.000000 0.875060
O O14 0.261788 0.000000 0.207232
O O15 0.804676 0.500000 0.376961
#
# Coordination Sequence:
#
# PCOD8058853 Si02
#       6
#     4   4   4   4   4   4
#     4   9  19  36  59  85 106 125 159 209 258 306
#     4   9  18  31  52  78 101 128 172 221 257 294
#     4  10  22  36  48  70 106 142 174 209 250 297
#     4  10  19  33  53  75 101 132 167 206 254 308
#     4  10  18  32  54  76 100 133 176 218 259 303
#     4   9  19  35  54  75 102 138 175 208 249 302
#
# _framework density 18.920923999999999
#
# number of rings (size 3 to 8) (size 9 to 14) (size 15 to 20)
#    0.000    2.500    0.000    2.500    0.000    9.667 
#    0.000    6.667    0.000    5.000    0.000    0.000 
#    0.000    0.000    0.000    0.000    0.000    0.000 
#
# Total GULP energy -297357.591789 kJ/mol
# GULP energy per Si atom -12389.899658 kJ/mol
# Density = 1.887786 g / cm^3
# Si number density = 18.920924 Si / 1000 Ang^3
#
#
#
# Elastic Constant Matrix: (Units=GPa)
#
#
# Indices 1 2 3 4 5 6 
#
# 1 107.0639 38.8100 39.2646 0.0000 18.4891 0.0000
# 2 38.8100 92.6262 42.1752 0.0000 3.7738 0.0000
# 3 39.2646 42.1752 79.6905 0.0000 13.6264 0.0000
# 4 0.0000 0.0000 0.0000 19.2655 0.0000 -2.0543
# 5 18.4891 3.7738 13.6264 0.0000 21.6638 0.0000
# 6 0.0000 0.0000 0.0000 -2.0543 0.0000 19.7331
#
#
#
# Elastic Compliance Matrix: (Units=1/GPa)
#
#
# Indices 1 2 3 4 5 6 
#
# 1 0.013380 -0.003863 -0.003037 0.000000 -0.008836 0.000000
# 2 -0.003863 0.015464 -0.007153 0.000000 0.005103 0.000000
# 3 -0.003037 -0.007153 0.019244 0.000000 -0.008266 0.000000
# 4 0.000000 0.000000 0.000000 0.052489 0.000000 0.005464
# 5 -0.008836 0.005103 -0.008266 0.000000 0.058012 0.000000
# 6 0.000000 0.000000 0.000000 0.005464 0.000000 0.051245
#
#
# Mechanical properties :
#
#
# Convention : Reuss Voigt Hill
#
# Bulk Modulus (GPa) = 50.04681 57.76447 53.90564
# Shear Modulus (GPa) = 20.44135 22.74121 21.59128
#
# Velocity S-wave (km/s) = 3.29044 3.47062 3.38173
# Velocity P-wave (km/s) = 6.39875 6.83051 6.61815
#
# Compressibility (1/GPa) = 0.01998130
#
# Stress axis : x y z
#
# Youngs Moduli (GPa) = 74.73571 64.66661 51.96394
#
# Poissons Ratio (x) = 0.24984 0.15782
# Poissons Ratio (y) = 0.28874 0.37170
# Poissons Ratio (z) = 0.22698 0.46256
#
# Static dielectric constant tensor:
#      x y z
#    x 3.458440 0.000000 0.104660 
#    y 0.000000 3.354430 0.000000 
#    z 0.104660 0.000000 3.327220 
# 
# 
# High freq. dielectric constant tensor:
#      x y z
#    x 1.721940 0.000000 0.004030 
#    y 0.000000 1.729840 0.000000 
#    z 0.004030 0.000000 1.721810 
# 
# From -- ./inp_files/66337.got.cif
#   From: 2010.06.25/outbox.cif.g09.slc.cpg/sg10_34_cif.got.tgz:66337.got - 2010.06.27 22:07:45.
