data_PCOD8058321
_publ_section_title
;
Structure prediction by ZEFSAII (Michael W. Deem and Ramdas Pophale) SiO2 
 PCOD8058321
Probable space group: P 2/M
;
_chemical_formula_sum "Si O2"
_cell_formula_units_Z 32
_cell_length_a 12.138745
_cell_length_b 8.997495
_cell_length_c 31.642627
_cell_angle_alpha 90.000000
_cell_angle_beta 149.951232
_cell_angle_gamma 90.000000
_cell_volume 1730.523778
_symmetry_space_group_name_H-M "P 2/M"
_symmetry_group_IT_number 10
_symmetry_cell_setting 'monoclinic'
loop_
_space_group_symop_operation_xyz
x,y,z
-x,y,-z
-x,-y,-z
x,-y,z
loop_
_atom_site_type_symbol
_atom_site_label
_atom_site_fract_x
_atom_site_fract_y
_atom_site_fract_z
Si Si1 0.188819 0.174370 0.250521
Si Si2 0.380156 0.324062 0.396180
Si Si3 0.468300 0.173208 0.871297
Si Si4 0.365995 0.175038 0.220264
Si Si5 0.962704 0.173759 0.033400
Si Si6 0.820155 0.324134 0.583790
Si Si7 0.696453 0.823954 0.094149
Si Si8 0.308865 0.323434 0.733574
O O1 0.295333 0.251526 0.325702
O O2 0.344394 0.213373 0.262522
O O3 0.937425 0.229957 0.158776
O O4 0.181421 0.000000 0.256650
O O5 0.365641 0.500000 0.386367
O O6 0.631919 0.271790 0.488490
O O7 0.231642 0.266528 0.386028
O O8 0.324751 0.225043 0.863731
O O9 0.414862 0.267417 0.812217
O O10 0.434764 0.000000 0.848944
O O11 0.718413 0.205673 0.968690
O O12 0.572549 0.258259 0.268322
O O13 0.142451 0.238774 0.125127
O O14 0.396456 0.000000 0.223018
O O15 0.008160 0.000000 0.045009
O O16 0.000000 0.248299 0.000000
O O17 0.816894 0.500000 0.584749
O O18 0.057355 0.265561 0.647718
O O19 0.675000 0.000000 0.084141
O O20 0.500000 0.754153 0.000000
O O21 0.324147 0.500000 0.737661
#
# Coordination Sequence:
#
# PCOD8058321 Si02
#       8
#     4   4   4   4   4   4   4   4
#     4  10  20  33  51  77 107 133 164 209 254 292
#     4   9  17  35  60  78  97 130 168 199 244 309
#     4  10  18  30  51  75 100 131 168 207 251 299
#     4  10  20  35  51  69 100 140 174 204 244 296
#     4   9  15  27  48  69  91 128 177 207 227 281
#     4   8  17  34  56  79 100 127 163 205 248 299
#     4   9  17  30  50  77 104 132 169 208 244 290
#     4  11  21  33  50  75 103 126 162 213 256 292
#
# _framework density 18.491513000000001
#
# number of rings (size 3 to 8) (size 9 to 14) (size 15 to 20)
#    0.000    2.500    1.250    2.625    0.000    3.500 
#    0.000    5.000    0.000    6.750    0.000    0.000 
#    0.000    0.000    0.000    0.000    0.000    0.000 
#
# Total GULP energy -396655.016172 kJ/mol
# GULP energy per Si atom -12395.469255 kJ/mol
# Density = 1.844943 g / cm^3
# Si number density = 18.491513 Si / 1000 Ang^3
#
#
#
# Elastic Constant Matrix: (Units=GPa)
#
#
# Indices 1 2 3 4 5 6 
#
# 1 142.4007 41.4550 78.2620 0.0000 9.3992 0.0000
# 2 41.4550 36.0810 36.5489 0.0000 0.9365 0.0000
# 3 78.2620 36.5489 138.3995 0.0000 0.3011 0.0000
# 4 0.0000 0.0000 0.0000 -38.9125 0.0000 41.7057
# 5 9.3992 0.9365 0.3011 0.0000 32.7586 0.0000
# 6 0.0000 0.0000 0.0000 41.7057 0.0000 -9.0674
#
#
#
# Elastic Compliance Matrix: (Units=1/GPa)
#
#
# Indices 1 2 3 4 5 6 
#
# 1 0.012569 -0.009780 -0.004518 0.000000 -0.003285 0.000000
# 2 -0.009780 0.045478 -0.006483 0.000000 0.001566 0.000000
# 3 -0.004518 -0.006483 0.011489 0.000000 0.001376 0.000000
# 4 0.000000 0.000000 0.000000 0.006540 0.000000 0.030079
# 5 -0.003285 0.001566 0.001376 0.000000 0.031412 0.000000
# 6 0.000000 0.000000 0.000000 0.030079 0.000000 0.028065
#
#
# Mechanical properties :
#
#
# Convention : Reuss Voigt Hill
#
# Bulk Modulus (GPa) = 35.74570 69.93478 52.84024
# Shear Modulus (GPa) = 26.81836 7.66342 17.24089
#
# Velocity S-wave (km/s) = 3.81242 2.03796 3.05678
# Velocity P-wave (km/s) = 6.22513 6.59088 6.41062
#
# Compressibility (1/GPa) = 0.02797539
#
# Stress axis : x y z
#
# Youngs Moduli (GPa) = 79.55912 21.98851 87.03709
#
# Poissons Ratio (x) = 0.21504 0.39322
# Poissons Ratio (y) = 0.77806 0.56428
# Poissons Ratio (z) = 0.35944 0.14256
#
# Static dielectric constant tensor:
#      x y z
#    x 3.575960 0.000000 0.186510 
#    y 0.000000 2.964400 0.000000 
#    z 0.186510 0.000000 3.589240 
# 
# 
# High freq. dielectric constant tensor:
#      x y z
#    x 1.726380 0.000000 0.005380 
#    y 0.000000 1.669940 0.000000 
#    z 0.005380 0.000000 1.719330 
# 
# From -- ./inp_files/95050.got.cif
#   From: 2010.06.25/outbox.cif.g09.slc.cpg/sg10_48_cif.got.tgz:95050.got - 2010.06.27 22:07:45.
