data_PCOD8058818
_publ_section_title
;
Structure prediction by ZEFSAII (Michael W. Deem and Ramdas Pophale) SiO2 
 PCOD8058818
Probable space group: P 2/M
;
_chemical_formula_sum "Si O2"
_cell_formula_units_Z 20
_cell_length_a 10.610280
_cell_length_b 12.716436
_cell_length_c 10.610251
_cell_angle_alpha 90.000000
_cell_angle_beta 131.718330
_cell_angle_gamma 90.000000
_cell_volume 1068.573201
_symmetry_space_group_name_H-M "P 2/M"
_symmetry_group_IT_number 10
_symmetry_cell_setting 'monoclinic'
loop_
_space_group_symop_operation_xyz
x,y,z
-x,y,-z
-x,-y,-z
x,-y,z
loop_
_atom_site_type_symbol
_atom_site_label
_atom_site_fract_x
_atom_site_fract_y
_atom_site_fract_z
Si Si1 0.854935 0.211155 0.005048
Si Si2 0.505047 0.211155 0.354933
Si Si3 0.256493 0.378772 0.597194
Si Si4 0.097192 0.621228 0.756493
Si Si5 0.356073 0.000000 0.509073
Si Si6 0.990930 0.000000 0.143929
O O1 0.683617 0.192496 0.816384
O O2 0.836881 0.310092 0.084349
O O3 0.000000 0.233778 0.000000
O O4 0.893442 0.107254 0.116030
O O5 0.500000 0.233780 0.500000
O O6 0.584350 0.310091 0.336879
O O7 0.616027 0.107254 0.393439
O O8 0.306664 0.500000 0.612945
O O9 0.213477 0.355323 0.713479
O O10 0.096510 0.350697 0.403491
O O11 0.112944 0.500000 0.806664
O O12 0.500000 0.000000 0.500000
O O13 0.172532 0.000000 0.327470
O O14 0.000000 0.000000 0.000000
#
# Coordination Sequence:
#
# PCOD8058818 Si02
#       6
#     4   4   4   4   2   2
#     4  11  21  34  54  80 109 139 175 217 260 309
#     4  11  21  34  54  80 109 139 175 217 260 309
#     4   9  19  37  58  78 104 139 176 215 263 316
#     4   9  19  37  58  78 104 139 176 215 263 316
#     4  10  18  32  53  76 105 138 173 213 261 313
#     4  10  18  32  53  76 105 138 173 213 261 313
#
# _framework density 18.716545
#
# number of rings (size 3 to 8) (size 9 to 14) (size 15 to 20)
#    0.000    2.000    0.000    9.000    0.000    2.400 
#    0.000    3.000    0.000    6.000    0.000    0.000 
#    0.000    0.000    0.000    0.000    0.000    0.000 
#
# Total GULP energy -247992.146313 kJ/mol
# GULP energy per Si atom -12399.607316 kJ/mol
# Density = 1.867395 g / cm^3
# Si number density = 18.716545 Si / 1000 Ang^3
#
#
#
# Elastic Constant Matrix: (Units=GPa)
#
#
# Indices 1 2 3 4 5 6 
#
# 1 68.3714 56.4005 43.2609 0.0000 12.0758 0.0000
# 2 56.4005 122.8893 59.4943 0.0000 1.2985 0.0000
# 3 43.2609 59.4943 143.4538 0.0000 19.4272 0.0000
# 4 0.0000 0.0000 0.0000 32.6985 0.0000 13.7628
# 5 12.0758 1.2985 19.4272 0.0000 30.0296 0.0000
# 6 0.0000 0.0000 0.0000 13.7628 0.0000 -0.1039
#
#
#
# Elastic Compliance Matrix: (Units=1/GPa)
#
#
# Indices 1 2 3 4 5 6 
#
# 1 0.026775 -0.011091 -0.002281 0.000000 -0.008811 0.000000
# 2 -0.011091 0.014952 -0.003697 0.000000 0.006205 0.000000
# 3 -0.002281 -0.003697 0.009915 0.000000 -0.005337 0.000000
# 4 0.000000 0.000000 0.000000 0.000539 0.000000 0.071379
# 5 -0.008811 0.006205 -0.005337 0.000000 0.040028 0.000000
# 6 0.000000 0.000000 0.000000 0.071379 0.000000 -0.169586
#
#
# Mechanical properties :
#
#
# Convention : Reuss Voigt Hill
#
# Bulk Modulus (GPa) = 57.13120 72.55844 64.84482
# Shear Modulus (GPa) = -133.66941 24.22876 -54.72032
#
# Velocity S-wave (km/s) = -8.46007 3.60183 -5.41293
# Velocity P-wave (km/s) = 8.05231 7.49325 2.08458
#
# Compressibility (1/GPa) = 0.01750357
#
# Stress axis : x y z
#
# Youngs Moduli (GPa) = 37.34865 66.88257 100.86048
#
# Poissons Ratio (x) = 0.74178 0.23011
# Poissons Ratio (y) = 0.41422 0.37283
# Poissons Ratio (z) = 0.08521 0.24723
#
# Static dielectric constant tensor:
#      x y z
#    x 3.124440 0.000000 0.099430 
#    y 0.000000 3.953970 0.000000 
#    z 0.099430 0.000000 3.361420 
# 
# 
# High freq. dielectric constant tensor:
#      x y z
#    x 1.697860 0.000000 0.013700 
#    y 0.000000 1.744870 0.000000 
#    z 0.013700 0.000000 1.730510 
# 
# From -- ./inp_files/46435.got.cif
#   From: 2010.06.25/outbox.cif.g09.slc.cpg/sg10_24_cif.got.tgz:46435.got - 2010.06.27 22:07:45.
