data_PCOD8058958
_publ_section_title
;
Structure prediction by ZEFSAII (Michael W. Deem and Ramdas Pophale) SiO2 
 PCOD8058958
Probable space group: P 2/M
;
_chemical_formula_sum "Si O2"
_cell_formula_units_Z 28
_cell_length_a 12.266450
_cell_length_b 9.184473
_cell_length_c 14.857983
_cell_angle_alpha 90.000000
_cell_angle_beta 52.987818
_cell_angle_gamma 90.000000
_cell_volume 1336.632483
_symmetry_space_group_name_H-M "P 2/M"
_symmetry_group_IT_number 10
_symmetry_cell_setting 'monoclinic'
loop_
_space_group_symop_operation_xyz
x,y,z
-x,y,-z
-x,-y,-z
x,-y,z
loop_
_atom_site_type_symbol
_atom_site_label
_atom_site_fract_x
_atom_site_fract_y
_atom_site_fract_z
Si Si1 0.285292 0.332468 0.221496
Si Si2 0.861456 0.669802 0.238953
Si Si3 0.825865 0.333043 0.912965
Si Si4 0.442348 0.831999 0.290976
Si Si5 0.258382 0.170155 0.546770
Si Si6 0.242069 0.168543 0.875614
Si Si7 0.031012 0.844478 0.384048
O O1 0.308784 0.500000 0.232176
O O2 0.280607 0.304590 0.116176
O O3 0.401738 0.245876 0.217543
O O4 0.138402 0.284698 0.329687
O O5 0.829671 0.500000 0.248108
O O6 0.740104 0.741693 0.359921
O O7 0.852761 0.740278 0.144391
O O8 0.017345 0.698470 0.195983
O O9 0.814063 0.500000 0.952071
O O10 0.781643 0.223830 0.012186
O O11 0.363808 0.770763 0.418766
O O12 0.600971 0.808444 0.229446
O O13 0.401564 0.000000 0.298901
O O14 0.107219 0.208468 0.591540
O O15 0.285589 0.000000 0.552675
O O16 0.200208 0.000000 0.891113
O O17 0.000000 0.883553 0.500000
O O18 0.081851 0.000000 0.314894
#
# Coordination Sequence:
#
# PCOD8058958 Si02
#       7
#     4   4   4   4   4   4   4
#     4  11  22  36  59  91 124 157 196 243 297 360
#     4  11  23  41  64  90 123 156 194 249 306 356
#     4  10  23  42  62  88 122 157 193 246 309 355
#     4  10  23  43  61  86 125 163 199 242 297 354
#     4  10  20  36  61  89 120 158 198 242 294 355
#     4  11  25  43  64  87 115 157 209 255 292 349
#     4  10  18  32  56  86 120 159 196 240 298 352
#
# _framework density 20.948167000000002
#
# number of rings (size 3 to 8) (size 9 to 14) (size 15 to 20)
#    0.000    1.571    2.857    1.714    0.000    7.143 
#    0.000    5.714    0.000    0.000    0.000    0.000 
#    0.000    0.000    0.000    0.000    0.000    0.000 
#
# Total GULP energy -347066.334020 kJ/mol
# GULP energy per Si atom -12395.226215 kJ/mol
# Density = 2.090049 g / cm^3
# Si number density = 20.948167 Si / 1000 Ang^3
#
#
#
# Elastic Constant Matrix: (Units=GPa)
#
#
# Indices 1 2 3 4 5 6 
#
# 1 44.1424 27.5161 9.5693 0.0000 7.9889 0.0000
# 2 27.5161 87.7790 43.9333 0.0000 6.8153 0.0000
# 3 9.5693 43.9333 86.9470 0.0000 13.2632 0.0000
# 4 0.0000 0.0000 0.0000 27.1138 0.0000 12.0318
# 5 7.9889 6.8153 13.2632 0.0000 24.5365 0.0000
# 6 0.0000 0.0000 0.0000 12.0318 0.0000 28.8012
#
#
#
# Elastic Compliance Matrix: (Units=1/GPa)
#
#
# Indices 1 2 3 4 5 6 
#
# 1 0.029963 -0.010348 0.003249 0.000000 -0.008638 0.000000
# 2 -0.010348 0.018822 -0.008815 0.000000 0.002906 0.000000
# 3 0.003249 -0.008815 0.016768 0.000000 -0.007673 0.000000
# 4 0.000000 0.000000 0.000000 0.045275 0.000000 -0.018914
# 5 -0.008638 0.002906 -0.007673 0.000000 0.046909 0.000000
# 6 0.000000 0.000000 0.000000 -0.018914 0.000000 0.042622
#
#
# Mechanical properties :
#
#
# Convention : Reuss Voigt Hill
#
# Bulk Modulus (GPa) = 29.65150 42.32288 35.98719
# Shear Modulus (GPa) = 20.53979 25.28026 22.91003
#
# Velocity S-wave (km/s) = 3.13470 3.47767 3.31063
# Velocity P-wave (km/s) = 5.22372 6.03101 5.64182
#
# Compressibility (1/GPa) = 0.03372510
#
# Stress axis : x y z
#
# Youngs Moduli (GPa) = 33.37423 53.12843 59.63581
#
# Poissons Ratio (x) = 0.54976 -0.19373
# Poissons Ratio (y) = 0.34535 0.52570
# Poissons Ratio (z) = -0.10842 0.46833
#
# Static dielectric constant tensor:
#      x y z
#    x 3.754990 0.000000 0.110590 
#    y 0.000000 3.779740 0.000000 
#    z 0.110590 0.000000 3.744900 
# 
# 
# High freq. dielectric constant tensor:
#      x y z
#    x 1.818790 0.000000 0.011630 
#    y 0.000000 1.818540 0.000000 
#    z 0.011630 0.000000 1.817030 
# 
# From -- ./inp_files/49607.got.cif
#   From: 2010.06.25/outbox.cif.g09.slc.cpg/sg10_25_cif.got.tgz:49607.got - 2010.06.27 22:07:45.
