data_PCOD8058392
_publ_section_title
;
Structure prediction by ZEFSAII (Michael W. Deem and Ramdas Pophale) SiO2 
 PCOD8058392
Probable space group: P 2/M
;
_chemical_formula_sum "Si O2"
_cell_formula_units_Z 32
_cell_length_a 11.997939
_cell_length_b 13.118170
_cell_length_c 23.165785
_cell_angle_alpha 90.000000
_cell_angle_beta 152.906622
_cell_angle_gamma 90.000000
_cell_volume 1660.580830
_symmetry_space_group_name_H-M "P 2/M"
_symmetry_group_IT_number 10
_symmetry_cell_setting 'monoclinic'
loop_
_space_group_symop_operation_xyz
x,y,z
-x,y,-z
-x,-y,-z
x,-y,z
loop_
_atom_site_type_symbol
_atom_site_label
_atom_site_fract_x
_atom_site_fract_y
_atom_site_fract_z
Si Si1 0.441081 0.613037 0.814694
Si Si2 0.016133 0.276580 0.681954
Si Si3 0.725551 0.189607 0.942465
Si Si4 0.272144 0.879027 0.182861
Si Si5 0.739169 0.613784 0.648685
Si Si6 0.528743 0.253308 0.389098
Si Si7 0.742740 0.611792 0.393494
Si Si8 0.596820 0.115696 0.105791
O O1 0.500144 0.500000 0.867885
O O2 0.656846 0.693549 0.927822
O O3 0.428292 0.604789 0.740553
O O4 0.177305 0.652312 0.714740
O O5 0.961733 0.345121 0.712767
O O6 0.769716 0.234005 0.538398
O O7 0.161915 0.176505 0.766355
O O8 0.623695 0.157984 0.831598
O O9 0.605421 0.120181 0.936696
O O10 0.015253 0.175839 0.076706
O O11 0.450578 0.848864 0.318243
O O12 0.237718 0.000000 0.165755
O O13 0.500000 0.603740 0.500000
O O14 0.803528 0.500000 0.702604
O O15 0.694009 0.699079 0.676860
O O16 0.580664 0.337980 0.366522
O O17 0.812118 0.500000 0.449456
O O18 0.000000 0.670743 0.500000
O O19 0.679963 0.000000 0.135602
O O20 0.500000 0.159347 0.000000
#
# Coordination Sequence:
#
# PCOD8058392 Si02
#       8
#     4   4   4   4   4   4   4   4
#     4  10  19  34  59  86 117 152 186 233 286 342
#     4  10  21  36  59  86 120 149 190 239 291 343
#     4  10  21  41  61  84 114 150 200 238 283 347
#     4  11  23  39  61  82 113 157 197 240 291 346
#     4   9  19  35  55  81 116 157 192 225 276 346
#     4  11  21  35  56  87 119 151 190 237 288 340
#     4  10  18  30  53  84 117 152 187 222 278 346
#     4  10  22  40  64  85 109 149 198 244 287 337
#
# _framework density 19.270367
#
# number of rings (size 3 to 8) (size 9 to 14) (size 15 to 20)
#    0.000    1.875    2.500    2.250    1.750    1.500 
#    0.000    2.500    0.000    6.750    0.000    0.000 
#    0.000    0.000    0.000    0.000    0.000    0.000 
#
# Total GULP energy -396665.075051 kJ/mol
# GULP energy per Si atom -12395.783595 kJ/mol
# Density = 1.922651 g / cm^3
# Si number density = 19.270367 Si / 1000 Ang^3
#
#
#
# Elastic Constant Matrix: (Units=GPa)
#
#
# Indices 1 2 3 4 5 6 
#
# 1 118.3186 30.2589 38.9844 0.0000 -0.5623 0.0000
# 2 30.2589 96.6259 43.5679 0.0000 -2.3453 0.0000
# 3 38.9844 43.5679 70.2174 0.0000 -1.8434 0.0000
# 4 0.0000 0.0000 0.0000 20.0271 0.0000 -0.2758
# 5 -0.5623 -2.3453 -1.8434 0.0000 26.4114 0.0000
# 6 0.0000 0.0000 0.0000 -0.2758 0.0000 24.5691
#
#
#
# Elastic Compliance Matrix: (Units=1/GPa)
#
#
# Indices 1 2 3 4 5 6 
#
# 1 0.010402 -0.000911 -0.005216 0.000000 -0.000223 0.000000
# 2 -0.000911 0.014460 -0.008449 0.000000 0.000675 0.000000
# 3 -0.005216 -0.008449 0.022398 0.000000 0.000702 0.000000
# 4 0.000000 0.000000 0.000000 0.049940 0.000000 0.000561
# 5 -0.000223 0.000675 0.000702 0.000000 0.037967 0.000000
# 6 0.000000 0.000000 0.000000 0.000561 0.000000 0.040708
#
#
# Mechanical properties :
#
#
# Convention : Reuss Voigt Hill
#
# Bulk Modulus (GPa) = 55.22049 56.75384 55.98716
# Shear Modulus (GPa) = 23.68966 25.69156 24.69061
#
# Velocity S-wave (km/s) = 3.50999 3.65528 3.58337
# Velocity P-wave (km/s) = 6.71897 6.87969 6.79980
#
# Compressibility (1/GPa) = 0.01810922
#
# Stress axis : x y z
#
# Youngs Moduli (GPa) = 96.13301 69.15464 44.64713
#
# Poissons Ratio (x) = 0.06301 0.23287
# Poissons Ratio (y) = 0.08759 0.37721
# Poissons Ratio (z) = 0.50141 0.58426
#
# Static dielectric constant tensor:
#      x y z
#    x 3.791030 0.000000 -0.134670 
#    y 0.000000 3.533350 0.000000 
#    z -0.134670 0.000000 3.831470 
# 
# 
# High freq. dielectric constant tensor:
#      x y z
#    x 1.765160 0.000000 0.000950 
#    y 0.000000 1.745400 0.000000 
#    z 0.000950 0.000000 1.725370 
# 
# From -- ./inp_files/88955.got.cif
#   From: 2010.06.25/outbox.cif.g09.slc.cpg/sg10_45_cif.got.tgz:88955.got - 2010.06.27 22:07:45.
