data_PCOD8058037
_publ_section_title
;
Structure prediction by ZEFSAII (Michael W. Deem and Ramdas Pophale) SiO2 
 PCOD8058037
Probable space group: P 2/M
;
_chemical_formula_sum "Si O2"
_cell_formula_units_Z 22
_cell_length_a 8.494010
_cell_length_b 13.879775
_cell_length_c 16.684977
_cell_angle_alpha 90.000000
_cell_angle_beta 35.799417
_cell_angle_gamma 90.000000
_cell_volume 1150.639086
_symmetry_space_group_name_H-M "P 2/M"
_symmetry_group_IT_number 10
_symmetry_cell_setting 'monoclinic'
loop_
_space_group_symop_operation_xyz
x,y,z
-x,y,-z
-x,-y,-z
x,-y,z
loop_
_atom_site_type_symbol
_atom_site_label
_atom_site_fract_x
_atom_site_fract_y
_atom_site_fract_z
Si Si1 0.343069 0.238433 0.726536
Si Si2 0.919176 0.391895 0.738800
Si Si3 0.500000 0.308211 0.500000
Si Si4 0.923594 0.608409 0.916818
Si Si5 0.119936 0.108126 0.039221
Si Si6 0.500800 0.260641 0.832062
O O1 0.508897 0.239816 0.575236
O O2 0.531369 0.224099 0.727157
O O3 0.214151 0.342768 0.795203
O O4 0.107797 0.158605 0.812168
O O5 0.861841 0.500000 0.728104
O O6 0.800415 0.386063 0.877772
O O7 0.781568 0.306881 0.743980
O O8 0.238605 0.375629 0.606744
O O9 0.961742 0.500000 0.930097
O O10 0.730926 0.659203 0.060949
O O11 0.174681 0.000000 0.047447
O O12 0.402054 0.167552 0.924942
O O13 0.000000 0.109628 0.000000
#
# Coordination Sequence:
#
# PCOD8058037 Si02
#       6
#     4   4   2   4   4   4
#     4   9  19  32  50  73  98 131 168 202 240 290
#     4  10  20  33  50  71 101 138 170 201 241 291
#     4  10  21  38  49  60  98 146 177 202 237 284
#     4   9  17  30  48  71 101 131 155 193 255 309
#     4   8  15  31  55  80 103 124 151 197 258 311
#     4  10  18  29  50  80 100 120 162 210 250 290
#
# _framework density 19.119809
#
# number of rings (size 3 to 8) (size 9 to 14) (size 15 to 20)
#    0.000    2.727    0.000    3.000    0.000    5.091 
#    0.000    1.364    0.000   20.727    0.000    5.091 
#    0.000    0.000    0.000    0.000    0.000    0.000 
#
# Total GULP energy -272610.370941 kJ/mol
# GULP energy per Si atom -12391.380497 kJ/mol
# Density = 1.907629 g / cm^3
# Si number density = 19.119809 Si / 1000 Ang^3
#
#
#
# Elastic Constant Matrix: (Units=GPa)
#
#
# Indices 1 2 3 4 5 6 
#
# 1 68.3053 22.9505 31.1483 0.0000 7.2761 0.0000
# 2 22.9505 134.3815 25.0935 0.0000 1.0002 0.0000
# 3 31.1483 25.0935 72.1081 0.0000 15.1761 0.0000
# 4 0.0000 0.0000 0.0000 15.6090 0.0000 -4.0069
# 5 7.2761 1.0002 15.1761 0.0000 35.7918 0.0000
# 6 0.0000 0.0000 0.0000 -4.0069 0.0000 15.6441
#
#
#
# Elastic Compliance Matrix: (Units=1/GPa)
#
#
# Indices 1 2 3 4 5 6 
#
# 1 0.018642 -0.001819 -0.007283 0.000000 -0.000651 0.000000
# 2 -0.001819 0.008172 -0.002292 0.000000 0.001113 0.000000
# 3 -0.007283 -0.002292 0.019200 0.000000 -0.006596 0.000000
# 4 0.000000 0.000000 0.000000 0.068574 0.000000 0.017564
# 5 -0.000651 0.001113 -0.006596 0.000000 0.030838 0.000000
# 6 0.000000 0.000000 0.000000 0.017564 0.000000 0.068420
#
#
# Mechanical properties :
#
#
# Convention : Reuss Voigt Hill
#
# Bulk Modulus (GPa) = 43.05592 48.13104 45.59348
# Shear Modulus (GPa) = 20.46033 26.44917 23.45475
#
# Velocity S-wave (km/s) = 3.27480 3.72336 3.50626
# Velocity P-wave (km/s) = 6.07182 6.61155 6.34743
#
# Compressibility (1/GPa) = 0.02322561
#
# Stress axis : x y z
#
# Youngs Moduli (GPa) = 53.64338 122.36990 52.08342
#
# Poissons Ratio (x) = 0.22259 0.37930
# Poissons Ratio (y) = 0.09758 0.11940
# Poissons Ratio (z) = 0.39066 0.28052
#
# Static dielectric constant tensor:
#      x y z
#    x 3.377830 0.000000 0.209070 
#    y 0.000000 3.586040 0.000000 
#    z 0.209070 0.000000 3.335360 
# 
# 
# High freq. dielectric constant tensor:
#      x y z
#    x 1.728050 0.000000 0.011260 
#    y 0.000000 1.729110 0.000000 
#    z 0.011260 0.000000 1.721010 
# 
# From -- ./inp_files/32527.got.cif
#   From: 2010.06.25/outbox.cif.g09.slc.cpg/sg10_17_cif.got.tgz:32527.got - 2010.06.27 22:07:45.
