data_PCOD8058876
_publ_section_title
;
Structure prediction by ZEFSAII (Michael W. Deem and Ramdas Pophale) SiO2 
 PCOD8058876
Probable space group: P 2/M
;
_chemical_formula_sum "Si O2"
_cell_formula_units_Z 28
_cell_length_a 18.067524
_cell_length_b 7.726188
_cell_length_c 20.227288
_cell_angle_alpha 90.000000
_cell_angle_beta 150.355879
_cell_angle_gamma 90.000000
_cell_volume 1396.579256
_symmetry_space_group_name_H-M "P 2/M"
_symmetry_group_IT_number 10
_symmetry_cell_setting 'monoclinic'
loop_
_space_group_symop_operation_xyz
x,y,z
-x,y,-z
-x,-y,-z
x,-y,z
loop_
_atom_site_type_symbol
_atom_site_label
_atom_site_fract_x
_atom_site_fract_y
_atom_site_fract_z
Si Si1 0.486461 0.310097 0.893543
Si Si2 0.266288 0.806706 0.823549
Si Si3 0.342205 0.500000 0.414188
Si Si4 0.963278 0.500000 0.895414
Si Si5 0.021718 0.203062 0.726554
Si Si6 0.475076 0.199789 0.220753
Si Si7 0.308889 0.205804 0.495748
Si Si8 0.130653 0.203059 0.952269
O O1 0.549276 0.500000 0.956800
O O2 0.325403 0.292748 0.804810
O O3 0.464292 0.288981 0.798243
O O4 0.607995 0.182527 0.020390
O O5 0.114864 0.718816 0.736533
O O6 0.231400 0.000000 0.772927
O O7 0.500000 0.500000 0.500000
O O8 0.212987 0.500000 0.258370
O O9 0.328005 0.323723 0.445889
O O10 0.032346 0.321222 0.923116
O O11 0.000000 0.500000 0.000000
O O12 0.095969 0.269416 0.851753
O O13 0.847721 0.252540 0.590140
O O14 0.046339 0.000000 0.742673
O O15 0.564602 0.263711 0.354406
O O16 0.504483 0.000000 0.232160
O O17 0.303041 0.241323 0.101338
O O18 0.316517 0.000000 0.482813
O O19 0.089716 0.000000 0.931060
#
# Coordination Sequence:
#
# PCOD8058876 Si02
#       8
#     4   4   2   2   4   4   4   4
#     4  11  21  31  47  84 125 158 199 261 310 357
#     4  10  18  32  54  78 117 163 206 255 307 361
#     4  12  28  46  66  96 129 164 200 240 308 381
#     4  12  28  44  66 100 125 163 195 247 309 362
#     4   9  17  35  61  86 113 156 209 253 295 355
#     4  10  21  38  63  90 119 164 210 255 306 357
#     4  10  23  44  67  92 124 163 209 251 301 368
#     4  10  21  40  65  93 123 158 208 256 299 357
#
# _framework density 20.048985999999999
#
# number of rings (size 3 to 8) (size 9 to 14) (size 15 to 20)
#    0.000    1.714    2.857    2.571    4.000    0.571 
#    3.857    0.714    0.000    4.286    0.000    0.000 
#    0.000    0.000    0.000    0.000    0.000    0.000 
#
# Total GULP energy -347068.173838 kJ/mol
# GULP energy per Si atom -12395.291923 kJ/mol
# Density = 2.000335 g / cm^3
# Si number density = 20.048986 Si / 1000 Ang^3
#
#
#
# Elastic Constant Matrix: (Units=GPa)
#
#
# Indices 1 2 3 4 5 6 
#
# 1 125.2770 44.4067 49.4750 0.0000 15.6280 0.0000
# 2 44.4067 76.9518 29.0007 0.0000 3.9790 0.0000
# 3 49.4750 29.0007 128.9106 0.0000 5.0049 0.0000
# 4 0.0000 0.0000 0.0000 42.2668 0.0000 66.3508
# 5 15.6280 3.9790 5.0049 0.0000 30.2924 0.0000
# 6 0.0000 0.0000 0.0000 66.3508 0.0000 180.8346
#
#
#
# Elastic Compliance Matrix: (Units=1/GPa)
#
#
# Indices 1 2 3 4 5 6 
#
# 1 0.011700 -0.005333 -0.003103 0.000000 -0.004823 0.000000
# 2 -0.005333 0.016684 -0.001740 0.000000 0.000847 0.000000
# 3 -0.003103 -0.001740 0.009329 0.000000 0.000288 0.000000
# 4 0.000000 0.000000 0.000000 0.055798 0.000000 -0.020473
# 5 -0.004823 0.000847 0.000288 0.000000 0.035341 0.000000
# 6 0.000000 0.000000 0.000000 -0.020473 0.000000 0.013042
#
#
# Mechanical properties :
#
#
# Convention : Reuss Voigt Hill
#
# Bulk Modulus (GPa) = 57.59972 64.10047 60.85009
# Shear Modulus (GPa) = 29.75627 64.56256 47.15941
#
# Velocity S-wave (km/s) = 3.85668 5.68087 4.85522
# Velocity P-wave (km/s) = 6.97308 8.66436 7.86432
#
# Compressibility (1/GPa) = 0.01736120
#
# Stress axis : x y z
#
# Youngs Moduli (GPa) = 85.47147 59.93653 107.19788
#
# Poissons Ratio (x) = 0.31962 0.33268
# Poissons Ratio (y) = 0.45579 0.18649
# Poissons Ratio (z) = 0.26525 0.10427
#
# Static dielectric constant tensor:
#      x y z
#    x 3.799850 0.000000 0.026000 
#    y 0.000000 3.626790 0.000000 
#    z 0.026000 0.000000 3.821880 
# 
# 
# High freq. dielectric constant tensor:
#      x y z
#    x 1.778650 0.000000 0.011760 
#    y 0.000000 1.783090 0.000000 
#    z 0.011760 0.000000 1.767670 
# 
# From -- ./inp_files/85679.got.cif
#   From: 2010.06.25/outbox.cif.g09.slc.cpg/sg10_43_cif.got.tgz:85679.got - 2010.06.27 22:07:45.
