data_PCOD8058110
_publ_section_title
;
Structure prediction by ZEFSAII (Michael W. Deem and Ramdas Pophale) SiO2 
 PCOD8058110
Probable space group: P 2/M
;
_chemical_formula_sum "Si O2"
_cell_formula_units_Z 32
_cell_length_a 20.370305
_cell_length_b 13.545131
_cell_length_c 20.155163
_cell_angle_alpha 90.000000
_cell_angle_beta 159.482427
_cell_angle_gamma 90.000000
_cell_volume 1949.164295
_symmetry_space_group_name_H-M "P 2/M"
_symmetry_group_IT_number 10
_symmetry_cell_setting 'monoclinic'
loop_
_space_group_symop_operation_xyz
x,y,z
-x,y,-z
-x,-y,-z
x,-y,z
loop_
_atom_site_type_symbol
_atom_site_label
_atom_site_fract_x
_atom_site_fract_y
_atom_site_fract_z
Si Si1 0.860821 0.610826 0.639288
Si Si2 0.406792 0.612554 0.737611
Si Si3 0.200824 0.113819 0.213047
Si Si4 0.380228 0.887465 0.244424
Si Si5 0.907732 0.113013 0.141334
Si Si6 0.037283 0.615290 0.459174
Si Si7 0.249683 0.203114 0.398971
Si Si8 0.812855 0.701645 0.130984
O O1 0.861424 0.500000 0.667475
O O2 0.698601 0.627096 0.431695
O O3 0.813879 0.683264 0.655515
O O4 0.066873 0.633899 0.805397
O O5 0.471609 0.500000 0.808865
O O6 0.254041 0.642694 0.649073
O O7 0.591785 0.679179 0.917819
O O8 0.341421 0.130166 0.285431
O O9 0.259778 0.177539 0.331449
O O10 0.193434 0.000000 0.228567
O O11 0.000000 0.151215 0.000000
O O12 0.543275 0.813753 0.375774
O O13 0.445354 0.000000 0.295663
O O14 0.202704 0.863598 0.031056
O O15 0.840564 0.183271 0.137818
O O16 0.120720 0.133725 0.322706
O O17 0.883210 0.000000 0.141740
O O18 0.002777 0.500000 0.408699
O O19 0.000000 0.638851 0.500000
O O20 0.891639 0.681619 0.279349
#
# Coordination Sequence:
#
# PCOD8058110 Si02
#       8
#     4   4   4   4   4   4   4   4
#     4   9  19  32  46  68  94 121 157 197 227 267
#     4   9  16  29  49  71  96 122 153 188 228 274
#     4  10  18  30  47  67  92 118 148 191 241 288
#     4  10  19  30  47  70  93 116 149 192 239 288
#     4  10  20  32  46  70  98 120 151 195 232 271
#     4   9  18  31  48  75 104 123 150 193 230 265
#     4  11  19  30  49  68  90 124 155 187 238 288
#     4  10  18  30  50  71  94 128 156 183 228 279
#
# _framework density 16.417292
#
# number of rings (size 3 to 8) (size 9 to 14) (size 15 to 20)
#    0.000    2.250    1.250    4.125    0.000    1.500 
#    0.000    1.875    0.000    2.250    0.000    0.875 
#    0.000    0.000    0.000    0.000    0.000    0.000 
#
# Total GULP energy -396732.573888 kJ/mol
# GULP energy per Si atom -12397.892934 kJ/mol
# Density = 1.637993 g / cm^3
# Si number density = 16.417292 Si / 1000 Ang^3
#
#
#
# Elastic Constant Matrix: (Units=GPa)
#
#
# Indices 1 2 3 4 5 6 
#
# 1 70.0428 44.8322 28.3464 0.0000 -1.1936 0.0000
# 2 44.8322 96.4010 37.4884 0.0000 -0.7376 0.0000
# 3 28.3464 37.4884 79.6271 0.0000 18.3502 0.0000
# 4 0.0000 0.0000 0.0000 17.8748 0.0000 0.9571
# 5 -1.1936 -0.7376 18.3502 0.0000 21.8546 0.0000
# 6 0.0000 0.0000 0.0000 0.9571 0.0000 24.5281
#
#
#
# Elastic Compliance Matrix: (Units=1/GPa)
#
#
# Indices 1 2 3 4 5 6 
#
# 1 0.021550 -0.007998 -0.005102 0.000000 0.005191 0.000000
# 2 -0.007998 0.016525 -0.006151 0.000000 0.005286 0.000000
# 3 -0.005102 -0.006151 0.021553 0.000000 -0.018584 0.000000
# 4 0.000000 0.000000 0.000000 0.056062 0.000000 -0.002187
# 5 0.005191 0.005286 -0.018584 0.000000 0.061823 0.000000
# 6 0.000000 0.000000 0.000000 -0.002187 0.000000 0.040855
#
#
# Mechanical properties :
#
#
# Convention : Reuss Voigt Hill
#
# Bulk Modulus (GPa) = 47.33547 51.93389 49.63468
# Shear Modulus (GPa) = 18.94570 21.87843 20.41207
#
# Velocity S-wave (km/s) = 3.40076 3.65450 3.52991
# Velocity P-wave (km/s) = 6.65699 7.03630 6.84927
#
# Compressibility (1/GPa) = 0.02112581
#
# Stress axis : x y z
#
# Youngs Moduli (GPa) = 46.40464 60.51326 46.39633
#
# Poissons Ratio (x) = 0.48398 0.23673
# Poissons Ratio (y) = 0.37114 0.28538
# Poissons Ratio (z) = 0.23677 0.37222
#
# Static dielectric constant tensor:
#      x y z
#    x 2.966390 0.000000 0.080510 
#    y 0.000000 2.997860 0.000000 
#    z 0.080510 0.000000 3.167730 
# 
# 
# High freq. dielectric constant tensor:
#      x y z
#    x 1.614340 0.000000 0.011590 
#    y 0.000000 1.609200 0.000000 
#    z 0.011590 0.000000 1.644660 
# 
# From -- ./inp_files/85975.got.cif
#   From: 2010.06.25/outbox.cif.g09.slc.cpg/sg10_43_cif.got.tgz:85975.got - 2010.06.27 22:07:45.
