data_PCOD8058271
_publ_section_title
;
Structure prediction by ZEFSAII (Michael W. Deem and Ramdas Pophale) SiO2 
 PCOD8058271
Probable space group: P 2/M
;
_chemical_formula_sum "Si O2"
_cell_formula_units_Z 30
_cell_length_a 19.096404
_cell_length_b 20.637319
_cell_length_c 21.865377
_cell_angle_alpha 90.000000
_cell_angle_beta 167.961347
_cell_angle_gamma 90.000000
_cell_volume 1797.284605
_symmetry_space_group_name_H-M "P 2/M"
_symmetry_group_IT_number 10
_symmetry_cell_setting 'monoclinic'
loop_
_space_group_symop_operation_xyz
x,y,z
-x,y,-z
-x,-y,-z
x,-y,z
loop_
_atom_site_type_symbol
_atom_site_label
_atom_site_fract_x
_atom_site_fract_y
_atom_site_fract_z
Si Si1 0.216588 0.206137 0.470818
Si Si2 0.247904 0.070414 0.656716
Si Si3 0.106020 0.500000 0.159146
Si Si4 0.747996 0.847237 0.156765
Si Si5 0.057919 0.755556 0.891398
Si Si6 0.571112 0.072164 0.398654
Si Si7 0.839318 0.888633 0.753280
Si Si8 0.104181 0.640206 0.159302
O O1 0.547582 0.235638 0.783849
O O2 0.284741 0.129008 0.520922
O O3 0.907353 0.213275 0.255295
O O4 0.130616 0.244788 0.335040
O O5 0.000000 0.057783 0.500000
O O6 0.066082 0.112991 0.451331
O O7 0.354806 0.000000 0.721226
O O8 0.571240 0.107748 0.956288
O O9 0.500000 0.500000 0.500000
O O10 0.970692 0.569118 0.069427
O O11 0.000000 0.500000 0.000000
O O12 0.500000 0.824198 0.000000
O O13 0.895575 0.811815 0.793852
O O14 0.033061 0.689909 0.908287
O O15 0.787095 0.075457 0.644779
O O16 0.625270 0.000000 0.416774
O O17 0.171233 0.082728 0.069572
O O18 0.500000 0.901336 0.500000
O O19 0.500000 0.642737 0.500000
O O20 0.000000 0.656099 0.000000
#
# Coordination Sequence:
#
# PCOD8058271 Si02
#       8
#     4   4   2   4   4   4   4   4
#     4  10  21  35  46  64  89 114 150 190 230 282
#     4   9  17  28  43  65  86 103 134 178 225 283
#     4   8  16  28  44  72 104 128 155 188 213 246
#     4  10  19  32  49  65  84 113 145 184 234 282
#     4  10  20  33  48  66  92 123 150 184 226 262
#     4  10  21  33  44  59  80 107 136 178 237 277
#     4  10  20  32  46  62  79 103 145 187 216 260
#     4  10  18  30  50  74 100 131 162 186 215 254
#
# _framework density 16.691846999999999
#
# number of rings (size 3 to 8) (size 9 to 14) (size 15 to 20)
#    0.000    2.267    0.000    3.200    0.000    6.400 
#    0.000    0.000    0.000    0.000    0.000    0.000 
#    0.000    0.000    0.000    3.600    0.000    0.000 
#
# Total GULP energy -371665.870645 kJ/mol
# GULP energy per Si atom -12388.862355 kJ/mol
# Density = 1.665386 g / cm^3
# Si number density = 16.691847 Si / 1000 Ang^3
#
#
#
# Elastic Constant Matrix: (Units=GPa)
#
#
# Indices 1 2 3 4 5 6 
#
# 1 58.6153 31.1612 22.7833 0.0000 2.4709 0.0000
# 2 31.1612 88.0813 15.9695 0.0000 2.7315 0.0000
# 3 22.7833 15.9695 100.2432 0.0000 -12.5483 0.0000
# 4 0.0000 0.0000 0.0000 14.8304 0.0000 -3.7448
# 5 2.4709 2.7315 -12.5483 0.0000 31.6717 0.0000
# 6 0.0000 0.0000 0.0000 -3.7448 0.0000 15.4511
#
#
#
# Elastic Compliance Matrix: (Units=1/GPa)
#
#
# Indices 1 2 3 4 5 6 
#
# 1 0.022680 -0.007140 -0.004379 0.000000 -0.002889 0.000000
# 2 -0.007140 0.014041 -0.000732 0.000000 -0.000944 0.000000
# 3 -0.004379 -0.000732 0.011720 0.000000 0.005048 0.000000
# 4 0.000000 0.000000 0.000000 0.071825 0.000000 0.017408
# 5 -0.002889 -0.000944 0.005048 0.000000 0.033881 0.000000
# 6 0.000000 0.000000 0.000000 0.017408 0.000000 0.068939
#
#
# Mechanical properties :
#
#
# Convention : Reuss Voigt Hill
#
# Bulk Modulus (GPa) = 41.77408 42.97421 42.37415
# Shear Modulus (GPa) = 19.56429 24.19236 21.87832
#
# Velocity S-wave (km/s) = 3.42729 3.81117 3.62431
# Velocity P-wave (km/s) = 6.38300 6.72073 6.55404
#
# Compressibility (1/GPa) = 0.02393829
#
# Stress axis : x y z
#
# Youngs Moduli (GPa) = 44.09152 71.21881 85.32772
#
# Poissons Ratio (x) = 0.50852 0.37364
# Poissons Ratio (y) = 0.31482 0.06248
# Poissons Ratio (z) = 0.19307 0.05215
#
# Static dielectric constant tensor:
#      x y z
#    x 3.069410 0.000000 -0.306600 
#    y 0.000000 2.196680 0.000000 
#    z -0.306600 0.000000 3.451720 
# 
# 
# High freq. dielectric constant tensor:
#      x y z
#    x 1.625380 0.000000 -0.021480 
#    y 0.000000 1.605240 0.000000 
#    z -0.021480 0.000000 1.664780 
# 
# From -- ./inp_files/90494.got.cif
#   From: 2010.06.25/outbox.cif.g09.slc.cpg/sg10_46_cif.got.tgz:90494.got - 2010.06.27 22:07:45.
