data_PCOD8058725
_publ_section_title
;
Structure prediction by ZEFSAII (Michael W. Deem and Ramdas Pophale) SiO2 
 PCOD8058725
Probable space group: P 2/M
;
_chemical_formula_sum "Si O2"
_cell_formula_units_Z 28
_cell_length_a 18.228026
_cell_length_b 13.006614
_cell_length_c 21.102066
_cell_angle_alpha 90.000000
_cell_angle_beta 159.695365
_cell_angle_gamma 90.000000
_cell_volume 1736.092109
_symmetry_space_group_name_H-M "P 2/M"
_symmetry_group_IT_number 10
_symmetry_cell_setting 'monoclinic'
loop_
_space_group_symop_operation_xyz
x,y,z
-x,y,-z
-x,-y,-z
x,-y,z
loop_
_atom_site_type_symbol
_atom_site_label
_atom_site_fract_x
_atom_site_fract_y
_atom_site_fract_z
Si Si1 0.964611 0.734709 0.314784
Si Si2 0.796932 0.622506 0.603167
Si Si3 0.840340 0.882380 0.426387
Si Si4 0.328271 0.377922 0.249359
Si Si5 0.202271 0.617161 0.706577
Si Si6 0.485699 0.204326 0.060559
Si Si7 0.056450 0.378106 0.143145
O O1 0.864923 0.645053 0.276845
O O2 0.108086 0.682622 0.378563
O O3 0.111305 0.812918 0.473279
O O4 0.760741 0.791573 0.118781
O O5 0.809777 0.500000 0.602216
O O6 0.558871 0.663467 0.419333
O O7 0.920394 0.658683 0.766098
O O8 0.603773 0.868251 0.206983
O O9 0.000000 0.849265 0.500000
O O10 0.872781 0.000000 0.473085
O O11 0.335377 0.500000 0.256673
O O12 0.246899 0.337452 0.252095
O O13 0.167782 0.338506 0.065036
O O14 0.277326 0.500000 0.763705
O O15 0.401298 0.684117 0.844812
O O16 0.000000 0.639361 0.500000
O O17 0.500000 0.159974 0.000000
O O18 0.065116 0.500000 0.147878
#
# Coordination Sequence:
#
# PCOD8058725 Si02
#       7
#     4   4   4   4   4   4   4
#     4  11  21  33  47  70  98 122 155 195 239 285
#     4  10  19  28  42  67 100 133 161 189 225 267
#     4  11  21  37  56  72  88 110 152 206 256 297
#     4   8  14  26  44  62  88 127 168 197 221 256
#     4  10  18  32  49  63  89 130 166 190 219 264
#     4  10  19  34  50  70  90 116 155 197 237 280
#     4   8  14  26  42  63  89 125 168 199 220 256
#
# _framework density 16.128176
#
# number of rings (size 3 to 8) (size 9 to 14) (size 15 to 20)
#    0.000    2.286    4.286    1.714    0.000    6.857 
#    0.000    0.000    0.000    0.000    0.000    0.000 
#    0.000    2.286    0.000    8.571    0.000    0.286 
#
# Total GULP energy -347051.808723 kJ/mol
# GULP energy per Si atom -12394.707454 kJ/mol
# Density = 1.609147 g / cm^3
# Si number density = 16.128176 Si / 1000 Ang^3
#
#
#
# Elastic Constant Matrix: (Units=GPa)
#
#
# Indices 1 2 3 4 5 6 
#
# 1 80.0454 30.4957 31.2628 0.0000 -8.0747 0.0000
# 2 30.4957 48.6260 20.0194 0.0000 -6.6300 0.0000
# 3 31.2628 20.0194 88.4229 0.0000 -15.7629 0.0000
# 4 0.0000 0.0000 0.0000 12.6748 0.0000 -2.2520
# 5 -8.0747 -6.6300 -15.7629 0.0000 18.5439 0.0000
# 6 0.0000 0.0000 0.0000 -2.2520 0.0000 12.2919
#
#
#
# Elastic Compliance Matrix: (Units=1/GPa)
#
#
# Indices 1 2 3 4 5 6 
#
# 1 0.017697 -0.009330 -0.003967 0.000000 0.000999 0.000000
# 2 -0.009330 0.027908 -0.002316 0.000000 0.003946 0.000000
# 3 -0.003967 -0.002316 0.015063 0.000000 0.010249 0.000000
# 4 0.000000 0.000000 0.000000 0.081551 0.000000 0.014941
# 5 0.000999 0.003946 0.010249 0.000000 0.064484 0.000000
# 6 0.000000 0.000000 0.000000 0.014941 0.000000 0.084092
#
#
# Mechanical properties :
#
#
# Convention : Reuss Voigt Hill
#
# Bulk Modulus (GPa) = 33.96397 42.29445 38.12921
# Shear Modulus (GPa) = 15.06772 17.72321 16.39547
#
# Velocity S-wave (km/s) = 3.05986 3.31856 3.19183
# Velocity P-wave (km/s) = 5.79553 6.40036 6.10544
#
# Compressibility (1/GPa) = 0.02944297
#
# Stress axis : x y z
#
# Youngs Moduli (GPa) = 56.50581 35.83214 66.38666
#
# Poissons Ratio (x) = 0.33430 0.26334
# Poissons Ratio (y) = 0.52717 0.15378
# Poissons Ratio (z) = 0.22415 0.08300
#
# Static dielectric constant tensor:
#      x y z
#    x 2.955760 0.000000 -0.150470 
#    y 0.000000 2.639780 0.000000 
#    z -0.150470 0.000000 3.490500 
# 
# 
# High freq. dielectric constant tensor:
#      x y z
#    x 1.597720 0.000000 -0.011970 
#    y 0.000000 1.567400 0.000000 
#    z -0.011970 0.000000 1.643200 
# 
# From -- ./inp_files/85925.got.cif
#   From: 2010.06.25/outbox.cif.g09.slc.cpg/sg10_43_cif.got.tgz:85925.got - 2010.06.27 22:07:45.
