data_PCOD8058681
_publ_section_title
;
Structure prediction by ZEFSAII (Michael W. Deem and Ramdas Pophale) SiO2 
 PCOD8058681
Probable space group: P 2/M
;
_chemical_formula_sum "Si O2"
_cell_formula_units_Z 32
_cell_length_a 14.334301
_cell_length_b 9.120486
_cell_length_c 12.581992
_cell_angle_alpha 90.000000
_cell_angle_beta 91.015424
_cell_angle_gamma 90.000000
_cell_volume 1644.658367
_symmetry_space_group_name_H-M "P 2/M"
_symmetry_group_IT_number 10
_symmetry_cell_setting 'monoclinic'
loop_
_space_group_symop_operation_xyz
x,y,z
-x,y,-z
-x,-y,-z
x,-y,z
loop_
_atom_site_type_symbol
_atom_site_label
_atom_site_fract_x
_atom_site_fract_y
_atom_site_fract_z
Si Si1 0.478801 0.172775 0.620297
Si Si2 0.230501 0.663092 0.474230
Si Si3 0.005661 0.325412 0.164152
Si Si4 0.214245 0.673081 0.100144
Si Si5 0.821350 0.825593 0.106235
Si Si6 0.646230 0.325889 0.711152
Si Si7 0.031998 0.335491 0.393915
Si Si8 0.269728 0.171861 0.674552
O O1 0.500000 0.226483 0.500000
O O2 0.545625 0.248842 0.709414
O O3 0.375945 0.221394 0.655656
O O4 0.492889 0.000000 0.629085
O O5 0.255020 0.500000 0.514281
O O6 0.311716 0.726927 0.401328
O O7 0.143293 0.659948 0.392453
O O8 0.209091 0.759004 0.577944
O O9 0.991153 0.500000 0.153929
O O10 0.108947 0.282389 0.129220
O O11 0.994543 0.264877 0.284762
O O12 0.925413 0.242900 0.097364
O O13 0.222730 0.500000 0.081265
O O14 0.288731 0.726522 0.189944
O O15 0.238666 0.760195 0.992447
O O16 0.769176 0.773506 0.212847
O O17 0.827498 0.000000 0.098415
O O18 0.635669 0.500000 0.714759
O O19 0.989804 0.500000 0.397865
O O20 0.000000 0.249007 0.500000
O O21 0.258507 0.000000 0.665754
#
# Coordination Sequence:
#
# PCOD8058681 Si02
#       8
#     4   4   4   4   4   4   4   4
#     4  10  20  36  59  83 109 147 187 220 269 339
#     4  10  18  31  54  83 111 140 178 223 273 328
#     4  10  19  35  58  82 109 146 188 227 270 324
#     4  10  21  39  60  82 112 148 187 229 273 324
#     4  11  24  39  55  79 112 148 189 235 276 318
#     4  10  20  35  57  87 115 137 174 231 281 321
#     4   9  16  27  47  77 110 142 177 215 261 323
#     4  10  22  39  55  78 114 149 183 227 277 330
#
# _framework density 19.456928999999999
#
# number of rings (size 3 to 8) (size 9 to 14) (size 15 to 20)
#    0.000    2.000    2.500    1.500    0.000    5.250 
#    0.000    1.250    0.000    6.000    0.000    0.000 
#    0.000    0.000    0.000    0.000    0.000    0.000 
#
# Total GULP energy -396653.727378 kJ/mol
# GULP energy per Si atom -12395.428981 kJ/mol
# Density = 1.941264 g / cm^3
# Si number density = 19.456929 Si / 1000 Ang^3
#
#
#
# Elastic Constant Matrix: (Units=GPa)
#
#
# Indices 1 2 3 4 5 6 
#
# 1 68.0184 19.3299 29.8965 0.0000 13.7257 0.0000
# 2 19.3299 29.1799 31.6778 0.0000 6.9238 0.0000
# 3 29.8965 31.6778 121.6520 0.0000 17.2691 0.0000
# 4 0.0000 0.0000 0.0000 23.8261 0.0000 -4.6678
# 5 13.7257 6.9238 17.2691 0.0000 26.8386 0.0000
# 6 0.0000 0.0000 0.0000 -4.6678 0.0000 14.6317
#
#
#
# Elastic Compliance Matrix: (Units=1/GPa)
#
#
# Indices 1 2 3 4 5 6 
#
# 1 0.019398 -0.009939 -0.001249 0.000000 -0.006553 0.000000
# 2 -0.009939 0.053426 -0.011263 0.000000 -0.001453 0.000000
# 3 -0.001249 -0.011263 0.012058 0.000000 -0.004214 0.000000
# 4 0.000000 0.000000 0.000000 0.044769 0.000000 0.014282
# 5 -0.006553 -0.001453 -0.004214 0.000000 0.043697 0.000000
# 6 0.000000 0.000000 0.000000 0.014282 0.000000 0.072901
#
#
# Mechanical properties :
#
#
# Convention : Reuss Voigt Hill
#
# Bulk Modulus (GPa) = 25.01266 42.29540 33.65403
# Shear Modulus (GPa) = 16.42151 22.25568 19.33860
#
# Velocity S-wave (km/s) = 2.90831 3.38574 3.15607
# Velocity P-wave (km/s) = 4.91538 6.08847 5.53310
#
# Compressibility (1/GPa) = 0.03997975
#
# Stress axis : x y z
#
# Youngs Moduli (GPa) = 51.55262 18.71737 82.93103
#
# Poissons Ratio (x) = 0.18604 0.10356
# Poissons Ratio (y) = 0.51240 0.93407
# Poissons Ratio (z) = 0.06437 0.21082
#
# Static dielectric constant tensor:
#      x y z
#    x 3.519850 0.000000 -0.032560 
#    y 0.000000 3.199590 0.000000 
#    z -0.032560 0.000000 3.755980 
# 
# 
# High freq. dielectric constant tensor:
#      x y z
#    x 1.753860 0.000000 0.004810 
#    y 0.000000 1.727160 0.000000 
#    z 0.004810 0.000000 1.766010 
# 
# From -- ./inp_files/49785.got.cif
#   From: 2010.06.25/outbox.cif.g09.slc.cpg/sg10_25_cif.got.tgz:49785.got - 2010.06.27 22:07:45.
