data_PCOD8058101
_publ_section_title
;
Structure prediction by ZEFSAII (Michael W. Deem and Ramdas Pophale) SiO2 
 PCOD8058101
Probable space group: P 2/M
;
_chemical_formula_sum "Si O2"
_cell_formula_units_Z 32
_cell_length_a 25.095928
_cell_length_b 9.116335
_cell_length_c 12.183444
_cell_angle_alpha 90.000000
_cell_angle_beta 46.627586
_cell_angle_gamma 90.000000
_cell_volume 2026.149562
_symmetry_space_group_name_H-M "P 2/M"
_symmetry_group_IT_number 10
_symmetry_cell_setting 'monoclinic'
loop_
_space_group_symop_operation_xyz
x,y,z
-x,y,-z
-x,-y,-z
x,-y,z
loop_
_atom_site_type_symbol
_atom_site_label
_atom_site_fract_x
_atom_site_fract_y
_atom_site_fract_z
Si Si1 0.580971 0.667175 0.876647
Si Si2 0.035709 0.174250 0.736886
Si Si3 0.813367 0.670795 0.869179
Si Si4 0.289314 0.334535 0.169540
Si Si5 0.870534 0.825612 0.994353
Si Si6 0.159834 0.174059 0.719999
Si Si7 0.713791 0.173291 0.617396
Si Si8 0.079588 0.163678 0.437550
O O1 0.573995 0.500000 0.844635
O O2 0.621973 0.675100 0.938325
O O3 0.632316 0.755840 0.717325
O O4 0.500000 0.738313 0.000000
O O5 0.086836 0.235119 0.762811
O O6 0.072883 0.223939 0.570784
O O7 0.030283 0.000000 0.748831
O O8 0.953184 0.236533 0.864491
O O9 0.822837 0.500000 0.882171
O O10 0.735280 0.706633 0.919474
O O11 0.874921 0.720381 0.696499
O O12 0.817828 0.758933 0.976110
O O13 0.262244 0.500000 0.232918
O O14 0.251971 0.228029 0.314088
O O15 0.839453 0.772051 0.155560
O O16 0.868561 0.000000 0.985405
O O17 0.233641 0.228568 0.555005
O O18 0.156408 0.000000 0.719298
O O19 0.706478 0.000000 0.629619
O O20 0.000000 0.152038 0.500000
O O21 0.115398 0.000000 0.383359
#
# Coordination Sequence:
#
# PCOD8058101 Si02
#       8
#     4   4   4   4   4   4   4   4
#     4   8  15  30  49  69  96 125 147 169 210 271
#     4   9  16  28  46  66  85 112 154 199 233 266
#     4  11  21  32  44  62  91 120 149 188 231 272
#     4   8  17  31  45  65  92 122 147 171 216 272
#     4  10  19  32  47  62  84 118 163 201 226 263
#     4   9  17  28  45  67  89 117 152 194 236 264
#     4   9  16  27  46  73  98 117 144 183 225 267
#     4  10  18  30  47  66  86 112 151 191 230 276
#
# _framework density 15.793502
#
# number of rings (size 3 to 8) (size 9 to 14) (size 15 to 20)
#    0.750    2.000    1.250    1.500    0.000    4.000 
#    0.000    1.250    0.000    3.000    0.000    0.875 
#    0.000    7.000    0.000    0.000    0.000    0.000 
#
# Total GULP energy -396429.976554 kJ/mol
# GULP energy per Si atom -12388.436767 kJ/mol
# Density = 1.575756 g / cm^3
# Si number density = 15.793502 Si / 1000 Ang^3
#
#
#
# Elastic Constant Matrix: (Units=GPa)
#
#
# Indices 1 2 3 4 5 6 
#
# 1 106.8372 28.2964 66.3045 0.0000 6.2019 0.0000
# 2 28.2964 37.4429 25.7838 0.0000 1.6247 0.0000
# 3 66.3045 25.7838 88.0687 0.0000 11.4980 0.0000
# 4 0.0000 0.0000 0.0000 10.0922 0.0000 -0.8773
# 5 6.2019 1.6247 11.4980 0.0000 27.9104 0.0000
# 6 0.0000 0.0000 0.0000 -0.8773 0.0000 22.9194
#
#
#
# Elastic Compliance Matrix: (Units=1/GPa)
#
#
# Indices 1 2 3 4 5 6 
#
# 1 0.018472 -0.005411 -0.012501 0.000000 0.001360 0.000000
# 2 -0.005411 0.035165 -0.006459 0.000000 0.001816 0.000000
# 3 -0.012501 -0.006459 0.023510 0.000000 -0.006531 0.000000
# 4 0.000000 0.000000 0.000000 0.099417 0.000000 0.003806
# 5 0.001360 0.001816 -0.006531 0.000000 0.038112 0.000000
# 6 0.000000 0.000000 0.000000 0.003806 0.000000 0.043777
#
#
# Mechanical properties :
#
#
# Convention : Reuss Voigt Hill
#
# Bulk Modulus (GPa) = 35.20285 52.56871 43.88578
# Shear Modulus (GPa) = 15.78970 19.64868 17.71919
#
# Velocity S-wave (km/s) = 3.16533 3.53101 3.35315
# Velocity P-wave (km/s) = 5.97469 7.06974 6.54516
#
# Compressibility (1/GPa) = 0.02840679
#
# Stress axis : x y z
#
# Youngs Moduli (GPa) = 54.13531 28.43730 42.53527
#
# Poissons Ratio (x) = 0.15386 0.53172
# Poissons Ratio (y) = 0.29291 0.27473
# Poissons Ratio (z) = 0.67673 0.18367
#
# Static dielectric constant tensor:
#      x y z
#    x 3.153930 0.000000 0.051780 
#    y 0.000000 2.813460 0.000000 
#    z 0.051780 0.000000 2.953710 
# 
# 
# High freq. dielectric constant tensor:
#      x y z
#    x 1.601510 0.000000 0.005830 
#    y 0.000000 1.585960 0.000000 
#    z 0.005830 0.000000 1.579000 
# 
# From -- ./inp_files/57169.got.cif
#   From: 2010.06.25/outbox.cif.g09.slc.cpg/sg10_29_cif.got.tgz:57169.got - 2010.06.27 22:07:45.
