data_PCOD8058166
_publ_section_title
;
Structure prediction by ZEFSAII (Michael W. Deem and Ramdas Pophale) SiO2 
 PCOD8058166
Probable space group: P 2/M
;
_chemical_formula_sum "Si O2"
_cell_formula_units_Z 28
_cell_length_a 19.772730
_cell_length_b 9.036979
_cell_length_c 17.845635
_cell_angle_alpha 90.000000
_cell_angle_beta 150.467338
_cell_angle_gamma 90.000000
_cell_volume 1571.802709
_symmetry_space_group_name_H-M "P 2/M"
_symmetry_group_IT_number 10
_symmetry_cell_setting 'monoclinic'
loop_
_space_group_symop_operation_xyz
x,y,z
-x,y,-z
-x,-y,-z
x,-y,z
loop_
_atom_site_type_symbol
_atom_site_label
_atom_site_fract_x
_atom_site_fract_y
_atom_site_fract_z
Si Si1 0.311389 0.323443 0.529120
Si Si2 0.113847 0.674519 0.208360
Si Si3 0.356331 0.836434 0.009605
Si Si4 0.812404 0.675461 0.884522
Si Si5 0.400236 0.824409 0.215273
Si Si6 0.663529 0.334345 0.151874
Si Si7 0.682202 0.165751 0.314299
O O1 0.323365 0.500000 0.544463
O O2 0.197692 0.266840 0.360451
O O3 0.454678 0.256802 0.640280
O O4 0.264180 0.262434 0.564334
O O5 0.112991 0.500000 0.206087
O O6 0.185696 0.725730 0.200454
O O7 0.955917 0.726946 0.060480
O O8 0.323903 0.783808 0.063113
O O9 0.519190 0.839227 0.158267
O O10 0.296769 0.000000 0.937461
O O11 0.289360 0.728573 0.883533
O O12 0.787347 0.500000 0.869693
O O13 0.690646 0.766465 0.804571
O O14 0.424648 0.000000 0.244037
O O15 0.720086 0.500000 0.212928
O O16 0.731567 0.239410 0.284127
O O17 0.500000 0.330515 0.000000
O O18 0.742867 0.000000 0.377887
#
# Coordination Sequence:
#
# PCOD8058166 Si02
#       7
#     4   4   4   4   4   4   4
#     4  10  18  30  48  70  95 124 158 196 236 277
#     4   8  17  33  53  73  92 118 157 200 237 277
#     4   8  15  26  38  54  85 123 152 183 226 272
#     4   9  17  34  55  71  90 121 159 196 235 281
#     4  10  20  32  45  69 101 128 155 191 236 282
#     4   9  15  22  36  59  85 115 154 192 224 266
#     4   9  16  26  39  59  90 124 153 185 230 278
#
# _framework density 17.813942000000001
#
# number of rings (size 3 to 8) (size 9 to 14) (size 15 to 20)
#    0.000    3.000    0.000    3.429    0.000    6.286 
#    0.000    7.143    0.000    0.000    0.000    1.000 
#    0.000    8.000    0.000    0.000    0.000    0.000 
#
# Total GULP energy -347059.857124 kJ/mol
# GULP energy per Si atom -12394.994897 kJ/mol
# Density = 1.777340 g / cm^3
# Si number density = 17.813942 Si / 1000 Ang^3
#
#
#
# Elastic Constant Matrix: (Units=GPa)
#
#
# Indices 1 2 3 4 5 6 
#
# 1 29.4773 23.5378 36.6932 0.0000 -23.2742 0.0000
# 2 23.5378 92.7486 40.0770 0.0000 -15.8268 0.0000
# 3 36.6932 40.0770 87.7530 0.0000 -28.7001 0.0000
# 4 0.0000 0.0000 0.0000 8.7918 0.0000 -9.3515
# 5 -23.2742 -15.8268 -28.7001 0.0000 24.1213 0.0000
# 6 0.0000 0.0000 0.0000 -9.3515 0.0000 25.2783
#
#
#
# Elastic Compliance Matrix: (Units=1/GPa)
#
#
# Indices 1 2 3 4 5 6 
#
# 1 0.191926 -0.012197 -0.027393 0.000000 0.144590 0.000000
# 2 -0.012197 0.014299 -0.003619 0.000000 -0.006693 0.000000
# 3 -0.027393 -0.003619 0.024689 0.000000 0.000570 0.000000
# 4 0.000000 0.000000 0.000000 0.187537 0.000000 0.069378
# 5 0.144590 -0.006693 0.000570 0.000000 0.177256 0.000000
# 6 0.000000 0.000000 0.000000 0.069378 0.000000 0.065225
#
#
# Mechanical properties :
#
#
# Convention : Reuss Voigt Hill
#
# Bulk Modulus (GPa) = 6.92064 45.62164 26.27114
# Shear Modulus (GPa) = 6.28523 18.94966 12.61744
#
# Velocity S-wave (km/s) = 1.88041 3.26506 2.66426
# Velocity P-wave (km/s) = 2.93393 6.31505 4.92381
#
# Compressibility (1/GPa) = 0.14449540
#
# Stress axis : x y z
#
# Youngs Moduli (GPa) = 5.21035 69.93483 40.50389
#
# Poissons Ratio (x) = 0.85303 1.10951
# Poissons Ratio (y) = 0.06355 0.14659
# Poissons Ratio (z) = 0.14272 0.25311
#
# Static dielectric constant tensor:
#      x y z
#    x 3.308220 0.000000 -0.453810 
#    y 0.000000 3.282840 0.000000 
#    z -0.453810 0.000000 3.385210 
# 
# 
# High freq. dielectric constant tensor:
#      x y z
#    x 1.678750 0.000000 -0.035930 
#    y 0.000000 1.686240 0.000000 
#    z -0.035930 0.000000 1.656640 
# 
# From -- ./inp_files/54470.got.cif
#   From: 2010.06.25/outbox.cif.g09.slc.cpg/sg10_28_cif.got.tgz:54470.got - 2010.06.27 22:07:45.
