data_PCOD8058488
_publ_section_title
;
Structure prediction by ZEFSAII (Michael W. Deem and Ramdas Pophale) SiO2 
 PCOD8058488
Probable space group: P 2/M
;
_chemical_formula_sum "Si O2"
_cell_formula_units_Z 28
_cell_length_a 17.341808
_cell_length_b 8.620189
_cell_length_c 20.613218
_cell_angle_alpha 90.000000
_cell_angle_beta 27.745785
_cell_angle_gamma 90.000000
_cell_volume 1434.573297
_symmetry_space_group_name_H-M "P 2/M"
_symmetry_group_IT_number 10
_symmetry_cell_setting 'monoclinic'
loop_
_space_group_symop_operation_xyz
x,y,z
-x,y,-z
-x,-y,-z
x,-y,z
loop_
_atom_site_type_symbol
_atom_site_label
_atom_site_fract_x
_atom_site_fract_y
_atom_site_fract_z
Si Si1 0.365142 0.815643 0.048660
Si Si2 0.492886 0.181585 0.577584
Si Si3 0.124436 0.181585 0.856891
Si Si4 0.671728 0.815112 0.571433
Si Si5 0.415664 0.177686 0.867147
Si Si6 0.956802 0.178794 0.855527
Si Si7 0.017910 0.319798 0.299789
O O1 0.419127 0.749800 0.937504
O O2 0.348622 0.000000 0.058297
O O3 0.500000 0.759002 0.000000
O O4 0.186749 0.750287 0.203773
O O5 0.500000 0.258242 0.500000
O O6 0.309997 0.216530 0.740943
O O7 0.618536 0.247859 0.538819
O O8 0.528396 0.000000 0.543056
O O9 0.085754 0.000000 0.883654
O O10 0.000000 0.263711 0.000000
O O11 0.086349 0.240120 0.812544
O O12 0.546482 0.745418 0.719558
O O13 0.856074 0.759733 0.451995
O O14 0.660934 0.000000 0.578936
O O15 0.229672 0.194675 0.977524
O O16 0.467585 0.000000 0.835299
O O17 0.989943 0.000000 0.809278
O O18 0.984821 0.290542 0.774616
O O19 0.011101 0.500000 0.320670
#
# Coordination Sequence:
#
# PCOD8058488 Si02
#       7
#     4   4   4   4   4   4   4
#     4   9  18  36  61  84 103 124 155 197 247 304
#     4   9  16  24  38  64  94 125 162 203 247 288
#     4   9  15  23  41  71  99 121 156 213 269 305
#     4  10  18  31  50  71 100 134 168 208 250 294
#     4   8  15  28  50  78 100 124 161 202 246 296
#     4   9  16  30  51  73  99 131 170 214 259 307
#     4  11  22  34  50  73 101 134 171 204 239 291
#
# _framework density 19.517997999999999
#
# number of rings (size 3 to 8) (size 9 to 14) (size 15 to 20)
#    0.000    2.714    0.000    3.857    0.000    6.000 
#    0.000    3.571    0.000    8.571    0.000    0.000 
#    0.000    0.000    0.000    0.000    0.000    0.000 
#
# Total GULP energy -346978.842237 kJ/mol
# GULP energy per Si atom -12392.101508 kJ/mol
# Density = 1.947357 g / cm^3
# Si number density = 19.517998 Si / 1000 Ang^3
#
#
#
# Elastic Constant Matrix: (Units=GPa)
#
#
# Indices 1 2 3 4 5 6 
#
# 1 94.9688 12.7915 28.0861 0.0000 -19.6728 0.0000
# 2 12.7915 22.8639 8.4221 0.0000 -1.5228 0.0000
# 3 28.0861 8.4221 87.3713 0.0000 -1.0859 0.0000
# 4 0.0000 0.0000 0.0000 5.0541 0.0000 -1.8735
# 5 -19.6728 -1.5228 -1.0859 0.0000 29.4538 0.0000
# 6 0.0000 0.0000 0.0000 -1.8735 0.0000 6.3701
#
#
#
# Elastic Compliance Matrix: (Units=1/GPa)
#
#
# Indices 1 2 3 4 5 6 
#
# 1 0.014400 -0.005996 -0.003937 0.000000 0.009163 0.000000
# 2 -0.005996 0.047985 -0.002718 0.000000 -0.001624 0.000000
# 3 -0.003937 -0.002718 0.012945 0.000000 -0.002293 0.000000
# 4 0.000000 0.000000 0.000000 0.222072 0.000000 0.065314
# 5 0.009163 -0.001624 -0.002293 0.000000 0.039903 0.000000
# 6 0.000000 0.000000 0.000000 0.065314 0.000000 0.176193
#
#
# Mechanical properties :
#
#
# Convention : Reuss Voigt Hill
#
# Bulk Modulus (GPa) = 19.98924 33.75590 26.87257
# Shear Modulus (GPa) = 9.00130 18.56920 13.78525
#
# Velocity S-wave (km/s) = 2.14984 3.08781 2.66048
# Velocity P-wave (km/s) = 4.05291 5.48133 4.82033
#
# Compressibility (1/GPa) = 0.05002692
#
# Stress axis : x y z
#
# Youngs Moduli (GPa) = 69.44570 20.84006 77.25265
#
# Poissons Ratio (x) = 0.12495 0.30415
# Poissons Ratio (y) = 0.41637 0.20999
# Poissons Ratio (z) = 0.27341 0.05665
#
# Static dielectric constant tensor:
#      x y z
#    x 3.661080 0.000000 0.003750 
#    y 0.000000 2.892580 0.000000 
#    z 0.003750 0.000000 3.764980 
# 
# 
# High freq. dielectric constant tensor:
#      x y z
#    x 1.751250 0.000000 -0.006540 
#    y 0.000000 1.689110 0.000000 
#    z -0.006540 0.000000 1.773020 
# 
# From -- ./inp_files/79288.got.cif
#   From: 2010.06.25/outbox.cif.g09.slc.cpg/sg10_40_cif.got.tgz:79288.got - 2010.06.27 22:07:45.
