data_PCOD8058121
_publ_section_title
;
Structure prediction by ZEFSAII (Michael W. Deem and Ramdas Pophale) SiO2 
 PCOD8058121
Probable space group: P 2/M
;
_chemical_formula_sum "Si O2"
_cell_formula_units_Z 32
_cell_length_a 14.251652
_cell_length_b 8.776802
_cell_length_c 15.690622
_cell_angle_alpha 90.000000
_cell_angle_beta 89.602206
_cell_angle_gamma 90.000000
_cell_volume 1962.597327
_symmetry_space_group_name_H-M "P 2/M"
_symmetry_group_IT_number 10
_symmetry_cell_setting 'monoclinic'
loop_
_space_group_symop_operation_xyz
x,y,z
-x,y,-z
-x,-y,-z
x,-y,z
loop_
_atom_site_type_symbol
_atom_site_label
_atom_site_fract_x
_atom_site_fract_y
_atom_site_fract_z
Si Si1 0.720305 0.180627 0.161824
Si Si2 0.391166 0.180393 0.328879
Si Si3 0.605314 0.181432 0.998711
Si Si4 0.611464 0.671804 0.498783
Si Si5 0.285678 0.179703 0.164901
Si Si6 0.101790 0.319587 0.909625
Si Si7 0.091541 0.179931 0.092783
Si Si8 0.605045 0.179493 0.326954
O O1 0.657822 0.237198 0.083100
O O2 0.819891 0.266422 0.158083
O O3 0.667986 0.233675 0.247675
O O4 0.736638 0.000000 0.159736
O O5 0.349435 0.244859 0.417402
O O6 0.327410 0.246490 0.252461
O O7 0.498145 0.235344 0.312597
O O8 0.385780 0.000000 0.333584
O O9 0.604081 0.000000 0.996267
O O10 0.500000 0.246696 0.000000
O O11 0.658019 0.249147 0.915756
O O12 0.500000 0.683708 0.500000
O O13 0.647957 0.500000 0.499914
O O14 0.649273 0.750371 0.412597
O O15 0.175624 0.219828 0.157356
O O16 0.301086 0.000000 0.163747
O O17 0.102916 0.500000 0.922721
O O18 0.000685 0.267592 0.874027
O O19 0.121188 0.235851 0.998857
O O20 0.072365 0.000000 0.088665
O O21 0.606741 0.000000 0.337054
#
# Coordination Sequence:
#
# PCOD8058121 Si02
#       8
#     4   4   4   4   4   4   4   4
#     4  10  18  30  47  69  93 122 157 191 230 275
#     4   9  16  28  46  70  96 120 152 193 230 269
#     4   9  15  24  41  66  94 121 152 187 220 261
#     4   9  17  29  44  63  90 125 159 190 228 271
#     4   9  16  26  44  70  93 118 151 188 231 270
#     4  11  21  32  46  66  91 121 156 195 237 275
#     4  10  18  32  51  68  88 117 155 198 238 275
#     4   9  17  28  46  70  94 121 155 194 230 265
#
# _framework density 16.304925000000001
#
# number of rings (size 3 to 8) (size 9 to 14) (size 15 to 20)
#    0.000    2.500    1.250    3.375    0.000    5.000 
#    0.000    1.250    0.000    0.375    0.000    0.875 
#    0.000    7.000    0.000    0.000    0.000    0.000 
#
# Total GULP energy -396750.536704 kJ/mol
# GULP energy per Si atom -12398.454272 kJ/mol
# Density = 1.626781 g / cm^3
# Si number density = 16.304925 Si / 1000 Ang^3
#
#
#
# Elastic Constant Matrix: (Units=GPa)
#
#
# Indices 1 2 3 4 5 6 
#
# 1 100.5339 24.9111 65.5787 0.0000 0.3519 0.0000
# 2 24.9111 35.6706 27.2755 0.0000 -1.1168 0.0000
# 3 65.5787 27.2755 145.1602 0.0000 2.3482 0.0000
# 4 0.0000 0.0000 0.0000 8.0538 0.0000 -2.9053
# 5 0.3519 -1.1168 2.3482 0.0000 15.1244 0.0000
# 6 0.0000 0.0000 0.0000 -2.9053 0.0000 10.6095
#
#
#
# Elastic Compliance Matrix: (Units=1/GPa)
#
#
# Indices 1 2 3 4 5 6 
#
# 1 0.015216 -0.006268 -0.005698 0.000000 0.000068 0.000000
# 2 -0.006268 0.035493 -0.003892 0.000000 0.003371 0.000000
# 3 -0.005698 -0.003892 0.010222 0.000000 -0.001742 0.000000
# 4 0.000000 0.000000 0.000000 0.137775 0.000000 0.037728
# 5 0.000068 0.003371 -0.001742 0.000000 0.066636 0.000000
# 6 0.000000 0.000000 0.000000 0.037728 0.000000 0.104586
#
#
# Mechanical properties :
#
#
# Convention : Reuss Voigt Hill
#
# Bulk Modulus (GPa) = 34.22671 57.43279 45.82975
# Shear Modulus (GPa) = 12.15411 17.66416 14.90913
#
# Velocity S-wave (km/s) = 2.73321 3.29502 3.02718
# Velocity P-wave (km/s) = 5.56757 7.05527 6.35510
#
# Compressibility (1/GPa) = 0.02921695
#
# Stress axis : x y z
#
# Youngs Moduli (GPa) = 65.71893 28.17450 97.82388
#
# Poissons Ratio (x) = 0.17659 0.55737
# Poissons Ratio (y) = 0.41191 0.38074
# Poissons Ratio (z) = 0.37444 0.10966
#
# Static dielectric constant tensor:
#      x y z
#    x 3.076020 0.000000 0.033850 
#    y 0.000000 2.829820 0.000000 
#    z 0.033850 0.000000 3.165470 
# 
# 
# High freq. dielectric constant tensor:
#      x y z
#    x 1.609790 0.000000 0.000860 
#    y 0.000000 1.606770 0.000000 
#    z 0.000860 0.000000 1.617840 
# 
# From -- ./inp_files/66151.got.cif
#   From: 2010.06.25/outbox.cif.g09.slc.cpg/sg10_34_cif.got.tgz:66151.got - 2010.06.27 22:07:45.
