data_PCOD8058989
_publ_section_title
;
Structure prediction by ZEFSAII (Michael W. Deem and Ramdas Pophale) SiO2 
 PCOD8058989
Probable space group: P 2/M
;
_chemical_formula_sum "Si O2"
_cell_formula_units_Z 24
_cell_length_a 14.473770
_cell_length_b 13.616653
_cell_length_c 14.512003
_cell_angle_alpha 90.000000
_cell_angle_beta 29.559792
_cell_angle_gamma 90.000000
_cell_volume 1410.971697
_symmetry_space_group_name_H-M "P 2/M"
_symmetry_group_IT_number 10
_symmetry_cell_setting 'monoclinic'
loop_
_space_group_symop_operation_xyz
x,y,z
-x,y,-z
-x,-y,-z
x,-y,z
loop_
_atom_site_type_symbol
_atom_site_label
_atom_site_fract_x
_atom_site_fract_y
_atom_site_fract_z
Si Si1 0.609049 0.715412 0.000484
Si Si2 0.349831 0.389040 0.359147
Si Si3 0.999310 0.115005 0.894620
Si Si4 0.266960 0.800394 0.518772
Si Si5 0.613673 0.887801 0.132793
Si Si6 0.979348 0.276458 0.414645
O O1 0.526591 0.632557 0.139794
O O2 0.584623 0.822320 0.067448
O O3 0.500000 0.717202 0.000000
O O4 0.824512 0.689614 0.797720
O O5 0.361028 0.500000 0.386240
O O6 0.346719 0.312512 0.448464
O O7 0.159053 0.371247 0.465432
O O8 0.167250 0.174984 0.701059
O O9 0.039619 0.000000 0.847397
O O10 0.800671 0.145002 0.023935
O O11 0.000000 0.146469 0.000000
O O12 0.437565 0.875200 0.354330
O O13 0.114526 0.809223 0.567150
O O14 0.627184 0.000000 0.088845
O O15 0.000000 0.234801 0.500000
#
# Coordination Sequence:
#
# PCOD8058989 Si02
#       6
#     4   4   4   4   4   4
#     4  11  19  34  49  72 105 137 172 210 250 293
#     4   9  20  32  49  74  99 134 173 209 252 299
#     4  10  20  34  55  81 104 130 166 207 255 304
#     4   9  19  34  52  71 107 133 165 209 253 297
#     4  10  19  33  53  74 102 136 169 206 249 299
#     4  10  18  33  50  71 103 140 168 210 250 297
#
# _framework density 17.009554999999999
#
# number of rings (size 3 to 8) (size 9 to 14) (size 15 to 20)
#    1.000    1.167    3.333    0.500    0.000    2.333 
#    0.000    2.500    0.000    3.000    0.000    4.667 
#    0.000    0.000    0.000    0.000    0.000    0.000 
#
# Total GULP energy -297443.260508 kJ/mol
# GULP energy per Si atom -12393.469188 kJ/mol
# Density = 1.697084 g / cm^3
# Si number density = 17.009555 Si / 1000 Ang^3
#
#
#
# Elastic Constant Matrix: (Units=GPa)
#
#
# Indices 1 2 3 4 5 6 
#
# 1 29.2901 17.2320 20.5371 0.0000 13.4149 0.0000
# 2 17.2320 68.9165 26.6117 0.0000 10.2598 0.0000
# 3 20.5371 26.6117 145.4617 0.0000 2.9455 0.0000
# 4 0.0000 0.0000 0.0000 16.9216 0.0000 1.9103
# 5 13.4149 10.2598 2.9455 0.0000 31.2530 0.0000
# 6 0.0000 0.0000 0.0000 1.9103 0.0000 13.0878
#
#
#
# Elastic Compliance Matrix: (Units=1/GPa)
#
#
# Indices 1 2 3 4 5 6 
#
# 1 0.051234 -0.007913 -0.005404 0.000000 -0.018885 0.000000
# 2 -0.007913 0.017611 -0.002060 0.000000 -0.002191 0.000000
# 3 -0.005404 -0.002060 0.007969 0.000000 0.002245 0.000000
# 4 0.000000 0.000000 0.000000 0.060086 0.000000 -0.008770
# 5 -0.018885 -0.002191 0.002245 0.000000 0.040611 0.000000
# 6 0.000000 0.000000 0.000000 -0.008770 0.000000 0.077687
#
#
# Mechanical properties :
#
#
# Convention : Reuss Voigt Hill
#
# Bulk Modulus (GPa) = 21.71043 41.38110 31.54576
# Shear Modulus (GPa) = 16.59451 24.20497 20.39974
#
# Velocity S-wave (km/s) = 3.12685 3.77639 3.46686
# Velocity P-wave (km/s) = 5.08209 6.58755 5.88317
#
# Compressibility (1/GPa) = 0.04606081
#
# Stress axis : x y z
#
# Youngs Moduli (GPa) = 19.51812 56.78423 125.48583
#
# Poissons Ratio (x) = 0.44932 0.67807
# Poissons Ratio (y) = 0.15444 0.25853
# Poissons Ratio (z) = 0.10547 0.11699
#
# Static dielectric constant tensor:
#      x y z
#    x 2.985600 0.000000 -0.135620 
#    y 0.000000 2.872690 0.000000 
#    z -0.135620 0.000000 3.393740 
# 
# 
# High freq. dielectric constant tensor:
#      x y z
#    x 1.630900 0.000000 -0.009500 
#    y 0.000000 1.627000 0.000000 
#    z -0.009500 0.000000 1.679440 
# 
# From -- ./inp_files/67491.got.cif
#   From: 2010.06.25/outbox.cif.g09.slc.cpg/sg10_34_cif.got.tgz:67491.got - 2010.06.27 22:07:45.
