data_PCOD8058577
_publ_section_title
;
Structure prediction by ZEFSAII (Michael W. Deem and Ramdas Pophale) SiO2 
 PCOD8058577
Probable space group: P 2/M
;
_chemical_formula_sum "Si O2"
_cell_formula_units_Z 32
_cell_length_a 12.757116
_cell_length_b 9.276895
_cell_length_c 19.887331
_cell_angle_alpha 90.000000
_cell_angle_beta 46.264334
_cell_angle_gamma 90.000000
_cell_volume 1700.558994
_symmetry_space_group_name_H-M "P 2/M"
_symmetry_group_IT_number 10
_symmetry_cell_setting 'monoclinic'
loop_
_space_group_symop_operation_xyz
x,y,z
-x,y,-z
-x,-y,-z
x,-y,z
loop_
_atom_site_type_symbol
_atom_site_label
_atom_site_fract_x
_atom_site_fract_y
_atom_site_fract_z
Si Si1 0.628113 0.669052 0.248546
Si Si2 0.897988 0.666952 0.879120
Si Si3 0.364291 0.671679 0.601881
Si Si4 0.927567 0.327492 0.600687
Si Si5 0.429062 0.671869 0.963110
Si Si6 0.094908 0.163451 0.892142
Si Si7 0.066683 0.666848 0.673966
Si Si8 0.397412 0.669607 0.242402
O O1 0.663466 0.500000 0.228405
O O2 0.614768 0.723382 0.330932
O O3 0.757171 0.754716 0.155539
O O4 0.481062 0.706966 0.274151
O O5 0.914929 0.500000 0.892422
O O6 0.015733 0.757667 0.866552
O O7 0.933072 0.687684 0.784665
O O8 0.737269 0.725602 0.966019
O O9 0.500000 0.732902 0.500000
O O10 0.360407 0.500000 0.601578
O O11 0.215571 0.736916 0.636539
O O12 0.924069 0.500000 0.602594
O O13 0.764054 0.265596 0.679620
O O14 0.000000 0.269621 0.500000
O O15 0.020386 0.266447 0.622609
O O16 0.430536 0.500000 0.962964
O O17 0.517278 0.734409 0.860046
O O18 0.500000 0.732297 0.000000
O O19 0.127311 0.000000 0.855957
O O20 0.000000 0.170359 0.000000
O O21 0.099461 0.500000 0.647985
O O22 0.387216 0.500000 0.236084
#
# Coordination Sequence:
#
# PCOD8058577 Si02
#       8
#     4   4   4   4   4   4   4   4
#     4  10  19  33  52  75 103 133 169 209 252 302
#     4  10  18  31  52  75  98 131 173 212 252 298
#     4   9  17  27  44  70  99 132 166 207 253 297
#     4   9  17  26  39  64 103 141 164 195 251 307
#     4   9  16  26  43  68  97 127 160 204 251 291
#     4  11  23  36  50  72 103 136 169 208 258 310
#     4   9  16  27  43  67  98 132 169 203 243 298
#     4   9  17  27  40  64  95 127 163 201 241 292
#
# _framework density 18.817343000000001
#
# number of rings (size 3 to 8) (size 9 to 14) (size 15 to 20)
#    0.000    2.500    1.250    1.875    1.750    5.000 
#    0.000    0.000    0.000    0.750    0.000    2.625 
#    0.000    1.000    0.000    0.000    0.000    0.000 
#
# Total GULP energy -396736.256442 kJ/mol
# GULP energy per Si atom -12398.008014 kJ/mol
# Density = 1.877451 g / cm^3
# Si number density = 18.817343 Si / 1000 Ang^3
#
#
#
# Elastic Constant Matrix: (Units=GPa)
#
#
# Indices 1 2 3 4 5 6 
#
# 1 154.8629 18.0523 75.6958 0.0000 3.0146 0.0000
# 2 18.0523 27.0442 14.1321 0.0000 1.3764 0.0000
# 3 75.6958 14.1321 143.4636 0.0000 -7.1423 0.0000
# 4 0.0000 0.0000 0.0000 4.7341 0.0000 1.7068
# 5 3.0146 1.3764 -7.1423 0.0000 37.3030 0.0000
# 6 0.0000 0.0000 0.0000 1.7068 0.0000 0.2664
#
#
#
# Elastic Compliance Matrix: (Units=1/GPa)
#
#
# Indices 1 2 3 4 5 6 
#
# 1 0.009125 -0.003650 -0.004528 0.000000 -0.001470 0.000000
# 2 -0.003650 0.040622 -0.002156 0.000000 -0.001617 0.000000
# 3 -0.004528 -0.002156 0.009686 0.000000 0.002300 0.000000
# 4 0.000000 0.000000 0.000000 -0.161243 0.000000 1.033130
# 5 -0.001470 -0.001617 0.002300 0.000000 0.027426 0.000000
# 6 0.000000 0.000000 0.000000 1.033130 0.000000 -2.865554
#
#
# Mechanical properties :
#
#
# Convention : Reuss Voigt Hill
#
# Bulk Modulus (GPa) = 25.79672 60.12566 42.96119
# Shear Modulus (GPa) = -1.72037 22.96006 10.61984
#
# Velocity S-wave (km/s) = -0.95720 3.49686 2.37821
# Velocity P-wave (km/s) = 3.53796 6.95167 5.51556
#
# Compressibility (1/GPa) = 0.03876462
#
# Stress axis : x y z
#
# Youngs Moduli (GPa) = 109.59264 24.61733 103.23656
#
# Poissons Ratio (x) = 0.08985 0.46747
# Poissons Ratio (y) = 0.40000 0.22260
# Poissons Ratio (z) = 0.49625 0.05308
#
# Static dielectric constant tensor:
#      x y z
#    x 3.766500 0.000000 -0.006150 
#    y 0.000000 2.766860 0.000000 
#    z -0.006150 0.000000 3.724010 
# 
# 
# High freq. dielectric constant tensor:
#      x y z
#    x 1.747260 0.000000 -0.000060 
#    y 0.000000 1.643050 0.000000 
#    z -0.000060 0.000000 1.744860 
# 
# From -- ./inp_files/83564.got.cif
#   From: 2010.06.25/outbox.cif.g09.slc.cpg/sg10_42_cif.got.tgz:83564.got - 2010.06.27 22:07:45.
