data_PCOD8058038
_publ_section_title
;
Structure prediction by ZEFSAII (Michael W. Deem and Ramdas Pophale) SiO2 
 PCOD8058038
Probable space group: P 2/M
;
_chemical_formula_sum "Si O2"
_cell_formula_units_Z 32
_cell_length_a 15.105978
_cell_length_b 9.313536
_cell_length_c 23.708463
_cell_angle_alpha 90.000000
_cell_angle_beta 29.921008
_cell_angle_gamma 90.000000
_cell_volume 1663.788555
_symmetry_space_group_name_H-M "P 2/M"
_symmetry_group_IT_number 10
_symmetry_cell_setting 'monoclinic'
loop_
_space_group_symop_operation_xyz
x,y,z
-x,y,-z
-x,-y,-z
x,-y,z
loop_
_atom_site_type_symbol
_atom_site_label
_atom_site_fract_x
_atom_site_fract_y
_atom_site_fract_z
Si Si1 0.220137 0.670625 0.004445
Si Si2 0.800999 0.170220 0.394135
Si Si3 0.467768 0.170995 0.784202
Si Si4 0.521466 0.345016 0.922523
Si Si5 0.860372 0.830694 0.233392
Si Si6 0.519664 0.830841 0.352930
Si Si7 0.141540 0.156734 0.265011
Si Si8 0.158885 0.840778 0.381085
O O1 0.199683 0.500000 0.006169
O O2 0.302522 0.744449 0.903047
O O3 0.342397 0.708686 0.991046
O O4 0.030980 0.739205 0.122553
O O5 0.786163 0.209551 0.336567
O O6 0.638844 0.235764 0.520703
O O7 0.988230 0.235552 0.313587
O O8 0.805884 0.000000 0.400725
O O9 0.488907 0.218969 0.707321
O O10 0.644911 0.227205 0.719423
O O11 0.433913 0.000000 0.809102
O O12 0.574001 0.500000 0.867419
O O13 0.675022 0.234580 0.829277
O O14 0.500000 0.362160 0.000000
O O15 0.708070 0.782967 0.274142
O O16 0.905210 0.000000 0.205016
O O17 0.502571 0.000000 0.366421
O O18 0.078416 0.145407 0.363627
O O19 0.179244 0.000000 0.217607
O O20 0.000000 0.754249 0.500000
O O21 0.179286 0.000000 0.397157
#
# Coordination Sequence:
#
# PCOD8058038 Si02
#       8
#     4   4   4   4   4   4   4   4
#     4  11  23  38  55  76 109 147 184 227 272 319
#     4   9  17  31  54  86 116 137 170 224 277 324
#     4  10  19  34  56  80 109 143 182 223 263 320
#     4  10  21  36  52  71 101 141 177 211 258 315
#     4  10  20  35  57  82 108 141 182 227 273 321
#     4   9  18  33  56  84 110 140 178 223 275 325
#     4  10  18  29  50  80 106 132 168 207 253 307
#     4   9  16  27  47  76 106 133 164 207 256 305
#
# _framework density 19.233214
#
# number of rings (size 3 to 8) (size 9 to 14) (size 15 to 20)
#    0.000    2.250    1.250    2.250    0.000    5.750 
#    0.000    3.125    0.000    6.750    0.000    0.000 
#    0.000    0.000    0.000    0.000    0.000    0.000 
#
# Total GULP energy -396510.932071 kJ/mol
# GULP energy per Si atom -12390.966627 kJ/mol
# Density = 1.918944 g / cm^3
# Si number density = 19.233214 Si / 1000 Ang^3
#
#
#
# Elastic Constant Matrix: (Units=GPa)
#
#
# Indices 1 2 3 4 5 6 
#
# 1 111.5592 18.4584 32.4965 0.0000 -6.9918 0.0000
# 2 18.4584 48.2716 37.3577 0.0000 -3.1123 0.0000
# 3 32.4965 37.3577 115.8014 0.0000 -4.0464 0.0000
# 4 0.0000 0.0000 0.0000 -31.5251 0.0000 2.8493
# 5 -6.9918 -3.1123 -4.0464 0.0000 34.4958 0.0000
# 6 0.0000 0.0000 0.0000 2.8493 0.0000 16.2983
#
#
#
# Elastic Compliance Matrix: (Units=1/GPa)
#
#
# Indices 1 2 3 4 5 6 
#
# 1 0.010019 -0.002126 -0.002070 0.000000 0.001596 0.000000
# 2 -0.002126 0.028133 -0.008440 0.000000 0.001117 0.000000
# 3 -0.002070 -0.008440 0.011947 0.000000 0.000220 0.000000
# 4 0.000000 0.000000 0.000000 -0.031227 0.000000 0.005459
# 5 0.001596 0.001117 0.000220 0.000000 0.029439 0.000000
# 6 0.000000 0.000000 0.000000 0.005459 0.000000 0.060402
#
#
# Mechanical properties :
#
#
# Convention : Reuss Voigt Hill
#
# Bulk Modulus (GPa) = 40.27995 50.25084 45.26540
# Shear Modulus (GPa) = 35.14709 16.34178 25.74443
#
# Velocity S-wave (km/s) = 4.27947 2.91806 3.66258
# Velocity P-wave (km/s) = 6.73846 6.12677 6.43988
#
# Compressibility (1/GPa) = 0.02482624
#
# Stress axis : x y z
#
# Youngs Moduli (GPa) = 99.81440 35.54543 83.70473
#
# Poissons Ratio (x) = 0.07558 0.17325
# Poissons Ratio (y) = 0.21224 0.70647
# Poissons Ratio (z) = 0.20659 0.30000
#
# Static dielectric constant tensor:
#      x y z
#    x 3.642850 0.000000 -0.092260 
#    y 0.000000 -13.437810 0.000000 
#    z -0.092260 0.000000 3.483990 
# 
# 
# High freq. dielectric constant tensor:
#      x y z
#    x 1.762100 0.000000 -0.001270 
#    y 0.000000 1.693860 0.000000 
#    z -0.001270 0.000000 1.756830 
# 
# From -- ./inp_files/71613.got.cif
#   From: 2010.06.25/outbox.cif.g09.slc.cpg/sg10_36_cif.got.tgz:71613.got - 2010.06.27 22:07:45.
