data_PCOD8058175
_publ_section_title
;
Structure prediction by ZEFSAII (Michael W. Deem and Ramdas Pophale) SiO2 
 PCOD8058175
Probable space group: P 2/M
;
_chemical_formula_sum "Si O2"
_cell_formula_units_Z 32
_cell_length_a 23.932604
_cell_length_b 9.152939
_cell_length_c 17.509602
_cell_angle_alpha 90.000000
_cell_angle_beta 149.591709
_cell_angle_gamma 90.000000
_cell_volume 1941.392695
_symmetry_space_group_name_H-M "P 2/M"
_symmetry_group_IT_number 10
_symmetry_cell_setting 'monoclinic'
loop_
_space_group_symop_operation_xyz
x,y,z
-x,y,-z
-x,-y,-z
x,-y,z
loop_
_atom_site_type_symbol
_atom_site_label
_atom_site_fract_x
_atom_site_fract_y
_atom_site_fract_z
Si Si1 0.796574 0.668235 0.606488
Si Si2 0.410281 0.827213 0.230158
Si Si3 0.627632 0.335304 0.129394
Si Si4 0.970926 0.332811 0.048972
Si Si5 0.679938 0.829423 0.336929
Si Si6 0.755448 0.168206 0.840321
Si Si7 0.428221 0.830823 0.079926
Si Si8 0.348807 0.831017 0.444567
O O1 0.760599 0.500000 0.554772
O O2 0.768268 0.755860 0.496640
O O3 0.736507 0.735293 0.608653
O O4 0.926921 0.682709 0.773238
O O5 0.312639 0.764705 0.168298
O O6 0.387926 0.782190 0.116214
O O7 0.528920 0.767391 0.397260
O O8 0.414043 0.000000 0.243999
O O9 0.673939 0.500000 0.181748
O O10 0.694345 0.242622 0.270627
O O11 0.500000 0.332740 0.000000
O O12 0.642136 0.262563 0.063456
O O13 0.935302 0.500000 0.995029
O O14 0.870072 0.250637 0.968682
O O15 0.000000 0.264829 0.000000
O O16 0.558741 0.800040 0.228233
O O17 0.705494 0.000000 0.359684
O O18 0.678334 0.187547 0.675955
O O19 0.784625 0.000000 0.888687
O O20 0.404205 0.000000 0.034975
O O21 0.339202 0.000000 0.459971
#
# Coordination Sequence:
#
# PCOD8058175 Si02
#       8
#     4   4   4   4   4   4   4   4
#     4  11  21  32  49  70  95 130 166 203 247 290
#     4   9  17  31  48  72 102 131 161 199 247 290
#     4   9  17  28  43  67  99 130 160 195 232 280
#     4  10  21  37  51  65  94 132 165 204 254 295
#     4  10  18  30  48  71  97 127 161 198 241 292
#     4  10  20  32  52  74  94 125 170 213 242 283
#     4   9  16  28  46  67  97 133 161 188 235 293
#     4  10  18  31  49  71  98 129 163 201 245 291
#
# _framework density 16.483013
#
# number of rings (size 3 to 8) (size 9 to 14) (size 15 to 20)
#    0.000    2.250    2.500    1.500    0.000    4.750 
#    0.000    1.250    0.000    1.500    0.000    0.875 
#    0.000    7.000    0.000    0.000    0.000    0.000 
#
# Total GULP energy -396836.154322 kJ/mol
# GULP energy per Si atom -12401.129823 kJ/mol
# Density = 1.644550 g / cm^3
# Si number density = 16.483013 Si / 1000 Ang^3
#
#
#
# Elastic Constant Matrix: (Units=GPa)
#
#
# Indices 1 2 3 4 5 6 
#
# 1 108.7534 45.7877 54.4579 0.0000 -6.1759 0.0000
# 2 45.7877 84.0494 43.2695 0.0000 -8.5492 0.0000
# 3 54.4579 43.2695 67.0504 0.0000 -11.1005 0.0000
# 4 0.0000 0.0000 0.0000 24.3241 0.0000 -8.6909
# 5 -6.1759 -8.5492 -11.1005 0.0000 29.0637 0.0000
# 6 0.0000 0.0000 0.0000 -8.6909 0.0000 11.5526
#
#
#
# Elastic Compliance Matrix: (Units=1/GPa)
#
#
# Indices 1 2 3 4 5 6 
#
# 1 0.016090 -0.003097 -0.011374 0.000000 -0.001836 0.000000
# 2 -0.003097 0.018435 -0.009173 0.000000 0.001261 0.000000
# 3 -0.011374 -0.009173 0.031197 0.000000 0.006800 0.000000
# 4 0.000000 0.000000 0.000000 0.056224 0.000000 0.042297
# 5 -0.001836 0.001261 0.006800 0.000000 0.036985 0.000000
# 6 0.000000 0.000000 0.000000 0.042297 0.000000 0.118381
#
#
# Mechanical properties :
#
#
# Convention : Reuss Voigt Hill
#
# Bulk Modulus (GPa) = 54.24229 60.76483 57.50356
# Shear Modulus (GPa) = 15.11740 20.74394 17.93067
#
# Velocity S-wave (km/s) = 3.03173 3.55139 3.30180
# Velocity P-wave (km/s) = 6.72567 7.33223 7.03549
#
# Compressibility (1/GPa) = 0.01843580
#
# Stress axis : x y z
#
# Youngs Moduli (GPa) = 62.15032 54.24341 32.05431
#
# Poissons Ratio (x) = 0.16798 0.36457
# Poissons Ratio (y) = 0.19247 0.29403
# Poissons Ratio (z) = 0.70688 0.49757
#
# Static dielectric constant tensor:
#      x y z
#    x 3.101000 0.000000 -0.182230 
#    y 0.000000 3.090810 0.000000 
#    z -0.182230 0.000000 2.985790 
# 
# 
# High freq. dielectric constant tensor:
#      x y z
#    x 1.620200 0.000000 -0.023230 
#    y 0.000000 1.628530 0.000000 
#    z -0.023230 0.000000 1.619300 
# 
# From -- ./inp_files/55178.got.cif
#   From: 2010.06.25/outbox.cif.g09.slc.cpg/sg10_28_cif.got.tgz:55178.got - 2010.06.27 22:07:45.
