data_PCOD8058567
_publ_section_title
;
Structure prediction by ZEFSAII (Michael W. Deem and Ramdas Pophale) SiO2 
 PCOD8058567
Probable space group: P 2/M
;
_chemical_formula_sum "Si O2"
_cell_formula_units_Z 32
_cell_length_a 21.870506
_cell_length_b 9.036407
_cell_length_c 12.326576
_cell_angle_alpha 90.000000
_cell_angle_beta 133.498339
_cell_angle_gamma 90.000000
_cell_volume 1767.141094
_symmetry_space_group_name_H-M "P 2/M"
_symmetry_group_IT_number 10
_symmetry_cell_setting 'monoclinic'
loop_
_space_group_symop_operation_xyz
x,y,z
-x,y,-z
-x,-y,-z
x,-y,z
loop_
_atom_site_type_symbol
_atom_site_label
_atom_site_fract_x
_atom_site_fract_y
_atom_site_fract_z
Si Si1 0.652031 0.331605 0.565816
Si Si2 0.512799 0.667259 0.745952
Si Si3 0.293202 0.326177 0.007014
Si Si4 0.783898 0.673375 0.549247
Si Si5 0.771355 0.175432 0.868784
Si Si6 0.570757 0.841553 0.169720
Si Si7 0.096354 0.324149 0.119367
Si Si8 0.281360 0.674452 0.748909
O O1 0.679294 0.500000 0.628094
O O2 0.550108 0.320245 0.435184
O O3 0.696111 0.286346 0.504245
O O4 0.687200 0.225782 0.702340
O O5 0.508378 0.500000 0.787568
O O6 0.609815 0.706240 0.839989
O O7 0.475359 0.784325 0.781057
O O8 0.273411 0.500000 0.993004
O O9 0.233744 0.234238 0.014570
O O10 0.270097 0.264658 0.857665
O O11 0.791593 0.500000 0.547104
O O12 0.863060 0.730866 0.716668
O O13 0.783683 0.736063 0.424194
O O14 0.855149 0.244918 0.919043
O O15 0.778201 0.000000 0.876078
O O16 0.628153 0.717336 0.185894
O O17 0.617406 0.000000 0.252177
O O18 0.500000 0.881096 0.000000
O O19 0.105389 0.500000 0.115730
O O20 0.000000 0.272473 0.000000
O O21 0.277365 0.500000 0.752434
#
# Coordination Sequence:
#
# PCOD8058567 Si02
#       8
#     4   4   4   4   4   4   4   4
#     4   9  17  32  53  73  99 133 176 228 267 300
#     4  10  19  32  51  71  94 134 187 233 262 297
#     4  10  21  34  51  72  98 139 187 224 255 299
#     4   8  14  27  51  82 106 124 158 211 262 301
#     4  11  23  37  53  74 107 140 168 208 257 320
#     4  11  21  29  41  67 104 140 176 224 268 306
#     4   9  18  36  63  88 108 129 158 203 256 311
#     4  10  18  31  52  73  98 135 180 222 256 300
#
# _framework density 18.108343000000001
#
# number of rings (size 3 to 8) (size 9 to 14) (size 15 to 20)
#    0.000    2.250    2.500    2.250    0.000    2.750 
#    0.000    2.500    0.000    0.750    0.000    5.250 
#    0.000    0.000    0.000    0.000    0.000    0.000 
#
# Total GULP energy -396421.604789 kJ/mol
# GULP energy per Si atom -12388.175150 kJ/mol
# Density = 1.806713 g / cm^3
# Si number density = 18.108343 Si / 1000 Ang^3
#
#
#
# Elastic Constant Matrix: (Units=GPa)
#
#
# Indices 1 2 3 4 5 6 
#
# 1 94.8946 33.6319 66.1570 0.0000 -10.7830 0.0000
# 2 33.6319 45.1999 25.0611 0.0000 -6.3575 0.0000
# 3 66.1570 25.0611 105.9149 0.0000 0.9273 0.0000
# 4 0.0000 0.0000 0.0000 14.1517 0.0000 -3.2951
# 5 -10.7830 -6.3575 0.9273 0.0000 26.9008 0.0000
# 6 0.0000 0.0000 0.0000 -3.2951 0.0000 14.7235
#
#
#
# Elastic Compliance Matrix: (Units=1/GPa)
#
#
# Indices 1 2 3 4 5 6 
#
# 1 0.023454 -0.009465 -0.012477 0.000000 0.007594 0.000000
# 2 -0.009465 0.030372 -0.001304 0.000000 0.003429 0.000000
# 3 -0.012477 -0.001304 0.017595 0.000000 -0.005916 0.000000
# 4 0.000000 0.000000 0.000000 0.074547 0.000000 0.016683
# 5 0.007594 0.003429 -0.005916 0.000000 0.041232 0.000000
# 6 0.000000 0.000000 0.000000 0.016683 0.000000 0.071652
#
#
# Mechanical properties :
#
#
# Convention : Reuss Voigt Hill
#
# Bulk Modulus (GPa) = 40.11449 55.07882 47.59665
# Shear Modulus (GPa) = 15.94106 19.23250 17.58678
#
# Velocity S-wave (km/s) = 2.97023 3.26249 3.11979
# Velocity P-wave (km/s) = 5.82783 6.68387 6.27047
#
# Compressibility (1/GPa) = 0.02492865
#
# Stress axis : x y z
#
# Youngs Moduli (GPa) = 42.63669 32.92474 56.83369
#
# Poissons Ratio (x) = 0.31165 0.70910
# Poissons Ratio (y) = 0.40358 0.07412
# Poissons Ratio (z) = 0.53197 0.04294
#
# Static dielectric constant tensor:
#      x y z
#    x 3.112710 0.000000 -0.192030 
#    y 0.000000 3.176210 0.000000 
#    z -0.192030 0.000000 3.745000 
# 
# 
# High freq. dielectric constant tensor:
#      x y z
#    x 1.668670 0.000000 -0.017660 
#    y 0.000000 1.683470 0.000000 
#    z -0.017660 0.000000 1.701260 
# 
# From -- ./inp_files/55229.got.cif
#   From: 2010.06.25/outbox.cif.g09.slc.cpg/sg10_28_cif.got.tgz:55229.got - 2010.06.27 22:07:45.
