data_PCOD8058260
_publ_section_title
;
Structure prediction by ZEFSAII (Michael W. Deem and Ramdas Pophale) SiO2 
 PCOD8058260
Probable space group: P 2/M
;
_chemical_formula_sum "Si O2"
_cell_formula_units_Z 28
_cell_length_a 15.072303
_cell_length_b 8.878660
_cell_length_c 16.876157
_cell_angle_alpha 90.000000
_cell_angle_beta 46.202960
_cell_angle_gamma 90.000000
_cell_volume 1630.103051
_symmetry_space_group_name_H-M "P 2/M"
_symmetry_group_IT_number 10
_symmetry_cell_setting 'monoclinic'
loop_
_space_group_symop_operation_xyz
x,y,z
-x,y,-z
-x,-y,-z
x,-y,z
loop_
_atom_site_type_symbol
_atom_site_label
_atom_site_fract_x
_atom_site_fract_y
_atom_site_fract_z
Si Si1 0.822646 0.321306 0.080645
Si Si2 0.747194 0.678086 0.861555
Si Si3 0.055508 0.175207 0.857273
Si Si4 0.609136 0.678351 0.099998
Si Si5 0.995105 0.827711 0.286041
Si Si6 0.884781 0.824554 0.519619
Si Si7 0.335319 0.321152 0.257811
O O1 0.838204 0.500000 0.075715
O O2 0.832822 0.250072 0.162277
O O3 0.691709 0.273907 0.124304
O O4 0.928867 0.255812 0.959031
O O5 0.737812 0.500000 0.868026
O O6 0.695996 0.741909 0.810272
O O7 0.887973 0.721350 0.784919
O O8 0.666838 0.746143 0.983343
O O9 0.080184 0.199442 0.748681
O O10 0.045858 0.000000 0.885039
O O11 0.607279 0.500000 0.092749
O O12 0.470892 0.739029 0.197417
O O13 0.906550 0.788295 0.413871
O O14 0.040921 0.000000 0.263968
O O15 0.760964 0.739901 0.619291
O O16 0.000000 0.764038 0.500000
O O17 0.865943 0.000000 0.548056
O O18 0.329530 0.500000 0.262836
#
# Coordination Sequence:
#
# PCOD8058260 Si02
#       7
#     4   4   4   4   4   4   4
#     4  10  18  30  50  73 100 130 160 194 244 299
#     4  10  18  30  50  74 101 132 163 196 240 294
#     4  10  19  31  48  72 100 127 161 203 245 286
#     4   9  18  32  49  73 104 134 160 197 245 294
#     4  10  20  33  50  71 100 133 162 201 248 289
#     4  10  20  35  52  69  97 133 167 205 248 287
#     4  10  20  33  51  74 100 131 169 204 239 288
#
# _framework density 17.176829999999999
#
# number of rings (size 3 to 8) (size 9 to 14) (size 15 to 20)
#    0.000    2.143    2.857    2.143    0.000    3.143 
#    0.000    2.143    0.000    2.571    0.000    6.000 
#    0.000    0.000    0.000    0.000    0.000    0.000 
#
# Total GULP energy -347164.207094 kJ/mol
# GULP energy per Si atom -12398.721682 kJ/mol
# Density = 1.713773 g / cm^3
# Si number density = 17.176830 Si / 1000 Ang^3
#
#
#
# Elastic Constant Matrix: (Units=GPa)
#
#
# Indices 1 2 3 4 5 6 
#
# 1 147.4935 33.8354 79.5216 0.0000 9.0418 0.0000
# 2 33.8354 34.2692 24.0442 0.0000 3.9299 0.0000
# 3 79.5216 24.0442 113.9559 0.0000 0.3904 0.0000
# 4 0.0000 0.0000 0.0000 13.4521 0.0000 12.5495
# 5 9.0418 3.9299 0.3904 0.0000 30.2690 0.0000
# 6 0.0000 0.0000 0.0000 12.5495 0.0000 8.6531
#
#
#
# Elastic Compliance Matrix: (Units=1/GPa)
#
#
# Indices 1 2 3 4 5 6 
#
# 1 0.012406 -0.006889 -0.007194 0.000000 -0.002719 0.000000
# 2 -0.006889 0.038661 -0.003340 0.000000 -0.002918 0.000000
# 3 -0.007194 -0.003340 0.014492 0.000000 0.002396 0.000000
# 4 0.000000 0.000000 0.000000 -0.210606 0.000000 0.305438
# 5 -0.002719 -0.002918 0.002396 0.000000 0.034197 0.000000
# 6 0.000000 0.000000 0.000000 0.305438 0.000000 -0.327407
#
#
# Mechanical properties :
#
#
# Convention : Reuss Voigt Hill
#
# Bulk Modulus (GPa) = 32.56031 63.39122 47.97576
# Shear Modulus (GPa) = -12.71704 21.02932 4.15614
#
# Velocity S-wave (km/s) = -2.72391 3.50277 1.55720
# Velocity P-wave (km/s) = 3.01732 7.30373 5.58787
#
# Compressibility (1/GPa) = 0.03071224
#
# Stress axis : x y z
#
# Youngs Moduli (GPa) = 80.60716 25.86599 69.00335
#
# Poissons Ratio (x) = 0.17820 0.49642
# Poissons Ratio (y) = 0.55534 0.23044
# Poissons Ratio (z) = 0.57990 0.08638
#
# Static dielectric constant tensor:
#      x y z
#    x 3.510910 0.000000 0.126630 
#    y 0.000000 3.061650 0.000000 
#    z 0.126630 0.000000 3.134590 
# 
# 
# High freq. dielectric constant tensor:
#      x y z
#    x 1.668880 0.000000 0.011330 
#    y 0.000000 1.650220 0.000000 
#    z 0.011330 0.000000 1.643140 
# 
# From -- ./inp_files/55016.got.cif
#   From: 2010.06.25/outbox.cif.g09.slc.cpg/sg10_28_cif.got.tgz:55016.got - 2010.06.27 22:07:45.
