data_PCOD8058741
_publ_section_title
;
Structure prediction by ZEFSAII (Michael W. Deem and Ramdas Pophale) SiO2 
 PCOD8058741
Probable space group: P 2/M
;
_chemical_formula_sum "Si O2"
_cell_formula_units_Z 30
_cell_length_a 20.026673
_cell_length_b 9.730239
_cell_length_c 9.011746
_cell_angle_alpha 90.000000
_cell_angle_beta 77.915412
_cell_angle_gamma 90.000000
_cell_volume 1717.152522
_symmetry_space_group_name_H-M "P 2/M"
_symmetry_group_IT_number 10
_symmetry_cell_setting 'monoclinic'
loop_
_space_group_symop_operation_xyz
x,y,z
-x,y,-z
-x,-y,-z
x,-y,z
loop_
_atom_site_type_symbol
_atom_site_label
_atom_site_fract_x
_atom_site_fract_y
_atom_site_fract_z
Si Si1 0.500000 0.748137 0.000000
Si Si2 0.931857 0.656930 0.126960
Si Si3 0.392364 0.150832 0.823098
Si Si4 0.280788 0.155271 0.113188
Si Si5 0.423216 0.339628 0.546074
Si Si6 0.001300 0.158208 0.672054
Si Si7 0.132856 0.841133 0.078167
Si Si8 0.375694 0.654064 0.245656
O O1 0.543108 0.838342 0.095845
O O2 0.446082 0.658523 0.118997
O O3 0.907192 0.500000 0.171059
O O4 0.945192 0.739191 0.273695
O O5 0.875831 0.741860 0.059736
O O6 0.000000 0.653811 0.000000
O O7 0.387563 0.263294 0.697898
O O8 0.396620 0.000000 0.748565
O O9 0.321577 0.169987 0.941492
O O10 0.203206 0.201684 0.123862
O O11 0.315175 0.249409 0.220411
O O12 0.283967 0.000000 0.171829
O O13 0.500000 0.285839 0.500000
O O14 0.420600 0.500000 0.584184
O O15 0.387254 0.302179 0.409482
O O16 0.926219 0.181352 0.773720
O O17 0.000000 0.196525 0.500000
O O18 0.024688 0.000000 0.685561
O O19 0.134480 0.000000 0.023125
O O20 0.348128 0.500000 0.248518
#
# Coordination Sequence:
#
# PCOD8058741 Si02
#       8
#     2   4   4   4   4   4   4   4
#     4  10  18  32  50  74  96 122 156 208 248 294
#     4   9  17  29  48  75 103 130 163 205 247 287
#     4  10  20  33  50  73  97 124 161 205 250 294
#     4   9  20  36  52  72  99 130 168 208 246 294
#     4  10  20  35  50  71  99 127 158 200 250 304
#     4   9  17  30  51  79 105 131 168 207 245 293
#     4   9  17  33  54  72  98 136 169 202 245 293
#     4  10  20  33  52  73  96 127 165 203 248 299
#
# _framework density 17.470783000000001
#
# number of rings (size 3 to 8) (size 9 to 14) (size 15 to 20)
#    0.000    2.533    1.333    0.800    0.000    5.867 
#    0.000    1.333    0.000    6.400    0.000    0.000 
#    0.000    0.000    0.000    0.000    0.000    0.000 
#
# Total GULP energy -371939.346634 kJ/mol
# GULP energy per Si atom -12397.978221 kJ/mol
# Density = 1.743102 g / cm^3
# Si number density = 17.470783 Si / 1000 Ang^3
#
#
#
# Elastic Constant Matrix: (Units=GPa)
#
#
# Indices 1 2 3 4 5 6 
#
# 1 102.3497 57.2985 40.5337 0.0000 15.8376 0.0000
# 2 57.2985 105.8578 62.0055 0.0000 22.7746 0.0000
# 3 40.5337 62.0055 100.3243 0.0000 21.5044 0.0000
# 4 0.0000 0.0000 0.0000 99.8202 0.0000 -82.3045
# 5 15.8376 22.7746 21.5044 0.0000 16.8364 0.0000
# 6 0.0000 0.0000 0.0000 -82.3045 0.0000 135.5470
#
#
#
# Elastic Compliance Matrix: (Units=1/GPa)
#
#
# Indices 1 2 3 4 5 6 
#
# 1 0.014297 -0.006343 -0.001119 0.000000 -0.003439 0.000000
# 2 -0.006343 0.019432 -0.007011 0.000000 -0.011363 0.000000
# 3 -0.001119 -0.007011 0.017205 0.000000 -0.011439 0.000000
# 4 0.000000 0.000000 0.000000 0.020062 0.000000 0.012182
# 5 -0.003439 -0.011363 -0.011439 0.000000 0.092611 0.000000
# 6 0.000000 0.000000 0.000000 0.012182 0.000000 0.014774
#
#
# Mechanical properties :
#
#
# Convention : Reuss Voigt Hill
#
# Bulk Modulus (GPa) = 45.48171 69.80081 57.64126
# Shear Modulus (GPa) = 23.29310 60.35366 41.82338
#
# Velocity S-wave (km/s) = 3.65534 5.88392 4.89806
# Velocity P-wave (km/s) = 6.62608 9.28441 8.06552
#
# Compressibility (1/GPa) = 0.02198686
#
# Stress axis : x y z
#
# Youngs Moduli (GPa) = 69.94536 51.46260 58.12361
#
# Poissons Ratio (x) = 0.32645 0.06501
# Poissons Ratio (y) = 0.44370 0.40751
# Poissons Ratio (z) = 0.07823 0.36081
#
# Static dielectric constant tensor:
#      x y z
#    x 3.124620 0.000000 0.104110 
#    y 0.000000 3.338570 0.000000 
#    z 0.104110 0.000000 3.121210 
# 
# 
# High freq. dielectric constant tensor:
#      x y z
#    x 1.660240 0.000000 0.012820 
#    y 0.000000 1.679560 0.000000 
#    z 0.012820 0.000000 1.665720 
# 
# From -- ./inp_files/33867.got.cif
#   From: 2010.06.25/outbox.cif.g09.slc.cpg/sg10_17_cif.got.tgz:33867.got - 2010.06.27 22:07:45.
