data_PCOD8058022
_publ_section_title
;
Structure prediction by ZEFSAII (Michael W. Deem and Ramdas Pophale) SiO2 
 PCOD8058022
Probable space group: P 2/M
;
_chemical_formula_sum "Si O2"
_cell_formula_units_Z 32
_cell_length_a 23.941932
_cell_length_b 16.353252
_cell_length_c 9.846502
_cell_angle_alpha 90.000000
_cell_angle_beta 28.404257
_cell_angle_gamma 90.000000
_cell_volume 1833.871578
_symmetry_space_group_name_H-M "P 2/M"
_symmetry_group_IT_number 10
_symmetry_cell_setting 'monoclinic'
loop_
_space_group_symop_operation_xyz
x,y,z
-x,y,-z
-x,-y,-z
x,-y,z
loop_
_atom_site_type_symbol
_atom_site_label
_atom_site_fract_x
_atom_site_fract_y
_atom_site_fract_z
Si Si1 0.739203 0.227984 0.187173
Si Si2 0.629460 0.907676 0.241101
Si Si3 0.684237 0.835851 0.858108
Si Si4 0.510279 0.273239 0.822971
Si Si5 0.912023 0.096735 0.305371
Si Si6 0.998125 0.787637 0.660315
Si Si7 0.425437 0.593465 0.794024
Si Si8 0.782032 0.309184 0.823354
O O1 0.706582 0.142639 0.183582
O O2 0.644757 0.252299 0.501453
O O3 0.864726 0.224057 0.995647
O O4 0.752203 0.296996 0.045099
O O5 0.500000 0.867868 0.500000
O O6 0.623859 0.000000 0.308601
O O7 0.677521 0.907885 0.984408
O O8 0.782896 0.868236 0.541236
O O9 0.716186 0.755556 0.872141
O O10 0.564868 0.810889 0.036048
O O11 0.469474 0.349682 0.821209
O O12 0.500000 0.301221 0.000000
O O13 0.945781 0.138531 0.375360
O O14 0.913664 0.000000 0.320155
O O15 0.000000 0.125383 0.000000
O O16 0.000000 0.816362 0.500000
O O17 0.077362 0.703431 0.504402
O O18 0.500000 0.616179 0.500000
O O19 0.446090 0.500000 0.791918
O O20 0.283356 0.605796 0.074457
#
# Coordination Sequence:
#
# PCOD8058022 Si02
#       8
#     4   4   4   4   4   4   4   4
#     4  10  18  32  52  75 110 131 174 223 250 311
#     4  10  18  29  50  75 100 136 179 226 269 301
#     4   9  18  32  51  71  98 131 179 215 255 312
#     4  11  22  33  52  80 108 142 165 209 262 308
#     4  10  21  35  50  68  98 137 177 224 265 305
#     4   9  19  33  53  77  98 134 172 217 260 299
#     4  10  19  34  60  85 106 134 168 208 252 305
#     4   8  16  32  54  79 101 127 166 214 251 293
#
# _framework density 17.449421000000001
#
# number of rings (size 3 to 8) (size 9 to 14) (size 15 to 20)
#    0.000    2.375    2.500    1.125    1.750    1.000 
#    0.000    0.000    0.000    6.000    0.000    0.875 
#    0.000    0.000    0.000    0.000    0.000    0.000 
#
# Total GULP energy -396448.080769 kJ/mol
# GULP energy per Si atom -12389.002524 kJ/mol
# Density = 1.740971 g / cm^3
# Si number density = 17.449421 Si / 1000 Ang^3
#
#
#
# Elastic Constant Matrix: (Units=GPa)
#
#
# Indices 1 2 3 4 5 6 
#
# 1 71.4005 35.0623 50.2244 0.0000 -8.4199 0.0000
# 2 35.0623 61.7529 35.7220 0.0000 -2.7554 0.0000
# 3 50.2244 35.7220 135.0121 0.0000 -17.2604 0.0000
# 4 0.0000 0.0000 0.0000 11.4523 0.0000 0.4567
# 5 -8.4199 -2.7554 -17.2604 0.0000 37.1815 0.0000
# 6 0.0000 0.0000 0.0000 0.4567 0.0000 14.6917
#
#
#
# Elastic Compliance Matrix: (Units=1/GPa)
#
#
# Indices 1 2 3 4 5 6 
#
# 1 0.023023 -0.009648 -0.005780 0.000000 0.001816 0.000000
# 2 -0.009648 0.023197 -0.002773 0.000000 -0.001753 0.000000
# 3 -0.005780 -0.002773 0.010734 0.000000 0.003469 0.000000
# 4 0.000000 0.000000 0.000000 0.087427 0.000000 -0.002718
# 5 0.001816 -0.001753 0.003469 0.000000 0.028786 0.000000
# 6 0.000000 0.000000 0.000000 -0.002718 0.000000 0.068150
#
#
# Mechanical properties :
#
#
# Convention : Reuss Voigt Hill
#
# Bulk Modulus (GPa) = 48.65348 56.68698 52.67023
# Shear Modulus (GPa) = 17.57044 22.47556 20.02300
#
# Velocity S-wave (km/s) = 3.17667 3.59282 3.39113
# Velocity P-wave (km/s) = 6.43413 7.05465 6.75153
#
# Compressibility (1/GPa) = 0.02055351
#
# Stress axis : x y z
#
# Youngs Moduli (GPa) = 43.43524 43.10897 93.16308
#
# Poissons Ratio (x) = 0.41590 0.53846
# Poissons Ratio (y) = 0.41904 0.25832
# Poissons Ratio (z) = 0.25105 0.11953
#
# Static dielectric constant tensor:
#      x y z
#    x 3.238160 0.000000 -0.297170 
#    y 0.000000 2.991050 0.000000 
#    z -0.297170 0.000000 3.553720 
# 
# 
# High freq. dielectric constant tensor:
#      x y z
#    x 1.661330 0.000000 -0.014590 
#    y 0.000000 1.640340 0.000000 
#    z -0.014590 0.000000 1.685310 
# 
# From -- ./inp_files/36431.got.cif
#   From: 2010.06.25/outbox.cif.g09.slc.cpg/sg10_19_cif.got.tgz:36431.got - 2010.06.27 22:07:45.
