data_PCOD8058568
_publ_section_title
;
Structure prediction by ZEFSAII (Michael W. Deem and Ramdas Pophale) SiO2 
 PCOD8058568
Probable space group: P 2/M
;
_chemical_formula_sum "Si O2"
_cell_formula_units_Z 24
_cell_length_a 9.567076
_cell_length_b 8.033444
_cell_length_c 20.557755
_cell_angle_alpha 90.000000
_cell_angle_beta 56.030507
_cell_angle_gamma 90.000000
_cell_volume 1310.348383
_symmetry_space_group_name_H-M "P 2/M"
_symmetry_group_IT_number 10
_symmetry_cell_setting 'monoclinic'
loop_
_space_group_symop_operation_xyz
x,y,z
-x,y,-z
-x,-y,-z
x,-y,z
loop_
_atom_site_type_symbol
_atom_site_label
_atom_site_fract_x
_atom_site_fract_y
_atom_site_fract_z
Si Si1 0.356549 0.803934 0.488528
Si Si2 0.821597 0.680620 0.014745
Si Si3 0.397345 0.000000 0.130990
Si Si4 0.638258 0.808583 0.659775
Si Si5 0.502896 0.687507 0.820474
Si Si6 0.256155 0.000000 0.036521
Si Si7 0.005884 0.685328 0.421480
O O1 0.500000 0.729561 0.500000
O O2 0.380842 0.733938 0.408504
O O3 0.168287 0.758937 0.562506
O O4 0.373590 0.000000 0.482051
O O5 0.776454 0.500000 0.993647
O O6 0.687290 0.719472 0.106553
O O7 0.000000 0.664664 0.000000
O O8 0.835386 0.829255 0.959632
O O9 0.380797 0.168362 0.177786
O O10 0.249453 0.000000 0.116400
O O11 0.563708 0.000000 0.044200
O O12 0.511771 0.708562 0.740010
O O13 0.828456 0.791554 0.639523
O O14 0.585783 0.000000 0.673819
O O15 0.563081 0.500000 0.823872
O O16 0.028651 0.500000 0.387500
O O17 0.000000 0.685027 0.500000
#
# Coordination Sequence:
#
# PCOD8058568 Si02
#       7
#     4   4   2   4   4   2   4
#     4   9  18  32  51  74 101 133 168 209 259 307
#     4   9  18  32  52  77 103 136 175 210 249 303
#     4   9  18  32  48  76 102 126 166 207 255 302
#     4  10  18  31  52  73  99 133 172 215 255 305
#     4  10  19  32  52  75 101 133 170 211 255 305
#     4   9  17  30  52  74 101 129 163 212 252 298
#     4   9  17  29  47  72  96 125 168 208 246 298
#
# _framework density 18.315739000000001
#
# number of rings (size 3 to 8) (size 9 to 14) (size 15 to 20)
#    0.000    2.667    0.833    1.250    0.000    3.667 
#    0.000    3.333    3.667    0.000    0.000    0.000 
#    0.000    0.000    0.000    0.000    0.000    0.000 
#
# Total GULP energy -297348.590028 kJ/mol
# GULP energy per Si atom -12389.524584 kJ/mol
# Density = 1.827405 g / cm^3
# Si number density = 18.315739 Si / 1000 Ang^3
#
#
#
# Elastic Constant Matrix: (Units=GPa)
#
#
# Indices 1 2 3 4 5 6 
#
# 1 103.8107 34.2416 36.6179 0.0000 5.0727 0.0000
# 2 34.2416 116.8762 34.5239 0.0000 10.8081 0.0000
# 3 36.6179 34.5239 68.6820 0.0000 8.8084 0.0000
# 4 0.0000 0.0000 0.0000 22.2907 0.0000 -5.9850
# 5 5.0727 10.8081 8.8084 0.0000 19.6753 0.0000
# 6 0.0000 0.0000 0.0000 -5.9850 0.0000 17.0548
#
#
#
# Elastic Compliance Matrix: (Units=1/GPa)
#
#
# Indices 1 2 3 4 5 6 
#
# 1 0.012233 -0.001974 -0.005585 0.000000 0.000431 0.000000
# 2 -0.001974 0.010593 -0.003810 0.000000 -0.003604 0.000000
# 3 -0.005585 -0.003810 0.020157 0.000000 -0.005491 0.000000
# 4 0.000000 0.000000 0.000000 0.049528 0.000000 0.017381
# 5 0.000431 -0.003604 -0.005491 0.000000 0.055153 0.000000
# 6 0.000000 0.000000 0.000000 0.017381 0.000000 0.064734
#
#
# Mechanical properties :
#
#
# Convention : Reuss Voigt Hill
#
# Bulk Modulus (GPa) = 49.39524 55.57064 52.48294
# Shear Modulus (GPa) = 20.67098 24.06985 22.37042
#
# Velocity S-wave (km/s) = 3.36310 3.62907 3.49861
# Velocity P-wave (km/s) = 6.48906 6.92578 6.71097
#
# Compressibility (1/GPa) = 0.02024486
#
# Stress axis : x y z
#
# Youngs Moduli (GPa) = 81.74580 94.40044 49.61065
#
# Poissons Ratio (x) = 0.18635 0.27708
# Poissons Ratio (y) = 0.16137 0.18902
# Poissons Ratio (z) = 0.45655 0.35967
#
# Static dielectric constant tensor:
#      x y z
#    x 3.394420 0.000000 0.058610 
#    y 0.000000 3.847200 0.000000 
#    z 0.058610 0.000000 3.362760 
# 
# 
# High freq. dielectric constant tensor:
#      x y z
#    x 1.679440 0.000000 -0.005920 
#    y 0.000000 1.724400 0.000000 
#    z -0.005920 0.000000 1.689010 
# 
# From -- ./inp_files/78599.got.cif
#   From: 2010.06.25/outbox.cif.g09.slc.cpg/sg10_40_cif.got.tgz:78599.got - 2010.06.27 22:07:45.
