data_PCOD8058711
_publ_section_title
;
Structure prediction by ZEFSAII (Michael W. Deem and Ramdas Pophale) SiO2 
 PCOD8058711
Probable space group: P 2/M
;
_chemical_formula_sum "Si O2"
_cell_formula_units_Z 32
_cell_length_a 11.100991
_cell_length_b 18.488250
_cell_length_c 10.795754
_cell_angle_alpha 90.000000
_cell_angle_beta 51.406669
_cell_angle_gamma 90.000000
_cell_volume 1731.774113
_symmetry_space_group_name_H-M "P 2/M"
_symmetry_group_IT_number 10
_symmetry_cell_setting 'monoclinic'
loop_
_space_group_symop_operation_xyz
x,y,z
-x,y,-z
-x,-y,-z
x,-y,z
loop_
_atom_site_type_symbol
_atom_site_label
_atom_site_fract_x
_atom_site_fract_y
_atom_site_fract_z
Si Si1 0.577881 0.583172 0.082058
Si Si2 0.741534 0.783117 0.168781
Si Si3 0.430980 0.291221 0.320440
Si Si4 0.121053 0.921033 0.031305
Si Si5 0.335641 0.212575 0.142711
Si Si6 0.855906 0.745837 0.351935
Si Si7 0.040489 0.128028 0.342327
Si Si8 0.158422 0.681069 0.082771
O O1 0.558693 0.500000 0.131125
O O2 0.498813 0.630162 0.241697
O O3 0.500000 0.600134 0.000000
O O4 0.762140 0.601997 0.959284
O O5 0.561055 0.762956 0.289448
O O6 0.811916 0.794282 0.260323
O O7 0.760602 0.854691 0.068747
O O8 0.841231 0.714778 0.055051
O O9 0.344253 0.259118 0.259791
O O10 0.295772 0.297703 0.508942
O O11 0.030849 0.917951 0.221848
O O12 0.203928 0.000000 0.971778
O O13 0.000000 0.914803 0.000000
O O14 0.219858 0.147300 0.237702
O O15 0.280748 0.265559 0.069711
O O16 0.500000 0.179065 0.000000
O O17 0.928281 0.801878 0.404453
O O18 0.985924 0.683620 0.246793
O O19 0.000000 0.088270 0.500000
#
# Coordination Sequence:
#
# PCOD8058711 Si02
#       8
#     4   4   4   4   4   4   4   4
#     4  10  19  34  55  82 115 152 188 223 281 350
#     4  11  19  36  57  81 108 143 195 236 270 336
#     4  11  20  33  56  82 115 142 183 237 289 327
#     4  11  21  36  59  83 114 153 193 233 281 345
#     4  11  16  30  51  82 101 141 183 227 280 325
#     4  11  21  32  54  88 108 137 192 233 291 325
#     4  11  21  33  55  84 117 144 177 247 287 335
#     4  10  18  31  57  77 108 137 186 238 266 324
#
# _framework density 18.478159000000002
#
# number of rings (size 3 to 8) (size 9 to 14) (size 15 to 20)
#    0.000    1.250    8.750    0.750    0.000    0.250 
#    0.000    0.625    0.000   19.125    0.000    0.000 
#    0.000    0.000    0.000    0.000    0.000    0.000 
#
# Total GULP energy -396494.163036 kJ/mol
# GULP energy per Si atom -12390.442595 kJ/mol
# Density = 1.843610 g / cm^3
# Si number density = 18.478159 Si / 1000 Ang^3
#
#
#
# Elastic Constant Matrix: (Units=GPa)
#
#
# Indices 1 2 3 4 5 6 
#
# 1 73.8030 29.8909 46.8961 0.0000 -4.5376 0.0000
# 2 29.8909 89.5390 37.2834 0.0000 -7.0267 0.0000
# 3 46.8961 37.2834 120.2783 0.0000 -7.9354 0.0000
# 4 0.0000 0.0000 0.0000 12.8427 0.0000 -17.1221
# 5 -4.5376 -7.0267 -7.9354 0.0000 37.1220 0.0000
# 6 0.0000 0.0000 0.0000 -17.1221 0.0000 -46.1615
#
#
#
# Elastic Compliance Matrix: (Units=1/GPa)
#
#
# Indices 1 2 3 4 5 6 
#
# 1 0.019052 -0.003735 -0.006252 0.000000 0.000285 0.000000
# 2 -0.003735 0.013650 -0.002672 0.000000 0.001556 0.000000
# 3 -0.006252 -0.002672 0.011661 0.000000 0.001223 0.000000
# 4 0.000000 0.000000 0.000000 0.052101 0.000000 -0.019325
# 5 0.000285 0.001556 0.001223 0.000000 0.027529 0.000000
# 6 0.000000 0.000000 0.000000 -0.019325 0.000000 -0.014495
#
#
# Mechanical properties :
#
#
# Convention : Reuss Voigt Hill
#
# Bulk Modulus (GPa) = 52.50704 56.86233 54.68468
# Shear Modulus (GPa) = 35.41983 12.06396 23.74189
#
# Velocity S-wave (km/s) = 4.38293 2.55792 3.58839
# Velocity P-wave (km/s) = 7.35465 6.28995 6.84304
#
# Compressibility (1/GPa) = 0.01904507
#
# Stress axis : x y z
#
# Youngs Moduli (GPa) = 52.48698 73.26053 85.75806
#
# Poissons Ratio (x) = 0.27360 0.53616
# Poissons Ratio (y) = 0.19602 0.22918
# Poissons Ratio (z) = 0.32815 0.19578
#
# Static dielectric constant tensor:
#      x y z
#    x 3.561120 0.000000 0.073800 
#    y 0.000000 3.174150 0.000000 
#    z 0.073800 0.000000 3.548560 
# 
# 
# High freq. dielectric constant tensor:
#      x y z
#    x 1.730260 0.000000 0.008090 
#    y 0.000000 1.670680 0.000000 
#    z 0.008090 0.000000 1.716590 
# 
# From -- ./inp_files/47817.got.cif
#   From: 2010.06.25/outbox.cif.g09.slc.cpg/sg10_24_cif.got.tgz:47817.got - 2010.06.27 22:07:45.
