data_PCOD8058419
_publ_section_title
;
Structure prediction by ZEFSAII (Michael W. Deem and Ramdas Pophale) SiO2 
 PCOD8058419
Probable space group: P 2/M
;
_chemical_formula_sum "Si O2"
_cell_formula_units_Z 24
_cell_length_a 23.830556
_cell_length_b 13.119726
_cell_length_c 18.814935
_cell_angle_alpha 90.000000
_cell_angle_beta 14.345993
_cell_angle_gamma 90.000000
_cell_volume 1457.546052
_symmetry_space_group_name_H-M "P 2/M"
_symmetry_group_IT_number 10
_symmetry_cell_setting 'monoclinic'
loop_
_space_group_symop_operation_xyz
x,y,z
-x,y,-z
-x,-y,-z
x,-y,z
loop_
_atom_site_type_symbol
_atom_site_label
_atom_site_fract_x
_atom_site_fract_y
_atom_site_fract_z
Si Si1 0.205981 0.620309 0.293503
Si Si2 0.970775 0.733229 0.206649
Si Si3 0.274917 0.615003 0.731746
Si Si4 0.231558 0.203777 0.681019
Si Si5 0.287158 0.620551 0.353156
Si Si6 0.626313 0.883624 0.273095
O O1 0.188280 0.500000 0.311835
O O2 0.190113 0.653554 0.395269
O O3 0.000000 0.669294 0.500000
O O4 0.449381 0.652696 0.963113
O O5 0.790650 0.790953 0.377039
O O6 0.852112 0.684223 0.419409
O O7 0.072355 0.644399 0.032934
O O8 0.158062 0.812562 0.004654
O O9 0.500000 0.629080 0.500000
O O10 0.241959 0.500000 0.745178
O O11 0.280820 0.685203 0.654696
O O12 0.442580 0.129207 0.435971
O O13 0.000000 0.158662 0.000000
O O14 0.255949 0.500000 0.404040
O O15 0.500000 0.848632 0.500000
O O16 0.709030 0.000000 0.175569
#
# Coordination Sequence:
#
# PCOD8058419 Si02
#       6
#     4   4   4   4   4   4
#     4   8  15  31  50  70  99 134 164 191 234 286
#     4  11  20  32  49  73  99 126 166 207 244 291
#     4  10  18  31  46  62  97 140 167 193 232 278
#     4  10  19  33  47  68  93 126 170 206 241 288
#     4   9  18  30  48  75 105 132 161 197 233 284
#     4  11  21  36  52  68  93 127 170 217 260 292
#
# _framework density 16.466031999999998
#
# number of rings (size 3 to 8) (size 9 to 14) (size 15 to 20)
#    0.000    2.167    5.000    1.500    0.000    6.000 
#    0.000    0.000    0.000    0.000    0.000    2.333 
#    0.000    6.667    0.000    0.000    0.000    0.000 
#
# Total GULP energy -297519.425380 kJ/mol
# GULP energy per Si atom -12396.642724 kJ/mol
# Density = 1.642855 g / cm^3
# Si number density = 16.466032 Si / 1000 Ang^3
#
#
#
# Elastic Constant Matrix: (Units=GPa)
#
#
# Indices 1 2 3 4 5 6 
#
# 1 101.5845 23.8869 62.2895 0.0000 -12.4827 0.0000
# 2 23.8869 55.9859 36.1997 0.0000 2.8338 0.0000
# 3 62.2895 36.1997 87.8152 0.0000 -7.2875 0.0000
# 4 0.0000 0.0000 0.0000 13.7632 0.0000 7.0559
# 5 -12.4827 2.8338 -7.2875 0.0000 34.8878 0.0000
# 6 0.0000 0.0000 0.0000 7.0559 0.0000 -1.6770
#
#
#
# Elastic Compliance Matrix: (Units=1/GPa)
#
#
# Indices 1 2 3 4 5 6 
#
# 1 0.017910 0.000244 -0.012491 0.000000 0.003779 0.000000
# 2 0.000244 0.024960 -0.010810 0.000000 -0.004198 0.000000
# 3 -0.012491 -0.010810 0.024837 0.000000 0.001597 0.000000
# 4 0.000000 0.000000 0.000000 0.023014 0.000000 0.096833
# 5 0.003779 -0.004198 0.001597 0.000000 0.030690 0.000000
# 6 0.000000 0.000000 0.000000 0.096833 0.000000 -0.188881
#
#
# Mechanical properties :
#
#
# Convention : Reuss Voigt Hill
#
# Bulk Modulus (GPa) = 46.31479 54.45973 50.38726
# Shear Modulus (GPa) = -353.19186 17.59543 -167.79821
#
# Velocity S-wave (km/s) = -14.66161 3.27248 -10.10579
# Velocity P-wave (km/s) = 16.07572 6.88655 10.27142
#
# Compressibility (1/GPa) = 0.02159137
#
# Stress axis : x y z
#
# Youngs Moduli (GPa) = 55.83345 40.06398 40.26310
#
# Poissons Ratio (x) = -0.00976 0.50293
# Poissons Ratio (y) = -0.01360 0.43526
# Poissons Ratio (z) = 0.69742 0.43311
#
# Static dielectric constant tensor:
#      x y z
#    x 3.340320 0.000000 -0.424790 
#    y 0.000000 2.841540 0.000000 
#    z -0.424790 0.000000 3.178370 
# 
# 
# High freq. dielectric constant tensor:
#      x y z
#    x 1.634650 0.000000 -0.030500 
#    y 0.000000 1.602570 0.000000 
#    z -0.030500 0.000000 1.622750 
# 
# From -- ./inp_files/67518.got.cif
#   From: 2010.06.25/outbox.cif.g09.slc.cpg/sg10_34_cif.got.tgz:67518.got - 2010.06.27 22:07:45.
