data_PCOD8058932
_publ_section_title
;
Structure prediction by ZEFSAII (Michael W. Deem and Ramdas Pophale) SiO2 
 PCOD8058932
Probable space group: P 2/M
;
_chemical_formula_sum "Si O2"
_cell_formula_units_Z 32
_cell_length_a 10.825471
_cell_length_b 8.586923
_cell_length_c 19.555030
_cell_angle_alpha 90.000000
_cell_angle_beta 121.943340
_cell_angle_gamma 90.000000
_cell_volume 1542.522155
_symmetry_space_group_name_H-M "P 2/M"
_symmetry_group_IT_number 10
_symmetry_cell_setting 'monoclinic'
loop_
_space_group_symop_operation_xyz
x,y,z
-x,y,-z
-x,-y,-z
x,-y,z
loop_
_atom_site_type_symbol
_atom_site_label
_atom_site_fract_x
_atom_site_fract_y
_atom_site_fract_z
Si Si1 0.200764 0.682797 0.680557
Si Si2 0.081009 0.319498 0.836711
Si Si3 0.658778 0.179776 0.146692
Si Si4 0.122659 0.831595 0.984340
Si Si5 0.515633 0.682352 0.307648
Si Si6 0.932816 0.817277 0.661086
Si Si7 0.619678 0.317890 0.591815
Si Si8 0.607475 0.317993 0.872293
O O1 0.207246 0.500000 0.701439
O O2 0.268113 0.787728 0.759251
O O3 0.307680 0.716056 0.646565
O O4 0.030343 0.735893 0.628336
O O5 0.044553 0.500000 0.817676
O O6 0.254029 0.282968 0.883063
O O7 0.039834 0.259265 0.899294
O O8 0.993139 0.226620 0.753402
O O9 0.492376 0.233022 0.100480
O O10 0.670827 0.000000 0.130605
O O11 0.191545 0.000000 0.981318
O O12 0.231424 0.719213 0.056946
O O13 0.000000 0.876437 0.000000
O O14 0.492206 0.500000 0.306479
O O15 0.443413 0.754440 0.355142
O O16 0.429684 0.745145 0.215274
O O17 0.765982 0.764841 0.608995
O O18 0.942241 0.000000 0.652376
O O19 0.500000 0.284348 0.500000
O O20 0.653622 0.500000 0.609398
O O21 0.574902 0.500000 0.864825
#
# Coordination Sequence:
#
# PCOD8058932 Si02
#       8
#     4   4   4   4   4   4   4   4
#     4   9  16  32  57  85 114 148 193 241 287 343
#     4  11  22  38  60  84 111 149 194 235 283 337
#     4  10  18  32  55  83 114 144 183 235 292 339
#     4  11  25  41  54  77 115 149 191 241 289 335
#     4   8  17  34  59  88 115 147 192 244 288 339
#     4  11  22  37  59  87 120 155 193 238 293 350
#     4  10  21  39  62  89 119 153 194 240 289 347
#     4  10  20  36  57  82 111 148 194 236 283 339
#
# _framework density 20.745246000000002
#
# number of rings (size 3 to 8) (size 9 to 14) (size 15 to 20)
#    0.000    2.000    0.000    6.750    1.750    1.750 
#    0.000    6.250    0.000    3.750    0.000    0.000 
#    0.000    0.000    0.000    0.000    0.000    0.000 
#
# Total GULP energy -396481.831421 kJ/mol
# GULP energy per Si atom -12390.057232 kJ/mol
# Density = 2.069803 g / cm^3
# Si number density = 20.745246 Si / 1000 Ang^3
#
#
#
# Elastic Constant Matrix: (Units=GPa)
#
#
# Indices 1 2 3 4 5 6 
#
# 1 85.3554 18.7046 13.0833 0.0000 21.8172 0.0000
# 2 18.7046 80.6357 18.4159 0.0000 8.1863 0.0000
# 3 13.0833 18.4159 46.8275 0.0000 12.1293 0.0000
# 4 0.0000 0.0000 0.0000 18.0886 0.0000 9.3531
# 5 21.8172 8.1863 12.1293 0.0000 24.8862 0.0000
# 6 0.0000 0.0000 0.0000 9.3531 0.0000 24.7284
#
#
#
# Elastic Compliance Matrix: (Units=1/GPa)
#
#
# Indices 1 2 3 4 5 6 
#
# 1 0.015499 -0.002269 -0.000128 0.000000 -0.012779 0.000000
# 2 -0.002269 0.014058 -0.004821 0.000000 -0.000286 0.000000
# 3 -0.000128 -0.004821 0.026148 0.000000 -0.011046 0.000000
# 4 0.000000 0.000000 0.000000 0.068724 0.000000 -0.025994
# 5 -0.012779 -0.000286 -0.011046 0.000000 0.056864 0.000000
# 6 0.000000 0.000000 0.000000 -0.025994 0.000000 0.050271
#
#
# Mechanical properties :
#
#
# Convention : Reuss Voigt Hill
#
# Bulk Modulus (GPa) = 24.23086 34.80290 29.51688
# Shear Modulus (GPa) = 19.24899 24.38163 21.81531
#
# Velocity S-wave (km/s) = 3.04941 3.43197 3.24633
# Velocity P-wave (km/s) = 4.90959 5.70239 5.32078
#
# Compressibility (1/GPa) = 0.04126968
#
# Stress axis : x y z
#
# Youngs Moduli (GPa) = 64.52110 71.13567 38.24426
#
# Poissons Ratio (x) = 0.16138 0.00490
# Poissons Ratio (y) = 0.14637 0.18436
# Poissons Ratio (z) = 0.00827 0.34291
#
# Static dielectric constant tensor:
#      x y z
#    x 4.400130 0.000000 -0.022810 
#    y 0.000000 3.603010 0.000000 
#    z -0.022810 0.000000 3.445830 
# 
# 
# High freq. dielectric constant tensor:
#      x y z
#    x 1.828400 0.000000 0.004540 
#    y 0.000000 1.805470 0.000000 
#    z 0.004540 0.000000 1.775700 
# 
# From -- ./inp_files/83632.got.cif
#   From: 2010.06.25/outbox.cif.g09.slc.cpg/sg10_42_cif.got.tgz:83632.got - 2010.06.27 22:07:45.
