data_PCOD8058362
_publ_section_title
;
Structure prediction by ZEFSAII (Michael W. Deem and Ramdas Pophale) SiO2 
 PCOD8058362
Probable space group: P 2/M
;
_chemical_formula_sum "Si O2"
_cell_formula_units_Z 30
_cell_length_a 22.148834
_cell_length_b 14.622466
_cell_length_c 14.053924
_cell_angle_alpha 90.000000
_cell_angle_beta 159.600618
_cell_angle_gamma 90.000000
_cell_volume 1586.532782
_symmetry_space_group_name_H-M "P 2/M"
_symmetry_group_IT_number 10
_symmetry_cell_setting 'monoclinic'
loop_
_space_group_symop_operation_xyz
x,y,z
-x,y,-z
-x,-y,-z
x,-y,z
loop_
_atom_site_type_symbol
_atom_site_label
_atom_site_fract_x
_atom_site_fract_y
_atom_site_fract_z
Si Si1 0.706687 0.098732 0.515588
Si Si2 0.251385 0.696996 0.860084
Si Si3 0.309119 0.101293 0.919608
Si Si4 0.000000 0.232904 0.000000
Si Si5 0.305472 0.160306 0.707752
Si Si6 0.953061 0.605582 0.296852
Si Si7 0.461454 0.396328 0.833193
Si Si8 0.901331 0.325309 0.670271
O O1 0.824564 0.174052 0.739606
O O2 0.724833 0.097456 0.428375
O O3 0.768202 0.000000 0.644183
O O4 0.506632 0.114333 0.244782
O O5 0.217538 0.806587 0.823389
O O6 0.224062 0.651842 0.924226
O O7 0.113782 0.653583 0.585308
O O8 0.438542 0.674098 0.089707
O O9 0.277652 0.099170 0.759806
O O10 0.242489 0.000000 0.857925
O O11 0.016467 0.292225 0.928865
O O12 0.172190 0.243970 0.504464
O O13 0.500000 0.201748 0.000000
O O14 0.951142 0.500000 0.320991
O O15 0.973138 0.615983 0.212609
O O16 0.513816 0.500000 0.882938
O O17 0.256142 0.382762 0.516365
O O18 0.500000 0.376906 0.000000
#
# Coordination Sequence:
#
# PCOD8058362 Si02
#       8
#     4   4   4   2   4   4   4   4
#     4   9  17  29  49  76 107 143 187 226 262 316
#     4  11  20  34  53  81 115 144 173 214 267 338
#     4  10  18  30  52  79 107 142 178 218 270 325
#     4  10  21  32  51  76 110 150 184 226 278 308
#     4   9  15  27  46  76 109 141 169 214 269 321
#     4  11  22  36  54  78 110 148 180 214 270 333
#     4  11  19  31  55  84 108 135 175 227 276 322
#     4  11  20  34  54  78 111 144 181 224 271 316
#
# _framework density 18.909158999999999
#
# number of rings (size 3 to 8) (size 9 to 14) (size 15 to 20)
#    0.000    1.733    2.667    5.400    0.000    1.600 
#    0.000    2.667    0.000    3.200    0.000    6.533 
#    0.000    0.000    0.000    0.000    0.000    0.000 
#
# Total GULP energy -371719.968583 kJ/mol
# GULP energy per Si atom -12390.665619 kJ/mol
# Density = 1.886612 g / cm^3
# Si number density = 18.909159 Si / 1000 Ang^3
#
#
#
# Elastic Constant Matrix: (Units=GPa)
#
#
# Indices 1 2 3 4 5 6 
#
# 1 97.7191 42.6836 34.7620 0.0000 11.0559 0.0000
# 2 42.6836 146.1510 25.8001 0.0000 2.4610 0.0000
# 3 34.7620 25.8001 62.8395 0.0000 -12.3367 0.0000
# 4 0.0000 0.0000 0.0000 19.2022 0.0000 4.1408
# 5 11.0559 2.4610 -12.3367 0.0000 23.4944 0.0000
# 6 0.0000 0.0000 0.0000 4.1408 0.0000 17.8954
#
#
#
# Elastic Compliance Matrix: (Units=1/GPa)
#
#
# Indices 1 2 3 4 5 6 
#
# 1 0.016760 -0.002778 -0.010728 0.000000 -0.013229 0.000000
# 2 -0.002778 0.007987 -0.001839 0.000000 -0.000495 0.000000
# 3 -0.010728 -0.001839 0.026348 0.000000 0.019076 0.000000
# 4 0.000000 0.000000 0.000000 0.054812 0.000000 -0.012683
# 5 -0.013229 -0.000495 0.019076 0.000000 0.058857 0.000000
# 6 0.000000 0.000000 0.000000 -0.012683 0.000000 0.058815
#
#
# Mechanical properties :
#
#
# Convention : Reuss Voigt Hill
#
# Bulk Modulus (GPa) = 49.01004 57.02234 53.01619
# Shear Modulus (GPa) = 19.15186 25.68267 22.41726
#
# Velocity S-wave (km/s) = 3.18596 3.68939 3.44688
# Velocity P-wave (km/s) = 6.28560 6.95487 6.62869
#
# Compressibility (1/GPa) = 0.02040398
#
# Stress axis : x y z
#
# Youngs Moduli (GPa) = 59.66633 125.20866 37.95316
#
# Poissons Ratio (x) = 0.34786 0.40715
# Poissons Ratio (y) = 0.16577 0.06981
# Poissons Ratio (z) = 0.64009 0.23031
#
# Static dielectric constant tensor:
#      x y z
#    x 3.583970 0.000000 0.188420 
#    y 0.000000 3.682930 0.000000 
#    z 0.188420 0.000000 3.264940 
# 
# 
# High freq. dielectric constant tensor:
#      x y z
#    x 1.705900 0.000000 0.008160 
#    y 0.000000 1.755140 0.000000 
#    z 0.008160 0.000000 1.695490 
# 
# From -- ./inp_files/71913.got.cif
#   From: 2010.06.25/outbox.cif.g09.slc.cpg/sg10_36_cif.got.tgz:71913.got - 2010.06.27 22:07:45.
