data_PCOD8058702
_publ_section_title
;
Structure prediction by ZEFSAII (Michael W. Deem and Ramdas Pophale) SiO2 
 PCOD8058702
Probable space group: P 2/M
;
_chemical_formula_sum "Si O2"
_cell_formula_units_Z 28
_cell_length_a 15.443164
_cell_length_b 9.028637
_cell_length_c 12.496095
_cell_angle_alpha 90.000000
_cell_angle_beta 51.558847
_cell_angle_gamma 90.000000
_cell_volume 1364.682419
_symmetry_space_group_name_H-M "P 2/M"
_symmetry_group_IT_number 10
_symmetry_cell_setting 'monoclinic'
loop_
_space_group_symop_operation_xyz
x,y,z
-x,y,-z
-x,-y,-z
x,-y,z
loop_
_atom_site_type_symbol
_atom_site_label
_atom_site_fract_x
_atom_site_fract_y
_atom_site_fract_z
Si Si1 0.392414 0.170877 0.861177
Si Si2 0.642421 0.828690 0.709677
Si Si3 0.775364 0.324375 0.427665
Si Si4 0.292521 0.326949 0.756391
Si Si5 0.236740 0.176372 0.171429
Si Si6 0.902182 0.836613 0.007016
Si Si7 0.002286 0.163378 0.297748
O O1 0.511555 0.192020 0.823489
O O2 0.394577 0.251912 0.742200
O O3 0.365971 0.000000 0.858086
O O4 0.300680 0.234593 0.015664
O O5 0.683232 0.731786 0.579222
O O6 0.699139 0.766027 0.773297
O O7 0.673186 0.000000 0.665496
O O8 0.781692 0.500000 0.422192
O O9 0.736644 0.265847 0.339942
O O10 0.895698 0.267230 0.372884
O O11 0.314198 0.500000 0.734966
O O12 0.193930 0.282820 0.911668
O O13 0.107375 0.229501 0.283966
O O14 0.239903 0.000000 0.165121
O O15 0.867477 0.000000 0.079014
O O16 0.940781 0.857357 0.858676
O O17 0.000000 0.766087 0.000000
O O18 0.965597 0.000000 0.368881
#
# Coordination Sequence:
#
# PCOD8058702 Si02
#       7
#     4   4   4   4   4   4   4
#     4  10  20  38  64  91 115 143 188 244 295 340
#     4  10  22  40  63  86 112 151 197 240 283 340
#     4  11  25  41  55  79 121 163 195 231 280 341
#     4  11  23  36  55  84 118 156 192 232 285 345
#     4   9  18  36  63  93 117 141 182 241 298 340
#     4  10  18  31  55  86 116 147 185 238 291 337
#     4  10  19  34  60  89 117 148 186 234 288 344
#
# _framework density 20.517593000000002
#
# number of rings (size 3 to 8) (size 9 to 14) (size 15 to 20)
#    0.000    1.857    2.857    1.286    0.000    6.000 
#    0.000    7.143    0.000    1.714    0.000    0.000 
#    0.000    0.000    0.000    0.000    0.000    0.000 
#
# Total GULP energy -346929.566596 kJ/mol
# GULP energy per Si atom -12390.341664 kJ/mol
# Density = 2.047089 g / cm^3
# Si number density = 20.517593 Si / 1000 Ang^3
#
#
#
# Elastic Constant Matrix: (Units=GPa)
#
#
# Indices 1 2 3 4 5 6 
#
# 1 127.6715 25.7811 18.5413 0.0000 14.1197 0.0000
# 2 25.7811 51.5303 21.3934 0.0000 4.1700 0.0000
# 3 18.5413 21.3934 64.7689 0.0000 3.0702 0.0000
# 4 0.0000 0.0000 0.0000 -28.8350 0.0000 49.8380
# 5 14.1197 4.1700 3.0702 0.0000 26.0734 0.0000
# 6 0.0000 0.0000 0.0000 49.8380 0.0000 -28.0700
#
#
#
# Elastic Compliance Matrix: (Units=1/GPa)
#
#
# Indices 1 2 3 4 5 6 
#
# 1 0.009241 -0.003783 -0.001194 0.000000 -0.004259 0.000000
# 2 -0.003783 0.024235 -0.006874 0.000000 -0.001018 0.000000
# 3 -0.001194 -0.006874 0.018070 0.000000 -0.000382 0.000000
# 4 0.000000 0.000000 0.000000 0.016764 0.000000 0.029764
# 5 -0.004259 -0.001018 -0.000382 0.000000 0.040867 0.000000
# 6 0.000000 0.000000 0.000000 0.029764 0.000000 0.017221
#
#
# Mechanical properties :
#
#
# Convention : Reuss Voigt Hill
#
# Bulk Modulus (GPa) = 35.91405 41.71137 38.81271
# Shear Modulus (GPa) = 31.37157 5.71735 18.54446
#
# Velocity S-wave (km/s) = 3.91450 1.67111 3.00964
# Velocity P-wave (km/s) = 6.16223 4.90889 5.57092
#
# Compressibility (1/GPa) = 0.02784426
#
# Stress axis : x y z
#
# Youngs Moduli (GPa) = 108.21467 41.26303 55.34093
#
# Poissons Ratio (x) = 0.15610 0.06608
# Poissons Ratio (y) = 0.40938 0.38039
# Poissons Ratio (z) = 0.12920 0.28363
#
# Static dielectric constant tensor:
#      x y z
#    x 4.038440 0.000000 0.165530 
#    y 0.000000 3.428250 0.000000 
#    z 0.165530 0.000000 3.568910 
# 
# 
# High freq. dielectric constant tensor:
#      x y z
#    x 1.831390 0.000000 0.006230 
#    y 0.000000 1.762370 0.000000 
#    z 0.006230 0.000000 1.786830 
# 
# From -- ./inp_files/49641.got.cif
#   From: 2010.06.25/outbox.cif.g09.slc.cpg/sg10_25_cif.got.tgz:49641.got - 2010.06.27 22:07:45.
