data_PCOD8058112
_publ_section_title
;
Structure prediction by ZEFSAII (Michael W. Deem and Ramdas Pophale) SiO2 
 PCOD8058112
Probable space group: P 2/M
;
_chemical_formula_sum "Si O2"
_cell_formula_units_Z 32
_cell_length_a 12.558708
_cell_length_b 9.161077
_cell_length_c 23.826993
_cell_angle_alpha 90.000000
_cell_angle_beta 46.633203
_cell_angle_gamma 90.000000
_cell_volume 1992.869433
_symmetry_space_group_name_H-M "P 2/M"
_symmetry_group_IT_number 10
_symmetry_cell_setting 'monoclinic'
loop_
_space_group_symop_operation_xyz
x,y,z
-x,y,-z
-x,-y,-z
x,-y,z
loop_
_atom_site_type_symbol
_atom_site_label
_atom_site_fract_x
_atom_site_fract_y
_atom_site_fract_z
Si Si1 0.559181 0.171031 0.594431
Si Si2 0.889946 0.826917 0.993781
Si Si3 0.881625 0.172705 0.171197
Si Si4 0.601112 0.329056 0.694942
Si Si5 0.060834 0.329673 0.418278
Si Si6 0.839995 0.827012 0.421648
Si Si7 0.351215 0.171680 0.840019
Si Si8 0.243224 0.827551 0.669470
O O1 0.555014 0.257728 0.653464
O O2 0.698024 0.221145 0.508149
O O3 0.414629 0.212059 0.611607
O O4 0.563517 0.000000 0.607272
O O5 0.955932 0.773821 0.909502
O O6 0.899125 0.000000 0.992460
O O7 0.725095 0.781996 0.072362
O O8 0.000000 0.761807 0.000000
O O9 0.755993 0.216529 0.172290
O O10 0.845468 0.241092 0.245342
O O11 0.880881 0.000000 0.177336
O O12 0.572951 0.500000 0.701055
O O13 0.768577 0.293343 0.648412
O O14 0.501784 0.260948 0.780325
O O15 0.026596 0.500000 0.424172
O O16 0.000000 0.272556 0.500000
O O17 0.983449 0.244701 0.395968
O O18 0.821511 0.765117 0.365152
O O19 0.858534 0.000000 0.415674
O O20 0.386162 0.000000 0.826101
O O21 0.224969 0.000000 0.675565
#
# Coordination Sequence:
#
# PCOD8058112 Si02
#       8
#     4   4   4   4   4   4   4   4
#     4  10  18  30  47  67  93 122 149 179 222 270
#     4   7  11  19  36  64  92 117 147 175 206 262
#     4   8  12  21  41  67  94 122 146 172 213 267
#     4  11  21  31  46  66  88 118 155 190 226 267
#     4  10  21  37  50  60  84 121 155 190 233 272
#     4  10  20  31  48  71  91 115 153 194 223 260
#     4   9  15  26  44  67  92 118 148 183 221 264
#     4   9  16  27  44  70  99 122 145 178 223 267
#
# _framework density 16.057248000000001
#
# number of rings (size 3 to 8) (size 9 to 14) (size 15 to 20)
#    0.000    2.750    2.500    2.250    0.000    2.750 
#    0.000    0.625    0.000    4.875    0.000    0.875 
#    0.000    7.000    0.000    0.000    0.000    0.000 
#
# Total GULP energy -396491.725067 kJ/mol
# GULP energy per Si atom -12390.366408 kJ/mol
# Density = 1.602070 g / cm^3
# Si number density = 16.057248 Si / 1000 Ang^3
#
#
#
# Elastic Constant Matrix: (Units=GPa)
#
#
# Indices 1 2 3 4 5 6 
#
# 1 77.0309 22.4435 39.5564 0.0000 -6.6990 0.0000
# 2 22.4435 25.3109 26.3489 0.0000 -8.4101 0.0000
# 3 39.5564 26.3489 130.5707 0.0000 -18.0359 0.0000
# 4 0.0000 0.0000 0.0000 12.3095 0.0000 -4.6411
# 5 -6.6990 -8.4101 -18.0359 0.0000 14.5502 0.0000
# 6 0.0000 0.0000 0.0000 -4.6411 0.0000 2.8297
#
#
#
# Elastic Compliance Matrix: (Units=1/GPa)
#
#
# Indices 1 2 3 4 5 6 
#
# 1 0.018471 -0.014254 -0.003237 0.000000 -0.003747 0.000000
# 2 -0.014254 0.066228 -0.005629 0.000000 0.024740 0.000000
# 3 -0.003237 -0.005629 0.011004 0.000000 0.008896 0.000000
# 4 0.000000 0.000000 0.000000 0.212882 0.000000 0.349155
# 5 -0.003747 0.024740 0.008896 0.000000 0.092330 0.000000
# 6 0.000000 0.000000 0.000000 0.349155 0.000000 0.926053
#
#
# Mechanical properties :
#
#
# Convention : Reuss Voigt Hill
#
# Bulk Modulus (GPa) = 20.21699 45.51223 32.86461
# Shear Modulus (GPa) = 3.59791 15.57546 9.58669
#
# Velocity S-wave (km/s) = 1.49851 3.11785 2.44607
# Velocity P-wave (km/s) = 3.95120 6.43169 5.33754
#
# Compressibility (1/GPa) = 0.04946335
#
# Stress axis : x y z
#
# Youngs Moduli (GPa) = 54.13849 15.09933 90.87478
#
# Poissons Ratio (x) = 0.21522 0.29416
# Poissons Ratio (y) = 0.77168 0.51155
# Poissons Ratio (z) = 0.17525 0.08500
#
# Static dielectric constant tensor:
#      x y z
#    x 2.843620 0.000000 0.036370 
#    y 0.000000 2.685620 0.000000 
#    z 0.036370 0.000000 3.652320 
# 
# 
# High freq. dielectric constant tensor:
#      x y z
#    x 1.579740 0.000000 -0.006350 
#    y 0.000000 1.578200 0.000000 
#    z -0.006350 0.000000 1.635730 
# 
# From -- ./inp_files/52756.got.cif
#   From: 2010.06.25/outbox.cif.g09.slc.cpg/sg10_27_cif.got.tgz:52756.got - 2010.06.27 22:07:45.
