data_PCOD8058468
_publ_section_title
;
Structure prediction by ZEFSAII (Michael W. Deem and Ramdas Pophale) SiO2 
 PCOD8058468
Probable space group: P 2/M
;
_chemical_formula_sum "Si O2"
_cell_formula_units_Z 32
_cell_length_a 13.961374
_cell_length_b 9.454443
_cell_length_c 14.814393
_cell_angle_alpha 90.000000
_cell_angle_beta 91.897874
_cell_angle_gamma 90.000000
_cell_volume 1954.382976
_symmetry_space_group_name_H-M "P 2/M"
_symmetry_group_IT_number 10
_symmetry_cell_setting 'monoclinic'
loop_
_space_group_symop_operation_xyz
x,y,z
-x,y,-z
-x,-y,-z
x,-y,z
loop_
_atom_site_type_symbol
_atom_site_label
_atom_site_fract_x
_atom_site_fract_y
_atom_site_fract_z
Si Si1 0.800896 0.165689 0.485767
Si Si2 0.174666 0.841325 0.803670
Si Si3 0.898359 0.338827 0.735661
Si Si4 0.028739 0.333231 0.901972
Si Si5 0.031673 0.155230 0.631904
Si Si6 0.524776 0.833495 0.604175
Si Si7 0.713122 0.336152 0.640008
Si Si8 0.671441 0.833117 0.320329
O O1 0.911956 0.188592 0.459821
O O2 0.780398 0.267446 0.567451
O O3 0.729537 0.225414 0.407306
O O4 0.780167 0.000000 0.507205
O O5 0.129165 0.739488 0.877538
O O6 0.110701 0.842206 0.712475
O O7 0.279863 0.783022 0.773317
O O8 0.182340 0.000000 0.844410
O O9 0.928393 0.500000 0.722846
O O10 0.782048 0.322249 0.731148
O O11 0.942717 0.285299 0.832014
O O12 0.945464 0.259830 0.651579
O O13 0.046124 0.500000 0.901454
O O14 0.000000 0.279388 0.000000
O O15 0.984574 0.000000 0.623943
O O16 0.500000 0.790462 0.500000
O O17 0.614882 0.749033 0.646338
O O18 0.439267 0.789320 0.669792
O O19 0.547139 0.000000 0.608788
O O20 0.690073 0.500000 0.618308
O O21 0.682679 0.000000 0.322685
#
# Coordination Sequence:
#
# PCOD8058468 Si02
#       8
#     4   4   4   4   4   4   4   4
#     4   9  16  29  45  61  83 116 156 190 219 255
#     4   8  14  26  45  69  94 114 137 176 224 268
#     4   9  19  33  44  59  90 122 143 175 227 274
#     4   9  17  31  51  71  90 115 147 178 213 268
#     4   8  15  27  45  64  83 112 152 189 214 250
#     4  10  18  31  50  65  82 117 160 197 226 256
#     4  11  22  31  40  60  90 120 150 187 228 265
#     4   8  14  27  46  65  86 115 150 186 224 259
#
# _framework density 16.373453999999999
#
# number of rings (size 3 to 8) (size 9 to 14) (size 15 to 20)
#    0.000    3.000    1.250    1.875    0.000    2.500 
#    0.000    5.000    0.000    0.000    0.000    0.875 
#    0.000    7.000    0.000    0.000    0.000    0.000 
#
# Total GULP energy -396458.047084 kJ/mol
# GULP energy per Si atom -12389.313971 kJ/mol
# Density = 1.633619 g / cm^3
# Si number density = 16.373454 Si / 1000 Ang^3
#
#
#
# Elastic Constant Matrix: (Units=GPa)
#
#
# Indices 1 2 3 4 5 6 
#
# 1 125.0266 44.8073 50.0003 0.0000 -14.5837 0.0000
# 2 44.8073 53.3781 28.2586 0.0000 -6.5230 0.0000
# 3 50.0003 28.2586 62.3589 0.0000 -18.9111 0.0000
# 4 0.0000 0.0000 0.0000 13.0185 0.0000 -1.6737
# 5 -14.5837 -6.5230 -18.9111 0.0000 21.6967 0.0000
# 6 0.0000 0.0000 0.0000 -1.6737 0.0000 19.5090
#
#
#
# Elastic Compliance Matrix: (Units=1/GPa)
#
#
# Indices 1 2 3 4 5 6 
#
# 1 0.013731 -0.007520 -0.007461 0.000000 0.000466 0.000000
# 2 -0.007520 0.028926 -0.008121 0.000000 -0.003436 0.000000
# 3 -0.007461 -0.008121 0.031858 0.000000 0.020312 0.000000
# 4 0.000000 0.000000 0.000000 0.077670 0.000000 0.006663
# 5 0.000466 -0.003436 0.020312 0.000000 0.063074 0.000000
# 6 0.000000 0.000000 0.000000 0.006663 0.000000 0.051830
#
#
# Mechanical properties :
#
#
# Convention : Reuss Voigt Hill
#
# Bulk Modulus (GPa) = 35.32016 54.09955 44.70986
# Shear Modulus (GPa) = 15.49281 18.69133 17.09207
#
# Velocity S-wave (km/s) = 3.07940 3.38237 3.23443
# Velocity P-wave (km/s) = 5.85338 6.95461 6.42762
#
# Compressibility (1/GPa) = 0.02831244
#
# Stress axis : x y z
#
# Youngs Moduli (GPa) = 72.82591 34.57123 31.38890
#
# Poissons Ratio (x) = 0.25996 0.23420
# Poissons Ratio (y) = 0.54763 0.25490
# Poissons Ratio (z) = 0.54336 0.28074
#
# Static dielectric constant tensor:
#      x y z
#    x 3.337880 0.000000 -0.146790 
#    y 0.000000 2.975470 0.000000 
#    z -0.146790 0.000000 2.937720 
# 
# 
# High freq. dielectric constant tensor:
#      x y z
#    x 1.632650 0.000000 -0.008460 
#    y 0.000000 1.615970 0.000000 
#    z -0.008460 0.000000 1.591200 
# 
# From -- ./inp_files/66058.got.cif
#   From: 2010.06.25/outbox.cif.g09.slc.cpg/sg10_34_cif.got.tgz:66058.got - 2010.06.27 22:07:45.
