data_PCOD8058749
_publ_section_title
;
Structure prediction by ZEFSAII (Michael W. Deem and Ramdas Pophale) SiO2 
 PCOD8058749
Probable space group: P 2/M
;
_chemical_formula_sum "Si O2"
_cell_formula_units_Z 32
_cell_length_a 14.501864
_cell_length_b 17.545440
_cell_length_c 13.730544
_cell_angle_alpha 90.000000
_cell_angle_beta 149.486821
_cell_angle_gamma 90.000000
_cell_volume 1773.839225
_symmetry_space_group_name_H-M "P 2/M"
_symmetry_group_IT_number 10
_symmetry_cell_setting 'monoclinic'
loop_
_space_group_symop_operation_xyz
x,y,z
-x,y,-z
-x,-y,-z
x,-y,z
loop_
_atom_site_type_symbol
_atom_site_label
_atom_site_fract_x
_atom_site_fract_y
_atom_site_fract_z
Si Si1 0.803854 0.216741 0.292631
Si Si2 0.694490 0.296031 0.377789
Si Si3 0.748620 0.848250 0.529978
Si Si4 0.367913 0.911450 0.174249
Si Si5 0.110449 0.909221 0.767791
Si Si6 0.625218 0.346248 0.022528
Si Si7 0.203619 0.085153 0.220104
Si Si8 0.001780 0.414657 0.616501
O O1 0.686633 0.232955 0.282394
O O2 0.818040 0.129082 0.268160
O O3 0.720459 0.265082 0.128618
O O4 0.000000 0.249870 0.500000
O O5 0.711529 0.242789 0.488191
O O6 0.859454 0.355470 0.532919
O O7 0.502662 0.340935 0.190531
O O8 0.573733 0.894322 0.334071
O O9 0.786650 0.861506 0.677622
O O10 0.910310 0.877204 0.607667
O O11 0.321951 0.877882 0.239978
O O12 0.327207 0.000000 0.144394
O O13 0.236922 0.879961 0.970847
O O14 0.110336 0.000000 0.753441
O O15 0.791666 0.404310 0.156136
O O16 0.500000 0.373262 0.000000
O O17 0.273309 0.000000 0.312252
O O18 0.000000 0.079462 0.000000
O O19 0.939691 0.500000 0.588089
O O20 0.000000 0.402426 0.500000
#
# Coordination Sequence:
#
# PCOD8058749 Si02
#       8
#     4   4   4   4   4   4   4   4
#     4  11  18  35  49  65 100 143 180 217 259 293
#     4  11  22  36  52  75 107 140 175 208 254 308
#     4  12  21  33  55  74 100 140 173 213 267 318
#     4  10  21  36  52  74 101 132 176 228 274 314
#     4  11  22  34  48  69  98 136 188 228 260 302
#     4  10  18  32  51  69  97 135 171 207 255 301
#     4  10  19  35  55  76 104 136 172 222 278 317
#     4  11  20  34  55  79 105 135 173 210 249 306
#
# _framework density 18.039967000000001
#
# number of rings (size 3 to 8) (size 9 to 14) (size 15 to 20)
#    0.000    1.250    6.250    2.250    0.000    2.000 
#    0.000    0.000    0.000    4.875    0.000    0.000 
#    0.000    2.500    0.000    0.000    0.000    0.000 
#
# Total GULP energy -396596.625424 kJ/mol
# GULP energy per Si atom -12393.644545 kJ/mol
# Density = 1.799891 g / cm^3
# Si number density = 18.039967 Si / 1000 Ang^3
#
#
#
# Elastic Constant Matrix: (Units=GPa)
#
#
# Indices 1 2 3 4 5 6 
#
# 1 49.5144 32.2666 24.8124 0.0000 -2.3798 0.0000
# 2 32.2666 75.8496 32.7337 0.0000 -9.6306 0.0000
# 3 24.8124 32.7337 107.5507 0.0000 10.3227 0.0000
# 4 0.0000 0.0000 0.0000 14.6076 0.0000 2.0698
# 5 -2.3798 -9.6306 10.3227 0.0000 18.6914 0.0000
# 6 0.0000 0.0000 0.0000 2.0698 0.0000 14.4975
#
#
#
# Elastic Compliance Matrix: (Units=1/GPa)
#
#
# Indices 1 2 3 4 5 6 
#
# 1 0.028969 -0.010878 -0.003367 0.000000 -0.000057 0.000000
# 2 -0.010878 0.021730 -0.005328 0.000000 0.012754 0.000000
# 3 -0.003367 -0.005328 0.012673 0.000000 -0.010173 0.000000
# 4 0.000000 0.000000 0.000000 0.069871 0.000000 -0.009975
# 5 -0.000057 0.012754 -0.010173 0.000000 0.065683 0.000000
# 6 0.000000 0.000000 0.000000 -0.009975 0.000000 0.070402
#
#
# Mechanical properties :
#
#
# Convention : Reuss Voigt Hill
#
# Bulk Modulus (GPa) = 41.27793 45.83778 43.55785
# Shear Modulus (GPa) = 15.79531 19.09943 17.44737
#
# Velocity S-wave (km/s) = 2.96222 3.25734 3.11328
# Velocity P-wave (km/s) = 5.88479 6.29374 6.09270
#
# Compressibility (1/GPa) = 0.02422602
#
# Stress axis : x y z
#
# Youngs Moduli (GPa) = 34.51922 46.01872 78.90867
#
# Poissons Ratio (x) = 0.50058 0.26570
# Poissons Ratio (y) = 0.37549 0.42045
# Poissons Ratio (z) = 0.11623 0.24520
#
# Static dielectric constant tensor:
#      x y z
#    x 3.166170 0.000000 0.049710 
#    y 0.000000 3.201330 0.000000 
#    z 0.049710 0.000000 3.678170 
# 
# 
# High freq. dielectric constant tensor:
#      x y z
#    x 1.655280 0.000000 0.015500 
#    y 0.000000 1.670360 0.000000 
#    z 0.015500 0.000000 1.723900 
# 
# From -- ./inp_files/67749.got.cif
#   From: 2010.06.25/outbox.cif.g09.slc.cpg/sg10_34_cif.got.tgz:67749.got - 2010.06.27 22:07:45.
