data_PCOD8058809
_publ_section_title
;
Structure prediction by ZEFSAII (Michael W. Deem and Ramdas Pophale) SiO2 
 PCOD8058809
Probable space group: P 2/M
;
_chemical_formula_sum "Si O2"
_cell_formula_units_Z 20
_cell_length_a 29.127492
_cell_length_b 9.116148
_cell_length_c 12.484380
_cell_angle_alpha 90.000000
_cell_angle_beta 160.280284
_cell_angle_gamma 90.000000
_cell_volume 1118.539277
_symmetry_space_group_name_H-M "P 2/M"
_symmetry_group_IT_number 10
_symmetry_cell_setting 'monoclinic'
loop_
_space_group_symop_operation_xyz
x,y,z
-x,y,-z
-x,-y,-z
x,-y,z
loop_
_atom_site_type_symbol
_atom_site_label
_atom_site_fract_x
_atom_site_fract_y
_atom_site_fract_z
Si Si1 0.649460 0.830538 0.363123
Si Si2 0.842905 0.669007 0.630235
Si Si3 0.292520 0.172096 0.857925
Si Si4 0.396667 0.167352 0.495755
Si Si5 0.659559 0.665346 0.829109
O O1 0.760114 0.731418 0.548661
O O2 0.668848 0.807506 0.532314
O O3 0.670636 0.000000 0.376051
O O4 0.500000 0.778553 0.000000
O O5 0.803015 0.500000 0.525672
O O6 0.811866 0.757353 0.454236
O O7 0.000000 0.689472 0.000000
O O8 0.265311 0.000000 0.805088
O O9 0.444143 0.209397 0.149959
O O10 0.264160 0.241398 0.912297
O O11 0.313295 0.265719 0.228191
O O12 0.382915 0.000000 0.427416
O O13 0.500000 0.671313 0.500000
O O14 0.715796 0.500000 0.954244
#
# Coordination Sequence:
#
# PCOD8058809 Si02
#       5
#     4   4   4   4   4
#     4  10  19  35  56  80 107 138 178 222 266 313
#     4  11  24  38  52  76 110 145 180 218 265 320
#     4  10  18  32  53  75 103 139 178 219 263 310
#     4   9  17  30  50  77 107 135 170 217 263 311
#     4   9  17  28  45  74 108 138 171 211 260 316
#
# _framework density 17.880465000000001
#
# number of rings (size 3 to 8) (size 9 to 14) (size 15 to 20)
#    0.000    2.200    2.000    1.800    0.000    6.000 
#    0.000    0.000    0.000    1.200    0.000    8.400 
#    0.000    0.000    0.000    0.000    0.000    0.000 
#
# Total GULP energy -248053.852831 kJ/mol
# GULP energy per Si atom -12402.692642 kJ/mol
# Density = 1.783977 g / cm^3
# Si number density = 17.880465 Si / 1000 Ang^3
#
#
#
# Elastic Constant Matrix: (Units=GPa)
#
#
# Indices 1 2 3 4 5 6 
#
# 1 89.7489 58.8785 50.1983 0.0000 -20.6661 0.0000
# 2 58.8785 128.4577 60.4713 0.0000 -17.2808 0.0000
# 3 50.1983 60.4713 67.6195 0.0000 -17.4197 0.0000
# 4 0.0000 0.0000 0.0000 27.3272 0.0000 -3.7433
# 5 -20.6661 -17.2808 -17.4197 0.0000 30.8405 0.0000
# 6 0.0000 0.0000 0.0000 -3.7433 0.0000 10.5719
#
#
#
# Elastic Compliance Matrix: (Units=1/GPa)
#
#
# Indices 1 2 3 4 5 6 
#
# 1 0.020936 -0.003802 -0.010622 0.000000 0.005899 0.000000
# 2 -0.003802 0.014155 -0.009888 0.000000 -0.000201 0.000000
# 3 -0.010622 -0.009888 0.033068 0.000000 0.006019 0.000000
# 4 0.000000 0.000000 0.000000 0.038459 0.000000 0.013618
# 5 0.005899 -0.000201 0.006019 0.000000 0.039665 0.000000
# 6 0.000000 0.000000 0.000000 0.013618 0.000000 0.099412
#
#
# Mechanical properties :
#
#
# Convention : Reuss Voigt Hill
#
# Bulk Modulus (GPa) = 51.19337 69.43583 60.31460
# Shear Modulus (GPa) = 16.62061 21.49977 19.06019
#
# Velocity S-wave (km/s) = 3.05214 3.47135 3.26847
# Velocity P-wave (km/s) = 6.41201 7.41517 6.93176
#
# Compressibility (1/GPa) = 0.01953378
#
# Stress axis : x y z
#
# Youngs Moduli (GPa) = 47.76441 70.64633 30.24093
#
# Poissons Ratio (x) = 0.26860 0.32123
# Poissons Ratio (y) = 0.18160 0.29902
# Poissons Ratio (z) = 0.50738 0.69856
#
# Static dielectric constant tensor:
#      x y z
#    x 3.298730 0.000000 -0.280040 
#    y 0.000000 3.429970 0.000000 
#    z -0.280040 0.000000 3.032190 
# 
# 
# High freq. dielectric constant tensor:
#      x y z
#    x 1.687280 0.000000 -0.033930 
#    y 0.000000 1.701360 0.000000 
#    z -0.033930 0.000000 1.660870 
# 
# From -- ./inp_files/22151.got.cif
#   From: 2010.06.25/outbox.cif.g09.slc.cpg/sg10_12_cif.got.tgz:22151.got - 2010.06.27 22:07:45.
