data_PCOD8058703
_publ_section_title
;
Structure prediction by ZEFSAII (Michael W. Deem and Ramdas Pophale) SiO2 
 PCOD8058703
Probable space group: P 2/M
;
_chemical_formula_sum "Si O2"
_cell_formula_units_Z 32
_cell_length_a 28.132628
_cell_length_b 9.225345
_cell_length_c 11.993567
_cell_angle_alpha 90.000000
_cell_angle_beta 148.883869
_cell_angle_gamma 90.000000
_cell_volume 1608.578505
_symmetry_space_group_name_H-M "P 2/M"
_symmetry_group_IT_number 10
_symmetry_cell_setting 'monoclinic'
loop_
_space_group_symop_operation_xyz
x,y,z
-x,y,-z
-x,-y,-z
x,-y,z
loop_
_atom_site_type_symbol
_atom_site_label
_atom_site_fract_x
_atom_site_fract_y
_atom_site_fract_z
Si Si1 0.199465 0.659556 0.907408
Si Si2 0.108838 0.672523 0.947142
Si Si3 0.396545 0.164103 0.048456
Si Si4 0.753210 0.328459 0.385818
Si Si5 0.601857 0.744942 0.705390
Si Si6 0.899696 0.670769 0.505200
Si Si7 0.598082 0.837379 0.453200
Si Si8 0.762848 0.826149 0.637682
O O1 0.155933 0.500000 0.825856
O O2 0.168003 0.732558 0.960502
O O3 0.153430 0.741121 0.708545
O O4 0.309806 0.639793 0.116343
O O5 0.117126 0.500000 0.983482
O O6 0.004189 0.723642 0.718829
O O7 0.144023 0.755995 0.127287
O O8 0.327915 0.280915 0.859882
O O9 0.379567 0.000000 0.969594
O O10 0.389753 0.154328 0.169201
O O11 0.497903 0.226393 0.220452
O O12 0.745296 0.500000 0.394717
O O13 0.848837 0.286317 0.517645
O O14 0.745581 0.233614 0.480471
O O15 0.500000 0.666787 0.500000
O O16 0.613881 0.837903 0.617590
O O17 0.893224 0.500000 0.478685
O O18 0.679835 0.762015 0.548007
O O19 0.597839 0.000000 0.410032
O O20 0.770761 0.000000 0.652563
#
# Coordination Sequence:
#
# PCOD8058703 Si02
#       8
#     4   4   4   4   4   4   4   4
#     4  10  18  32  56  87 119 150 185 226 279 343
#     4  10  20  37  62  87 111 146 193 237 280 336
#     4  10  20  36  60  87 114 150 192 231 275 335
#     4  11  23  40  59  82 114 149 192 239 285 336
#     4  10  18  31  55  88 120 148 184 225 278 339
#     4   9  19  36  59  84 112 150 190 232 282 339
#     4   9  19  36  57  82 115 153 190 225 274 341
#     4  11  23  40  60  82 113 150 191 238 286 336
#
# _framework density 19.893339000000001
#
# number of rings (size 3 to 8) (size 9 to 14) (size 15 to 20)
#    0.000    2.000    2.500    1.500    0.000    4.250 
#    0.000    9.375    0.000    0.750    0.000    0.000 
#    0.000    0.000    0.000    0.000    0.000    0.000 
#
# Total GULP energy -396484.060559 kJ/mol
# GULP energy per Si atom -12390.126892 kJ/mol
# Density = 1.984806 g / cm^3
# Si number density = 19.893339 Si / 1000 Ang^3
#
#
#
# Elastic Constant Matrix: (Units=GPa)
#
#
# Indices 1 2 3 4 5 6 
#
# 1 121.8837 27.1224 71.4440 0.0000 2.7437 0.0000
# 2 27.1224 57.9911 30.4589 0.0000 0.8682 0.0000
# 3 71.4440 30.4589 130.3464 0.0000 14.3796 0.0000
# 4 0.0000 0.0000 0.0000 25.9539 0.0000 -2.0463
# 5 2.7437 0.8682 14.3796 0.0000 33.9955 0.0000
# 6 0.0000 0.0000 0.0000 -2.0463 0.0000 20.1299
#
#
#
# Elastic Compliance Matrix: (Units=1/GPa)
#
#
# Indices 1 2 3 4 5 6 
#
# 1 0.012512 -0.002477 -0.006477 0.000000 0.001793 0.000000
# 2 -0.002477 0.020221 -0.003496 0.000000 0.001162 0.000000
# 3 -0.006477 -0.003496 0.012557 0.000000 -0.004700 0.000000
# 4 0.000000 0.000000 0.000000 0.038841 0.000000 0.003948
# 5 0.001793 0.001162 -0.004700 0.000000 0.031229 0.000000
# 6 0.000000 0.000000 0.000000 0.003948 0.000000 0.050079
#
#
# Mechanical properties :
#
#
# Convention : Reuss Voigt Hill
#
# Bulk Modulus (GPa) = 49.04077 63.14130 56.09104
# Shear Modulus (GPa) = 25.36326 28.09558 26.72942
#
# Velocity S-wave (km/s) = 3.57454 3.76215 3.66954
# Velocity P-wave (km/s) = 6.46079 7.11903 6.79788
#
# Compressibility (1/GPa) = 0.02039120
#
# Stress axis : x y z
#
# Youngs Moduli (GPa) = 79.92409 49.45310 79.63506
#
# Poissons Ratio (x) = 0.12248 0.51579
# Poissons Ratio (y) = 0.19795 0.27840
# Poissons Ratio (z) = 0.51766 0.17288
#
# Static dielectric constant tensor:
#      x y z
#    x 3.880880 0.000000 0.171390 
#    y 0.000000 3.115780 0.000000 
#    z 0.171390 0.000000 3.744100 
# 
# 
# High freq. dielectric constant tensor:
#      x y z
#    x 1.785440 0.000000 0.005230 
#    y 0.000000 1.730040 0.000000 
#    z 0.005230 0.000000 1.785670 
# 
# From -- ./inp_files/58224.got.cif
#   From: 2010.06.25/outbox.cif.g09.slc.cpg/sg10_30_cif.got.tgz:58224.got - 2010.06.27 22:07:45.
