data_PCOD8058520
_publ_section_title
;
Structure prediction by ZEFSAII (Michael W. Deem and Ramdas Pophale) SiO2 
 PCOD8058520
Probable space group: P 2/M
;
_chemical_formula_sum "Si O2"
_cell_formula_units_Z 32
_cell_length_a 22.229484
_cell_length_b 9.177053
_cell_length_c 11.329462
_cell_angle_alpha 90.000000
_cell_angle_beta 131.978745
_cell_angle_gamma 90.000000
_cell_volume 1718.147233
_symmetry_space_group_name_H-M "P 2/M"
_symmetry_group_IT_number 10
_symmetry_cell_setting 'monoclinic'
loop_
_space_group_symop_operation_xyz
x,y,z
-x,y,-z
-x,-y,-z
x,-y,z
loop_
_atom_site_type_symbol
_atom_site_label
_atom_site_fract_x
_atom_site_fract_y
_atom_site_fract_z
Si Si1 0.973365 0.328772 0.834751
Si Si2 0.661445 0.666260 0.898019
Si Si3 0.192564 0.329196 0.497972
Si Si4 0.095734 0.833243 0.834007
Si Si5 0.254807 0.164755 0.189613
Si Si6 0.512758 0.330858 0.384922
Si Si7 0.681519 0.672774 0.516362
Si Si8 0.812952 0.329557 0.247642
O O1 0.991302 0.500000 0.847438
O O2 0.879518 0.290042 0.687585
O O3 0.019913 0.248005 0.790801
O O4 0.000000 0.272611 0.000000
O O5 0.673719 0.500000 0.869849
O O6 0.680548 0.774881 0.817760
O O7 0.566374 0.693682 0.801704
O O8 0.719687 0.697687 0.085195
O O9 0.195426 0.500000 0.523011
O O10 0.279056 0.277618 0.556894
O O11 0.179976 0.261463 0.611759
O O12 0.123216 0.755283 0.749682
O O13 0.073237 0.000000 0.775141
O O14 0.165503 0.823686 0.021956
O O15 0.256973 0.263876 0.307186
O O16 0.278820 0.000000 0.252057
O O17 0.500000 0.263190 0.500000
O O18 0.531815 0.500000 0.427012
O O19 0.590845 0.263273 0.419147
O O20 0.683728 0.500000 0.528865
O O21 0.835009 0.500000 0.269330
#
# Coordination Sequence:
#
# PCOD8058520 Si02
#       8
#     4   4   4   4   4   4   4   4
#     4  10  20  35  55  78 103 130 166 205 249 302
#     4   9  16  29  49  71  97 132 167 198 243 298
#     4   9  19  34  52  75  99 129 170 213 247 285
#     4  10  21  35  52  76 103 132 167 207 253 297
#     4  10  19  30  46  72 103 129 160 205 250 295
#     4   9  15  25  45  76 104 126 161 206 247 292
#     4  10  18  31  51  71 100 136 167 201 249 302
#     4   9  18  34  54  73  98 133 174 210 242 287
#
# _framework density 18.624713
#
# number of rings (size 3 to 8) (size 9 to 14) (size 15 to 20)
#    0.000    2.500    1.250    1.500    0.000    3.250 
#    0.000    6.250    0.000    3.750    0.000    0.000 
#    0.000    5.000    0.000    0.000    0.000    0.000 
#
# Total GULP energy -396581.683772 kJ/mol
# GULP energy per Si atom -12393.177618 kJ/mol
# Density = 1.858232 g / cm^3
# Si number density = 18.624713 Si / 1000 Ang^3
#
#
#
# Elastic Constant Matrix: (Units=GPa)
#
#
# Indices 1 2 3 4 5 6 
#
# 1 149.7301 32.8891 53.4155 0.0000 1.6814 0.0000
# 2 32.8891 33.5722 16.8408 0.0000 3.9424 0.0000
# 3 53.4155 16.8408 73.8402 0.0000 -8.9990 0.0000
# 4 0.0000 0.0000 0.0000 12.8246 0.0000 4.6462
# 5 1.6814 3.9424 -8.9990 0.0000 26.6516 0.0000
# 6 0.0000 0.0000 0.0000 4.6462 0.0000 0.9838
#
#
#
# Elastic Compliance Matrix: (Units=1/GPa)
#
#
# Indices 1 2 3 4 5 6 
#
# 1 0.010416 -0.006908 -0.006169 0.000000 -0.001718 0.000000
# 2 -0.006908 0.039886 -0.004970 0.000000 -0.007142 0.000000
# 3 -0.006169 -0.004970 0.020103 0.000000 0.007912 0.000000
# 4 0.000000 0.000000 0.000000 -0.109665 0.000000 0.517927
# 5 -0.001718 -0.007142 0.007912 0.000000 0.041358 0.000000
# 6 0.000000 0.000000 0.000000 0.517927 0.000000 -1.429589
#
#
# Mechanical properties :
#
#
# Convention : Reuss Voigt Hill
#
# Bulk Modulus (GPa) = 29.14500 51.49262 40.31881
# Shear Modulus (GPa) = -3.62329 18.35847 7.36759
#
# Velocity S-wave (km/s) = -1.39630 3.14300 1.99108
# Velocity P-wave (km/s) = 3.61704 6.39365 5.19431
#
# Compressibility (1/GPa) = 0.03431120
#
# Stress axis : x y z
#
# Youngs Moduli (GPa) = 96.00593 25.07160 49.74370
#
# Poissons Ratio (x) = 0.17319 0.30686
# Poissons Ratio (y) = 0.66320 0.24723
# Poissons Ratio (z) = 0.59224 0.12461
#
# Static dielectric constant tensor:
#      x y z
#    x 3.580750 0.000000 0.046540 
#    y 0.000000 3.198120 0.000000 
#    z 0.046540 0.000000 3.519870 
# 
# 
# High freq. dielectric constant tensor:
#      x y z
#    x 1.723280 0.000000 0.010320 
#    y 0.000000 1.688440 0.000000 
#    z 0.010320 0.000000 1.715470 
# 
# From -- ./inp_files/55362.got.cif
#   From: 2010.06.25/outbox.cif.g09.slc.cpg/sg10_28_cif.got.tgz:55362.got - 2010.06.27 22:07:45.
