data_PCOD8058222
_publ_section_title
;
Structure prediction by ZEFSAII (Michael W. Deem and Ramdas Pophale) SiO2 
 PCOD8058222
Probable space group: P 2/M
;
_chemical_formula_sum "Si O2"
_cell_formula_units_Z 32
_cell_length_a 27.699088
_cell_length_b 9.090122
_cell_length_c 21.633105
_cell_angle_alpha 90.000000
_cell_angle_beta 19.062580
_cell_angle_gamma 90.000000
_cell_volume 1778.980248
_symmetry_space_group_name_H-M "P 2/M"
_symmetry_group_IT_number 10
_symmetry_cell_setting 'monoclinic'
loop_
_space_group_symop_operation_xyz
x,y,z
-x,y,-z
-x,-y,-z
x,-y,z
loop_
_atom_site_type_symbol
_atom_site_label
_atom_site_fract_x
_atom_site_fract_y
_atom_site_fract_z
Si Si1 0.731563 0.835066 0.196979
Si Si2 0.454574 0.327064 0.125073
Si Si3 0.432901 0.327467 0.781520
Si Si4 0.067242 0.331690 0.351561
Si Si5 0.371207 0.174584 0.978918
Si Si6 0.426173 0.833581 0.494053
Si Si7 0.865249 0.672387 0.929546
Si Si8 0.123028 0.673623 0.532446
O O1 0.579316 0.829857 0.344710
O O2 0.702163 0.778854 0.302976
O O3 0.793667 0.000000 0.124348
O O4 0.851046 0.738065 0.015672
O O5 0.469434 0.500000 0.121857
O O6 0.562718 0.236757 0.037850
O O7 0.289006 0.265534 0.337728
O O8 0.500000 0.294555 0.000000
O O9 0.450521 0.500000 0.771285
O O10 0.457028 0.243433 0.816680
O O11 0.563025 0.273979 0.577816
O O12 0.272365 0.285941 0.948081
O O13 0.120005 0.500000 0.274407
O O14 0.000000 0.317074 0.500000
O O15 0.940694 0.281982 0.457164
O O16 0.201394 0.221130 0.180835
O O17 0.385429 0.000000 0.960014
O O18 0.392953 0.000000 0.512088
O O19 0.873560 0.500000 0.927913
O O20 0.014817 0.735554 0.717119
O O21 0.129262 0.500000 0.530046
#
# Coordination Sequence:
#
# PCOD8058222 Si02
#       8
#     4   4   4   4   4   4   4   4
#     4   8  14  24  39  62  97 137 170 201 245 309
#     4  10  21  39  61  79  98 133 180 222 264 315
#     4  10  18  30  49  72 101 135 176 218 254 303
#     4  10  19  35  59  81 102 131 172 217 260 313
#     4  12  24  36  52  77 111 143 171 212 264 316
#     4   8  14  25  40  63  98 135 169 206 252 301
#     4   9  16  27  45  70 101 131 166 217 261 299
#     4   9  17  32  53  78 103 129 169 222 268 304
#
# _framework density 17.987832999999998
#
# number of rings (size 3 to 8) (size 9 to 14) (size 15 to 20)
#    0.000    2.500    1.250    3.000    0.000    3.500 
#    0.000    3.750    0.000    0.000    0.000    0.875 
#    0.000    7.000    0.000    0.000    0.000    0.000 
#
# Total GULP energy -396672.061831 kJ/mol
# GULP energy per Si atom -12396.001932 kJ/mol
# Density = 1.794689 g / cm^3
# Si number density = 17.987833 Si / 1000 Ang^3
#
#
#
# Elastic Constant Matrix: (Units=GPa)
#
#
# Indices 1 2 3 4 5 6 
#
# 1 60.4178 36.3469 25.5714 0.0000 22.1330 0.0000
# 2 36.3469 69.6253 23.3450 0.0000 17.6907 0.0000
# 3 25.5714 23.3450 76.7757 0.0000 27.0725 0.0000
# 4 0.0000 0.0000 0.0000 18.6458 0.0000 7.5276
# 5 22.1330 17.6907 27.0725 0.0000 30.4970 0.0000
# 6 0.0000 0.0000 0.0000 7.5276 0.0000 20.1599
#
#
#
# Elastic Compliance Matrix: (Units=1/GPa)
#
#
# Indices 1 2 3 4 5 6 
#
# 1 0.028667 -0.011146 -0.001605 0.000000 -0.012915 0.000000
# 2 -0.011146 0.021499 -0.001863 0.000000 -0.002729 0.000000
# 3 -0.001605 -0.001863 0.019410 0.000000 -0.014985 0.000000
# 4 0.000000 0.000000 0.000000 0.063151 0.000000 -0.023580
# 5 -0.012915 -0.002729 -0.014985 0.000000 0.057048 0.000000
# 6 0.000000 0.000000 0.000000 -0.023580 0.000000 0.058408
#
#
# Mechanical properties :
#
#
# Convention : Reuss Voigt Hill
#
# Bulk Modulus (GPa) = 24.78369 41.92726 33.35547
# Shear Modulus (GPa) = 17.19044 21.96424 19.57734
#
# Velocity S-wave (km/s) = 3.09475 3.49816 3.30262
# Velocity P-wave (km/s) = 5.15537 6.29884 5.75558
#
# Compressibility (1/GPa) = 0.04034912
#
# Stress axis : x y z
#
# Youngs Moduli (GPa) = 34.88343 46.51411 51.52004
#
# Poissons Ratio (x) = 0.51843 0.08269
# Poissons Ratio (y) = 0.38880 0.09597
# Poissons Ratio (z) = 0.05599 0.08664
#
# Static dielectric constant tensor:
#      x y z
#    x 3.330250 0.000000 0.405570 
#    y 0.000000 3.185820 0.000000 
#    z 0.405570 0.000000 3.594700 
# 
# 
# High freq. dielectric constant tensor:
#      x y z
#    x 1.680030 0.000000 0.035430 
#    y 0.000000 1.675710 0.000000 
#    z 0.035430 0.000000 1.688450 
# 
# From -- ./inp_files/86799.got.cif
#   From: 2010.06.25/outbox.cif.g09.slc.cpg/sg10_44_cif.got.tgz:86799.got - 2010.06.27 22:07:45.
