data_PCOD8058466
_publ_section_title
;
Structure prediction by ZEFSAII (Michael W. Deem and Ramdas Pophale) SiO2 
 PCOD8058466
Probable space group: P 2/M
;
_chemical_formula_sum "Si O2"
_cell_formula_units_Z 26
_cell_length_a 13.263501
_cell_length_b 14.346484
_cell_length_c 8.087837
_cell_angle_alpha 90.000000
_cell_angle_beta 117.985456
_cell_angle_gamma 90.000000
_cell_volume 1359.031642
_symmetry_space_group_name_H-M "P 2/M"
_symmetry_group_IT_number 10
_symmetry_cell_setting 'monoclinic'
loop_
_space_group_symop_operation_xyz
x,y,z
-x,y,-z
-x,-y,-z
x,-y,z
loop_
_atom_site_type_symbol
_atom_site_label
_atom_site_fract_x
_atom_site_fract_y
_atom_site_fract_z
Si Si1 0.096387 0.756871 0.459537
Si Si2 0.301512 0.398227 0.069643
Si Si3 0.949844 0.107363 0.141657
Si Si4 0.467513 0.328172 0.654018
Si Si5 0.742905 0.204758 0.132374
Si Si6 0.224975 0.395911 0.369881
Si Si7 0.500000 0.206237 0.000000
O O1 0.201911 0.797801 0.644284
O O2 0.133072 0.678719 0.359231
O O3 0.000000 0.709084 0.500000
O O4 0.041093 0.846717 0.332511
O O5 0.274338 0.500000 0.967703
O O6 0.433532 0.402057 0.228011
O O7 0.225128 0.383764 0.173115
O O8 0.276680 0.314058 0.925530
O O9 0.824605 0.155141 0.061274
O O10 0.936359 0.000000 0.180035
O O11 0.000000 0.120999 0.000000
O O12 0.500000 0.279848 0.500000
O O13 0.347370 0.379677 0.547951
O O14 0.461027 0.259415 0.804304
O O15 0.618085 0.152452 0.041640
O O16 0.185113 0.500000 0.387212
#
# Coordination Sequence:
#
# PCOD8058466 Si02
#       7
#     4   4   4   4   4   4   2
#     4  10  21  35  54  80 110 141 184 231 277 332
#     4   9  18  31  50  77 111 153 193 228 268 321
#     4  10  22  42  67  86 102 135 186 238 286 343
#     4   9  17  30  49  75 112 157 202 237 268 321
#     4  10  20  35  56  86 117 147 185 230 281 339
#     4  10  18  31  49  73 111 154 193 233 274 318
#     4  10  18  34  54  86 122 154 190 228 288 342
#
# _framework density 19.131269
#
# number of rings (size 3 to 8) (size 9 to 14) (size 15 to 20)
#    0.000    2.308    1.538    1.385    0.000    5.538 
#    0.000    4.615    0.000    8.308    0.000    2.154 
#    0.000    0.000    0.000    0.000    0.000    0.000 
#
# Total GULP energy -322117.322943 kJ/mol
# GULP energy per Si atom -12389.127805 kJ/mol
# Density = 1.908772 g / cm^3
# Si number density = 19.131269 Si / 1000 Ang^3
#
#
#
# Elastic Constant Matrix: (Units=GPa)
#
#
# Indices 1 2 3 4 5 6 
#
# 1 129.0647 54.3821 34.5771 0.0000 12.7090 0.0000
# 2 54.3821 81.5810 29.4664 0.0000 5.9603 0.0000
# 3 34.5771 29.4664 79.2550 0.0000 5.1402 0.0000
# 4 0.0000 0.0000 0.0000 7.1729 0.0000 10.1243
# 5 12.7090 5.9603 5.1402 0.0000 31.2563 0.0000
# 6 0.0000 0.0000 0.0000 10.1243 0.0000 6.9650
#
#
#
# Elastic Compliance Matrix: (Units=1/GPa)
#
#
# Indices 1 2 3 4 5 6 
#
# 1 0.011437 -0.006552 -0.002358 0.000000 -0.003013 0.000000
# 2 -0.006552 0.018020 -0.003832 0.000000 -0.000142 0.000000
# 3 -0.002358 -0.003832 0.015123 0.000000 -0.000797 0.000000
# 4 0.000000 0.000000 0.000000 -0.132560 0.000000 0.192688
# 5 -0.003013 -0.000142 -0.000797 0.000000 0.033377 0.000000
# 6 0.000000 0.000000 0.000000 0.192688 0.000000 -0.136515
#
#
# Mechanical properties :
#
#
# Convention : Reuss Voigt Hill
#
# Bulk Modulus (GPa) = 52.36940 58.52798 55.44869
# Shear Modulus (GPa) = -31.39359 20.51051 -5.44154
#
# Velocity S-wave (km/s) = -4.05527 3.27784 -1.68834
# Velocity P-wave (km/s) = 2.34653 6.70708 5.02449
#
# Compressibility (1/GPa) = 0.01909512
#
# Stress axis : x y z
#
# Youngs Moduli (GPa) = 87.43251 55.49422 66.12543
#
# Poissons Ratio (x) = 0.36361 0.15595
# Poissons Ratio (y) = 0.57288 0.25338
# Poissons Ratio (z) = 0.20620 0.21265
#
# Static dielectric constant tensor:
#      x y z
#    x 3.968040 0.000000 -0.128080 
#    y 0.000000 3.180850 0.000000 
#    z -0.128080 0.000000 3.620560 
# 
# 
# High freq. dielectric constant tensor:
#      x y z
#    x 1.762770 0.000000 -0.005340 
#    y 0.000000 1.700740 0.000000 
#    z -0.005340 0.000000 1.745690 
# 
# From -- ./inp_files/28415.got.cif
#   From: 2010.06.25/outbox.cif.g09.slc.cpg/sg10_15_cif.got.tgz:28415.got - 2010.06.27 22:07:45.
