data_PCOD8058742
_publ_section_title
;
Structure prediction by ZEFSAII (Michael W. Deem and Ramdas Pophale) SiO2 
 PCOD8058742
Probable space group: P 2/M
;
_chemical_formula_sum "Si O2"
_cell_formula_units_Z 30
_cell_length_a 9.019660
_cell_length_b 9.754114
_cell_length_c 24.225069
_cell_angle_alpha 90.000000
_cell_angle_beta 54.228199
_cell_angle_gamma 90.000000
_cell_volume 1729.227456
_symmetry_space_group_name_H-M "P 2/M"
_symmetry_group_IT_number 10
_symmetry_cell_setting 'monoclinic'
loop_
_space_group_symop_operation_xyz
x,y,z
-x,y,-z
-x,-y,-z
x,-y,z
loop_
_atom_site_type_symbol
_atom_site_label
_atom_site_fract_x
_atom_site_fract_y
_atom_site_fract_z
Si Si1 0.509425 0.343406 0.932527
Si Si2 0.135329 0.341469 0.424349
Si Si3 0.118139 0.347155 0.621619
Si Si4 0.500000 0.247796 0.500000
Si Si5 0.141092 0.155330 0.716717
Si Si6 0.173029 0.158315 0.999795
Si Si7 0.451150 0.151634 0.389360
Si Si8 0.842838 0.842430 0.868805
O O1 0.513909 0.500000 0.908216
O O2 0.336099 0.260198 0.946209
O O3 0.690719 0.259250 0.876514
O O4 0.500000 0.346571 0.000000
O O5 0.179899 0.500000 0.425497
O O6 0.323448 0.261353 0.388101
O O7 0.000000 0.283232 0.500000
O O8 0.041931 0.315039 0.386421
O O9 0.100406 0.500000 0.648524
O O10 0.318104 0.336857 0.549943
O O11 0.074796 0.247268 0.680876
O O12 0.465052 0.158436 0.452901
O O13 0.354293 0.180544 0.681508
O O14 0.031115 0.190146 0.796237
O O15 0.105872 0.000000 0.705501
O O16 0.233832 0.000000 0.977763
O O17 0.119996 0.184952 0.074904
O O18 0.000000 0.195283 0.000000
O O19 0.380077 0.000000 0.390234
O O20 0.779150 0.000000 0.873576
#
# Coordination Sequence:
#
# PCOD8058742 Si02
#       8
#     4   4   4   2   4   4   4   4
#     4   9  17  29  48  75 104 132 164 206 248 289
#     4  10  20  35  50  71  99 127 159 203 253 306
#     4  10  20  33  52  73  96 126 165 206 250 300
#     4  10  18  32  50  74  96 124 158 210 250 296
#     4   9  20  36  52  72  99 130 168 209 251 299
#     4   9  17  30  51  79 106 134 172 210 245 293
#     4  10  20  33  50  73  99 129 165 207 253 302
#     4   9  17  33  54  72  98 136 170 206 248 295
#
# _framework density 17.348787000000002
#
# number of rings (size 3 to 8) (size 9 to 14) (size 15 to 20)
#    0.000    2.533    1.333    0.800    0.000    5.867 
#    0.000    1.333    0.000    3.200    0.000    0.000 
#    0.000    0.000    0.000    0.000    0.000    0.000 
#
# Total GULP energy -371921.086866 kJ/mol
# GULP energy per Si atom -12397.369562 kJ/mol
# Density = 1.730930 g / cm^3
# Si number density = 17.348787 Si / 1000 Ang^3
#
#
#
# Elastic Constant Matrix: (Units=GPa)
#
#
# Indices 1 2 3 4 5 6 
#
# 1 107.3743 71.3706 47.3449 0.0000 -19.0952 0.0000
# 2 71.3706 108.9909 50.5768 0.0000 -11.9449 0.0000
# 3 47.3449 50.5768 96.7225 0.0000 -12.4107 0.0000
# 4 0.0000 0.0000 0.0000 1018.4001 0.0000 -811.4084
# 5 -19.0952 -11.9449 -12.4107 0.0000 15.8290 0.0000
# 6 0.0000 0.0000 0.0000 -811.4084 0.0000 686.6466
#
#
#
# Elastic Compliance Matrix: (Units=1/GPa)
#
#
# Indices 1 2 3 4 5 6 
#
# 1 0.019702 -0.010193 -0.002503 0.000000 0.014113 0.000000
# 2 -0.010193 0.017703 -0.004593 0.000000 -0.002539 0.000000
# 3 -0.002503 -0.004593 0.014603 0.000000 0.004964 0.000000
# 4 0.000000 0.000000 0.000000 0.016789 0.000000 0.019840
# 5 0.014113 -0.002539 0.004964 0.000000 0.082176 0.000000
# 6 0.000000 0.000000 0.000000 0.019840 0.000000 0.024901
#
#
# Mechanical properties :
#
#
# Convention : Reuss Voigt Hill
#
# Bulk Modulus (GPa) = 57.37622 72.40802 64.89212
# Shear Modulus (GPa) = 23.11994 353.76152 188.44073
#
# Velocity S-wave (km/s) = 3.65451 14.29525 10.43335
# Velocity P-wave (km/s) = 7.13802 17.72849 13.51389
#
# Compressibility (1/GPa) = 0.01742882
#
# Stress axis : x y z
#
# Youngs Moduli (GPa) = 50.75620 56.48689 68.47991
#
# Poissons Ratio (x) = 0.57579 0.17141
# Poissons Ratio (y) = 0.51737 0.31455
# Poissons Ratio (z) = 0.12704 0.25946
#
# Static dielectric constant tensor:
#      x y z
#    x 2.913870 0.000000 0.273300 
#    y 0.000000 3.337790 0.000000 
#    z 0.273300 0.000000 2.344950 
# 
# 
# High freq. dielectric constant tensor:
#      x y z
#    x 1.662040 0.000000 -0.012290 
#    y 0.000000 1.675750 0.000000 
#    z -0.012290 0.000000 1.653180 
# 
# From -- ./inp_files/91832.got.cif
#   From: 2010.06.25/outbox.cif.g09.slc.cpg/sg10_46_cif.got.tgz:91832.got - 2010.06.27 22:07:45.
