data_PCOD8058670
_publ_section_title
;
Structure prediction by ZEFSAII (Michael W. Deem and Ramdas Pophale) SiO2 
 PCOD8058670
Probable space group: P 2/M
;
_chemical_formula_sum "Si O2"
_cell_formula_units_Z 28
_cell_length_a 11.831506
_cell_length_b 9.275862
_cell_length_c 14.987370
_cell_angle_alpha 90.000000
_cell_angle_beta 118.897446
_cell_angle_gamma 90.000000
_cell_volume 1440.021499
_symmetry_space_group_name_H-M "P 2/M"
_symmetry_group_IT_number 10
_symmetry_cell_setting 'monoclinic'
loop_
_space_group_symop_operation_xyz
x,y,z
-x,y,-z
-x,-y,-z
x,-y,z
loop_
_atom_site_type_symbol
_atom_site_label
_atom_site_fract_x
_atom_site_fract_y
_atom_site_fract_z
Si Si1 0.856514 0.669413 0.689936
Si Si2 0.615177 0.330568 0.976628
Si Si3 0.135536 0.668648 0.818820
Si Si4 0.862648 0.338576 0.493211
Si Si5 0.474565 0.162918 0.221296
Si Si6 0.238127 0.839417 0.695110
Si Si7 0.573184 0.329156 0.620577
O O1 0.841308 0.500000 0.681435
O O2 0.874201 0.726383 0.596295
O O3 0.722073 0.729027 0.677806
O O4 0.988671 0.710116 0.795035
O O5 0.603637 0.500000 0.953260
O O6 0.615139 0.248792 0.882290
O O7 0.500000 0.282865 0.000000
O O8 0.755746 0.287744 0.068789
O O9 0.143777 0.500000 0.800048
O O10 0.159465 0.747205 0.735447
O O11 0.802478 0.500000 0.471356
O O12 0.769445 0.232420 0.404773
O O13 0.000000 0.340375 0.500000
O O14 0.611578 0.156991 0.223621
O O15 0.489918 0.245153 0.321126
O O16 0.422389 0.000000 0.216785
O O17 0.179469 0.000000 0.670568
O O18 0.500000 0.289427 0.500000
O O19 0.563511 0.500000 0.633764
#
# Coordination Sequence:
#
# PCOD8058670 Si02
#       7
#     4   4   4   4   4   4   4
#     4   9  18  34  56  83 111 143 185 235 291 337
#     4  10  20  35  60  89 113 146 193 242 287 338
#     4  10  19  35  57  82 113 144 181 232 288 341
#     4  10  18  31  54  80 109 146 183 227 283 342
#     4  11  24  39  57  82 117 157 193 235 288 344
#     4  11  22  33  49  79 116 150 184 226 279 339
#     4  10  21  39  63  86 111 148 197 245 280 331
#
# _framework density 19.444153
#
# number of rings (size 3 to 8) (size 9 to 14) (size 15 to 20)
#    0.000    1.857    2.857    1.714    0.000    4.286 
#    0.000    2.143    0.000    4.286    0.000    0.000 
#    0.000    0.000    0.000    0.000    0.000    0.000 
#
# Total GULP energy -347021.867646 kJ/mol
# GULP energy per Si atom -12393.638130 kJ/mol
# Density = 1.939990 g / cm^3
# Si number density = 19.444153 Si / 1000 Ang^3
#
#
#
# Elastic Constant Matrix: (Units=GPa)
#
#
# Indices 1 2 3 4 5 6 
#
# 1 82.1212 19.0667 32.5600 0.0000 16.7028 0.0000
# 2 19.0667 60.7509 49.1183 0.0000 1.8194 0.0000
# 3 32.5600 49.1183 112.6242 0.0000 11.8963 0.0000
# 4 0.0000 0.0000 0.0000 5.4384 0.0000 4.6391
# 5 16.7028 1.8194 11.8963 0.0000 35.5517 0.0000
# 6 0.0000 0.0000 0.0000 4.6391 0.0000 12.8858
#
#
#
# Elastic Compliance Matrix: (Units=1/GPa)
#
#
# Indices 1 2 3 4 5 6 
#
# 1 0.015014 -0.002375 -0.002667 0.000000 -0.006040 0.000000
# 2 -0.002375 0.026018 -0.011027 0.000000 0.003474 0.000000
# 3 -0.002667 -0.011027 0.014790 0.000000 -0.003132 0.000000
# 4 0.000000 0.000000 0.000000 0.265371 0.000000 -0.095537
# 5 -0.006040 0.003474 -0.003132 0.000000 0.031836 0.000000
# 6 0.000000 0.000000 0.000000 -0.095537 0.000000 0.111999
#
#
# Mechanical properties :
#
#
# Convention : Reuss Voigt Hill
#
# Bulk Modulus (GPa) = 42.22308 50.77626 46.49967
# Shear Modulus (GPa) = 9.89978 21.09193 15.49586
#
# Velocity S-wave (km/s) = 2.25886 3.29712 2.82608
# Velocity P-wave (km/s) = 5.34467 6.37693 5.88348
#
# Compressibility (1/GPa) = 0.02368373
#
# Stress axis : x y z
#
# Youngs Moduli (GPa) = 66.60239 38.43506 67.61224
#
# Poissons Ratio (x) = 0.09129 0.18031
# Poissons Ratio (y) = 0.15819 0.74559
# Poissons Ratio (z) = 0.17762 0.42384
#
# Static dielectric constant tensor:
#      x y z
#    x 3.644230 0.000000 0.256350 
#    y 0.000000 3.407070 0.000000 
#    z 0.256350 0.000000 3.590850 
# 
# 
# High freq. dielectric constant tensor:
#      x y z
#    x 1.749630 0.000000 0.017120 
#    y 0.000000 1.734570 0.000000 
#    z 0.017120 0.000000 1.754470 
# 
# From -- ./inp_files/63894.got.cif
#   From: 2010.06.25/outbox.cif.g09.slc.cpg/sg10_32_cif.got.tgz:63894.got - 2010.06.27 22:07:45.
