data_PCOD8058659
_publ_section_title
;
Structure prediction by ZEFSAII (Michael W. Deem and Ramdas Pophale) SiO2 
 PCOD8058659
Probable space group: P 2/M
;
_chemical_formula_sum "Si O2"
_cell_formula_units_Z 32
_cell_length_a 21.722789
_cell_length_b 8.982441
_cell_length_c 28.238772
_cell_angle_alpha 90.000000
_cell_angle_beta 18.853257
_cell_angle_gamma 90.000000
_cell_volume 1780.548648
_symmetry_space_group_name_H-M "P 2/M"
_symmetry_group_IT_number 10
_symmetry_cell_setting 'monoclinic'
loop_
_space_group_symop_operation_xyz
x,y,z
-x,y,-z
-x,-y,-z
x,-y,z
loop_
_atom_site_type_symbol
_atom_site_label
_atom_site_fract_x
_atom_site_fract_y
_atom_site_fract_z
Si Si1 0.205086 0.175841 0.833891
Si Si2 0.715115 0.825961 0.330610
Si Si3 0.951575 0.823278 0.588139
Si Si4 0.454168 0.826865 0.084159
Si Si5 0.894976 0.324578 0.435024
Si Si6 0.141120 0.173569 0.177204
Si Si7 0.432264 0.327733 0.396943
Si Si8 0.873584 0.675365 0.303032
O O1 0.239999 0.229350 0.754861
O O2 0.369895 0.238816 0.747955
O O3 0.214441 0.000000 0.831013
O O4 0.000000 0.236432 0.000000
O O5 0.500000 0.785411 0.500000
O O6 0.851805 0.734655 0.265839
O O7 0.756768 0.000000 0.306697
O O8 0.738904 0.760975 0.753118
O O9 0.000000 0.772488 0.500000
O O10 0.098711 0.744183 0.517046
O O11 0.971684 0.000000 0.579500
O O12 0.416048 0.000000 0.103434
O O13 0.500000 0.751649 0.000000
O O14 0.631692 0.800654 0.989970
O O15 0.934572 0.500000 0.406934
O O16 0.687307 0.291569 0.563491
O O17 0.058094 0.247662 0.284979
O O18 0.060700 0.249082 0.188566
O O19 0.088022 0.000000 0.216906
O O20 0.483509 0.500000 0.363003
O O21 0.308282 0.278338 0.532820
O O22 0.904191 0.500000 0.280899
#
# Coordination Sequence:
#
# PCOD8058659 Si02
#       8
#     4   4   4   4   4   4   4   4
#     4  10  21  36  54  79 108 135 171 221 264 304
#     4  10  19  33  54  79 103 134 176 215 257 312
#     4  10  20  35  55  79 105 138 180 220 261 314
#     4   9  16  30  52  78 104 130 169 217 262 306
#     4  10  20  34  52  78 109 138 175 218 262 311
#     4  10  18  31  54  78 106 140 174 217 267 311
#     4   9  19  34  52  75 104 138 173 211 255 314
#     4  10  20  33  51  79 111 137 172 220 266 310
#
# _framework density 17.971989000000001
#
# number of rings (size 3 to 8) (size 9 to 14) (size 15 to 20)
#    0.000    2.250    2.500    1.875    0.000    3.750 
#    0.000    3.125    0.000    6.000    0.000    0.000 
#    0.000    0.000    0.000    0.000    0.000    0.000 
#
# Total GULP energy -396817.022180 kJ/mol
# GULP energy per Si atom -12400.531943 kJ/mol
# Density = 1.793108 g / cm^3
# Si number density = 17.971989 Si / 1000 Ang^3
#
#
#
# Elastic Constant Matrix: (Units=GPa)
#
#
# Indices 1 2 3 4 5 6 
#
# 1 142.2748 49.2954 66.7335 0.0000 -6.4219 0.0000
# 2 49.2954 56.7690 32.3622 0.0000 -6.2093 0.0000
# 3 66.7335 32.3622 116.9182 0.0000 -4.0923 0.0000
# 4 0.0000 0.0000 0.0000 13.5528 0.0000 -2.5013
# 5 -6.4219 -6.2093 -4.0923 0.0000 26.2082 0.0000
# 6 0.0000 0.0000 0.0000 -2.5013 0.0000 26.6211
#
#
#
# Elastic Compliance Matrix: (Units=1/GPa)
#
#
# Indices 1 2 3 4 5 6 
#
# 1 0.011864 -0.007609 -0.004652 0.000000 0.000378 0.000000
# 2 -0.007609 0.026237 -0.002782 0.000000 0.003917 0.000000
# 3 -0.004652 -0.002782 0.011981 0.000000 0.000072 0.000000
# 4 0.000000 0.000000 0.000000 0.075088 0.000000 0.007055
# 5 0.000378 0.003917 0.000072 0.000000 0.039188 0.000000
# 6 0.000000 0.000000 0.000000 0.007055 0.000000 0.038227
#
#
# Mechanical properties :
#
#
# Convention : Reuss Voigt Hill
#
# Bulk Modulus (GPa) = 50.01188 68.08271 59.04729
# Shear Modulus (GPa) = 20.89108 24.44783 22.66946
#
# Velocity S-wave (km/s) = 3.41313 3.69227 3.55544
# Velocity P-wave (km/s) = 6.58944 7.49280 7.05559
#
# Compressibility (1/GPa) = 0.01999525
#
# Stress axis : x y z
#
# Youngs Moduli (GPa) = 84.28716 38.11442 83.46486
#
# Poissons Ratio (x) = 0.29000 0.38832
# Poissons Ratio (y) = 0.64132 0.23222
# Poissons Ratio (z) = 0.39214 0.10604
#
# Static dielectric constant tensor:
#      x y z
#    x 3.391430 0.000000 -0.081240 
#    y 0.000000 3.154080 0.000000 
#    z -0.081240 0.000000 3.270320 
# 
# 
# High freq. dielectric constant tensor:
#      x y z
#    x 1.701260 0.000000 -0.016830 
#    y 0.000000 1.684620 0.000000 
#    z -0.016830 0.000000 1.675640 
# 
# From -- ./inp_files/93625.got.cif
#   From: 2010.06.25/outbox.cif.g09.slc.cpg/sg10_47_cif.got.tgz:93625.got - 2010.06.27 22:07:45.
