data_PCOD8058306
_publ_section_title
;
Structure prediction by ZEFSAII (Michael W. Deem and Ramdas Pophale) SiO2 
 PCOD8058306
Probable space group: P 2/M
;
_chemical_formula_sum "Si O2"
_cell_formula_units_Z 28
_cell_length_a 22.232729
_cell_length_b 12.003163
_cell_length_c 10.369235
_cell_angle_alpha 90.000000
_cell_angle_beta 31.844712
_cell_angle_gamma 90.000000
_cell_volume 1460.008930
_symmetry_space_group_name_H-M "P 2/M"
_symmetry_group_IT_number 10
_symmetry_cell_setting 'monoclinic'
loop_
_space_group_symop_operation_xyz
x,y,z
-x,y,-z
-x,-y,-z
x,-y,z
loop_
_atom_site_type_symbol
_atom_site_label
_atom_site_fract_x
_atom_site_fract_y
_atom_site_fract_z
Si Si1 0.232494 0.225029 0.875853
Si Si2 0.830189 0.624309 0.511306
Si Si3 0.554055 0.630277 0.541349
Si Si4 0.186954 0.000000 0.084052
Si Si5 0.002448 0.806303 0.140544
Si Si6 0.933555 0.000000 0.440280
Si Si7 0.582190 0.368452 0.958700
Si Si8 0.123620 0.375914 0.277986
O O1 0.344674 0.281629 0.610496
O O2 0.254768 0.105742 0.903119
O O3 0.131996 0.212784 0.953186
O O4 0.206405 0.308521 0.038009
O O5 0.842103 0.500000 0.433279
O O6 0.708296 0.679904 0.698820
O O7 0.827573 0.621167 0.669565
O O8 0.936713 0.689598 0.259570
O O9 0.500000 0.653654 0.500000
O O10 0.594127 0.500000 0.478668
O O11 0.459645 0.658863 0.820802
O O12 0.174167 0.000000 0.264155
O O13 0.056308 0.000000 0.281527
O O14 0.928147 0.889294 0.363641
O O15 0.000000 0.854163 0.000000
O O16 0.590113 0.500000 0.927075
O O17 0.500000 0.315787 0.000000
O O18 0.112123 0.500000 0.240332
O O19 0.000000 0.316194 0.500000
#
# Coordination Sequence:
#
# PCOD8058306 Si02
#       8
#     4   4   4   2   4   2   4   4
#     4  11  21  35  56  83 113 142 178 234 282 331
#     4  10  20  34  53  80 112 141 179 226 270 330
#     4  10  21  37  58  84 113 149 189 231 278 330
#     4   9  20  34  59  84 105 139 184 230 283 327
#     4  11  23  35  53  81 112 149 183 222 277 328
#     4   9  19  38  56  76 108 144 188 225 261 337
#     4   9  19  35  54  75 105 150 191 219 259 324
#     4  10  18  30  50  78 109 139 172 216 276 332
#
# _framework density 19.177966000000001
#
# number of rings (size 3 to 8) (size 9 to 14) (size 15 to 20)
#    0.000    2.000    1.429    2.357    4.000    3.143 
#    0.000    0.357    0.000    0.857    0.000    1.000 
#    0.000    0.000    0.000    0.000    0.000    0.000 
#
# Total GULP energy -347055.600186 kJ/mol
# GULP energy per Si atom -12394.842864 kJ/mol
# Density = 1.913432 g / cm^3
# Si number density = 19.177966 Si / 1000 Ang^3
#
#
#
# Elastic Constant Matrix: (Units=GPa)
#
#
# Indices 1 2 3 4 5 6 
#
# 1 92.7837 21.8171 27.2326 0.0000 -0.5293 0.0000
# 2 21.8171 83.6714 37.2727 0.0000 -2.2836 0.0000
# 3 27.2326 37.2727 69.2968 0.0000 -6.6823 0.0000
# 4 0.0000 0.0000 0.0000 16.6261 0.0000 -28.4065
# 5 -0.5293 -2.2836 -6.6823 0.0000 32.0745 0.0000
# 6 0.0000 0.0000 0.0000 -28.4065 0.0000 -40.0249
#
#
#
# Elastic Compliance Matrix: (Units=1/GPa)
#
#
# Indices 1 2 3 4 5 6 
#
# 1 0.012322 -0.001373 -0.004178 0.000000 -0.000765 0.000000
# 2 -0.001373 0.015884 -0.008059 0.000000 -0.000571 0.000000
# 3 -0.004178 -0.008059 0.020762 0.000000 0.003683 0.000000
# 4 0.000000 0.000000 0.000000 0.027184 0.000000 -0.019293
# 5 -0.000765 -0.000571 0.003683 0.000000 0.031891 0.000000
# 6 0.000000 0.000000 0.000000 -0.019293 0.000000 -0.011292
#
#
# Mechanical properties :
#
#
# Convention : Reuss Voigt Hill
#
# Bulk Modulus (GPa) = 45.97857 46.48853 46.23355
# Shear Modulus (GPa) = 38.10363 12.36379 25.23371
#
# Velocity S-wave (km/s) = 4.46224 2.54182 3.63128
# Velocity P-wave (km/s) = 7.11165 5.73652 6.46077
#
# Compressibility (1/GPa) = 0.02174926
#
# Stress axis : x y z
#
# Youngs Moduli (GPa) = 81.15282 62.95674 48.16399
#
# Poissons Ratio (x) = 0.08643 0.20122
# Poissons Ratio (y) = 0.11141 0.38816
# Poissons Ratio (z) = 0.33905 0.50737
#
# Static dielectric constant tensor:
#      x y z
#    x 3.620340 0.000000 -0.020720 
#    y 0.000000 3.503600 0.000000 
#    z -0.020720 0.000000 3.487590 
# 
# 
# High freq. dielectric constant tensor:
#      x y z
#    x 1.743060 0.000000 0.004870 
#    y 0.000000 1.724640 0.000000 
#    z 0.004870 0.000000 1.735340 
# 
# From -- ./inp_files/56860.got.cif
#   From: 2010.06.25/outbox.cif.g09.slc.cpg/sg10_29_cif.got.tgz:56860.got - 2010.06.27 22:07:45.
