data_PCOD8058614
_publ_section_title
;
Structure prediction by ZEFSAII (Michael W. Deem and Ramdas Pophale) SiO2 
 PCOD8058614
Probable space group: P 2/M
;
_chemical_formula_sum "Si O2"
_cell_formula_units_Z 32
_cell_length_a 20.308232
_cell_length_b 8.787699
_cell_length_c 26.179359
_cell_angle_alpha 90.000000
_cell_angle_beta 21.293057
_cell_angle_gamma 90.000000
_cell_volume 1696.595795
_symmetry_space_group_name_H-M "P 2/M"
_symmetry_group_IT_number 10
_symmetry_cell_setting 'monoclinic'
loop_
_space_group_symop_operation_xyz
x,y,z
-x,y,-z
-x,-y,-z
x,-y,z
loop_
_atom_site_type_symbol
_atom_site_label
_atom_site_fract_x
_atom_site_fract_y
_atom_site_fract_z
Si Si1 0.690946 0.178694 0.337892
Si Si2 0.051751 0.179620 0.131654
Si Si3 0.912858 0.181629 0.681072
Si Si4 0.795715 0.320317 0.156202
Si Si5 0.623194 0.818653 0.809084
Si Si6 0.708794 0.181041 0.634879
Si Si7 0.350740 0.180751 0.836778
Si Si8 0.216151 0.818471 0.117012
O O1 0.500000 0.226951 0.500000
O O2 0.718913 0.268965 0.265798
O O3 0.847147 0.226271 0.265222
O O4 0.698867 0.000000 0.319968
O O5 0.102738 0.245822 0.150579
O O6 0.075843 0.000000 0.116021
O O7 0.189293 0.243865 0.989488
O O8 0.757555 0.244215 0.755472
O O9 0.875215 0.243621 0.765201
O O10 0.106569 0.245997 0.522867
O O11 0.912552 0.000000 0.680554
O O12 0.789990 0.500000 0.156669
O O13 0.665995 0.250837 0.207059
O O14 0.000000 0.258615 0.000000
O O15 0.689597 0.756519 0.706318
O O16 0.623042 0.000000 0.809125
O O17 0.421580 0.757174 0.965737
O O18 0.540486 0.238067 0.722777
O O19 0.712305 0.000000 0.633434
O O20 0.343653 0.000000 0.837460
O O21 0.216236 0.000000 0.116712
#
# Coordination Sequence:
#
# PCOD8058614 Si02
#       8
#     4   4   4   4   4   4   4   4
#     4  10  21  36  56  81 105 134 173 213 257 308
#     4   9  16  28  46  67  94 127 164 209 250 292
#     4   9  16  22  32  54  88 123 156 198 238 286
#     4  11  23  37  55  79 105 135 170 211 259 309
#     4   9  14  22  34  51  81 123 163 192 233 294
#     4   9  16  25  38  60  86 120 162 200 244 292
#     4  10  18  31  53  74  96 131 171 210 252 298
#     4   9  15  23  35  53  81 122 164 193 234 293
#
# _framework density 18.8613
#
# number of rings (size 3 to 8) (size 9 to 14) (size 15 to 20)
#    0.000    2.500    2.500    1.125    0.000    4.750 
#    0.000    3.750    0.000    0.000    0.000    0.000 
#    0.000    2.000    0.000    1.625    0.000    2.250 
#
# Total GULP energy -396774.556291 kJ/mol
# GULP energy per Si atom -12399.204884 kJ/mol
# Density = 1.881837 g / cm^3
# Si number density = 18.861300 Si / 1000 Ang^3
#
#
#
# Elastic Constant Matrix: (Units=GPa)
#
#
# Indices 1 2 3 4 5 6 
#
# 1 178.6839 18.0776 86.9192 0.0000 -5.5774 0.0000
# 2 18.0776 12.9087 12.1416 0.0000 -0.3806 0.0000
# 3 86.9192 12.1416 165.6938 0.0000 -2.3197 0.0000
# 4 0.0000 0.0000 0.0000 7.9565 0.0000 1.6291
# 5 -5.5774 -0.3806 -2.3197 0.0000 37.4128 0.0000
# 6 0.0000 0.0000 0.0000 1.6291 0.0000 0.1213
#
#
#
# Elastic Compliance Matrix: (Units=1/GPa)
#
#
# Indices 1 2 3 4 5 6 
#
# 1 0.008249 -0.008020 -0.003727 0.000000 0.000917 0.000000
# 2 -0.008020 0.091007 -0.002468 0.000000 -0.000423 0.000000
# 3 -0.003727 -0.002468 0.008170 0.000000 -0.000074 0.000000
# 4 0.000000 0.000000 0.000000 -0.071834 0.000000 0.964667
# 5 0.000917 -0.000423 -0.000074 0.000000 0.026857 0.000000
# 6 0.000000 0.000000 0.000000 0.964667 0.000000 -4.711382
#
#
# Mechanical properties :
#
#
# Convention : Reuss Voigt Hill
#
# Bulk Modulus (GPa) = 12.65861 65.72926 39.19394
# Shear Modulus (GPa) = -1.08834 25.10797 12.00982
#
# Velocity S-wave (km/s) = -0.76044 3.65251 2.52612
# Velocity P-wave (km/s) = 2.44028 7.26031 5.41605
#
# Compressibility (1/GPa) = 0.07899761
#
# Stress axis : x y z
#
# Youngs Moduli (GPa) = 121.22026 10.98812 122.39796
#
# Poissons Ratio (x) = 0.08813 0.45617
# Poissons Ratio (y) = 0.97221 0.30202
# Poissons Ratio (z) = 0.45178 0.02711
#
# Static dielectric constant tensor:
#      x y z
#    x 3.751390 0.000000 -0.079590 
#    y 0.000000 2.680190 0.000000 
#    z -0.079590 0.000000 3.676150 
# 
# 
# High freq. dielectric constant tensor:
#      x y z
#    x 1.751720 0.000000 -0.002240 
#    y 0.000000 1.653880 0.000000 
#    z -0.002240 0.000000 1.740790 
# 
# From -- ./inp_files/93634.got.cif
#   From: 2010.06.25/outbox.cif.g09.slc.cpg/sg10_47_cif.got.tgz:93634.got - 2010.06.27 22:07:45.
