data_PCOD8058476
_publ_section_title
;
Structure prediction by ZEFSAII (Michael W. Deem and Ramdas Pophale) SiO2 
 PCOD8058476
Probable space group: P 2/M
;
_chemical_formula_sum "Si O2"
_cell_formula_units_Z 32
_cell_length_a 19.863073
_cell_length_b 9.325172
_cell_length_c 25.554466
_cell_angle_alpha 90.000000
_cell_angle_beta 158.540788
_cell_angle_gamma 90.000000
_cell_volume 1731.648912
_symmetry_space_group_name_H-M "P 2/M"
_symmetry_group_IT_number 10
_symmetry_cell_setting 'monoclinic'
loop_
_space_group_symop_operation_xyz
x,y,z
-x,y,-z
-x,-y,-z
x,-y,z
loop_
_atom_site_type_symbol
_atom_site_label
_atom_site_fract_x
_atom_site_fract_y
_atom_site_fract_z
Si Si1 0.291455 0.829129 0.354069
Si Si2 0.919429 0.170453 0.695896
Si Si3 0.668342 0.829995 0.987259
Si Si4 0.630582 0.168870 0.843884
Si Si5 0.768475 0.169387 0.476182
Si Si6 0.003293 0.171151 0.943436
Si Si7 0.995114 0.665736 0.436517
Si Si8 0.422840 0.664088 0.888475
O O1 0.500000 0.769658 0.500000
O O2 0.201293 0.770229 0.342787
O O3 0.170894 0.775333 0.217108
O O4 0.293088 0.000000 0.356331
O O5 0.842684 0.228459 0.585185
O O6 0.912112 0.000000 0.691954
O O7 0.128088 0.225768 0.851252
O O8 0.618680 0.772110 0.893982
O O9 0.514995 0.765272 0.913164
O O10 0.657618 0.000000 0.984104
O O11 0.446805 0.209873 0.679729
O O12 0.658373 0.000000 0.866505
O O13 0.809223 0.235193 0.945225
O O14 0.865045 0.243223 0.496916
O O15 0.800228 0.000000 0.493331
O O16 0.004703 0.000000 0.944911
O O17 0.000000 0.231701 0.000000
O O18 0.055457 0.500000 0.477570
O O19 0.794028 0.690268 0.267549
O O20 0.000000 0.720103 0.500000
O O21 0.471135 0.500000 0.910007
O O22 0.500000 0.710538 0.000000
#
# Coordination Sequence:
#
# PCOD8058476 Si02
#       8
#     4   4   4   4   4   4   4   4
#     4   9  16  25  39  61  93 133 166 191 229 283
#     4   9  17  29  43  65  98 129 160 199 240 281
#     4  10  18  31  50  68  93 129 159 191 239 289
#     4   9  17  29  43  65  96 127 160 199 239 275
#     4  10  20  31  48  72  97 127 161 199 241 286
#     4   9  16  25  39  61  93 132 166 193 229 281
#     4  10  21  37  53  70  96 127 158 198 246 289
#     4  10  21  35  51  72  96 121 154 200 244 281
#
# _framework density 18.479496999999999
#
# number of rings (size 3 to 8) (size 9 to 14) (size 15 to 20)
#    0.000    2.500    1.250    1.500    1.750    1.000 
#    0.000    0.000    0.000    0.000    0.000    0.000 
#    0.000    6.000    0.000    0.000    0.000    0.000 
#
# Total GULP energy -396751.223384 kJ/mol
# GULP energy per Si atom -12398.475731 kJ/mol
# Density = 1.843744 g / cm^3
# Si number density = 18.479497 Si / 1000 Ang^3
#
#
#
# Elastic Constant Matrix: (Units=GPa)
#
#
# Indices 1 2 3 4 5 6 
#
# 1 129.5046 24.2085 47.6575 0.0000 -7.2210 0.0000
# 2 24.2085 17.6097 16.0759 0.0000 2.0583 0.0000
# 3 47.6575 16.0759 97.1294 0.0000 -13.6384 0.0000
# 4 0.0000 0.0000 0.0000 0.7840 0.0000 12.2666
# 5 -7.2210 2.0583 -13.6384 0.0000 39.1597 0.0000
# 6 0.0000 0.0000 0.0000 12.2666 0.0000 -42.6921
#
#
#
# Elastic Compliance Matrix: (Units=1/GPa)
#
#
# Indices 1 2 3 4 5 6 
#
# 1 0.011423 -0.012952 -0.003228 0.000000 0.001663 0.000000
# 2 -0.012952 0.083894 -0.008921 0.000000 -0.009905 0.000000
# 3 -0.003228 -0.008921 0.014024 0.000000 0.004758 0.000000
# 4 0.000000 0.000000 0.000000 0.232100 0.000000 0.066689
# 5 0.001663 -0.009905 0.004758 0.000000 0.028021 0.000000
# 6 0.000000 0.000000 0.000000 0.066689 0.000000 -0.004262
#
#
# Mechanical properties :
#
#
# Convention : Reuss Voigt Hill
#
# Bulk Modulus (GPa) = 16.90915 46.68086 31.79501
# Shear Modulus (GPa) = 11.49123 9.87043 10.68083
#
# Velocity S-wave (km/s) = 2.49637 2.31363 2.40674
# Velocity P-wave (km/s) = 4.18082 5.69675 4.99661
#
# Compressibility (1/GPa) = 0.05913958
#
# Stress axis : x y z
#
# Youngs Moduli (GPa) = 87.53964 11.91984 71.30664
#
# Poissons Ratio (x) = 0.15438 0.23017
# Poissons Ratio (y) = 1.13379 0.63614
# Poissons Ratio (z) = 0.28256 0.10634
#
# Static dielectric constant tensor:
#      x y z
#    x 3.331740 0.000000 -0.010450 
#    y 0.000000 2.785810 0.000000 
#    z -0.010450 0.000000 3.662610 
# 
# 
# High freq. dielectric constant tensor:
#      x y z
#    x 1.730110 0.000000 -0.004510 
#    y 0.000000 1.646500 0.000000 
#    z -0.004510 0.000000 1.737820 
# 
# From -- ./inp_files/32163.got.cif
#   From: 2010.06.25/outbox.cif.g09.slc.cpg/sg10_17_cif.got.tgz:32163.got - 2010.06.27 22:07:45.
