data_PCOD8058768
_publ_section_title
;
Structure prediction by ZEFSAII (Michael W. Deem and Ramdas Pophale) SiO2 
 PCOD8058768
Probable space group: P 2/M
;
_chemical_formula_sum "Si O2"
_cell_formula_units_Z 26
_cell_length_a 18.817737
_cell_length_b 10.088158
_cell_length_c 13.177136
_cell_angle_alpha 90.000000
_cell_angle_beta 145.229789
_cell_angle_gamma 90.000000
_cell_volume 1426.571148
_symmetry_space_group_name_H-M "P 2/M"
_symmetry_group_IT_number 10
_symmetry_cell_setting 'monoclinic'
loop_
_space_group_symop_operation_xyz
x,y,z
-x,y,-z
-x,-y,-z
x,-y,z
loop_
_atom_site_type_symbol
_atom_site_label
_atom_site_fract_x
_atom_site_fract_y
_atom_site_fract_z
Si Si1 0.771896 0.143131 0.614578
Si Si2 0.489712 0.851241 0.602082
Si Si3 0.082378 0.347436 0.884738
Si Si4 0.181293 0.343798 0.495670
Si Si5 0.666445 0.341711 0.922791
Si Si6 0.368566 0.344396 0.886991
Si Si7 0.000000 0.758760 0.000000
O O1 0.656648 0.146970 0.553502
O O2 0.751089 0.264279 0.514034
O O3 0.894589 0.151261 0.827322
O O4 0.778129 0.000000 0.564848
O O5 0.500000 0.803615 0.500000
O O6 0.552031 0.739595 0.743873
O O7 0.545853 0.000000 0.686258
O O8 0.098512 0.500000 0.882703
O O9 0.963893 0.298408 0.678278
O O10 0.062068 0.326607 0.981481
O O11 0.208862 0.285178 0.986674
O O12 0.194800 0.500000 0.488536
O O13 0.249603 0.301815 0.679394
O O14 0.646397 0.500000 0.884671
O O15 0.667231 0.300868 0.041909
O O16 0.385147 0.500000 0.900905
O O17 0.500000 0.281293 0.000000
#
# Coordination Sequence:
#
# PCOD8058768 Si02
#       7
#     4   4   4   4   4   4   2
#     4  10  20  33  51  75 100 128 168 210 246 295
#     4  10  21  36  51  71 102 135 165 202 251 301
#     4   9  18  31  49  76 104 131 167 209 248 291
#     4   9  18  33  52  73 100 133 164 201 252 298
#     4  10  20  34  53  77 102 130 170 211 245 292
#     4   9  17  30  50  75 101 130 166 207 249 294
#     4  10  18  32  52  72 101 136 165 200 253 302
#
# _framework density 18.225519999999999
#
# number of rings (size 3 to 8) (size 9 to 14) (size 15 to 20)
#    0.000    2.462    0.000    2.308    0.000    3.385 
#    0.000    6.923    0.000    2.769    0.000    5.385 
#    0.000    0.000    0.000    0.000    0.000    0.000 
#
# Total GULP energy -322151.721034 kJ/mol
# GULP energy per Si atom -12390.450809 kJ/mol
# Density = 1.818404 g / cm^3
# Si number density = 18.225520 Si / 1000 Ang^3
#
#
#
# Elastic Constant Matrix: (Units=GPa)
#
#
# Indices 1 2 3 4 5 6 
#
# 1 116.9821 21.2903 56.4764 0.0000 -4.3057 0.0000
# 2 21.2903 52.5213 37.7501 0.0000 -7.8802 0.0000
# 3 56.4764 37.7501 106.0463 0.0000 -14.3973 0.0000
# 4 0.0000 0.0000 0.0000 17.0224 0.0000 3.4158
# 5 -4.3057 -7.8802 -14.3973 0.0000 32.0072 0.0000
# 6 0.0000 0.0000 0.0000 3.4158 0.0000 17.1225
#
#
#
# Elastic Compliance Matrix: (Units=1/GPa)
#
#
# Indices 1 2 3 4 5 6 
#
# 1 0.011565 -0.000445 -0.006182 0.000000 -0.001334 0.000000
# 2 -0.000445 0.025770 -0.008609 0.000000 0.002412 0.000000
# 3 -0.006182 -0.008609 0.016387 0.000000 0.004420 0.000000
# 4 0.000000 0.000000 0.000000 0.061196 0.000000 -0.012208
# 5 -0.001334 0.002412 0.004420 0.000000 0.033646 0.000000
# 6 0.000000 0.000000 0.000000 -0.012208 0.000000 0.060838
#
#
# Mechanical properties :
#
#
# Convention : Reuss Voigt Hill
#
# Bulk Modulus (GPa) = 43.01102 56.28705 49.64904
# Shear Modulus (GPa) = 20.19206 23.89927 22.04566
#
# Velocity S-wave (km/s) = 3.33212 3.62513 3.48171
# Velocity P-wave (km/s) = 6.20118 6.96224 6.59270
#
# Compressibility (1/GPa) = 0.02324985
#
# Stress axis : x y z
#
# Youngs Moduli (GPa) = 86.47127 38.80475 61.02527
#
# Poissons Ratio (x) = 0.01727 0.37723
# Poissons Ratio (y) = 0.03848 0.52537
# Poissons Ratio (z) = 0.53453 0.33407
#
# Static dielectric constant tensor:
#      x y z
#    x 3.559760 0.000000 0.051440 
#    y 0.000000 3.206980 0.000000 
#    z 0.051440 0.000000 3.601630 
# 
# 
# High freq. dielectric constant tensor:
#      x y z
#    x 1.707700 0.000000 0.008820 
#    y 0.000000 1.680390 0.000000 
#    z 0.008820 0.000000 1.715100 
# 
# From -- ./inp_files/49473.got.cif
#   From: 2010.06.25/outbox.cif.g09.slc.cpg/sg10_25_cif.got.tgz:49473.got - 2010.06.27 22:07:45.
