data_PCOD8058743
_publ_section_title
;
Structure prediction by ZEFSAII (Michael W. Deem and Ramdas Pophale) SiO2 
 PCOD8058743
Probable space group: P 2/M
;
_chemical_formula_sum "Si O2"
_cell_formula_units_Z 28
_cell_length_a 5.209700
_cell_length_b 31.685509
_cell_length_c 9.376163
_cell_angle_alpha 90.000000
_cell_angle_beta 64.928744
_cell_angle_gamma 90.000000
_cell_volume 1401.916013
_symmetry_space_group_name_H-M "P 2/M"
_symmetry_group_IT_number 10
_symmetry_cell_setting 'monoclinic'
loop_
_space_group_symop_operation_xyz
x,y,z
-x,y,-z
-x,-y,-z
x,-y,z
loop_
_atom_site_type_symbol
_atom_site_label
_atom_site_fract_x
_atom_site_fract_y
_atom_site_fract_z
Si Si1 0.142798 0.549085 0.162672
Si Si2 0.627323 0.585065 0.184779
Si Si3 0.173227 0.896379 0.101641
Si Si4 0.125616 0.725218 0.315815
Si Si5 0.179149 0.047313 0.600008
Si Si6 0.820155 0.799845 0.899717
Si Si7 0.370716 0.675796 0.686256
O O1 0.201351 0.500000 0.123855
O O2 0.307369 0.566598 0.263206
O O3 0.810304 0.559299 0.259504
O O4 0.248888 0.575569 0.001125
O O5 0.635103 0.634147 0.217440
O O6 0.161417 0.848096 0.157379
O O7 0.008228 0.924285 0.253303
O O8 0.500000 0.910855 0.000000
O O9 0.000000 0.902103 0.000000
O O10 0.081881 0.770370 0.252117
O O11 0.447961 0.709394 0.262735
O O12 0.000000 0.731140 0.500000
O O13 0.949442 0.691951 0.261166
O O14 0.500000 0.065375 0.500000
O O15 0.000000 0.046167 0.500000
O O16 0.207185 0.000000 0.657624
O O17 0.500000 0.786414 0.000000
O O18 0.000000 0.792081 0.000000
O O19 0.500000 0.666642 0.500000
#
# Coordination Sequence:
#
# PCOD8058743 Si02
#       7
#     4   4   4   4   4   4   4
#     4  10  19  33  53  74 103 134 164 213 262 307
#     4  10  18  32  50  75  99 129 167 205 258 307
#     4  10  21  37  59  83 118 156 198 243 300 367
#     4  10  21  39  57  77 106 149 186 219 273 341
#     4  10  21  37  57  86 122 156 199 255 304 348
#     4  10  21  39  56  84 114 146 185 243 292 327
#     4  10  21  37  55  75 106 140 176 219 262 316
#
# _framework density 19.972666
#
# number of rings (size 3 to 8) (size 9 to 14) (size 15 to 20)
#    0.000    2.000    0.000    4.714    0.000    1.143 
#   15.429    2.143    0.000    4.714    0.000    0.000 
#    0.000    0.000    0.000    0.000    0.000    0.000 
#
# Total GULP energy -346998.920708 kJ/mol
# GULP energy per Si atom -12392.818597 kJ/mol
# Density = 1.992721 g / cm^3
# Si number density = 19.972666 Si / 1000 Ang^3
#
#
#
# Elastic Constant Matrix: (Units=GPa)
#
#
# Indices 1 2 3 4 5 6 
#
# 1 187.8356 48.2303 36.5602 0.0000 -4.2934 0.0000
# 2 48.2303 124.3633 64.8102 0.0000 2.1073 0.0000
# 3 36.5602 64.8102 55.5697 0.0000 -2.4969 0.0000
# 4 0.0000 0.0000 0.0000 6.5215 0.0000 5.4478
# 5 -4.2934 2.1073 -2.4969 0.0000 19.8716 0.0000
# 6 0.0000 0.0000 0.0000 5.4478 0.0000 62.2252
#
#
#
# Elastic Compliance Matrix: (Units=1/GPa)
#
#
# Indices 1 2 3 4 5 6 
#
# 1 0.006150 -0.000811 -0.003054 0.000000 0.001031 0.000000
# 2 -0.000811 0.021159 -0.024390 0.000000 -0.005484 0.000000
# 3 -0.003054 -0.024390 0.048813 0.000000 0.008060 0.000000
# 4 0.000000 0.000000 0.000000 0.165437 0.000000 -0.014484
# 5 0.001031 -0.005484 0.008060 0.000000 0.052140 0.000000
# 6 0.000000 0.000000 0.000000 -0.014484 0.000000 0.017339
#
#
# Mechanical properties :
#
#
# Convention : Reuss Voigt Hill
#
# Bulk Modulus (GPa) = 50.99089 74.10779 62.54934
# Shear Modulus (GPa) = 13.36589 32.26821 22.81705
#
# Velocity S-wave (km/s) = 2.58971 4.02384 3.38363
# Velocity P-wave (km/s) = 5.87605 7.66639 6.83013
#
# Compressibility (1/GPa) = 0.01961135
#
# Stress axis : x y z
#
# Youngs Moduli (GPa) = 162.60045 47.26089 20.48629
#
# Poissons Ratio (x) = 0.03833 0.06257
# Poissons Ratio (y) = 0.13187 0.49967
# Poissons Ratio (z) = 0.49659 1.15271
#
# Static dielectric constant tensor:
#      x y z
#    x 5.614870 0.000000 0.052650 
#    y 0.000000 3.668230 0.000000 
#    z 0.052650 0.000000 3.254300 
# 
# 
# High freq. dielectric constant tensor:
#      x y z
#    x 1.818950 0.000000 0.005040 
#    y 0.000000 1.778830 0.000000 
#    z 0.005040 0.000000 1.741120 
# 
# From -- ./inp_files/15881.got.cif
#   From: 2010.06.25/outbox.cif.g09.slc.cpg/sg10_8_cif.got.tgz:15881.got - 2010.06.27 22:07:45.
