data_PCOD8058480
_publ_section_title
;
Structure prediction by ZEFSAII (Michael W. Deem and Ramdas Pophale) SiO2 
 PCOD8058480
Probable space group: P 2/M
;
_chemical_formula_sum "Si O2"
_cell_formula_units_Z 28
_cell_length_a 19.664169
_cell_length_b 12.841780
_cell_length_c 8.734471
_cell_angle_alpha 90.000000
_cell_angle_beta 131.780046
_cell_angle_gamma 90.000000
_cell_volume 1644.774186
_symmetry_space_group_name_H-M "P 2/M"
_symmetry_group_IT_number 10
_symmetry_cell_setting 'monoclinic'
loop_
_space_group_symop_operation_xyz
x,y,z
-x,y,-z
-x,-y,-z
x,-y,z
loop_
_atom_site_type_symbol
_atom_site_label
_atom_site_fract_x
_atom_site_fract_y
_atom_site_fract_z
Si Si1 0.904909 0.883858 0.287497
Si Si2 0.899757 0.500000 0.780913
Si Si3 0.904909 0.116142 0.927231
Si Si4 0.401263 0.617257 0.533440
Si Si5 0.899757 0.500000 0.418360
Si Si6 0.210225 0.309683 0.246759
Si Si7 0.598737 0.617257 0.829650
Si Si8 0.789775 0.690317 0.116085
O O1 0.826329 0.803749 0.220165
O O2 0.000000 0.845560 0.500000
O O3 0.879271 0.000000 0.308259
O O4 0.917122 0.883781 0.125683
O O5 0.906946 0.500000 0.610419
O O6 0.847349 0.397629 0.756234
O O7 0.000000 0.500000 0.000000
O O8 0.826329 0.196251 0.758822
O O9 0.879271 0.000000 0.829556
O O10 0.000000 0.154440 0.000000
O O11 0.387026 0.500000 0.573767
O O12 0.315851 0.686539 0.461318
O O13 0.500000 0.660503 0.741029
O O14 0.402773 0.615459 0.354159
O O15 0.847349 0.602371 0.285815
O O16 0.000000 0.500000 0.500000
O O17 0.201881 0.328469 0.052822
O O18 0.612974 0.500000 0.912690
O O19 0.684149 0.686539 0.013765
#
# Coordination Sequence:
#
# PCOD8058480 Si02
#       8
#     4   2   4   4   2   4   4   4
#     4   9  18  31  47  67  90 119 155 194 231 270
#     4  12  24  34  45  66  97 125 152 187 231 282
#     4   9  18  31  47  67  90 119 155 194 231 270
#     4   8  13  23  43  69  92 117 153 189 221 269
#     4  12  24  34  45  66  97 125 152 187 231 282
#     4  10  18  31  50  69  93 123 156 191 229 274
#     4   8  13  23  43  69  92 117 153 189 221 269
#     4  10  18  31  50  69  93 123 156 191 229 274
#
# _framework density 17.023613000000001
#
# number of rings (size 3 to 8) (size 9 to 14) (size 15 to 20)
#    0.000    2.571    1.429    3.000    0.000    3.429 
#    0.000    0.000    0.000    2.571    0.000    6.000 
#    0.000    0.000    0.000    9.714    0.000   10.286 
#
# Total GULP energy -346994.330627 kJ/mol
# GULP energy per Si atom -12392.654665 kJ/mol
# Density = 1.698487 g / cm^3
# Si number density = 17.023613 Si / 1000 Ang^3
#
#
#
# Elastic Constant Matrix: (Units=GPa)
#
#
# Indices 1 2 3 4 5 6 
#
# 1 102.7719 64.8341 53.4018 0.0000 44.1125 0.0000
# 2 64.8341 110.5895 53.3844 0.0000 32.4852 0.0000
# 3 53.4018 53.3844 74.7658 0.0000 35.3473 0.0000
# 4 0.0000 0.0000 0.0000 17.9025 0.0000 7.2206
# 5 44.1125 32.4852 35.3473 0.0000 41.7798 0.0000
# 6 0.0000 0.0000 0.0000 7.2206 0.0000 20.4478
#
#
#
# Elastic Compliance Matrix: (Units=1/GPa)
#
#
# Indices 1 2 3 4 5 6 
#
# 1 0.022719 -0.006860 -0.004183 0.000000 -0.015115 0.000000
# 2 -0.006860 0.016281 -0.006941 0.000000 0.000457 0.000000
# 3 -0.004183 -0.006941 0.027798 0.000000 -0.013705 0.000000
# 4 0.000000 0.000000 0.000000 0.065135 0.000000 -0.023001
# 5 -0.015115 0.000457 -0.013705 0.000000 0.051133 0.000000
# 6 0.000000 0.000000 0.000000 -0.023001 0.000000 0.057027
#
#
# Mechanical properties :
#
#
# Convention : Reuss Voigt Hill
#
# Bulk Modulus (GPa) = 32.43611 70.15198 51.29404
# Shear Modulus (GPa) = 17.46185 23.79313 20.62749
#
# Velocity S-wave (km/s) = 3.20620 3.74258 3.48472
# Velocity P-wave (km/s) = 5.72724 7.74428 6.81084
#
# Compressibility (1/GPa) = 0.03082984
#
# Stress axis : x y z
#
# Youngs Moduli (GPa) = 44.01537 61.42273 35.97368
#
# Poissons Ratio (x) = 0.42137 0.15049
# Poissons Ratio (y) = 0.30195 0.24968
# Poissons Ratio (z) = 0.18413 0.42631
#
# Static dielectric constant tensor:
#      x y z
#    x 2.951120 0.000000 0.036150 
#    y 0.000000 3.393050 0.000000 
#    z 0.036150 0.000000 2.938380 
# 
# 
# High freq. dielectric constant tensor:
#      x y z
#    x 1.650040 0.000000 0.020660 
#    y 0.000000 1.639580 0.000000 
#    z 0.020660 0.000000 1.642750 
# 
# From -- ./inp_files/34698.got.cif
#   From: 2010.06.25/outbox.cif.g09.slc.cpg/sg10_18_cif.got.tgz:34698.got - 2010.06.27 22:07:45.
