data_PCOD8058638
_publ_section_title
;
Structure prediction by ZEFSAII (Michael W. Deem and Ramdas Pophale) SiO2 
 PCOD8058638
Probable space group: P 2/M
;
_chemical_formula_sum "Si O2"
_cell_formula_units_Z 28
_cell_length_a 19.868573
_cell_length_b 7.856093
_cell_length_c 11.331125
_cell_angle_alpha 90.000000
_cell_angle_beta 128.891454
_cell_angle_gamma 90.000000
_cell_volume 1376.619413
_symmetry_space_group_name_H-M "P 2/M"
_symmetry_group_IT_number 10
_symmetry_cell_setting 'monoclinic'
loop_
_space_group_symop_operation_xyz
x,y,z
-x,y,-z
-x,-y,-z
x,-y,z
loop_
_atom_site_type_symbol
_atom_site_label
_atom_site_fract_x
_atom_site_fract_y
_atom_site_fract_z
Si Si1 0.241399 0.805898 0.292949
Si Si2 0.314500 0.695765 0.032211
Si Si3 0.598011 0.703624 0.108245
Si Si4 0.590590 0.797326 0.644413
Si Si5 0.870092 0.500000 0.436483
Si Si6 0.259514 0.313224 0.563849
Si Si7 0.854858 0.194747 0.035344
Si Si8 0.061145 0.500000 0.744213
O O1 0.335665 0.730451 0.365379
O O2 0.221937 0.788505 0.410507
O O3 0.244420 0.000000 0.259596
O O4 0.167126 0.735211 0.122184
O O5 0.285027 0.500000 0.988029
O O6 0.392617 0.714204 0.210301
O O7 0.351379 0.769440 0.950628
O O8 0.232852 0.805970 0.984222
O O9 0.596776 0.500000 0.107290
O O10 0.654048 0.770192 0.282894
O O11 0.500000 0.776431 0.000000
O O12 0.500000 0.724007 0.500000
O O13 0.587893 0.000000 0.652684
O O14 0.815905 0.332350 0.419132
O O15 0.877594 0.500000 0.303853
O O16 0.961957 0.500000 0.599854
O O17 0.283691 0.500000 0.540884
O O18 0.923333 0.327554 0.164485
O O19 0.892029 0.000000 0.077627
#
# Coordination Sequence:
#
# PCOD8058638 Si02
#       8
#     4   4   4   4   2   4   4   2
#     4   9  19  35  54  81 115 156 199 240 292 353
#     4  10  18  31  53  79 111 144 195 243 297 345
#     4   9  18  31  49  77 111 153 196 242 284 338
#     4   9  19  33  48  69 108 153 195 253 301 332
#     4   9  22  39  60  97 113 154 191 233 297 364
#     4   9  19  35  56  77 116 150 188 230 292 351
#     4  10  21  37  62  92 116 154 199 241 298 354
#     4  11  20  41  71  87 125 147 188 250 297 351
#
# _framework density 20.339680000000001
#
# number of rings (size 3 to 8) (size 9 to 14) (size 15 to 20)
#    0.429    2.143    0.714    2.143    3.000    0.857 
#    0.000    7.143    0.000    3.857    0.000    0.000 
#    0.000    0.000    0.000    0.000    0.000    0.000 
#
# Total GULP energy -346936.963090 kJ/mol
# GULP energy per Si atom -12390.605825 kJ/mol
# Density = 2.029339 g / cm^3
# Si number density = 20.339680 Si / 1000 Ang^3
#
#
#
# Elastic Constant Matrix: (Units=GPa)
#
#
# Indices 1 2 3 4 5 6 
#
# 1 57.8862 6.6157 36.7996 0.0000 -8.3663 0.0000
# 2 6.6157 49.9969 26.4686 0.0000 3.6897 0.0000
# 3 36.7996 26.4686 136.3290 0.0000 -0.7597 0.0000
# 4 0.0000 0.0000 0.0000 -2.5911 0.0000 1.9046
# 5 -8.3663 3.6897 -0.7597 0.0000 33.6067 0.0000
# 6 0.0000 0.0000 0.0000 1.9046 0.0000 12.8541
#
#
#
# Elastic Compliance Matrix: (Units=1/GPa)
#
#
# Indices 1 2 3 4 5 6 
#
# 1 0.021755 -0.000197 -0.005804 0.000000 0.005306 0.000000
# 2 -0.000197 0.022514 -0.004333 0.000000 -0.002619 0.000000
# 3 -0.005804 -0.004333 0.009739 0.000000 -0.000749 0.000000
# 4 0.000000 0.000000 0.000000 -0.348033 0.000000 0.051567
# 5 0.005306 -0.002619 -0.000749 0.000000 0.031348 0.000000
# 6 0.000000 0.000000 0.000000 0.051567 0.000000 0.070156
#
#
# Mechanical properties :
#
#
# Convention : Reuss Voigt Hill
#
# Bulk Modulus (GPa) = 29.99452 42.66442 36.32947
# Shear Modulus (GPa) = -31.10619 20.39582 -5.35518
#
# Velocity S-wave (km/s) = -3.91491 3.17007 -1.62437
# Velocity P-wave (km/s) = 2.37836 5.86691 3.79236
#
# Compressibility (1/GPa) = 0.03333943
#
# Stress axis : x y z
#
# Youngs Moduli (GPa) = 45.96698 44.41629 102.68007
#
# Poissons Ratio (x) = 0.00877 0.59600
# Poissons Ratio (y) = 0.00907 0.44486
# Poissons Ratio (z) = 0.26681 0.19243
#
# Static dielectric constant tensor:
#      x y z
#    x 3.458210 0.000000 -0.018020 
#    y 0.000000 3.323630 0.000000 
#    z -0.018020 0.000000 3.816200 
# 
# 
# High freq. dielectric constant tensor:
#      x y z
#    x 1.769270 0.000000 -0.008200 
#    y 0.000000 1.762600 0.000000 
#    z -0.008200 0.000000 1.808630 
# 
# From -- ./inp_files/55033.got.cif
#   From: 2010.06.25/outbox.cif.g09.slc.cpg/sg10_28_cif.got.tgz:55033.got - 2010.06.27 22:07:45.
