data_PCOD8058200
_publ_section_title
;
Structure prediction by ZEFSAII (Michael W. Deem and Ramdas Pophale) SiO2 
 PCOD8058200
Probable space group: P 2/M
;
_chemical_formula_sum "Si O2"
_cell_formula_units_Z 28
_cell_length_a 14.731878
_cell_length_b 16.414543
_cell_length_c 19.580530
_cell_angle_alpha 90.000000
_cell_angle_beta 19.159037
_cell_angle_gamma 90.000000
_cell_volume 1553.955354
_symmetry_space_group_name_H-M "P 2/M"
_symmetry_group_IT_number 10
_symmetry_cell_setting 'monoclinic'
loop_
_space_group_symop_operation_xyz
x,y,z
-x,y,-z
-x,-y,-z
x,-y,z
loop_
_atom_site_type_symbol
_atom_site_label
_atom_site_fract_x
_atom_site_fract_y
_atom_site_fract_z
Si Si1 0.459972 0.779996 0.374571
Si Si2 0.211278 0.089717 0.788705
Si Si3 0.273172 0.348566 0.613548
Si Si4 0.877815 0.220139 0.956813
Si Si5 0.026230 0.718429 0.589228
Si Si6 0.167003 0.408613 0.166444
Si Si7 0.564514 0.718379 0.819966
O O1 0.516171 0.862530 0.377610
O O2 0.439955 0.706059 0.440958
O O3 0.168833 0.784475 0.539065
O O4 0.716561 0.762859 0.141878
O O5 0.058941 0.137663 0.834917
O O6 0.301563 0.000000 0.698273
O O7 0.000000 0.079572 0.000000
O O8 0.500000 0.393365 0.500000
O O9 0.082857 0.294221 0.798119
O O10 0.086875 0.413913 0.706584
O O11 0.662680 0.215617 0.045325
O O12 0.927521 0.638093 0.698595
O O13 0.760978 0.758484 0.738968
O O14 0.251539 0.688495 0.374304
O O15 0.257877 0.500000 0.121056
O O16 0.423288 0.361991 0.950539
#
# Coordination Sequence:
#
# PCOD8058200 Si02
#       7
#     4   4   4   4   4   4   4
#     4   9  17  30  47  68  95 122 151 191 227 265
#     4   9  16  27  47  73  98 124 150 184 234 275
#     4  10  18  30  49  68  88 122 162 185 221 279
#     4   9  17  30  47  68  95 122 151 191 227 265
#     4   9  18  32  50  69  89 121 161 192 224 272
#     4  10  21  33  46  69  97 120 148 194 243 277
#     4   9  18  32  50  69  89 121 161 192 224 272
#
# _framework density 18.018536000000001
#
# number of rings (size 3 to 8) (size 9 to 14) (size 15 to 20)
#    0.000    2.714    1.429    0.429    0.000    2.000 
#    0.000    2.857    0.000    0.857    0.000   14.000 
#    0.000    6.857    0.000    0.571    0.000    0.000 
#
# Total GULP energy -346878.544817 kJ/mol
# GULP energy per Si atom -12388.519458 kJ/mol
# Density = 1.797752 g / cm^3
# Si number density = 18.018536 Si / 1000 Ang^3
#
#
#
# Elastic Constant Matrix: (Units=GPa)
#
#
# Indices 1 2 3 4 5 6 
#
# 1 110.4437 39.8730 56.6695 0.0000 -38.6704 0.0000
# 2 39.8730 91.1159 29.2788 0.0000 -13.6273 0.0000
# 3 56.6695 29.2788 70.0006 0.0000 -12.9449 0.0000
# 4 0.0000 0.0000 0.0000 9.4150 0.0000 -3.3620
# 5 -38.6704 -13.6273 -12.9449 0.0000 44.1852 0.0000
# 6 0.0000 0.0000 0.0000 -3.3620 0.0000 12.0453
#
#
#
# Elastic Compliance Matrix: (Units=1/GPa)
#
#
# Indices 1 2 3 4 5 6 
#
# 1 0.022682 -0.003121 -0.014341 0.000000 0.014687 0.000000
# 2 -0.003121 0.013373 -0.002970 0.000000 0.000523 0.000000
# 3 -0.014341 -0.002970 0.026059 0.000000 -0.005833 0.000000
# 4 0.000000 0.000000 0.000000 0.117971 0.000000 0.032927
# 5 0.014687 0.000523 -0.005833 0.000000 0.033939 0.000000
# 6 0.000000 0.000000 0.000000 0.032927 0.000000 0.092211
#
#
# Mechanical properties :
#
#
# Convention : Reuss Voigt Hill
#
# Bulk Modulus (GPa) = 47.05856 58.13364 52.59610
# Shear Modulus (GPa) = 14.11695 22.84502 18.48098
#
# Velocity S-wave (km/s) = 2.80209 3.56457 3.20608
# Velocity P-wave (km/s) = 6.05329 7.01960 6.55428
#
# Compressibility (1/GPa) = 0.02125012
#
# Stress axis : x y z
#
# Youngs Moduli (GPa) = 44.08733 74.77491 38.37393
#
# Poissons Ratio (x) = 0.23337 0.55033
# Poissons Ratio (y) = 0.13760 0.11398
# Poissons Ratio (z) = 0.63226 0.22211
#
# Static dielectric constant tensor:
#      x y z
#    x 3.769860 0.000000 -0.236810 
#    y 0.000000 3.013080 0.000000 
#    z -0.236810 0.000000 3.581460 
# 
# 
# High freq. dielectric constant tensor:
#      x y z
#    x 1.717750 0.000000 -0.005480 
#    y 0.000000 1.637330 0.000000 
#    z -0.005480 0.000000 1.713410 
# 
# From -- ./inp_files/85453.got.cif
#   From: 2010.06.25/outbox.cif.g09.slc.cpg/sg10_43_cif.got.tgz:85453.got - 2010.06.27 22:07:45.
