data_PCOD8058541
_publ_section_title
;
Structure prediction by ZEFSAII (Michael W. Deem and Ramdas Pophale) SiO2 
 PCOD8058541
Probable space group: P 2/M
;
_chemical_formula_sum "Si O2"
_cell_formula_units_Z 28
_cell_length_a 31.082008
_cell_length_b 9.110020
_cell_length_c 9.592606
_cell_angle_alpha 90.000000
_cell_angle_beta 35.091265
_cell_angle_gamma 90.000000
_cell_volume 1561.502177
_symmetry_space_group_name_H-M "P 2/M"
_symmetry_group_IT_number 10
_symmetry_cell_setting 'monoclinic'
loop_
_space_group_symop_operation_xyz
x,y,z
-x,y,-z
-x,-y,-z
x,-y,z
loop_
_atom_site_type_symbol
_atom_site_label
_atom_site_fract_x
_atom_site_fract_y
_atom_site_fract_z
Si Si1 0.556292 0.168160 0.549682
Si Si2 0.084013 0.171997 0.266807
Si Si3 0.604807 0.831016 0.106857
Si Si4 0.756666 0.326706 0.654687
Si Si5 0.800305 0.172827 0.806435
Si Si6 0.195026 0.669660 0.778945
Si Si7 0.687975 0.670905 0.300935
O O1 0.467929 0.203335 0.795636
O O2 0.583909 0.201556 0.320938
O O3 0.602468 0.271368 0.534322
O O4 0.571336 0.000000 0.550171
O O5 0.125942 0.210979 0.299889
O O6 0.000000 0.234491 0.500000
O O7 0.083653 0.000000 0.239910
O O8 0.125010 0.243044 0.026467
O O9 0.629622 0.000000 0.023163
O O10 0.671182 0.726087 0.882534
O O11 0.758284 0.500000 0.674912
O O12 0.807421 0.246911 0.636333
O O13 0.792999 0.282263 0.411319
O O14 0.788332 0.000000 0.821122
O O15 0.727551 0.239173 0.072791
O O16 0.174577 0.500000 0.846236
O O17 0.271250 0.704484 0.661269
O O18 0.690056 0.500000 0.257724
#
# Coordination Sequence:
#
# PCOD8058541 Si02
#       7
#     4   4   4   4   4   4   4
#     4   9  17  30  48  72 101 132 171 218 261 303
#     4   9  19  37  60  84 105 129 167 209 248 298
#     4   9  18  31  48  71 102 136 170 214 262 303
#     4  11  21  34  51  75 106 138 174 212 249 301
#     4  10  19  32  53  78 104 133 166 208 254 300
#     4   9  21  37  52  75 108 140 169 205 253 304
#     4  10  18  31  51  74  99 132 175 217 253 299
#
# _framework density 17.931452
#
# number of rings (size 3 to 8) (size 9 to 14) (size 15 to 20)
#    0.000    2.429    1.429    2.143    0.000    3.143 
#    0.000    2.857    0.000    8.571    0.000    0.000 
#    0.000    0.000    0.000    0.000    0.000    0.000 
#
# Total GULP energy -347196.240673 kJ/mol
# GULP energy per Si atom -12399.865738 kJ/mol
# Density = 1.789064 g / cm^3
# Si number density = 17.931452 Si / 1000 Ang^3
#
#
#
# Elastic Constant Matrix: (Units=GPa)
#
#
# Indices 1 2 3 4 5 6 
#
# 1 109.4282 50.1334 63.9615 0.0000 -3.7101 0.0000
# 2 50.1334 76.4032 50.0017 0.0000 2.3774 0.0000
# 3 63.9615 50.0017 95.8005 0.0000 -2.2911 0.0000
# 4 0.0000 0.0000 0.0000 23.7981 0.0000 -1.8904
# 5 -3.7101 2.3774 -2.2911 0.0000 33.0016 0.0000
# 6 0.0000 0.0000 0.0000 -1.8904 0.0000 16.7050
#
#
#
# Elastic Compliance Matrix: (Units=1/GPa)
#
#
# Indices 1 2 3 4 5 6 
#
# 1 0.016447 -0.005597 -0.008019 0.000000 0.001695 0.000000
# 2 -0.005597 0.021937 -0.007779 0.000000 -0.002750 0.000000
# 3 -0.008019 -0.007779 0.019878 0.000000 0.001039 0.000000
# 4 0.000000 0.000000 0.000000 0.042401 0.000000 0.004798
# 5 0.001695 -0.002750 0.001039 0.000000 0.030762 0.000000
# 6 0.000000 0.000000 0.000000 0.004798 0.000000 0.060405
#
#
# Mechanical properties :
#
#
# Convention : Reuss Voigt Hill
#
# Bulk Modulus (GPa) = 64.63312 67.75835 66.19574
# Shear Modulus (GPa) = 20.85254 22.53662 21.69458
#
# Velocity S-wave (km/s) = 3.41384 3.54901 3.48208
# Velocity P-wave (km/s) = 7.18762 7.39347 7.29127
#
# Compressibility (1/GPa) = 0.01547194
#
# Stress axis : x y z
#
# Youngs Moduli (GPa) = 60.79986 45.58442 50.30798
#
# Poissons Ratio (x) = 0.25512 0.40344
# Poissons Ratio (y) = 0.34028 0.39134
# Poissons Ratio (z) = 0.48758 0.35460
#
# Static dielectric constant tensor:
#      x y z
#    x 3.518700 0.000000 -0.147080 
#    y 0.000000 3.283850 0.000000 
#    z -0.147080 0.000000 3.189080 
# 
# 
# High freq. dielectric constant tensor:
#      x y z
#    x 1.698920 0.000000 -0.009360 
#    y 0.000000 1.696750 0.000000 
#    z -0.009360 0.000000 1.666160 
# 
# From -- ./inp_files/37955.got.cif
#   From: 2010.06.25/outbox.cif.g09.slc.cpg/sg10_19_cif.got.tgz:37955.got - 2010.06.27 22:07:45.
