data_PCOD8058217
_publ_section_title
;
Structure prediction by ZEFSAII (Michael W. Deem and Ramdas Pophale) SiO2 
 PCOD8058217
Probable space group: P 2/M
;
_chemical_formula_sum "Si O2"
_cell_formula_units_Z 32
_cell_length_a 21.264061
_cell_length_b 8.988222
_cell_length_c 30.344792
_cell_angle_alpha 90.000000
_cell_angle_beta 161.560422
_cell_angle_gamma 90.000000
_cell_volume 1834.464942
_symmetry_space_group_name_H-M "P 2/M"
_symmetry_group_IT_number 10
_symmetry_cell_setting 'monoclinic'
loop_
_space_group_symop_operation_xyz
x,y,z
-x,y,-z
-x,-y,-z
x,-y,z
loop_
_atom_site_type_symbol
_atom_site_label
_atom_site_fract_x
_atom_site_fract_y
_atom_site_fract_z
Si Si1 0.198791 0.172095 0.486329
Si Si2 0.069634 0.673439 0.845004
Si Si3 0.414330 0.325249 0.238698
Si Si4 0.730260 0.175181 0.565924
Si Si5 0.335368 0.324565 0.286131
Si Si6 0.755808 0.824748 0.199026
Si Si7 0.388337 0.325039 0.984990
Si Si8 0.079400 0.323747 0.951410
O O1 0.366917 0.259385 0.625176
O O2 0.194822 0.223512 0.432720
O O3 0.983480 0.206125 0.364414
O O4 0.253104 0.000000 0.525223
O O5 0.015559 0.500000 0.806741
O O6 0.268541 0.709072 0.949818
O O7 0.111759 0.726283 0.922692
O O8 0.881982 0.762732 0.702535
O O9 0.432058 0.500000 0.245048
O O10 0.338678 0.280573 0.236906
O O11 0.259023 0.257755 0.100204
O O12 0.513690 0.244760 0.430709
O O13 0.717294 0.000000 0.562809
O O14 0.359327 0.500000 0.308723
O O15 0.130382 0.262882 0.170047
O O16 0.721109 0.756432 0.127804
O O17 0.711189 0.000000 0.167472
O O18 0.610136 0.744128 0.137201
O O19 0.401931 0.500000 0.984158
O O20 0.079346 0.500000 0.956354
#
# Coordination Sequence:
#
# PCOD8058217 Si02
#       8
#     4   4   4   4   4   4   4   4
#     4   9  18  31  48  71  98 126 154 193 241 287
#     4  10  20  33  49  68  98 134 162 192 234 289
#     4   9  17  30  52  76  94 119 160 207 244 278
#     4  10  19  32  48  69  99 129 160 197 240 286
#     4   9  17  31  52  74  95 121 159 205 247 285
#     4  10  18  30  49  71  97 128 157 187 237 290
#     4  10  19  29  45  72 100 124 156 197 233 275
#     4   9  18  33  51  71  95 127 164 199 240 288
#
# _framework density 17.443778999999999
#
# number of rings (size 3 to 8) (size 9 to 14) (size 15 to 20)
#    0.000    2.500    1.250    2.250    0.000    4.000 
#    0.000    4.375    0.000    3.750    0.000    5.250 
#    0.000    0.000    0.000    0.000    0.000    0.000 
#
# Total GULP energy -396782.174661 kJ/mol
# GULP energy per Si atom -12399.442958 kJ/mol
# Density = 1.740408 g / cm^3
# Si number density = 17.443779 Si / 1000 Ang^3
#
#
#
# Elastic Constant Matrix: (Units=GPa)
#
#
# Indices 1 2 3 4 5 6 
#
# 1 92.8576 34.1056 80.2307 0.0000 5.2634 0.0000
# 2 34.1056 51.2707 47.6784 0.0000 3.0112 0.0000
# 3 80.2307 47.6784 150.5602 0.0000 16.8422 0.0000
# 4 0.0000 0.0000 0.0000 16.3611 0.0000 4.5028
# 5 5.2634 3.0112 16.8422 0.0000 23.2643 0.0000
# 6 0.0000 0.0000 0.0000 4.5028 0.0000 13.0874
#
#
#
# Elastic Compliance Matrix: (Units=1/GPa)
#
#
# Indices 1 2 3 4 5 6 
#
# 1 0.021033 -0.004858 -0.010019 0.000000 0.003124 0.000000
# 2 -0.004858 0.028961 -0.006840 0.000000 0.002302 0.000000
# 3 -0.010019 -0.006840 0.015010 0.000000 -0.007714 0.000000
# 4 0.000000 0.000000 0.000000 0.067513 0.000000 -0.023229
# 5 0.003124 0.002302 -0.007714 0.000000 0.047564 0.000000
# 6 0.000000 0.000000 0.000000 -0.023229 0.000000 0.084401
#
#
# Mechanical properties :
#
#
# Convention : Reuss Voigt Hill
#
# Bulk Modulus (GPa) = 46.36029 68.74643 57.55336
# Shear Modulus (GPa) = 15.86756 19.38750 17.62753
#
# Velocity S-wave (km/s) = 3.01930 3.33742 3.18234
# Velocity P-wave (km/s) = 6.22812 7.37205 6.82410
#
# Compressibility (1/GPa) = 0.02157019
#
# Stress axis : x y z
#
# Youngs Moduli (GPa) = 47.54410 34.52865 66.62187
#
# Poissons Ratio (x) = 0.16772 0.66751
# Poissons Ratio (y) = 0.23095 0.45572
# Poissons Ratio (z) = 0.47636 0.23619
#
# Static dielectric constant tensor:
#      x y z
#    x 3.177780 0.000000 0.182950 
#    y 0.000000 3.114620 0.000000 
#    z 0.182950 0.000000 3.433490 
# 
# 
# High freq. dielectric constant tensor:
#      x y z
#    x 1.649070 0.000000 0.018000 
#    y 0.000000 1.664000 0.000000 
#    z 0.018000 0.000000 1.679800 
# 
# From -- ./inp_files/87209.got.cif
#   From: 2010.06.25/outbox.cif.g09.slc.cpg/sg10_44_cif.got.tgz:87209.got - 2010.06.27 22:07:45.
