data_PCOD8058505
_publ_section_title
;
Structure prediction by ZEFSAII (Michael W. Deem and Ramdas Pophale) SiO2 
 PCOD8058505
Probable space group: P 2/M
;
_chemical_formula_sum "Si O2"
_cell_formula_units_Z 32
_cell_length_a 12.306831
_cell_length_b 8.656145
_cell_length_c 23.626114
_cell_angle_alpha 90.000000
_cell_angle_beta 46.133101
_cell_angle_gamma 90.000000
_cell_volume 1814.550901
_symmetry_space_group_name_H-M "P 2/M"
_symmetry_group_IT_number 10
_symmetry_cell_setting 'monoclinic'
loop_
_space_group_symop_operation_xyz
x,y,z
-x,y,-z
-x,-y,-z
x,-y,z
loop_
_atom_site_type_symbol
_atom_site_label
_atom_site_fract_x
_atom_site_fract_y
_atom_site_fract_z
Si Si1 0.556954 0.319702 0.585193
Si Si2 0.939104 0.319522 0.583284
Si Si3 0.368436 0.179754 0.323132
Si Si4 0.125232 0.325796 0.002794
Si Si5 0.086996 0.180486 0.838266
Si Si6 0.215379 0.680490 0.683914
Si Si7 0.673439 0.179306 0.154861
Si Si8 0.816650 0.819856 0.423947
O O1 0.582812 0.500000 0.564609
O O2 0.615502 0.280086 0.626291
O O3 0.383537 0.271826 0.641733
O O4 0.649825 0.225813 0.504789
O O5 0.902730 0.500000 0.599211
O O6 0.787150 0.224299 0.651056
O O7 0.000000 0.270192 0.500000
O O8 0.061342 0.277501 0.585762
O O9 0.501244 0.219906 0.231239
O O10 0.372820 0.000000 0.338256
O O11 0.147133 0.500000 0.015960
O O12 0.072934 0.223064 0.075098
O O13 0.281740 0.265822 0.919401
O O14 0.000000 0.311316 0.000000
O O15 0.101775 0.276030 0.775204
O O16 0.223529 0.233444 0.829762
O O17 0.093289 0.000000 0.822358
O O18 0.203850 0.500000 0.673976
O O19 0.166070 0.779198 0.647841
O O20 0.700452 0.000000 0.134066
O O21 0.845133 0.000000 0.423546
#
# Coordination Sequence:
#
# PCOD8058505 Si02
#       8
#     4   4   4   4   4   4   4   4
#     4  11  22  36  54  77 107 142 177 217 266 316
#     4  11  23  39  58  78 103 137 177 223 273 318
#     4  11  21  34  55  81 107 139 179 221 266 315
#     4   9  17  28  45  71 103 140 177 212 256 312
#     4  10  18  31  50  74 106 142 177 213 261 313
#     4  11  23  37  54  77 109 143 179 219 263 318
#     4   9  18  31  48  74 107 139 173 216 262 311
#     4  12  25  39  57  77 102 138 182 226 267 314
#
# _framework density 17.635218999999999
#
# number of rings (size 3 to 8) (size 9 to 14) (size 15 to 20)
#    0.000    1.500    2.500    3.750    0.000    6.500 
#    0.000    0.000    0.000    0.000    0.000    0.875 
#    0.000    7.000    0.000    0.000    0.000    0.000 
#
# Total GULP energy -396961.870647 kJ/mol
# GULP energy per Si atom -12405.058458 kJ/mol
# Density = 1.759508 g / cm^3
# Si number density = 17.635219 Si / 1000 Ang^3
#
#
#
# Elastic Constant Matrix: (Units=GPa)
#
#
# Indices 1 2 3 4 5 6 
#
# 1 53.1248 14.6924 33.8164 0.0000 1.8123 0.0000
# 2 14.6924 56.0912 32.3336 0.0000 -4.5308 0.0000
# 3 33.8164 32.3336 124.3136 0.0000 -4.4922 0.0000
# 4 0.0000 0.0000 0.0000 34.1503 0.0000 0.0094
# 5 1.8123 -4.5308 -4.4922 0.0000 18.6835 0.0000
# 6 0.0000 0.0000 0.0000 0.0094 0.0000 24.2495
#
#
#
# Elastic Compliance Matrix: (Units=1/GPa)
#
#
# Indices 1 2 3 4 5 6 
#
# 1 0.023504 -0.003220 -0.005717 0.000000 -0.004435 0.000000
# 2 -0.003220 0.021686 -0.004603 0.000000 0.004464 0.000000
# 3 -0.005717 -0.004603 0.010871 0.000000 0.002052 0.000000
# 4 0.000000 0.000000 0.000000 0.029282 0.000000 -0.000011
# 5 -0.004435 0.004464 0.002052 0.000000 0.055529 0.000000
# 6 0.000000 0.000000 0.000000 -0.000011 0.000000 0.041238
#
#
# Mechanical properties :
#
#
# Convention : Reuss Voigt Hill
#
# Bulk Modulus (GPa) = 34.50462 43.91273 39.20867
# Shear Modulus (GPa) = 22.84675 25.59579 24.22127
#
# Velocity S-wave (km/s) = 3.60324 3.81386 3.71004
# Velocity P-wave (km/s) = 6.07613 6.65948 6.37448
#
# Compressibility (1/GPa) = 0.02898163
#
# Stress axis : x y z
#
# Youngs Moduli (GPa) = 42.54561 46.11363 91.99065
#
# Poissons Ratio (x) = 0.14847 0.52587
# Poissons Ratio (y) = 0.13698 0.42345
# Poissons Ratio (z) = 0.24322 0.21227
#
# Static dielectric constant tensor:
#      x y z
#    x 3.005700 0.000000 -0.089830 
#    y 0.000000 3.311540 0.000000 
#    z -0.089830 0.000000 3.409820 
# 
# 
# High freq. dielectric constant tensor:
#      x y z
#    x 1.639840 0.000000 -0.005200 
#    y 0.000000 1.695090 0.000000 
#    z -0.005200 0.000000 1.688230 
# 
# From -- ./inp_files/55244.got.cif
#   From: 2010.06.25/outbox.cif.g09.slc.cpg/sg10_28_cif.got.tgz:55244.got - 2010.06.27 22:07:45.
