data_PCOD8058679
_publ_section_title
;
Structure prediction by ZEFSAII (Michael W. Deem and Ramdas Pophale) SiO2 
 PCOD8058679
Probable space group: P 2/M
;
_chemical_formula_sum "Si O2"
_cell_formula_units_Z 32
_cell_length_a 12.515758
_cell_length_b 9.102730
_cell_length_c 31.710168
_cell_angle_alpha 90.000000
_cell_angle_beta 152.798431
_cell_angle_gamma 90.000000
_cell_volume 1651.428416
_symmetry_space_group_name_H-M "P 2/M"
_symmetry_group_IT_number 10
_symmetry_cell_setting 'monoclinic'
loop_
_space_group_symop_operation_xyz
x,y,z
-x,y,-z
-x,-y,-z
x,-y,z
loop_
_atom_site_type_symbol
_atom_site_label
_atom_site_fract_x
_atom_site_fract_y
_atom_site_fract_z
Si Si1 0.788968 0.673074 0.205951
Si Si2 0.110134 0.672411 0.663617
Si Si3 0.754518 0.836492 0.915457
Si Si4 0.533220 0.826224 0.261290
Si Si5 0.644533 0.835898 0.972731
Si Si6 0.367295 0.167178 0.495873
Si Si7 0.870172 0.825780 0.818365
Si Si8 0.182656 0.168521 0.295525
O O1 0.785540 0.500000 0.199327
O O2 0.769079 0.716177 0.248712
O O3 0.585427 0.735443 0.102983
O O4 0.033686 0.734718 0.275263
O O5 0.119701 0.500000 0.660459
O O6 0.218113 0.746554 0.658599
O O7 0.842684 0.722209 0.570502
O O8 0.578459 0.763711 0.821274
O O9 0.658081 0.845052 0.927745
O O10 0.797776 0.000000 0.911522
O O11 0.000000 0.749126 0.000000
O O12 0.362093 0.768550 0.238469
O O13 0.577657 0.000000 0.280375
O O14 0.601287 0.000000 0.976362
O O15 0.882482 0.765970 0.075768
O O16 0.500000 0.212287 0.500000
O O17 0.545256 0.182355 0.597469
O O18 0.272539 0.000000 0.459003
O O19 0.850186 0.772469 0.763516
O O20 0.874228 0.000000 0.824813
O O21 0.097899 0.000000 0.269375
#
# Coordination Sequence:
#
# PCOD8058679 Si02
#       8
#     4   4   4   4   4   4   4   4
#     4  11  23  36  52  80 115 148 182 224 275 324
#     4  11  23  36  54  84 117 143 177 227 280 328
#     4   9  14  23  46  78 105 133 174 221 260 303
#     4  10  18  32  56  83 112 143 181 224 270 321
#     4  10  18  31  54  82 111 144 184 224 267 317
#     4  10  20  36  61  87 107 134 179 231 283 331
#     4   9  19  35  58  85 110 144 186 227 268 317
#     4  10  21  39  60  82 109 139 180 230 278 329
#
# _framework density 19.377165000000002
#
# number of rings (size 3 to 8) (size 9 to 14) (size 15 to 20)
#    0.000    2.000    3.750    0.750    0.000    2.250 
#    0.000    5.000    0.000    6.000    0.000    0.000 
#    0.000    0.000    0.000    0.000    0.000    0.000 
#
# Total GULP energy -396464.775310 kJ/mol
# GULP energy per Si atom -12389.524228 kJ/mol
# Density = 1.933306 g / cm^3
# Si number density = 19.377165 Si / 1000 Ang^3
#
#
#
# Elastic Constant Matrix: (Units=GPa)
#
#
# Indices 1 2 3 4 5 6 
#
# 1 77.0903 34.3824 27.0871 0.0000 6.7168 0.0000
# 2 34.3824 56.4410 30.7155 0.0000 9.4238 0.0000
# 3 27.0871 30.7155 80.2901 0.0000 8.5012 0.0000
# 4 0.0000 0.0000 0.0000 8.9404 0.0000 -4.7520
# 5 6.7168 9.4238 8.5012 0.0000 30.6910 0.0000
# 6 0.0000 0.0000 0.0000 -4.7520 0.0000 8.4896
#
#
#
# Elastic Compliance Matrix: (Units=1/GPa)
#
#
# Indices 1 2 3 4 5 6 
#
# 1 0.018171 -0.009720 -0.002376 0.000000 -0.000334 0.000000
# 2 -0.009720 0.028235 -0.007036 0.000000 -0.004593 0.000000
# 3 -0.002376 -0.007036 0.016138 0.000000 -0.001790 0.000000
# 4 0.000000 0.000000 0.000000 0.159224 0.000000 0.089125
# 5 -0.000334 -0.004593 -0.001790 0.000000 0.034562 0.000000
# 6 0.000000 0.000000 0.000000 0.089125 0.000000 0.167678
#
#
# Mechanical properties :
#
#
# Convention : Reuss Voigt Hill
#
# Bulk Modulus (GPa) = 41.18856 44.24349 42.71603
# Shear Modulus (GPa) = 10.63002 17.73328 14.18165
#
# Velocity S-wave (km/s) = 2.34473 3.02845 2.70825
# Velocity P-wave (km/s) = 5.35096 5.92546 5.64552
#
# Compressibility (1/GPa) = 0.02427858
#
# Stress axis : x y z
#
# Youngs Moduli (GPa) = 55.03207 35.41713 61.96709
#
# Poissons Ratio (x) = 0.34427 0.14726
# Poissons Ratio (y) = 0.53494 0.43599
# Poissons Ratio (z) = 0.13078 0.24919
#
# Static dielectric constant tensor:
#      x y z
#    x 3.545980 0.000000 0.076900 
#    y 0.000000 3.203410 0.000000 
#    z 0.076900 0.000000 3.679160 
# 
# 
# High freq. dielectric constant tensor:
#      x y z
#    x 1.749710 0.000000 0.013100 
#    y 0.000000 1.712510 0.000000 
#    z 0.013100 0.000000 1.756040 
# 
# From -- ./inp_files/95084.got.cif
#   From: 2010.06.25/outbox.cif.g09.slc.cpg/sg10_48_cif.got.tgz:95084.got - 2010.06.27 22:07:45.
