data_PCOD8058547
_publ_section_title
;
Structure prediction by ZEFSAII (Michael W. Deem and Ramdas Pophale) SiO2 
 PCOD8058547
Probable space group: P 2/M
;
_chemical_formula_sum "Si O2"
_cell_formula_units_Z 26
_cell_length_a 26.461107
_cell_length_b 9.256392
_cell_length_c 11.508796
_cell_angle_alpha 90.000000
_cell_angle_beta 154.290496
_cell_angle_gamma 90.000000
_cell_volume 1222.862824
_symmetry_space_group_name_H-M "P 2/M"
_symmetry_group_IT_number 10
_symmetry_cell_setting 'monoclinic'
loop_
_space_group_symop_operation_xyz
x,y,z
-x,y,-z
-x,-y,-z
x,-y,z
loop_
_atom_site_type_symbol
_atom_site_label
_atom_site_fract_x
_atom_site_fract_y
_atom_site_fract_z
Si Si1 0.881164 0.836601 0.182316
Si Si2 0.994455 0.658950 0.735357
Si Si3 0.253561 0.841056 0.512679
Si Si4 0.000000 0.750016 0.000000
Si Si5 0.241384 0.669991 0.881328
Si Si6 0.580022 0.336601 0.278876
Si Si7 0.398580 0.169991 0.038550
O O1 0.783868 0.740248 0.045001
O O2 0.000000 0.831699 0.500000
O O3 0.908523 0.769956 0.112144
O O4 0.835361 0.000000 0.072469
O O5 0.024202 0.500000 0.747858
O O6 0.866311 0.703451 0.427033
O O7 0.995792 0.651361 0.877144
O O8 0.114447 0.848658 0.233130
O O9 0.295089 0.730039 0.498716
O O10 0.305602 0.796569 0.744903
O O11 0.300551 0.000000 0.576890
O O12 0.266387 0.500000 0.946698
O O13 0.353971 0.749995 0.061906
O O14 0.598250 0.500000 0.361129
O O15 0.500000 0.331703 0.000000
O O16 0.522754 0.240246 0.261641
O O17 0.413935 0.000000 0.094271
#
# Coordination Sequence:
#
# PCOD8058547 Si02
#       7
#     4   4   4   2   4   4   4
#     4   9  18  32  50  71  98 133 173 219 268 314
#     4  10  21  34  49  71 103 142 180 217 259 310
#     4  10  21  34  49  71 103 142 180 217 259 310
#     4  12  22  36  52  78 108 148 184 216 250 312
#     4  10  18  31  51  76 104 134 173 219 267 315
#     4   9  18  32  50  71  98 133 173 219 268 314
#     4  10  18  31  51  76 104 134 173 219 267 315
#
# _framework density 21.261583000000002
#
# number of rings (size 3 to 8) (size 9 to 14) (size 15 to 20)
#    0.000    2.154    1.538    2.308    0.000    7.385 
#    0.000    0.000    0.000    0.000    0.000    1.077 
#    0.000    7.385    0.000    0.000    0.000    0.000 
#
# Total GULP energy -322382.115718 kJ/mol
# GULP energy per Si atom -12399.312143 kJ/mol
# Density = 2.121319 g / cm^3
# Si number density = 21.261583 Si / 1000 Ang^3
#
#
#
# Elastic Constant Matrix: (Units=GPa)
#
#
# Indices 1 2 3 4 5 6 
#
# 1 157.5235 85.6342 22.4070 0.0000 25.4090 0.0000
# 2 85.6342 161.5059 12.2073 0.0000 23.4132 0.0000
# 3 22.4070 12.2073 32.3313 0.0000 14.5047 0.0000
# 4 0.0000 0.0000 0.0000 12.3450 0.0000 9.7193
# 5 25.4090 23.4132 14.5047 0.0000 31.1845 0.0000
# 6 0.0000 0.0000 0.0000 9.7193 0.0000 42.8281
#
#
#
# Elastic Compliance Matrix: (Units=1/GPa)
#
#
# Indices 1 2 3 4 5 6 
#
# 1 0.009790 -0.004492 -0.003820 0.000000 -0.002827 0.000000
# 2 -0.004492 0.009013 0.001395 0.000000 -0.003755 0.000000
# 3 -0.003820 0.001395 0.040595 0.000000 -0.016817 0.000000
# 4 0.000000 0.000000 0.000000 0.098625 0.000000 -0.022382
# 5 -0.002827 -0.003755 -0.016817 0.000000 0.045012 0.000000
# 6 0.000000 0.000000 0.000000 -0.022382 0.000000 0.028428
#
#
# Mechanical properties :
#
#
# Convention : Reuss Voigt Hill
#
# Bulk Modulus (GPa) = 21.94786 65.76199 43.85492
# Shear Modulus (GPa) = 19.19494 32.67901 25.93697
#
# Velocity S-wave (km/s) = 3.00792 3.92471 3.49649
# Velocity P-wave (km/s) = 4.73378 7.17878 6.08044
#
# Compressibility (1/GPa) = 0.04556254
#
# Stress axis : x y z
#
# Youngs Moduli (GPa) = 102.14755 110.95671 24.63356
#
# Poissons Ratio (x) = 0.49844 0.09411
# Poissons Ratio (y) = 0.45886 -0.03437
# Poissons Ratio (z) = 0.39024 -0.15480
#
# Static dielectric constant tensor:
#      x y z
#    x 3.877590 0.000000 0.184080 
#    y 0.000000 3.817410 0.000000 
#    z 0.184080 0.000000 3.299860 
# 
# 
# High freq. dielectric constant tensor:
#      x y z
#    x 1.837630 0.000000 0.017720 
#    y 0.000000 1.841090 0.000000 
#    z 0.017720 0.000000 1.782040 
# 
# From -- ./inp_files/57480.got.cif
#   From: 2010.06.25/outbox.cif.g09.slc.cpg/sg10_29_cif.got.tgz:57480.got - 2010.06.27 22:07:45.
