data_PCOD8058543
_publ_section_title
;
Structure prediction by ZEFSAII (Michael W. Deem and Ramdas Pophale) SiO2 
 PCOD8058543
Probable space group: P 2/M
;
_chemical_formula_sum "Si O2"
_cell_formula_units_Z 28
_cell_length_a 18.765383
_cell_length_b 8.595078
_cell_length_c 14.894411
_cell_angle_alpha 90.000000
_cell_angle_beta 141.973073
_cell_angle_gamma 90.000000
_cell_volume 1479.904467
_symmetry_space_group_name_H-M "P 2/M"
_symmetry_group_IT_number 10
_symmetry_cell_setting 'monoclinic'
loop_
_space_group_symop_operation_xyz
x,y,z
-x,y,-z
-x,-y,-z
x,-y,z
loop_
_atom_site_type_symbol
_atom_site_label
_atom_site_fract_x
_atom_site_fract_y
_atom_site_fract_z
Si Si1 0.258015 0.318368 0.733177
Si Si2 0.969342 0.181889 0.869964
Si Si3 0.331978 0.180669 0.992400
Si Si4 0.882218 0.316858 0.142758
Si Si5 0.074473 0.816255 0.439703
Si Si6 0.572642 0.680130 0.259264
Si Si7 0.781875 0.319948 0.579714
O O1 0.231245 0.500000 0.699960
O O2 0.309406 0.277587 0.880165
O O3 0.135534 0.227439 0.594845
O O4 0.353480 0.268566 0.754292
O O5 0.051359 0.271265 0.881907
O O6 0.834166 0.223977 0.715957
O O7 0.990246 0.000000 0.878671
O O8 0.000000 0.238257 0.000000
O O9 0.243691 0.236908 0.982076
O O10 0.316295 0.000000 0.956587
O O11 0.460476 0.213047 0.155486
O O12 0.867812 0.500000 0.133816
O O13 0.946893 0.255238 0.297512
O O14 0.152912 0.734774 0.443742
O O15 0.068155 0.000000 0.420714
O O16 0.536586 0.500000 0.214751
O O17 0.646016 0.707573 0.424484
O O18 0.808687 0.500000 0.623327
#
# Coordination Sequence:
#
# PCOD8058543 Si02
#       7
#     4   4   4   4   4   4   4
#     4  10  20  35  53  74 102 138 182 224 261 303
#     4  10  20  35  58  87 114 135 161 205 258 309
#     4  12  24  35  50  74 104 139 179 221 265 308
#     4  11  22  37  55  75 104 140 175 210 258 316
#     4  10  18  31  51  75 104 134 171 218 264 308
#     4   9  19  35  53  74 103 140 180 219 256 299
#     4   9  17  31  53  79 106 137 173 210 251 303
#
# _framework density 18.92014
#
# number of rings (size 3 to 8) (size 9 to 14) (size 15 to 20)
#    0.000    1.857    0.000    8.143    0.000    6.857 
#    0.000    2.857    0.000    0.857    0.000    6.000 
#    0.000    0.000    0.000    0.000    0.000    0.000 
#
# Total GULP energy -347128.937828 kJ/mol
# GULP energy per Si atom -12397.462065 kJ/mol
# Density = 1.887708 g / cm^3
# Si number density = 18.920140 Si / 1000 Ang^3
#
#
#
# Elastic Constant Matrix: (Units=GPa)
#
#
# Indices 1 2 3 4 5 6 
#
# 1 52.4717 14.6563 43.2709 0.0000 -1.4063 0.0000
# 2 14.6563 76.6442 18.3962 0.0000 7.3281 0.0000
# 3 43.2709 18.3962 104.6751 0.0000 -8.3262 0.0000
# 4 0.0000 0.0000 0.0000 33.2487 0.0000 -1.9887
# 5 -1.4063 7.3281 -8.3262 0.0000 26.1892 0.0000
# 6 0.0000 0.0000 0.0000 -1.9887 0.0000 20.2329
#
#
#
# Elastic Compliance Matrix: (Units=1/GPa)
#
#
# Indices 1 2 3 4 5 6 
#
# 1 0.029543 -0.002666 -0.011858 0.000000 -0.001438 0.000000
# 2 -0.002666 0.014448 -0.001816 0.000000 -0.004763 0.000000
# 3 -0.011858 -0.001816 0.015147 0.000000 0.004687 0.000000
# 4 0.000000 0.000000 0.000000 0.030254 0.000000 0.002974
# 5 -0.001438 -0.004763 0.004687 0.000000 0.040929 0.000000
# 6 0.000000 0.000000 0.000000 0.002974 0.000000 0.049717
#
#
# Mechanical properties :
#
#
# Convention : Reuss Voigt Hill
#
# Bulk Modulus (GPa) = 37.79535 42.93752 40.36643
# Shear Modulus (GPa) = 22.56936 26.43202 24.50069
#
# Velocity S-wave (km/s) = 3.45755 3.74174 3.60245
# Velocity P-wave (km/s) = 5.99659 6.43513 6.21973
#
# Compressibility (1/GPa) = 0.02645828
#
# Stress axis : x y z
#
# Youngs Moduli (GPa) = 33.84897 69.21177 66.01761
#
# Poissons Ratio (x) = 0.18449 0.78287
# Poissons Ratio (y) = 0.09023 0.11990
# Poissons Ratio (z) = 0.40140 0.12570
#
# Static dielectric constant tensor:
#      x y z
#    x 3.143530 0.000000 0.004320 
#    y 0.000000 3.466440 0.000000 
#    z 0.004320 0.000000 4.103290 
# 
# 
# High freq. dielectric constant tensor:
#      x y z
#    x 1.689560 0.000000 0.005530 
#    y 0.000000 1.747830 0.000000 
#    z 0.005530 0.000000 1.747240 
# 
# From -- ./inp_files/79279.got.cif
#   From: 2010.06.25/outbox.cif.g09.slc.cpg/sg10_40_cif.got.tgz:79279.got - 2010.06.27 22:07:45.
