data_PCOD8058695
_publ_section_title
;
Structure prediction by ZEFSAII (Michael W. Deem and Ramdas Pophale) SiO2 
 PCOD8058695
Probable space group: P 2/M
;
_chemical_formula_sum "Si O2"
_cell_formula_units_Z 32
_cell_length_a 31.372847
_cell_length_b 9.059464
_cell_length_c 12.144504
_cell_angle_alpha 90.000000
_cell_angle_beta 28.658026
_cell_angle_gamma 90.000000
_cell_volume 1655.381097
_symmetry_space_group_name_H-M "P 2/M"
_symmetry_group_IT_number 10
_symmetry_cell_setting 'monoclinic'
loop_
_space_group_symop_operation_xyz
x,y,z
-x,y,-z
-x,-y,-z
x,-y,z
loop_
_atom_site_type_symbol
_atom_site_label
_atom_site_fract_x
_atom_site_fract_y
_atom_site_fract_z
Si Si1 0.588772 0.167035 0.729244
Si Si2 0.605951 0.673122 0.105261
Si Si3 0.677976 0.673599 0.714119
Si Si4 0.261833 0.674315 0.007342
Si Si5 0.996031 0.674052 0.195257
Si Si6 0.414191 0.328871 0.492855
Si Si7 0.125367 0.327237 0.723669
Si Si8 0.068274 0.174544 0.442611
O O1 0.660592 0.254013 0.636479
O O2 0.580094 0.234810 0.629432
O O3 0.619802 0.000000 0.644742
O O4 0.500000 0.181817 0.000000
O O5 0.623730 0.500000 0.069104
O O6 0.679368 0.739354 0.023385
O O7 0.502140 0.708280 0.368595
O O8 0.619874 0.731980 0.948683
O O9 0.667426 0.500000 0.722403
O O10 0.776154 0.726189 0.519660
O O11 0.244035 0.500000 0.060922
O O12 0.323184 0.707680 0.762296
O O13 0.166497 0.752647 0.208878
O O14 0.984442 0.500000 0.248964
O O15 0.929176 0.738214 0.254660
O O16 0.981602 0.768223 0.336642
O O17 0.091879 0.712105 0.923396
O O18 0.417918 0.500000 0.451127
O O19 0.113250 0.500000 0.738272
O O20 0.000000 0.218434 0.500000
O O21 0.082693 0.000000 0.415038
#
# Coordination Sequence:
#
# PCOD8058695 Si02
#       8
#     4   4   4   4   4   4   4   4
#     4  11  23  37  51  72 109 152 191 226 263 311
#     4   9  17  32  58  89 118 144 176 227 281 329
#     4  10  18  31  55  83 112 146 185 223 272 329
#     4  10  21  38  62  90 113 139 184 235 282 334
#     4   9  17  35  61  84 111 141 178 228 283 334
#     4  10  20  36  60  87 114 147 186 228 277 333
#     4   8  16  31  56  90 115 136 173 231 287 331
#     4  11  25  42  57  77 112 154 192 231 280 333
#
# _framework density 19.330895000000002
#
# number of rings (size 3 to 8) (size 9 to 14) (size 15 to 20)
#    0.000    2.250    1.250    2.625    0.000    6.500 
#    0.000    8.750    0.000    1.500    0.000    0.000 
#    0.000    0.000    0.000    0.000    0.000    0.000 
#
# Total GULP energy -396464.709609 kJ/mol
# GULP energy per Si atom -12389.522175 kJ/mol
# Density = 1.928690 g / cm^3
# Si number density = 19.330895 Si / 1000 Ang^3
#
#
#
# Elastic Constant Matrix: (Units=GPa)
#
#
# Indices 1 2 3 4 5 6 
#
# 1 122.8640 46.7871 39.7558 0.0000 11.3831 0.0000
# 2 46.7871 59.6304 33.2564 0.0000 8.2490 0.0000
# 3 39.7558 33.2564 93.0661 0.0000 -3.4083 0.0000
# 4 0.0000 0.0000 0.0000 3.7690 0.0000 -13.9721
# 5 11.3831 8.2490 -3.4083 0.0000 43.4494 0.0000
# 6 0.0000 0.0000 0.0000 -13.9721 0.0000 -16.6321
#
#
#
# Elastic Compliance Matrix: (Units=1/GPa)
#
#
# Indices 1 2 3 4 5 6 
#
# 1 0.012097 -0.007885 -0.002418 0.000000 -0.001862 0.000000
# 2 -0.007885 0.027032 -0.006422 0.000000 -0.003570 0.000000
# 3 -0.002418 -0.006422 0.014181 0.000000 0.002965 0.000000
# 4 0.000000 0.000000 0.000000 0.064489 0.000000 -0.054175
# 5 -0.001862 -0.003570 0.002965 0.000000 0.024413 0.000000
# 6 0.000000 0.000000 0.000000 -0.054175 0.000000 -0.014614
#
#
# Mechanical properties :
#
#
# Convention : Reuss Voigt Hill
#
# Bulk Modulus (GPa) = 50.35260 57.23990 53.79625
# Shear Modulus (GPa) = 29.82052 16.50134 23.16093
#
# Velocity S-wave (km/s) = 3.93190 2.92486 3.46516
# Velocity P-wave (km/s) = 6.83501 6.40946 6.62566
#
# Compressibility (1/GPa) = 0.01985995
#
# Stress axis : x y z
#
# Youngs Moduli (GPa) = 82.66728 36.99254 70.51482
#
# Poissons Ratio (x) = 0.29170 0.17050
# Poissons Ratio (y) = 0.65185 0.45286
# Poissons Ratio (z) = 0.19988 0.23757
#
# Static dielectric constant tensor:
#      x y z
#    x 3.523500 0.000000 0.053950 
#    y 0.000000 3.212080 0.000000 
#    z 0.053950 0.000000 3.725040 
# 
# 
# High freq. dielectric constant tensor:
#      x y z
#    x 1.758640 0.000000 0.000740 
#    y 0.000000 1.711920 0.000000 
#    z 0.000740 0.000000 1.765930 
# 
# From -- ./inp_files/58120.got.cif
#   From: 2010.06.25/outbox.cif.g09.slc.cpg/sg10_30_cif.got.tgz:58120.got - 2010.06.27 22:07:45.
