data_PCOD8058369
_publ_section_title
;
Structure prediction by ZEFSAII (Michael W. Deem and Ramdas Pophale) SiO2 
 PCOD8058369
Probable space group: P 2/M
;
_chemical_formula_sum "Si O2"
_cell_formula_units_Z 32
_cell_length_a 12.390690
_cell_length_b 9.177544
_cell_length_c 28.831289
_cell_angle_alpha 90.000000
_cell_angle_beta 30.405505
_cell_angle_gamma 90.000000
_cell_volume 1659.344790
_symmetry_space_group_name_H-M "P 2/M"
_symmetry_group_IT_number 10
_symmetry_cell_setting 'monoclinic'
loop_
_space_group_symop_operation_xyz
x,y,z
-x,y,-z
-x,-y,-z
x,-y,z
loop_
_atom_site_type_symbol
_atom_site_label
_atom_site_fract_x
_atom_site_fract_y
_atom_site_fract_z
Si Si1 0.739502 0.326559 0.220052
Si Si2 0.252023 0.673744 0.676710
Si Si3 0.452196 0.663763 0.158653
Si Si4 0.009337 0.833469 0.547320
Si Si5 0.078312 0.326638 0.020875
Si Si6 0.375834 0.338492 0.289913
Si Si7 0.026520 0.827349 0.290233
Si Si8 0.666237 0.833455 0.498385
O O1 0.741540 0.500000 0.217978
O O2 0.748128 0.271803 0.269894
O O3 0.521965 0.269730 0.276425
O O4 0.934912 0.265939 0.116623
O O5 0.243572 0.500000 0.675729
O O6 0.460158 0.731063 0.571529
O O7 0.044650 0.745934 0.730377
O O8 0.395140 0.500000 0.162257
O O9 0.502225 0.658758 0.194981
O O10 0.261634 0.771642 0.215842
O O11 0.679566 0.719861 0.054922
O O12 0.833195 0.754887 0.643401
O O13 0.000000 0.761234 0.500000
O O14 0.240807 0.814938 0.484227
O O15 0.939492 0.000000 0.570818
O O16 0.063774 0.500000 0.023732
O O17 0.000000 0.262280 0.000000
O O18 0.303955 0.500000 0.331298
O O19 0.852340 0.786474 0.394039
O O20 0.037709 0.000000 0.278473
O O21 0.594631 0.000000 0.515454
#
# Coordination Sequence:
#
# PCOD8058369 Si02
#       8
#     4   4   4   4   4   4   4   4
#     4   9  18  33  53  83 118 146 174 219 280 332
#     4  11  23  37  56  82 111 142 184 234 275 317
#     4  10  19  32  57  89 111 135 179 228 269 318
#     4  10  20  33  49  73 108 148 185 217 260 325
#     4   9  15  29  56  87 116 144 175 216 270 331
#     4  10  18  30  52  81 112 140 172 218 273 325
#     4  11  23  40  59  76 107 151 189 227 272 323
#     4  10  21  37  55  77 105 144 189 226 270 326
#
# _framework density 19.284721000000001
#
# number of rings (size 3 to 8) (size 9 to 14) (size 15 to 20)
#    0.000    2.000    2.500    1.875    0.000    3.250 
#    0.000    1.250    0.000    6.375    0.000    0.000 
#    0.000    0.000    0.000    0.000    0.000    0.000 
#
# Total GULP energy -396659.969433 kJ/mol
# GULP energy per Si atom -12395.624045 kJ/mol
# Density = 1.924083 g / cm^3
# Si number density = 19.284721 Si / 1000 Ang^3
#
#
#
# Elastic Constant Matrix: (Units=GPa)
#
#
# Indices 1 2 3 4 5 6 
#
# 1 109.7147 32.9285 33.1668 0.0000 -16.0484 0.0000
# 2 32.9285 57.4121 32.7296 0.0000 -10.3080 0.0000
# 3 33.1668 32.7296 95.2507 0.0000 -14.1299 0.0000
# 4 0.0000 0.0000 0.0000 55.9631 0.0000 -12.1729
# 5 -16.0484 -10.3080 -14.1299 0.0000 24.1852 0.0000
# 6 0.0000 0.0000 0.0000 -12.1729 0.0000 25.5365
#
#
#
# Elastic Compliance Matrix: (Units=1/GPa)
#
#
# Indices 1 2 3 4 5 6 
#
# 1 0.011808 -0.004949 -0.001710 0.000000 0.004727 0.000000
# 2 -0.004949 0.024386 -0.006133 0.000000 0.003526 0.000000
# 3 -0.001710 -0.006133 0.013845 0.000000 0.004340 0.000000
# 4 0.000000 0.000000 0.000000 0.019936 0.000000 0.009503
# 5 0.004727 0.003526 0.004340 0.000000 0.048523 0.000000
# 6 0.000000 0.000000 0.000000 0.009503 0.000000 0.043690
#
#
# Mechanical properties :
#
#
# Convention : Reuss Voigt Hill
#
# Bulk Modulus (GPa) = 40.89040 51.11414 46.00227
# Shear Modulus (GPa) = 25.52012 32.04048 28.78030
#
# Velocity S-wave (km/s) = 3.64171 4.08050 3.86734
# Velocity P-wave (km/s) = 6.23958 6.98307 6.62176
#
# Compressibility (1/GPa) = 0.02445562
#
# Stress axis : x y z
#
# Youngs Moduli (GPa) = 84.68637 41.00735 72.22707
#
# Poissons Ratio (x) = 0.20295 0.12350
# Poissons Ratio (y) = 0.41912 0.44296
# Poissons Ratio (z) = 0.14480 0.25149
#
# Static dielectric constant tensor:
#      x y z
#    x 3.692220 0.000000 0.079090 
#    y 0.000000 3.172820 0.000000 
#    z 0.079090 0.000000 3.561330 
# 
# 
# High freq. dielectric constant tensor:
#      x y z
#    x 1.756960 0.000000 -0.007350 
#    y 0.000000 1.716640 0.000000 
#    z -0.007350 0.000000 1.745340 
# 
# From -- ./inp_files/63793.got.cif
#   From: 2010.06.25/outbox.cif.g09.slc.cpg/sg10_32_cif.got.tgz:63793.got - 2010.06.27 22:07:45.
