data_PCOD8058044
_publ_section_title
;
Structure prediction by ZEFSAII (Michael W. Deem and Ramdas Pophale) SiO2 
 PCOD8058044
Probable space group: P 2/M
;
_chemical_formula_sum "Si O2"
_cell_formula_units_Z 32
_cell_length_a 18.534637
_cell_length_b 12.895506
_cell_length_c 15.308561
_cell_angle_alpha 90.000000
_cell_angle_beta 30.263113
_cell_angle_gamma 90.000000
_cell_volume 1844.008684
_symmetry_space_group_name_H-M "P 2/M"
_symmetry_group_IT_number 10
_symmetry_cell_setting 'monoclinic'
loop_
_space_group_symop_operation_xyz
x,y,z
-x,y,-z
-x,-y,-z
x,-y,z
loop_
_atom_site_type_symbol
_atom_site_label
_atom_site_fract_x
_atom_site_fract_y
_atom_site_fract_z
Si Si1 0.993044 0.384888 0.803970
Si Si2 0.253966 0.615701 0.064287
Si Si3 0.405795 0.117896 0.684843
Si Si4 0.496509 0.712441 0.289645
Si Si5 0.134934 0.243379 0.913166
Si Si6 0.275010 0.622135 0.409482
Si Si7 0.633981 0.618508 0.414179
Si Si8 0.157872 0.376653 0.346552
O O1 0.985641 0.500000 0.854026
O O2 0.907834 0.384275 0.801702
O O3 0.154466 0.357970 0.608760
O O4 0.929784 0.303792 0.937577
O O5 0.319097 0.500000 0.996232
O O6 0.253681 0.660610 0.163381
O O7 0.342415 0.683134 0.902929
O O8 0.500000 0.127402 0.500000
O O9 0.490462 0.178114 0.673932
O O10 0.244134 0.156825 0.834677
O O11 0.393355 0.000000 0.729701
O O12 0.403991 0.702339 0.297625
O O13 0.414589 0.628017 0.435241
O O14 0.221175 0.320416 0.758827
O O15 0.000000 0.195538 0.000000
O O16 0.319188 0.500000 0.360683
O O17 0.227418 0.660999 0.363769
O O18 0.500000 0.665834 0.500000
O O19 0.661670 0.500000 0.359599
O O20 0.146863 0.500000 0.355577
O O21 0.000000 0.328236 0.500000
#
# Coordination Sequence:
#
# PCOD8058044 Si02
#       8
#     4   4   4   4   4   4   4   4
#     4  10  19  31  48  76 112 148 178 206 243 300
#     4  10  18  29  51  76 107 145 180 210 245 304
#     4  11  24  44  60  72  96 135 179 226 283 327
#     4  12  20  35  52  76 101 135 178 223 260 304
#     4  12  22  35  55  80 107 134 175 223 268 317
#     4  10  20  31  50  79 115 149 177 209 247 303
#     4  11  20  33  51  74 110 151 178 202 248 310
#     4   9  16  30  47  71 110 153 181 202 245 298
#
# _framework density 17.353497999999998
#
# number of rings (size 3 to 8) (size 9 to 14) (size 15 to 20)
#    0.000    1.375    5.000    2.250    0.000    4.750 
#    0.000    1.875    0.000    0.000    0.000    1.750 
#    0.000    2.000    0.000    0.000    0.000    0.000 
#
# Total GULP energy -396629.261809 kJ/mol
# GULP energy per Si atom -12394.664432 kJ/mol
# Density = 1.731400 g / cm^3
# Si number density = 17.353498 Si / 1000 Ang^3
#
#
#
# Elastic Constant Matrix: (Units=GPa)
#
#
# Indices 1 2 3 4 5 6 
#
# 1 106.0292 36.7437 29.4279 0.0000 -7.7684 0.0000
# 2 36.7437 75.1207 28.0861 0.0000 -2.0434 0.0000
# 3 29.4279 28.0861 67.2679 0.0000 -1.0972 0.0000
# 4 0.0000 0.0000 0.0000 11.8367 0.0000 -1.0953
# 5 -7.7684 -2.0434 -1.0972 0.0000 34.1561 0.0000
# 6 0.0000 0.0000 0.0000 -1.0953 0.0000 12.9057
#
#
#
# Elastic Compliance Matrix: (Units=1/GPa)
#
#
# Indices 1 2 3 4 5 6 
#
# 1 0.012134 -0.004622 -0.003340 0.000000 0.002376 0.000000
# 2 -0.004622 0.017553 -0.005310 0.000000 -0.000172 0.000000
# 3 -0.003340 -0.005310 0.018536 0.000000 -0.000482 0.000000
# 4 0.000000 0.000000 0.000000 0.085152 0.000000 0.007227
# 5 0.002376 -0.000172 -0.000482 0.000000 0.029792 0.000000
# 6 0.000000 0.000000 0.000000 0.007227 0.000000 0.078099
#
#
# Mechanical properties :
#
#
# Convention : Reuss Voigt Hill
#
# Bulk Modulus (GPa) = 46.12444 48.54813 47.33629
# Shear Modulus (GPa) = 18.17948 22.05703 20.11825
#
# Velocity S-wave (km/s) = 3.24017 3.56904 3.40857
# Velocity P-wave (km/s) = 6.37458 6.70975 6.54431
#
# Compressibility (1/GPa) = 0.02168048
#
# Stress axis : x y z
#
# Youngs Moduli (GPa) = 82.41271 56.96997 53.94874
#
# Poissons Ratio (x) = 0.26330 0.18018
# Poissons Ratio (y) = 0.38089 0.28645
# Poissons Ratio (z) = 0.27525 0.30250
#
# Static dielectric constant tensor:
#      x y z
#    x 3.456480 0.000000 -0.069560 
#    y 0.000000 2.810920 0.000000 
#    z -0.069560 0.000000 3.274790 
# 
# 
# High freq. dielectric constant tensor:
#      x y z
#    x 1.682050 0.000000 -0.004010 
#    y 0.000000 1.603210 0.000000 
#    z -0.004010 0.000000 1.682340 
# 
# From -- ./inp_files/29125.got.cif
#   From: 2010.06.25/outbox.cif.g09.slc.cpg/sg10_15_cif.got.tgz:29125.got - 2010.06.27 22:07:45.
