data_PCOD8058825
_publ_section_title
;
Structure prediction by ZEFSAII (Michael W. Deem and Ramdas Pophale) SiO2 
 PCOD8058825
Probable space group: P 2/M
;
_chemical_formula_sum "Si O2"
_cell_formula_units_Z 28
_cell_length_a 10.071802
_cell_length_b 9.146734
_cell_length_c 26.047825
_cell_angle_alpha 90.000000
_cell_angle_beta 140.575832
_cell_angle_gamma 90.000000
_cell_volume 1523.901843
_symmetry_space_group_name_H-M "P 2/M"
_symmetry_group_IT_number 10
_symmetry_cell_setting 'monoclinic'
loop_
_space_group_symop_operation_xyz
x,y,z
-x,y,-z
-x,-y,-z
x,-y,z
loop_
_atom_site_type_symbol
_atom_site_label
_atom_site_fract_x
_atom_site_fract_y
_atom_site_fract_z
Si Si1 0.929259 0.330551 0.822679
Si Si2 0.824818 0.665929 0.905245
Si Si3 0.829027 0.328919 0.338131
Si Si4 0.578018 0.171241 0.180951
Si Si5 0.847513 0.835251 0.502625
Si Si6 0.534302 0.669216 0.345347
Si Si7 0.665812 0.828829 0.090826
O O1 0.977108 0.500000 0.828607
O O2 0.928866 0.290441 0.882571
O O3 0.707336 0.287452 0.731628
O O4 0.107676 0.240623 0.848000
O O5 0.733879 0.500000 0.875194
O O6 0.642706 0.778287 0.862931
O O7 0.000000 0.680217 0.000000
O O8 0.865195 0.500000 0.340945
O O9 0.764287 0.256335 0.265071
O O10 0.647440 0.295730 0.325230
O O11 0.048496 0.257852 0.420769
O O12 0.582993 0.210128 0.122456
O O13 0.605715 0.000000 0.199445
O O14 0.629155 0.762753 0.420398
O O15 0.000000 0.832982 0.500000
O O16 0.805768 0.000000 0.509268
O O17 0.566162 0.500000 0.368501
O O18 0.692302 0.000000 0.090353
O O19 0.500000 0.764941 0.000000
#
# Coordination Sequence:
#
# PCOD8058825 Si02
#       7
#     4   4   4   4   4   4   4
#     4  10  20  35  55  81 108 139 182 227 268 322
#     4  10  20  35  55  80 108 137 175 225 277 326
#     4  10  18  32  53  77 110 145 178 219 271 320
#     4  11  22  35  54  79 109 142 182 227 271 324
#     4   9  17  28  46  77 112 142 178 216 259 319
#     4   9  17  31  50  76 110 142 176 218 268 321
#     4  10  23  41  56  75 107 146 186 226 273 329
#
# _framework density 18.373885999999999
#
# number of rings (size 3 to 8) (size 9 to 14) (size 15 to 20)
#    0.000    2.143    1.429    2.143    0.000    5.143 
#    0.000    0.000    0.000    0.857    0.000    6.000 
#    0.000    0.000    0.000    0.000    0.000    0.000 
#
# Total GULP energy -347285.468764 kJ/mol
# GULP energy per Si atom -12403.052456 kJ/mol
# Density = 1.833207 g / cm^3
# Si number density = 18.373886 Si / 1000 Ang^3
#
#
#
# Elastic Constant Matrix: (Units=GPa)
#
#
# Indices 1 2 3 4 5 6 
#
# 1 26.5542 26.6081 25.3241 0.0000 0.2769 0.0000
# 2 26.6081 86.1290 55.8235 0.0000 -8.7844 0.0000
# 3 25.3241 55.8235 118.1469 0.0000 -6.5133 0.0000
# 4 0.0000 0.0000 0.0000 36.1765 0.0000 0.3776
# 5 0.2769 -8.7844 -6.5133 0.0000 25.3400 0.0000
# 6 0.0000 0.0000 0.0000 0.3776 0.0000 24.2835
#
#
#
# Elastic Compliance Matrix: (Units=1/GPa)
#
#
# Indices 1 2 3 4 5 6 
#
# 1 0.058303 -0.014987 -0.005819 0.000000 -0.007329 0.000000
# 2 -0.014987 0.020962 -0.006372 0.000000 0.005792 0.000000
# 3 -0.005819 -0.006372 0.012785 0.000000 0.001141 0.000000
# 4 0.000000 0.000000 0.000000 0.027647 0.000000 -0.000430
# 5 -0.007329 0.005792 0.001141 0.000000 0.041845 0.000000
# 6 0.000000 0.000000 0.000000 -0.000430 0.000000 0.041187
#
#
# Mechanical properties :
#
#
# Convention : Reuss Voigt Hill
#
# Bulk Modulus (GPa) = 26.53138 49.59350 38.06244
# Shear Modulus (GPa) = 18.54256 25.36498 21.95377
#
# Velocity S-wave (km/s) = 3.18021 3.71953 3.46039
# Velocity P-wave (km/s) = 5.28735 6.74510 6.06021
#
# Compressibility (1/GPa) = 0.03769121
#
# Stress axis : x y z
#
# Youngs Moduli (GPa) = 17.15182 47.70645 78.21546
#
# Poissons Ratio (x) = 0.71499 0.45517
# Poissons Ratio (y) = 0.25706 0.49842
# Poissons Ratio (z) = 0.09981 0.30400
#
# Static dielectric constant tensor:
#      x y z
#    x 3.048520 0.000000 -0.122000 
#    y 0.000000 3.418510 0.000000 
#    z -0.122000 0.000000 3.619840 
# 
# 
# High freq. dielectric constant tensor:
#      x y z
#    x 1.675360 0.000000 -0.007420 
#    y 0.000000 1.715240 0.000000 
#    z -0.007420 0.000000 1.730180 
# 
# From -- ./inp_files/37233.got.cif
#   From: 2010.06.25/outbox.cif.g09.slc.cpg/sg10_19_cif.got.tgz:37233.got - 2010.06.27 22:07:45.
