data_PCOD8058985
_publ_section_title
;
Structure prediction by ZEFSAII (Michael W. Deem and Ramdas Pophale) SiO2 
 PCOD8058985
Probable space group: P 2/M
;
_chemical_formula_sum "Si O2"
_cell_formula_units_Z 24
_cell_length_a 15.829322
_cell_length_b 13.757586
_cell_length_c 14.205171
_cell_angle_alpha 90.000000
_cell_angle_beta 152.153565
_cell_angle_gamma 90.000000
_cell_volume 1444.987317
_symmetry_space_group_name_H-M "P 2/M"
_symmetry_group_IT_number 10
_symmetry_cell_setting 'monoclinic'
loop_
_space_group_symop_operation_xyz
x,y,z
-x,y,-z
-x,-y,-z
x,-y,z
loop_
_atom_site_type_symbol
_atom_site_label
_atom_site_fract_x
_atom_site_fract_y
_atom_site_fract_z
Si Si1 0.033341 0.612702 0.425587
Si Si2 0.800896 0.779093 0.914203
Si Si3 0.352255 0.703119 0.629107
Si Si4 0.214482 0.211222 0.315438
Si Si5 0.485637 0.890799 0.693992
Si Si6 0.722482 0.389183 0.975200
O O1 0.087972 0.500000 0.468857
O O2 0.197516 0.678799 0.550949
O O3 0.000000 0.641736 0.500000
O O4 0.851016 0.636925 0.189537
O O5 0.743319 0.759923 0.749851
O O6 0.680254 0.862007 0.843486
O O7 0.774561 0.675781 0.937658
O O8 0.005481 0.815831 0.123909
O O9 0.272392 0.699876 0.442875
O O10 0.429371 0.813790 0.721102
O O11 0.515202 0.627214 0.801925
O O12 0.335008 0.117083 0.462377
O O13 0.493369 0.000000 0.741854
O O14 0.749376 0.500000 0.970597
#
# Coordination Sequence:
#
# PCOD8058985 Si02
#       6
#     4   4   4   4   4   4
#     4  10  20  35  55  78 101 127 164 208 254 300
#     4  10  18  33  48  72 103 137 170 205 242 287
#     4   9  19  34  51  72 105 132 163 208 250 292
#     4   9  19  31  50  68 105 136 167 203 244 286
#     4   9  19  32  51  74 102 135 168 207 248 291
#     4  10  19  32  51  74 101 133 168 201 244 299
#
# _framework density 16.609143
#
# number of rings (size 3 to 8) (size 9 to 14) (size 15 to 20)
#    1.000    1.500    1.667    1.000    0.000    2.667 
#    0.000    8.333    0.000    0.500    0.000    4.667 
#    0.000    0.000    0.000    0.000    0.000    0.000 
#
# Total GULP energy -297405.420608 kJ/mol
# GULP energy per Si atom -12391.892525 kJ/mol
# Density = 1.657134 g / cm^3
# Si number density = 16.609143 Si / 1000 Ang^3
#
#
#
# Elastic Constant Matrix: (Units=GPa)
#
#
# Indices 1 2 3 4 5 6 
#
# 1 93.9988 47.6054 38.8548 0.0000 5.1444 0.0000
# 2 47.6054 88.5608 29.9820 0.0000 4.5830 0.0000
# 3 38.8548 29.9820 67.6040 0.0000 19.5649 0.0000
# 4 0.0000 0.0000 0.0000 9.9773 0.0000 -0.0408
# 5 5.1444 4.5830 19.5649 0.0000 25.2260 0.0000
# 6 0.0000 0.0000 0.0000 -0.0408 0.0000 16.9322
#
#
#
# Elastic Compliance Matrix: (Units=1/GPa)
#
#
# Indices 1 2 3 4 5 6 
#
# 1 0.017127 -0.006698 -0.008013 0.000000 0.003939 0.000000
# 2 -0.006698 0.016059 -0.003641 0.000000 0.001272 0.000000
# 3 -0.008013 -0.003641 0.026237 0.000000 -0.018053 0.000000
# 4 0.000000 0.000000 0.000000 0.100229 0.000000 0.000242
# 5 0.003939 0.001272 -0.018053 0.000000 0.052609 0.000000
# 6 0.000000 0.000000 0.000000 0.000242 0.000000 0.059060
#
#
# Mechanical properties :
#
#
# Convention : Reuss Voigt Hill
#
# Bulk Modulus (GPa) = 44.01479 53.67200 48.84339
# Shear Modulus (GPa) = 15.84300 19.34186 17.59243
#
# Velocity S-wave (km/s) = 3.09183 3.41622 3.25807
# Velocity P-wave (km/s) = 6.26927 6.92428 6.60490
#
# Compressibility (1/GPa) = 0.02271964
#
# Stress axis : x y z
#
# Youngs Moduli (GPa) = 58.38689 62.27185 38.11422
#
# Poissons Ratio (x) = 0.41707 0.30542
# Poissons Ratio (y) = 0.39105 0.13876
# Poissons Ratio (z) = 0.46787 0.22671
#
# Static dielectric constant tensor:
#      x y z
#    x 2.993000 0.000000 0.181050 
#    y 0.000000 2.857510 0.000000 
#    z 0.181050 0.000000 3.283560 
# 
# 
# High freq. dielectric constant tensor:
#      x y z
#    x 1.628880 0.000000 0.022230 
#    y 0.000000 1.615270 0.000000 
#    z 0.022230 0.000000 1.648430 
# 
# From -- ./inp_files/51680.got.cif
#   From: 2010.06.25/outbox.cif.g09.slc.cpg/sg10_26_cif.got.tgz:51680.got - 2010.06.27 22:07:45.
