data_PCOD8058135
_publ_section_title
;
Structure prediction by ZEFSAII (Michael W. Deem and Ramdas Pophale) SiO2 
 PCOD8058135
Probable space group: P 2/M
;
_chemical_formula_sum "Si O2"
_cell_formula_units_Z 24
_cell_length_a 15.116655
_cell_length_b 17.089296
_cell_length_c 10.221630
_cell_angle_alpha 90.000000
_cell_angle_beta 28.734080
_cell_angle_gamma 90.000000
_cell_volume 1269.448066
_symmetry_space_group_name_H-M "P 2/M"
_symmetry_group_IT_number 10
_symmetry_cell_setting 'monoclinic'
loop_
_space_group_symop_operation_xyz
x,y,z
-x,y,-z
-x,-y,-z
x,-y,z
loop_
_atom_site_type_symbol
_atom_site_label
_atom_site_fract_x
_atom_site_fract_y
_atom_site_fract_z
Si Si1 0.636723 0.334085 0.200521
Si Si2 0.228548 0.807794 0.434865
Si Si3 0.530691 0.500000 0.306967
Si Si4 0.915807 0.087364 0.752575
Si Si5 0.391965 0.192205 0.944620
Si Si6 0.973966 0.665914 0.188790
Si Si7 0.131653 0.500000 0.706007
O O1 0.500000 0.332422 0.500000
O O2 0.640507 0.420583 0.129476
O O3 0.570138 0.272535 0.179892
O O4 0.838869 0.310155 0.983394
O O5 0.409575 0.843712 0.271271
O O6 0.179832 0.727464 0.570196
O O7 0.059264 0.868848 0.662974
O O8 0.271171 0.788179 0.228828
O O9 0.500000 0.500000 0.500000
O O10 0.341111 0.500000 0.476667
O O11 0.000000 0.082683 0.500000
O O12 0.883355 0.000000 0.849937
O O13 0.718495 0.131151 0.003744
O O14 0.910489 0.579417 0.319527
O O15 0.000000 0.667580 0.000000
O O16 0.000000 0.500000 0.000000
#
# Coordination Sequence:
#
# PCOD8058135 Si02
#       7
#     4   4   2   4   4   4   2
#     4  11  20  33  53  78 106 142 181 221 263 313
#     4  10  20  35  55  81 110 139 176 220 265 315
#     4  10  18  30  47  72 105 136 181 222 259 304
#     4   9  18  34  56  81 107 137 174 217 264 317
#     4  10  20  35  55  81 110 139 176 220 265 315
#     4  11  20  33  53  78 106 142 181 221 263 313
#     4  10  18  30  47  72 105 136 181 222 259 304
#
# _framework density 18.905851999999999
#
# number of rings (size 3 to 8) (size 9 to 14) (size 15 to 20)
#    0.000    1.833    1.667    6.500    0.000    0.667 
#    0.000    4.167    0.000    6.000    0.000    0.000 
#    0.000    0.000    0.000    0.000    0.000    0.000 
#
# Total GULP energy -297545.004487 kJ/mol
# GULP energy per Si atom -12397.708520 kJ/mol
# Density = 1.886282 g / cm^3
# Si number density = 18.905852 Si / 1000 Ang^3
#
#
#
# Elastic Constant Matrix: (Units=GPa)
#
#
# Indices 1 2 3 4 5 6 
#
# 1 101.1153 45.0464 30.2089 0.0000 -29.5280 0.0000
# 2 45.0464 153.1031 38.0913 0.0000 -7.0784 0.0000
# 3 30.2089 38.0913 53.6581 0.0000 -18.7829 0.0000
# 4 0.0000 0.0000 0.0000 18.9762 0.0000 -5.8586
# 5 -29.5280 -7.0784 -18.7829 0.0000 31.8870 0.0000
# 6 0.0000 0.0000 0.0000 -5.8586 0.0000 24.7309
#
#
#
# Elastic Compliance Matrix: (Units=1/GPa)
#
#
# Indices 1 2 3 4 5 6 
#
# 1 0.015750 -0.003578 -0.001889 0.000000 0.012678 0.000000
# 2 -0.003578 0.008844 -0.005967 0.000000 -0.004865 0.000000
# 3 -0.001889 -0.005967 0.028798 0.000000 0.013889 0.000000
# 4 0.000000 0.000000 0.000000 0.056856 0.000000 0.013469
# 5 0.012678 -0.004865 0.013889 0.000000 0.050202 0.000000
# 6 0.000000 0.000000 0.000000 0.013469 0.000000 0.043626
#
#
# Mechanical properties :
#
#
# Convention : Reuss Voigt Hill
#
# Bulk Modulus (GPa) = 32.76125 59.39663 46.07894
# Shear Modulus (GPa) = 21.08648 28.08747 24.58698
#
# Velocity S-wave (km/s) = 3.34330 3.85859 3.61015
# Velocity P-wave (km/s) = 5.68065 7.16498 6.46555
#
# Compressibility (1/GPa) = 0.03052386
#
# Stress axis : x y z
#
# Youngs Moduli (GPa) = 63.49059 113.07333 34.72487
#
# Poissons Ratio (x) = 0.40456 0.06561
# Poissons Ratio (y) = 0.22716 0.20719
# Poissons Ratio (z) = 0.11996 0.67467
#
# Static dielectric constant tensor:
#      x y z
#    x 3.510960 0.000000 -0.303930 
#    y 0.000000 3.843210 0.000000 
#    z -0.303930 0.000000 3.212350 
# 
# 
# High freq. dielectric constant tensor:
#      x y z
#    x 1.737370 0.000000 -0.034420 
#    y 0.000000 1.736550 0.000000 
#    z -0.034420 0.000000 1.703550 
# 
# From -- ./inp_files/30055.got.cif
#   From: 2010.06.25/outbox.cif.g09.slc.cpg/sg10_16_cif.got.tgz:30055.got - 2010.06.27 22:07:45.
