data_PCOD8058290
_publ_section_title
;
Structure prediction by ZEFSAII (Michael W. Deem and Ramdas Pophale) SiO2 
 PCOD8058290
Probable space group: P 2/M
;
_chemical_formula_sum "Si O2"
_cell_formula_units_Z 32
_cell_length_a 16.547068
_cell_length_b 9.467308
_cell_length_c 23.110395
_cell_angle_alpha 90.000000
_cell_angle_beta 150.623578
_cell_angle_gamma 90.000000
_cell_volume 1775.963161
_symmetry_space_group_name_H-M "P 2/M"
_symmetry_group_IT_number 10
_symmetry_cell_setting 'monoclinic'
loop_
_space_group_symop_operation_xyz
x,y,z
-x,y,-z
-x,-y,-z
x,-y,z
loop_
_atom_site_type_symbol
_atom_site_label
_atom_site_fract_x
_atom_site_fract_y
_atom_site_fract_z
Si Si1 0.972926 0.333579 0.394255
Si Si2 0.635563 0.159164 0.628617
Si Si3 0.370433 0.844863 0.550899
Si Si4 0.046319 0.662026 0.189788
Si Si5 0.857709 0.335857 0.957375
Si Si6 0.071330 0.665543 0.333090
Si Si7 0.533099 0.836449 0.769027
Si Si8 0.270099 0.667470 0.661834
O O1 0.961994 0.500000 0.388639
O O2 0.813074 0.279834 0.329758
O O3 0.969291 0.276330 0.325296
O O4 0.143120 0.289558 0.531445
O O5 0.500000 0.220235 0.500000
O O6 0.555596 0.166565 0.641906
O O7 0.796130 0.251559 0.730086
O O8 0.684830 0.000000 0.641323
O O9 0.252791 0.731958 0.447263
O O10 0.392834 0.823782 0.632749
O O11 0.296328 0.000000 0.490989
O O12 0.100501 0.500000 0.222265
O O13 0.985780 0.701911 0.217667
O O14 0.908481 0.691771 0.055839
O O15 0.811541 0.500000 0.918660
O O16 0.699155 0.237946 0.850149
O O17 0.000000 0.292030 0.000000
O O18 0.096383 0.500000 0.356102
O O19 0.444369 0.750820 0.765794
O O20 0.569399 0.000000 0.808196
O O21 0.306903 0.500000 0.684111
#
# Coordination Sequence:
#
# PCOD8058290 Si02
#       8
#     4   4   4   4   4   4   4   4
#     4   8  15  28  49  77 106 136 167 201 250 311
#     4  10  19  31  47  67  98 137 167 195 242 307
#     4  10  20  32  45  70 104 134 166 202 246 302
#     4  10  21  34  51  76  99 126 171 219 257 297
#     4  10  22  40  57  73  99 137 179 220 259 299
#     4  10  18  30  50  75 103 130 161 204 253 302
#     4  11  22  34  52  78 105 134 174 218 256 299
#     4   9  16  30  52  76 104 138 172 202 247 311
#
# _framework density 18.018391999999999
#
# number of rings (size 3 to 8) (size 9 to 14) (size 15 to 20)
#    0.000    2.250    2.500    1.875    0.000    2.000 
#    0.000    1.875    0.000    0.750    0.000    5.250 
#    0.000    0.000    0.000    0.000    0.000    0.000 
#
# Total GULP energy -396509.950211 kJ/mol
# GULP energy per Si atom -12390.935944 kJ/mol
# Density = 1.797738 g / cm^3
# Si number density = 18.018392 Si / 1000 Ang^3
#
#
#
# Elastic Constant Matrix: (Units=GPa)
#
#
# Indices 1 2 3 4 5 6 
#
# 1 127.5043 40.6670 36.7668 0.0000 -1.8174 0.0000
# 2 40.6670 56.7181 28.8653 0.0000 7.9163 0.0000
# 3 36.7668 28.8653 43.2135 0.0000 -2.7382 0.0000
# 4 0.0000 0.0000 0.0000 32.2669 0.0000 20.7417
# 5 -1.8174 7.9163 -2.7382 0.0000 32.1843 0.0000
# 6 0.0000 0.0000 0.0000 20.7417 0.0000 41.7352
#
#
#
# Elastic Compliance Matrix: (Units=1/GPa)
#
#
# Indices 1 2 3 4 5 6 
#
# 1 0.011257 -0.005210 -0.006009 0.000000 0.001406 0.000000
# 2 -0.005210 0.031421 -0.017157 0.000000 -0.009482 0.000000
# 3 -0.006009 -0.017157 0.040176 0.000000 0.007299 0.000000
# 4 0.000000 0.000000 0.000000 0.045540 0.000000 -0.022633
# 5 0.001406 -0.009482 0.007299 0.000000 0.034104 0.000000
# 6 0.000000 0.000000 0.000000 -0.022633 0.000000 0.035209
#
#
# Mechanical properties :
#
#
# Convention : Reuss Voigt Hill
#
# Bulk Modulus (GPa) = 38.30847 48.89267 43.60057
# Shear Modulus (GPa) = 18.99987 29.31308 24.15648
#
# Velocity S-wave (km/s) = 3.25078 4.03779 3.66547
# Velocity P-wave (km/s) = 5.94954 6.99515 6.49343
#
# Compressibility (1/GPa) = 0.02610389
#
# Stress axis : x y z
#
# Youngs Moduli (GPa) = 88.83216 31.82535 24.89033
#
# Poissons Ratio (x) = 0.16580 0.14956
# Poissons Ratio (y) = 0.46278 0.42705
# Poissons Ratio (z) = 0.53378 0.54603
#
# Static dielectric constant tensor:
#      x y z
#    x 3.845850 0.000000 -0.257310 
#    y 0.000000 3.202540 0.000000 
#    z -0.257310 0.000000 3.058560 
# 
# 
# High freq. dielectric constant tensor:
#      x y z
#    x 1.711690 0.000000 -0.010810 
#    y 0.000000 1.684250 0.000000 
#    z -0.010810 0.000000 1.659080 
# 
# From -- ./inp_files/89952.got.cif
#   From: 2010.06.25/outbox.cif.g09.slc.cpg/sg10_45_cif.got.tgz:89952.got - 2010.06.27 22:07:45.
