data_PCOD8058533
_publ_section_title
;
Structure prediction by ZEFSAII (Michael W. Deem and Ramdas Pophale) SiO2 
 PCOD8058533
Probable space group: P 2/M
;
_chemical_formula_sum "Si O2"
_cell_formula_units_Z 32
_cell_length_a 15.124383
_cell_length_b 8.481027
_cell_length_c 15.008580
_cell_angle_alpha 90.000000
_cell_angle_beta 100.647359
_cell_angle_gamma 90.000000
_cell_volume 1892.009605
_symmetry_space_group_name_H-M "P 2/M"
_symmetry_group_IT_number 10
_symmetry_cell_setting 'monoclinic'
loop_
_space_group_symop_operation_xyz
x,y,z
-x,y,-z
-x,-y,-z
x,-y,z
loop_
_atom_site_type_symbol
_atom_site_label
_atom_site_fract_x
_atom_site_fract_y
_atom_site_fract_z
Si Si1 0.583015 0.186675 0.625514
Si Si2 0.947136 0.681710 0.110730
Si Si3 0.614354 0.813067 0.431161
Si Si4 0.873606 0.184108 0.929031
Si Si5 0.878859 0.185545 0.608819
Si Si6 0.201192 0.682461 0.585127
Si Si7 0.923848 0.182276 0.292840
Si Si8 0.757136 0.187404 0.748762
O O1 0.481425 0.240910 0.629855
O O2 0.614065 0.243653 0.533725
O O3 0.655405 0.249874 0.711502
O O4 0.583411 0.000000 0.622917
O O5 0.974624 0.500000 0.108244
O O6 0.907817 0.718201 0.200321
O O7 0.034051 0.788878 0.107867
O O8 0.871930 0.721346 0.021739
O O9 0.693213 0.723352 0.394775
O O10 0.629583 0.000000 0.426425
O O11 0.791857 0.247140 0.851404
O O12 0.863605 0.000000 0.947658
O O13 0.844591 0.277005 0.516648
O O14 0.823083 0.248155 0.683236
O O15 0.982671 0.229512 0.642920
O O16 0.864511 0.000000 0.589905
O O17 0.187319 0.500000 0.603700
O O18 0.156669 0.783186 0.655082
O O19 0.924439 0.000000 0.266343
O O20 0.760445 0.000000 0.748334
#
# Coordination Sequence:
#
# PCOD8058533 Si02
#       8
#     4   4   4   4   4   4   4   4
#     4   8  14  26  50  76  95 120 163 209 245 279
#     4  11  21  33  48  71 101 130 161 206 252 291
#     4   9  16  30  51  71  93 128 167 204 241 286
#     4  10  18  31  51  73  98 132 169 202 240 292
#     4  10  19  34  52  70  95 131 172 206 236 279
#     4  12  24  34  46  70 102 135 166 204 246 289
#     4  11  22  37  54  70  91 130 175 210 241 288
#     4   9  15  27  50  77  99 124 164 208 241 279
#
# _framework density 16.913233999999999
#
# number of rings (size 3 to 8) (size 9 to 14) (size 15 to 20)
#    0.000    2.000    2.500    4.875    0.000    2.500 
#    0.000    1.250    0.000    0.000    0.000    0.875 
#    0.000    7.000    0.000    0.000    0.000    0.000 
#
# Total GULP energy -396740.486879 kJ/mol
# GULP energy per Si atom -12398.140215 kJ/mol
# Density = 1.687474 g / cm^3
# Si number density = 16.913234 Si / 1000 Ang^3
#
#
#
# Elastic Constant Matrix: (Units=GPa)
#
#
# Indices 1 2 3 4 5 6 
#
# 1 110.9567 12.3634 51.1474 0.0000 14.0581 0.0000
# 2 12.3634 42.0244 14.1349 0.0000 2.6707 0.0000
# 3 51.1474 14.1349 90.5789 0.0000 16.7760 0.0000
# 4 0.0000 0.0000 0.0000 13.4908 0.0000 -2.5460
# 5 14.0581 2.6707 16.7760 0.0000 26.1121 0.0000
# 6 0.0000 0.0000 0.0000 -2.5460 0.0000 10.1312
#
#
#
# Elastic Compliance Matrix: (Units=1/GPa)
#
#
# Indices 1 2 3 4 5 6 
#
# 1 0.012394 -0.001361 -0.006330 0.000000 -0.002467 0.000000
# 2 -0.001361 0.025263 -0.003214 0.000000 0.000213 0.000000
# 3 -0.006330 -0.003214 0.016372 0.000000 -0.006782 0.000000
# 4 0.000000 0.000000 0.000000 0.077815 0.000000 0.019555
# 5 -0.002467 0.000213 -0.006782 0.000000 0.043960 0.000000
# 6 0.000000 0.000000 0.000000 0.019555 0.000000 0.103620
#
#
# Mechanical properties :
#
#
# Convention : Reuss Voigt Hill
#
# Bulk Modulus (GPa) = 31.03465 44.31685 37.67575
# Shear Modulus (GPa) = 16.02706 21.00775 18.51741
#
# Velocity S-wave (km/s) = 3.08166 3.52815 3.31244
# Velocity P-wave (km/s) = 5.57237 6.54649 6.07897
#
# Compressibility (1/GPa) = 0.03222205
#
# Stress axis : x y z
#
# Youngs Moduli (GPa) = 80.68136 39.58312 61.08094
#
# Poissons Ratio (x) = 0.05386 0.38661
# Poissons Ratio (y) = 0.10978 0.19629
# Poissons Ratio (z) = 0.51067 0.12720
#
# Static dielectric constant tensor:
#      x y z
#    x 3.280910 0.000000 0.299500 
#    y 0.000000 2.920070 0.000000 
#    z 0.299500 0.000000 3.325470 
# 
# 
# High freq. dielectric constant tensor:
#      x y z
#    x 1.635450 0.000000 0.015580 
#    y 0.000000 1.635360 0.000000 
#    z 0.015580 0.000000 1.640750 
# 
# From -- ./inp_files/66211.got.cif
#   From: 2010.06.25/outbox.cif.g09.slc.cpg/sg10_34_cif.got.tgz:66211.got - 2010.06.27 22:07:45.
