data_PCOD8058276
_publ_section_title
;
Structure prediction by ZEFSAII (Michael W. Deem and Ramdas Pophale) SiO2 
 PCOD8058276
Probable space group: P 2/M
;
_chemical_formula_sum "Si O2"
_cell_formula_units_Z 28
_cell_length_a 16.769405
_cell_length_b 8.873355
_cell_length_c 19.707717
_cell_angle_alpha 90.000000
_cell_angle_beta 148.310276
_cell_angle_gamma 90.000000
_cell_volume 1540.511617
_symmetry_space_group_name_H-M "P 2/M"
_symmetry_group_IT_number 10
_symmetry_cell_setting 'monoclinic'
loop_
_space_group_symop_operation_xyz
x,y,z
-x,y,-z
-x,-y,-z
x,-y,z
loop_
_atom_site_type_symbol
_atom_site_label
_atom_site_fract_x
_atom_site_fract_y
_atom_site_fract_z
Si Si1 0.063795 0.820924 0.747950
Si Si2 0.346745 0.830505 0.346745
Si Si3 0.567892 0.820924 0.252048
Si Si4 0.189500 0.677919 0.350966
Si Si5 0.487570 0.322081 0.649034
Si Si6 0.590240 0.179020 0.000001
Si Si7 0.911381 0.179038 0.500000
O O1 0.970499 0.745310 0.741084
O O2 0.992830 0.762234 0.626402
O O3 0.052394 0.000000 0.747168
O O4 0.236791 0.763815 0.874781
O O5 0.500000 0.831670 0.500000
O O6 0.219432 0.743753 0.297785
O O7 0.376137 0.743758 0.297784
O O8 0.291090 0.000000 0.291092
O O9 0.488332 0.745303 0.258916
O O10 0.487225 0.763818 0.125216
O O11 0.740024 0.762237 0.373594
O O12 0.558053 0.000000 0.252832
O O13 0.178430 0.500000 0.337351
O O14 0.323480 0.726791 0.500000
O O15 0.503732 0.500000 0.662648
O O16 0.585398 0.000000 0.000003
O O17 0.500000 0.244737 0.000000
O O18 0.000000 0.247637 0.500000
O O19 0.915301 0.000000 0.500003
#
# Coordination Sequence:
#
# PCOD8058276 Si02
#       7
#     4   4   4   4   4   4   4
#     4  10  18  30  50  74 101 132 170 213 256 303
#     4   9  17  29  49  76 105 134 167 206 250 302
#     4  10  18  30  50  74 101 132 170 213 256 303
#     4  10  19  31  48  73 106 138 169 206 253 303
#     4  10  19  31  48  73 106 138 169 206 253 303
#     4   9  18  32  51  76 103 132 171 219 264 303
#     4   9  16  26  45  72  97 124 163 211 256 297
#
# _framework density 18.17578
#
# number of rings (size 3 to 8) (size 9 to 14) (size 15 to 20)
#    0.000    2.429    1.429    2.143    0.000    6.286 
#    0.000    0.714    0.000    6.000    0.000    6.000 
#    0.000    0.000    0.000    0.000    0.000    0.000 
#
# Total GULP energy -347218.073112 kJ/mol
# GULP energy per Si atom -12400.645468 kJ/mol
# Density = 1.813441 g / cm^3
# Si number density = 18.175780 Si / 1000 Ang^3
#
#
#
# Elastic Constant Matrix: (Units=GPa)
#
#
# Indices 1 2 3 4 5 6 
#
# 1 197.6498 47.1322 75.8798 0.0000 0.5515 0.0000
# 2 47.1322 53.1330 26.0926 0.0000 0.1818 0.0000
# 3 75.8798 26.0926 117.8608 0.0000 0.1392 0.0000
# 4 0.0000 0.0000 0.0000 10.6656 0.0000 -0.0612
# 5 0.5515 0.1818 0.1392 0.0000 28.9941 0.0000
# 6 0.0000 0.0000 0.0000 -0.0612 0.0000 3.6317
#
#
#
# Elastic Compliance Matrix: (Units=1/GPa)
#
#
# Indices 1 2 3 4 5 6 
#
# 1 0.007730 -0.004951 -0.003881 0.000000 -0.000097 0.000000
# 2 -0.004951 0.024288 -0.002189 0.000000 -0.000048 0.000000
# 3 -0.003881 -0.002189 0.011468 0.000000 0.000032 0.000000
# 4 0.000000 0.000000 0.000000 0.093768 0.000000 0.001579
# 5 -0.000097 -0.000048 0.000032 0.000000 0.034492 0.000000
# 6 0.000000 0.000000 0.000000 0.001579 0.000000 0.275383
#
#
# Mechanical properties :
#
#
# Convention : Reuss Voigt Hill
#
# Bulk Modulus (GPa) = 46.63386 74.09477 60.36431
# Shear Modulus (GPa) = 10.49718 23.29421 16.89569
#
# Velocity S-wave (km/s) = 2.40581 3.58384 3.05220
# Velocity P-wave (km/s) = 5.78187 7.61442 6.76053
#
# Compressibility (1/GPa) = 0.02144365
#
# Stress axis : x y z
#
# Youngs Moduli (GPa) = 129.36340 41.17269 87.20255
#
# Poissons Ratio (x) = 0.20385 0.33839
# Poissons Ratio (y) = 0.64050 0.19092
# Poissons Ratio (z) = 0.50200 0.09014
#
# Static dielectric constant tensor:
#      x y z
#    x 3.580520 0.000000 0.003420 
#    y 0.000000 3.014880 0.000000 
#    z 0.003420 0.000000 3.184680 
# 
# 
# High freq. dielectric constant tensor:
#      x y z
#    x 1.724150 0.000000 0.000460 
#    y 0.000000 1.675210 0.000000 
#    z 0.000460 0.000000 1.671260 
# 
# From -- ./inp_files/85653.got.cif
#   From: 2010.06.25/outbox.cif.g09.slc.cpg/sg10_43_cif.got.tgz:85653.got - 2010.06.27 22:07:45.
