data_PCOD8058521
_publ_section_title
;
Structure prediction by ZEFSAII (Michael W. Deem and Ramdas Pophale) SiO2 
 PCOD8058521
Probable space group: P 2/M
;
_chemical_formula_sum "Si O2"
_cell_formula_units_Z 28
_cell_length_a 18.745275
_cell_length_b 14.431485
_cell_length_c 9.021433
_cell_angle_alpha 90.000000
_cell_angle_beta 136.211333
_cell_angle_gamma 90.000000
_cell_volume 1688.825237
_symmetry_space_group_name_H-M "P 2/M"
_symmetry_group_IT_number 10
_symmetry_cell_setting 'monoclinic'
loop_
_space_group_symop_operation_xyz
x,y,z
-x,y,-z
-x,-y,-z
x,-y,z
loop_
_atom_site_type_symbol
_atom_site_label
_atom_site_fract_x
_atom_site_fract_y
_atom_site_fract_z
Si Si1 0.308733 0.705962 0.537026
Si Si2 0.615850 0.899449 0.349465
Si Si3 0.308733 0.294037 0.889172
Si Si4 0.103265 0.606057 0.578869
Si Si5 0.384150 0.899449 0.001915
Si Si6 0.103265 0.393943 0.230926
Si Si7 0.500000 0.390772 0.328496
O O1 0.313409 0.813752 0.491942
O O2 0.322119 0.695442 0.733179
O O3 0.199289 0.666737 0.318654
O O4 0.398617 0.648515 0.596169
O O5 0.612507 0.901206 0.168761
O O6 0.657689 0.000000 0.469891
O O7 0.500000 0.883361 0.236351
O O8 0.199289 0.333263 0.779214
O O9 0.313409 0.186248 0.948284
O O10 0.398617 0.351485 0.099681
O O11 0.123651 0.500000 0.656843
O O12 0.088274 0.615500 0.382411
O O13 0.000000 0.644729 0.500000
O O14 0.342311 0.000000 0.996824
O O15 0.123651 0.500000 0.214109
O O16 0.000000 0.355271 0.000000
O O17 0.500000 0.362147 0.500000
O O18 0.500000 0.500000 0.306614
#
# Coordination Sequence:
#
# PCOD8058521 Si02
#       7
#     4   4   4   4   4   4   4
#     4  10  18  31  51  71  91 121 159 195 227 269
#     4   8  13  23  43  71  96 116 146 189 230 268
#     4  10  18  31  51  71  91 121 159 195 227 269
#     4   9  18  31  47  67  89 117 156 196 232 271
#     4   8  13  23  43  71  96 116 146 189 230 268
#     4   9  18  31  47  67  89 117 156 196 232 271
#     4  11  23  33  42  65 100 130 151 181 234 287
#
# _framework density 16.579571999999999
#
# number of rings (size 3 to 8) (size 9 to 14) (size 15 to 20)
#    0.000    2.714    1.429    2.143    0.000    3.429 
#    0.000    2.857    0.000    2.571    0.000    0.000 
#    0.000    0.000    0.000    0.000    0.000    0.000 
#
# Total GULP energy -347040.990561 kJ/mol
# GULP energy per Si atom -12394.321091 kJ/mol
# Density = 1.654184 g / cm^3
# Si number density = 16.579572 Si / 1000 Ang^3
#
#
#
# Elastic Constant Matrix: (Units=GPa)
#
#
# Indices 1 2 3 4 5 6 
#
# 1 77.4146 52.8220 38.8588 0.0000 29.8205 0.0000
# 2 52.8220 129.5620 61.7127 0.0000 29.2211 0.0000
# 3 38.8588 61.7127 95.8505 0.0000 30.7735 0.0000
# 4 0.0000 0.0000 0.0000 15.6020 0.0000 3.5834
# 5 29.8205 29.2211 30.7735 0.0000 26.9469 0.0000
# 6 0.0000 0.0000 0.0000 3.5834 0.0000 14.5119
#
#
#
# Elastic Compliance Matrix: (Units=1/GPa)
#
#
# Indices 1 2 3 4 5 6 
#
# 1 0.024936 -0.005374 0.000536 0.000000 -0.022380 0.000000
# 2 -0.005374 0.012973 -0.005631 0.000000 -0.001689 0.000000
# 3 0.000536 -0.005631 0.019059 0.000000 -0.016252 0.000000
# 4 0.000000 0.000000 0.000000 0.067948 0.000000 -0.016779
# 5 -0.022380 -0.001689 -0.016252 0.000000 0.082268 0.000000
# 6 0.000000 0.000000 0.000000 -0.016779 0.000000 0.073052
#
#
# Mechanical properties :
#
#
# Convention : Reuss Voigt Hill
#
# Bulk Modulus (GPa) = 27.75555 67.73490 47.74523
# Shear Modulus (GPa) = 15.96499 21.37438 18.66969
#
# Velocity S-wave (km/s) = 3.10648 3.59444 3.35933
# Velocity P-wave (km/s) = 5.44464 7.62691 6.62623
#
# Compressibility (1/GPa) = 0.03602882
#
# Stress axis : x y z
#
# Youngs Moduli (GPa) = 40.10242 77.08563 52.46818
#
# Poissons Ratio (x) = 0.41427 -0.02812
# Poissons Ratio (y) = 0.21552 0.29546
# Poissons Ratio (z) = -0.02149 0.43409
#
# Static dielectric constant tensor:
#      x y z
#    x 2.973810 0.000000 0.147240 
#    y 0.000000 3.610760 0.000000 
#    z 0.147240 0.000000 3.018610 
# 
# 
# High freq. dielectric constant tensor:
#      x y z
#    x 1.614470 0.000000 0.007700 
#    y 0.000000 1.646910 0.000000 
#    z 0.007700 0.000000 1.616810 
# 
# From -- ./inp_files/24952.got.cif
#   From: 2010.06.25/outbox.cif.g09.slc.cpg/sg10_13_cif.got.tgz:24952.got - 2010.06.27 22:07:45.
