data_PCOD8058823
_publ_section_title
;
Structure prediction by ZEFSAII (Michael W. Deem and Ramdas Pophale) SiO2 
 PCOD8058823
Probable space group: P 2/M
;
_chemical_formula_sum "Si O2"
_cell_formula_units_Z 28
_cell_length_a 23.728527
_cell_length_b 13.438358
_cell_length_c 30.212294
_cell_angle_alpha 90.000000
_cell_angle_beta 9.939007
_cell_angle_gamma 90.000000
_cell_volume 1662.802939
_symmetry_space_group_name_H-M "P 2/M"
_symmetry_group_IT_number 10
_symmetry_cell_setting 'monoclinic'
loop_
_space_group_symop_operation_xyz
x,y,z
-x,y,-z
-x,-y,-z
x,-y,z
loop_
_atom_site_type_symbol
_atom_site_label
_atom_site_fract_x
_atom_site_fract_y
_atom_site_fract_z
Si Si1 0.335371 0.262821 0.081632
Si Si2 0.722260 0.616418 0.583388
Si Si3 0.877308 0.114904 0.291643
Si Si4 0.708946 0.793687 0.104502
Si Si5 0.899380 0.605316 0.626150
Si Si6 0.104406 0.883702 0.621802
Si Si7 0.137594 0.114684 0.845101
O O1 0.041098 0.342294 0.311556
O O2 0.226389 0.163882 0.140894
O O3 0.500000 0.230882 0.000000
O O4 0.623323 0.313706 0.832163
O O5 0.659436 0.500000 0.621161
O O6 0.402685 0.678657 0.815051
O O7 0.795927 0.638140 0.578402
O O8 0.848592 0.155546 0.364231
O O9 0.524142 0.129862 0.542834
O O10 0.977144 0.000000 0.214662
O O11 0.153191 0.171037 0.049708
O O12 0.401099 0.857625 0.359446
O O13 0.986650 0.807885 0.926859
O O14 0.768177 0.500000 0.748729
O O15 0.000000 0.579304 0.500000
O O16 0.055432 0.000000 0.659808
O O17 0.043592 0.000000 0.905700
O O18 0.000000 0.139963 0.000000
#
# Coordination Sequence:
#
# PCOD8058823 Si02
#       7
#     4   4   4   4   4   4   4
#     4   9  18  32  51  72  96 135 168 205 250 301
#     4   9  19  34  51  75 100 128 166 210 256 297
#     4  10  20  32  51  77 103 132 166 208 250 295
#     4  11  20  32  54  76 101 135 167 206 255 305
#     4   9  17  30  51  75  97 123 163 216 258 292
#     4  10  20  33  49  74 107 137 167 205 247 299
#     4  10  18  32  53  77 104 131 166 210 250 293
#
# _framework density 16.839036
#
# number of rings (size 3 to 8) (size 9 to 14) (size 15 to 20)
#    0.000    2.286    1.429    2.143    2.000    3.143 
#    0.000    0.000    0.000    2.571    0.000    0.000 
#    0.000    0.000    0.000    0.000    0.000    0.000 
#
# Total GULP energy -346929.715942 kJ/mol
# GULP energy per Si atom -12390.346998 kJ/mol
# Density = 1.680071 g / cm^3
# Si number density = 16.839036 Si / 1000 Ang^3
#
#
#
# Elastic Constant Matrix: (Units=GPa)
#
#
# Indices 1 2 3 4 5 6 
#
# 1 76.8246 54.3797 50.9526 0.0000 0.8065 0.0000
# 2 54.3797 92.8302 47.6057 0.0000 -10.1423 0.0000
# 3 50.9526 47.6057 74.2496 0.0000 -4.2622 0.0000
# 4 0.0000 0.0000 0.0000 26.5494 0.0000 -6.8133
# 5 0.8065 -10.1423 -4.2622 0.0000 28.5219 0.0000
# 6 0.0000 0.0000 0.0000 -6.8133 0.0000 21.6241
#
#
#
# Elastic Compliance Matrix: (Units=1/GPa)
#
#
# Indices 1 2 3 4 5 6 
#
# 1 0.030451 -0.011445 -0.013961 0.000000 -0.007017 0.000000
# 2 -0.011445 0.020867 -0.005125 0.000000 0.006978 0.000000
# 3 -0.013961 -0.005125 0.026480 0.000000 0.002530 0.000000
# 4 0.000000 0.000000 0.000000 0.040979 0.000000 0.012912
# 5 -0.007017 0.006978 0.002530 0.000000 0.038119 0.000000
# 6 0.000000 0.000000 0.000000 0.012912 0.000000 0.050313
#
#
# Mechanical properties :
#
#
# Convention : Reuss Voigt Hill
#
# Bulk Modulus (GPa) = 59.75122 61.08669 60.41895
# Shear Modulus (GPa) = 18.25814 21.40351 19.83082
#
# Velocity S-wave (km/s) = 3.29640 3.56907 3.43544
# Velocity P-wave (km/s) = 7.07454 7.30342 7.18989
#
# Compressibility (1/GPa) = 0.01673606
#
# Stress axis : x y z
#
# Youngs Moduli (GPa) = 32.83913 47.92159 37.76477
#
# Poissons Ratio (x) = 0.54848 0.52725
# Poissons Ratio (y) = 0.37585 0.19353
# Poissons Ratio (z) = 0.45848 0.24558
#
# Static dielectric constant tensor:
#      x y z
#    x 3.227270 0.000000 0.077980 
#    y 0.000000 3.056430 0.000000 
#    z 0.077980 0.000000 2.933890 
# 
# 
# High freq. dielectric constant tensor:
#      x y z
#    x 1.654750 0.000000 0.003960 
#    y 0.000000 1.629050 0.000000 
#    z 0.003960 0.000000 1.644500 
# 
# From -- ./inp_files/34545.got.cif
#   From: 2010.06.25/outbox.cif.g09.slc.cpg/sg10_18_cif.got.tgz:34545.got - 2010.06.27 22:07:45.
