data_PCOD8058899
_publ_section_title
;
Structure prediction by ZEFSAII (Michael W. Deem and Ramdas Pophale) SiO2 
 PCOD8058899
Probable space group: P 2/M
;
_chemical_formula_sum "Si O2"
_cell_formula_units_Z 24
_cell_length_a 19.659041
_cell_length_b 11.690341
_cell_length_c 13.310426
_cell_angle_alpha 90.000000
_cell_angle_beta 24.412346
_cell_angle_gamma 90.000000
_cell_volume 1264.292479
_symmetry_space_group_name_H-M "P 2/M"
_symmetry_group_IT_number 10
_symmetry_cell_setting 'monoclinic'
loop_
_space_group_symop_operation_xyz
x,y,z
-x,y,-z
-x,-y,-z
x,-y,z
loop_
_atom_site_type_symbol
_atom_site_label
_atom_site_fract_x
_atom_site_fract_y
_atom_site_fract_z
Si Si1 0.205066 0.370926 0.369975
Si Si2 0.042801 0.133435 0.828623
Si Si3 0.833526 0.500000 0.285663
Si Si4 0.334445 0.636946 0.984628
Si Si5 0.687691 0.500000 0.282069
Si Si6 0.130240 0.691344 0.079255
Si Si7 0.313976 0.709239 0.417130
O O1 0.269842 0.500000 0.288333
O O2 0.325876 0.297115 0.279853
O O3 0.017255 0.362932 0.657816
O O4 0.223998 0.329813 0.229675
O O5 0.923958 0.194192 0.906511
O O6 0.233798 0.169870 0.556053
O O7 0.023850 0.000000 0.834238
O O8 0.000000 0.167191 0.000000
O O9 0.681473 0.500000 0.411446
O O10 0.822696 0.612121 0.370001
O O11 0.000000 0.500000 0.000000
O O12 0.332204 0.500000 0.965554
O O13 0.516678 0.684648 0.756694
O O14 0.270590 0.709549 0.975244
O O15 0.500000 0.500000 0.500000
O O16 0.791781 0.609116 0.108322
#
# Coordination Sequence:
#
# PCOD8058899 Si02
#       7
#     4   4   2   4   2   4   4
#     4  10  18  32  54  82 119 158 192 216 269 348
#     4  10  23  43  63  79 102 150 208 243 273 326
#     4  12  20  30  49  78 109 142 178 222 281 341
#     4  11  20  33  54  88 126 151 177 223 286 356
#     4  12  22  32  49  82 121 146 170 222 296 347
#     4  11  21  36  56  83 117 152 185 230 282 342
#     4  11  20  34  55  84 117 145 185 237 285 329
#
# _framework density 18.982949999999999
#
# number of rings (size 3 to 8) (size 9 to 14) (size 15 to 20)
#    0.000    1.167    3.333    5.500    0.000    2.667 
#    0.000    0.833    0.000   18.500    0.000    0.000 
#    0.000    0.000    0.000    0.000    0.000    0.000 
#
# Total GULP energy -297518.033066 kJ/mol
# GULP energy per Si atom -12396.584711 kJ/mol
# Density = 1.893974 g / cm^3
# Si number density = 18.982950 Si / 1000 Ang^3
#
#
#
# Elastic Constant Matrix: (Units=GPa)
#
#
# Indices 1 2 3 4 5 6 
#
# 1 129.8610 46.7344 23.6752 0.0000 -1.2130 0.0000
# 2 46.7344 76.8948 33.4219 0.0000 5.2208 0.0000
# 3 23.6752 33.4219 74.6701 0.0000 -3.2047 0.0000
# 4 0.0000 0.0000 0.0000 20.0399 0.0000 0.8448
# 5 -1.2130 5.2208 -3.2047 0.0000 37.5534 0.0000
# 6 0.0000 0.0000 0.0000 0.8448 0.0000 24.8909
#
#
#
# Elastic Compliance Matrix: (Units=1/GPa)
#
#
# Indices 1 2 3 4 5 6 
#
# 1 0.009919 -0.005906 -0.000454 0.000000 0.001103 0.000000
# 2 -0.005906 0.019977 -0.007223 0.000000 -0.003584 0.000000
# 3 -0.000454 -0.007223 0.016873 0.000000 0.002429 0.000000
# 4 0.000000 0.000000 0.000000 0.049972 0.000000 -0.001696
# 5 0.001103 -0.003584 0.002429 0.000000 0.027370 0.000000
# 6 0.000000 0.000000 0.000000 -0.001696 0.000000 0.040233
#
#
# Mechanical properties :
#
#
# Convention : Reuss Voigt Hill
#
# Bulk Modulus (GPa) = 51.01136 54.34321 52.67729
# Shear Modulus (GPa) = 25.24682 28.33647 26.79164
#
# Velocity S-wave (km/s) = 3.65084 3.86778 3.76087
# Velocity P-wave (km/s) = 6.68596 6.97394 6.83147
#
# Compressibility (1/GPa) = 0.01960348
#
# Stress axis : x y z
#
# Youngs Moduli (GPa) = 100.81570 50.05761 59.26484
#
# Poissons Ratio (x) = 0.29564 0.02692
# Poissons Ratio (y) = 0.59542 0.42806
# Poissons Ratio (z) = 0.04579 0.36156
#
# Static dielectric constant tensor:
#      x y z
#    x 3.899740 0.000000 0.147930 
#    y 0.000000 3.084480 0.000000 
#    z 0.147930 0.000000 3.594440 
# 
# 
# High freq. dielectric constant tensor:
#      x y z
#    x 1.765050 0.000000 0.008250 
#    y 0.000000 1.678400 0.000000 
#    z 0.008250 0.000000 1.747770 
# 
# From -- ./inp_files/53616.got.cif
#   From: 2010.06.25/outbox.cif.g09.slc.cpg/sg10_27_cif.got.tgz:53616.got - 2010.06.27 22:07:45.
