data_PCOD8058929
_publ_section_title
;
Structure prediction by ZEFSAII (Michael W. Deem and Ramdas Pophale) SiO2 
 PCOD8058929
Probable space group: P 2/M
;
_chemical_formula_sum "Si O2"
_cell_formula_units_Z 24
_cell_length_a 23.757517
_cell_length_b 9.277837
_cell_length_c 12.503608
_cell_angle_alpha 90.000000
_cell_angle_beta 150.610001
_cell_angle_gamma 90.000000
_cell_volume 1352.523836
_symmetry_space_group_name_H-M "P 2/M"
_symmetry_group_IT_number 10
_symmetry_cell_setting 'monoclinic'
loop_
_space_group_symop_operation_xyz
x,y,z
-x,y,-z
-x,-y,-z
x,-y,z
loop_
_atom_site_type_symbol
_atom_site_label
_atom_site_fract_x
_atom_site_fract_y
_atom_site_fract_z
Si Si1 0.371500 0.331269 0.252448
Si Si2 0.362818 0.666484 0.592117
Si Si3 0.229940 0.334002 0.586224
Si Si4 0.383484 0.329687 0.029687
Si Si5 0.765569 0.834278 0.800283
Si Si6 0.982377 0.164844 0.851488
O O1 0.500000 0.290828 0.500000
O O2 0.348959 0.500000 0.232824
O O3 0.351731 0.284231 0.097341
O O4 0.281006 0.242602 0.171309
O O5 0.356972 0.500000 0.544529
O O6 0.323806 0.684544 0.649024
O O7 0.490845 0.729864 0.792601
O O8 0.279474 0.759043 0.380796
O O9 0.195477 0.500000 0.543570
O O10 0.114285 0.249713 0.371838
O O11 0.287572 0.269450 0.789472
O O12 0.388522 0.500000 0.025078
O O13 0.726096 0.000000 0.734872
O O14 0.902657 0.820944 0.027609
O O15 0.941943 0.000000 0.795690
O O16 0.000000 0.229622 0.000000
#
# Coordination Sequence:
#
# PCOD8058929 Si02
#       6
#     4   4   4   4   4   4
#     4  10  19  35  58  80 107 144 178 215 266 321
#     4  10  18  32  55  82 112 140 171 216 272 326
#     4  10  20  33  56  85 109 138 179 224 264 317
#     4   9  18  34  54  81 114 142 171 214 274 324
#     4  11  22  35  54  80 108 139 181 226 264 308
#     4  10  21  38  55  73 107 148 179 218 271 317
#
# _framework density 17.744603999999999
#
# number of rings (size 3 to 8) (size 9 to 14) (size 15 to 20)
#    0.000    2.000    3.333    1.000    0.000    4.000 
#    0.000    2.500    0.000    7.000    0.000    0.000 
#    0.000    0.000    0.000    0.000    0.000    0.000 
#
# Total GULP energy -297648.705350 kJ/mol
# GULP energy per Si atom -12402.029390 kJ/mol
# Density = 1.770422 g / cm^3
# Si number density = 17.744604 Si / 1000 Ang^3
#
#
#
# Elastic Constant Matrix: (Units=GPa)
#
#
# Indices 1 2 3 4 5 6 
#
# 1 106.4039 41.8607 50.4239 0.0000 -7.8219 0.0000
# 2 41.8607 61.5777 44.6731 0.0000 -0.1349 0.0000
# 3 50.4239 44.6731 123.8208 0.0000 -13.4794 0.0000
# 4 0.0000 0.0000 0.0000 -14.7874 0.0000 7.2742
# 5 -7.8219 -0.1349 -13.4794 0.0000 30.6514 0.0000
# 6 0.0000 0.0000 0.0000 7.2742 0.0000 25.0046
#
#
#
# Elastic Compliance Matrix: (Units=1/GPa)
#
#
# Indices 1 2 3 4 5 6 
#
# 1 0.013746 -0.007396 -0.002680 0.000000 0.002297 0.000000
# 2 -0.007396 0.026353 -0.007025 0.000000 -0.004861 0.000000
# 3 -0.002680 -0.007025 0.012209 0.000000 0.004654 0.000000
# 4 0.000000 0.000000 0.000000 -0.059159 0.000000 0.017210
# 5 0.002297 -0.004861 0.004654 0.000000 0.035237 0.000000
# 6 0.000000 0.000000 0.000000 0.017210 0.000000 0.034986
#
#
# Mechanical properties :
#
#
# Convention : Reuss Voigt Hill
#
# Bulk Modulus (GPa) = 55.22720 62.85752 59.04236
# Shear Modulus (GPa) = 48.25809 18.49669 33.37739
#
# Velocity S-wave (km/s) = 5.22063 3.23210 4.34174
# Velocity P-wave (km/s) = 8.21772 7.03057 7.64722
#
# Compressibility (1/GPa) = 0.01810702
#
# Stress axis : x y z
#
# Youngs Moduli (GPa) = 72.74581 37.94568 81.90851
#
# Poissons Ratio (x) = 0.28064 0.21948
# Poissons Ratio (y) = 0.53802 0.57543
# Poissons Ratio (z) = 0.19493 0.26658
#
# Static dielectric constant tensor:
#      x y z
#    x 3.350800 0.000000 -0.076590 
#    y 0.000000 3.124610 0.000000 
#    z -0.076590 0.000000 3.330970 
# 
# 
# High freq. dielectric constant tensor:
#      x y z
#    x 1.691660 0.000000 -0.000810 
#    y 0.000000 1.665090 0.000000 
#    z -0.000810 0.000000 1.685350 
# 
# From -- ./inp_files/45029.got.cif
#   From: 2010.06.25/outbox.cif.g09.slc.cpg/sg10_23_cif.got.tgz:45029.got - 2010.06.27 22:07:45.
