data_PCOD8058546
_publ_section_title
;
Structure prediction by ZEFSAII (Michael W. Deem and Ramdas Pophale) SiO2 
 PCOD8058546
Probable space group: P 2/M
;
_chemical_formula_sum "Si O2"
_cell_formula_units_Z 32
_cell_length_a 22.767347
_cell_length_b 12.048199
_cell_length_c 12.093859
_cell_angle_alpha 90.000000
_cell_angle_beta 30.961871
_cell_angle_gamma 90.000000
_cell_volume 1706.700969
_symmetry_space_group_name_H-M "P 2/M"
_symmetry_group_IT_number 10
_symmetry_cell_setting 'monoclinic'
loop_
_space_group_symop_operation_xyz
x,y,z
-x,y,-z
-x,-y,-z
x,-y,z
loop_
_atom_site_type_symbol
_atom_site_label
_atom_site_fract_x
_atom_site_fract_y
_atom_site_fract_z
Si Si1 0.268295 0.626222 0.707626
Si Si2 0.325852 0.632184 0.864069
Si Si3 0.125027 0.224928 0.785925
Si Si4 0.496012 0.283523 0.268765
Si Si5 0.854971 0.621580 0.447023
Si Si6 0.387990 0.321282 0.137048
Si Si7 0.641946 0.873445 0.646194
Si Si8 0.118838 0.632078 0.352751
O O1 0.225301 0.500000 0.775309
O O2 0.295566 0.665761 0.788103
O O3 0.165641 0.700463 0.824559
O O4 0.384458 0.636514 0.447930
O O5 0.351355 0.500000 0.833464
O O6 0.438486 0.702891 0.719509
O O7 0.219950 0.671610 0.109956
O O8 0.098145 0.303591 0.725406
O O9 0.223956 0.135531 0.603233
O O10 0.000000 0.167036 0.000000
O O11 0.441492 0.164341 0.321284
O O12 0.596114 0.314906 0.020666
O O13 0.912916 0.500000 0.346403
O O14 0.718817 0.605569 0.655697
O O15 0.872751 0.680925 0.536861
O O16 0.381369 0.200039 0.207205
O O17 0.500000 0.384043 0.000000
O O18 0.614073 0.000000 0.719408
O O19 0.119663 0.500000 0.358690
O O20 0.000000 0.678897 0.500000
#
# Coordination Sequence:
#
# PCOD8058546 Si02
#       8
#     4   4   4   4   4   4   4   4
#     4  10  21  33  48  74 111 152 183 207 241 294
#     4  10  19  32  51  74 106 149 185 209 241 295
#     4  10  22  36  52  76 104 135 177 215 261 309
#     4  10  18  31  51  76 104 130 171 217 257 303
#     4  10  19  31  47  71 108 142 172 211 250 294
#     4   9  18  30  48  74 102 131 164 208 254 309
#     4   9  20  38  57  78 101 126 166 220 275 327
#     4   9  18  30  46  70  99 139 186 218 243 282
#
# _framework density 18.749623
#
# number of rings (size 3 to 8) (size 9 to 14) (size 15 to 20)
#    0.000    2.375    1.250    1.875    1.750    5.250 
#    0.000    1.875    0.000    6.000    0.000    0.000 
#    0.000    9.500    0.000    0.000    0.000    0.000 
#
# Total GULP energy -396425.605774 kJ/mol
# GULP energy per Si atom -12388.300180 kJ/mol
# Density = 1.870695 g / cm^3
# Si number density = 18.749623 Si / 1000 Ang^3
#
#
#
# Elastic Constant Matrix: (Units=GPa)
#
#
# Indices 1 2 3 4 5 6 
#
# 1 109.3498 22.6750 30.2574 0.0000 5.5894 0.0000
# 2 22.6750 43.9091 -0.0970 0.0000 7.9666 0.0000
# 3 30.2574 -0.0970 69.0402 0.0000 -8.9609 0.0000
# 4 0.0000 0.0000 0.0000 9.8995 0.0000 -0.9703
# 5 5.5894 7.9666 -8.9609 0.0000 35.3923 0.0000
# 6 0.0000 0.0000 0.0000 -0.9703 0.0000 12.8108
#
#
#
# Elastic Compliance Matrix: (Units=1/GPa)
#
#
# Indices 1 2 3 4 5 6 
#
# 1 0.011984 -0.005843 -0.005516 0.000000 -0.001974 0.000000
# 2 -0.005843 0.026624 0.002006 0.000000 -0.004562 0.000000
# 3 -0.005516 0.002006 0.017535 0.000000 0.004859 0.000000
# 4 0.000000 0.000000 0.000000 0.101771 0.000000 0.007708
# 5 -0.001974 -0.004562 0.004859 0.000000 0.030824 0.000000
# 6 0.000000 0.000000 0.000000 0.007708 0.000000 0.078643
#
#
# Mechanical properties :
#
#
# Convention : Reuss Voigt Hill
#
# Bulk Modulus (GPa) = 26.71188 36.44111 31.57650
# Shear Modulus (GPa) = 16.74673 22.91810 19.83241
#
# Velocity S-wave (km/s) = 2.99185 3.49997 3.25584
# Velocity P-wave (km/s) = 5.11981 5.98422 5.56881
#
# Compressibility (1/GPa) = 0.03743653
#
# Stress axis : x y z
#
# Youngs Moduli (GPa) = 83.44595 37.56059 57.02732
#
# Poissons Ratio (x) = 0.21945 0.31459
# Poissons Ratio (y) = 0.48754 -0.11438
# Poissons Ratio (z) = 0.46032 -0.07534
#
# Static dielectric constant tensor:
#      x y z
#    x 3.661490 0.000000 0.009620 
#    y 0.000000 2.819340 0.000000 
#    z 0.009620 0.000000 3.549940 
# 
# 
# High freq. dielectric constant tensor:
#      x y z
#    x 1.739390 0.000000 -0.002500 
#    y 0.000000 1.656500 0.000000 
#    z -0.002500 0.000000 1.743480 
# 
# From -- ./inp_files/56929.got.cif
#   From: 2010.06.25/outbox.cif.g09.slc.cpg/sg10_29_cif.got.tgz:56929.got - 2010.06.27 22:07:45.
