data_PCOD8058507
_publ_section_title
;
Structure prediction by ZEFSAII (Michael W. Deem and Ramdas Pophale) SiO2 
 PCOD8058507
Probable space group: P 2/M
;
_chemical_formula_sum "Si O2"
_cell_formula_units_Z 32
_cell_length_a 15.427270
_cell_length_b 9.052403
_cell_length_c 22.527345
_cell_angle_alpha 90.000000
_cell_angle_beta 32.430135
_cell_angle_gamma 90.000000
_cell_volume 1687.124453
_symmetry_space_group_name_H-M "P 2/M"
_symmetry_group_IT_number 10
_symmetry_cell_setting 'monoclinic'
loop_
_space_group_symop_operation_xyz
x,y,z
-x,y,-z
-x,-y,-z
x,-y,z
loop_
_atom_site_type_symbol
_atom_site_label
_atom_site_fract_x
_atom_site_fract_y
_atom_site_fract_z
Si Si1 0.868049 0.669835 0.444829
Si Si2 0.190511 0.175858 0.101862
Si Si3 0.781797 0.669617 0.789222
Si Si4 0.329150 0.167914 0.533279
Si Si5 0.416988 0.326406 0.310137
Si Si6 0.854555 0.833224 0.241909
Si Si7 0.493861 0.675682 0.869998
Si Si8 0.612854 0.325862 0.309503
O O1 0.823011 0.500000 0.455453
O O2 0.824200 0.772154 0.414578
O O3 0.762539 0.720233 0.563118
O O4 0.059758 0.687506 0.344416
O O5 0.206065 0.230745 0.159955
O O6 0.022292 0.231346 0.170265
O O7 0.201244 0.000000 0.096345
O O8 0.329238 0.244095 0.981299
O O9 0.762291 0.500000 0.821033
O O10 0.629201 0.721577 0.839325
O O11 0.284049 0.174484 0.628158
O O12 0.483681 0.269154 0.432152
O O13 0.367254 0.000000 0.491947
O O14 0.424886 0.500000 0.298707
O O15 0.451794 0.259029 0.225374
O O16 0.553353 0.273839 0.278566
O O17 0.789412 0.740425 0.223044
O O18 0.881729 0.000000 0.204575
O O19 0.468069 0.500000 0.884129
O O20 0.624201 0.500000 0.307276
#
# Coordination Sequence:
#
# PCOD8058507 Si02
#       8
#     4   4   4   4   4   4   4   4
#     4   9  17  31  53  82 112 141 176 220 267 318
#     4  11  23  39  56  78 110 144 181 225 271 319
#     4  10  20  34  57  86 111 137 177 224 273 324
#     4  10  18  31  50  75 110 147 177 211 265 323
#     4   8  17  35  55  78 111 143 177 219 265 317
#     4  10  21  35  51  75 106 142 179 217 268 323
#     4  10  21  38  58  79 106 144 184 224 269 319
#     4  10  20  33  53  81 108 139 177 219 266 319
#
# _framework density 18.967184
#
# number of rings (size 3 to 8) (size 9 to 14) (size 15 to 20)
#    0.000    2.250    1.250    2.625    0.000    6.000 
#    0.000    6.250    0.000    3.750    0.000    5.250 
#    0.000    0.000    0.000    0.000    0.000    0.000 
#
# Total GULP energy -396712.125138 kJ/mol
# GULP energy per Si atom -12397.253911 kJ/mol
# Density = 1.892401 g / cm^3
# Si number density = 18.967184 Si / 1000 Ang^3
#
#
#
# Elastic Constant Matrix: (Units=GPa)
#
#
# Indices 1 2 3 4 5 6 
#
# 1 75.4933 29.7190 52.3395 0.0000 -11.0981 0.0000
# 2 29.7190 51.4621 24.6981 0.0000 -3.9833 0.0000
# 3 52.3395 24.6981 90.8514 0.0000 1.8193 0.0000
# 4 0.0000 0.0000 0.0000 19.1391 0.0000 -11.4689
# 5 -11.0981 -3.9833 1.8193 0.0000 29.9655 0.0000
# 6 0.0000 0.0000 0.0000 -11.4689 0.0000 14.3189
#
#
#
# Elastic Compliance Matrix: (Units=1/GPa)
#
#
# Indices 1 2 3 4 5 6 
#
# 1 0.027647 -0.008576 -0.013795 0.000000 0.009937 0.000000
# 2 -0.008576 0.025347 -0.001956 0.000000 0.000312 0.000000
# 3 -0.013795 -0.001956 0.019618 0.000000 -0.006560 0.000000
# 4 0.000000 0.000000 0.000000 0.100472 0.000000 0.080474
# 5 0.009937 0.000312 -0.006560 0.000000 0.037492 0.000000
# 6 0.000000 0.000000 0.000000 0.080474 0.000000 0.134295
#
#
# Mechanical properties :
#
#
# Convention : Reuss Voigt Hill
#
# Bulk Modulus (GPa) = 41.74128 47.92443 44.83285
# Shear Modulus (GPa) = 12.45291 20.08806 16.27048
#
# Velocity S-wave (km/s) = 2.56510 3.25791 2.93204
# Velocity P-wave (km/s) = 5.55229 6.28282 5.92881
#
# Compressibility (1/GPa) = 0.02395710
#
# Stress axis : x y z
#
# Youngs Moduli (GPa) = 36.16976 39.45162 50.97479
#
# Poissons Ratio (x) = 0.33835 0.70321
# Poissons Ratio (y) = 0.31020 0.09972
# Poissons Ratio (z) = 0.49897 0.07717
#
# Static dielectric constant tensor:
#      x y z
#    x 3.579310 0.000000 -0.078440 
#    y 0.000000 3.364710 0.000000 
#    z -0.078440 0.000000 3.545130 
# 
# 
# High freq. dielectric constant tensor:
#      x y z
#    x 1.734300 0.000000 -0.013620 
#    y 0.000000 1.721930 0.000000 
#    z -0.013620 0.000000 1.731650 
# 
# From -- ./inp_files/89567.got.cif
#   From: 2010.06.25/outbox.cif.g09.slc.cpg/sg10_45_cif.got.tgz:89567.got - 2010.06.27 22:07:45.
