data_PCOD8058608
_publ_section_title
;
Structure prediction by ZEFSAII (Michael W. Deem and Ramdas Pophale) SiO2 
 PCOD8058608
Probable space group: P 2/M
;
_chemical_formula_sum "Si O2"
_cell_formula_units_Z 24
_cell_length_a 21.015951
_cell_length_b 7.756754
_cell_length_c 28.900759
_cell_angle_alpha 90.000000
_cell_angle_beta 15.971718
_cell_angle_gamma 90.000000
_cell_volume 1296.367341
_symmetry_space_group_name_H-M "P 2/M"
_symmetry_group_IT_number 10
_symmetry_cell_setting 'monoclinic'
loop_
_space_group_symop_operation_xyz
x,y,z
-x,y,-z
-x,-y,-z
x,-y,z
loop_
_atom_site_type_symbol
_atom_site_label
_atom_site_fract_x
_atom_site_fract_y
_atom_site_fract_z
Si Si1 0.866258 0.000000 0.764672
Si Si2 0.213324 0.304236 0.524743
Si Si3 0.318740 0.307243 0.763443
Si Si4 0.489297 0.793741 0.241284
Si Si5 0.611300 0.000000 0.849250
Si Si6 0.262037 0.303420 0.306332
Si Si7 0.058644 0.189849 0.029986
O O1 0.804285 0.000000 0.753987
O O2 0.006970 0.172577 0.678045
O O3 0.643646 0.000000 0.952199
O O4 0.117932 0.500000 0.594857
O O5 0.406514 0.269151 0.429930
O O6 0.325577 0.278242 0.395973
O O7 0.281784 0.500000 0.808388
O O8 0.198460 0.179495 0.883741
O O9 0.186395 0.289825 0.806176
O O10 0.412436 0.710883 0.247282
O O11 0.757334 0.732656 0.061763
O O12 0.469989 0.000000 0.253826
O O13 0.638426 0.174042 0.801155
O O14 0.274820 0.500000 0.278686
O O15 0.000000 0.248715 0.500000
O O16 0.989505 0.000000 0.094475
#
# Coordination Sequence:
#
# PCOD8058608 Si02
#       7
#     2   4   4   4   2   4   4
#     4  11  24  40  60  76 103 145 175 224 268 301
#     4  10  20  33  53  82 111 143 183 218 260 316
#     4   9  16  25  40  66 105 143 172 210 254 307
#     4  10  18  31  52  80 113 145 177 216 267 323
#     4  11  25  42  58  81 106 137 181 217 265 321
#     4  11  23  38  60  85 110 139 171 217 269 320
#     4   9  16  23  40  69 104 142 173 206 254 315
#
# _framework density 18.513273000000002
#
# number of rings (size 3 to 8) (size 9 to 14) (size 15 to 20)
#    0.000    2.000    1.667    3.750    2.333    4.667 
#    0.000    1.667    0.000    0.000    0.000    2.333 
#    0.000    4.000    0.000    0.000    0.000    0.000 
#
# Total GULP energy -297396.229441 kJ/mol
# GULP energy per Si atom -12391.509560 kJ/mol
# Density = 1.847114 g / cm^3
# Si number density = 18.513273 Si / 1000 Ang^3
#
#
#
# Elastic Constant Matrix: (Units=GPa)
#
#
# Indices 1 2 3 4 5 6 
#
# 1 105.0543 31.8913 52.3239 0.0000 -32.6543 0.0000
# 2 31.8913 104.3900 42.6222 0.0000 -12.0866 0.0000
# 3 52.3239 42.6222 73.3672 0.0000 -24.7701 0.0000
# 4 0.0000 0.0000 0.0000 7.8462 0.0000 -5.8332
# 5 -32.6543 -12.0866 -24.7701 0.0000 31.6539 0.0000
# 6 0.0000 0.0000 0.0000 -5.8332 0.0000 20.3986
#
#
#
# Elastic Compliance Matrix: (Units=1/GPa)
#
#
# Indices 1 2 3 4 5 6 
#
# 1 0.017247 -0.000647 -0.008156 0.000000 0.011163 0.000000
# 2 -0.000647 0.012619 -0.007431 0.000000 -0.001664 0.000000
# 3 -0.008156 -0.007431 0.027134 0.000000 0.009982 0.000000
# 4 0.000000 0.000000 0.000000 0.161861 0.000000 0.046286
# 5 0.011163 -0.001664 0.009982 0.000000 0.050284 0.000000
# 6 0.000000 0.000000 0.000000 0.046286 0.000000 0.062259
#
#
# Mechanical properties :
#
#
# Convention : Reuss Voigt Hill
#
# Bulk Modulus (GPa) = 40.76274 59.60957 50.18616
# Shear Modulus (GPa) = 13.43912 22.37802 17.90857
#
# Velocity S-wave (km/s) = 2.69721 3.48049 3.11358
# Velocity P-wave (km/s) = 5.63612 6.95844 6.33189
#
# Compressibility (1/GPa) = 0.02453221
#
# Stress axis : x y z
#
# Youngs Moduli (GPa) = 57.98052 79.24868 36.85431
#
# Poissons Ratio (x) = 0.05124 0.30058
# Poissons Ratio (y) = 0.03749 0.27388
# Poissons Ratio (z) = 0.47288 0.58892
#
# Static dielectric constant tensor:
#      x y z
#    x 3.604620 0.000000 -0.610220 
#    y 0.000000 3.485170 0.000000 
#    z -0.610220 0.000000 3.142990 
# 
# 
# High freq. dielectric constant tensor:
#      x y z
#    x 1.709470 0.000000 -0.058080 
#    y 0.000000 1.733950 0.000000 
#    z -0.058080 0.000000 1.673880 
# 
# From -- ./inp_files/90022.got.cif
#   From: 2010.06.25/outbox.cif.g09.slc.cpg/sg10_46_cif.got.tgz:90022.got - 2010.06.27 22:07:45.
