data_PCOD8058492
_publ_section_title
;
Structure prediction by ZEFSAII (Michael W. Deem and Ramdas Pophale) SiO2 
 PCOD8058492
Probable space group: P 2/M
;
_chemical_formula_sum "Si O2"
_cell_formula_units_Z 32
_cell_length_a 21.783804
_cell_length_b 9.361258
_cell_length_c 28.279542
_cell_angle_alpha 90.000000
_cell_angle_beta 161.111598
_cell_angle_gamma 90.000000
_cell_volume 1866.885818
_symmetry_space_group_name_H-M "P 2/M"
_symmetry_group_IT_number 10
_symmetry_cell_setting 'monoclinic'
loop_
_space_group_symop_operation_xyz
x,y,z
-x,y,-z
-x,-y,-z
x,-y,z
loop_
_atom_site_type_symbol
_atom_site_label
_atom_site_fract_x
_atom_site_fract_y
_atom_site_fract_z
Si Si1 0.218009 0.833292 0.169947
Si Si2 0.906588 0.166499 0.079672
Si Si3 0.405960 0.835654 0.077286
Si Si4 0.578390 0.832676 0.106798
Si Si5 0.651661 0.662415 0.326567
Si Si6 0.344408 0.332567 0.176099
Si Si7 0.941954 0.335367 0.405055
Si Si8 0.693719 0.168009 0.660986
O O1 0.349825 0.742380 0.230898
O O2 0.263254 0.774950 0.255192
O O3 0.266082 0.000000 0.198954
O O4 0.000000 0.801998 0.000000
O O5 0.129974 0.204842 0.245475
O O6 0.880812 0.000000 0.046696
O O7 0.803524 0.201658 0.054617
O O8 0.818341 0.261515 0.974136
O O9 0.420300 0.799330 0.032004
O O10 0.569972 0.753191 0.224024
O O11 0.451330 0.000000 0.119358
O O12 0.774779 0.758558 0.262452
O O13 0.620385 0.000000 0.133404
O O14 0.500000 0.772426 0.000000
O O15 0.612770 0.500000 0.283133
O O16 0.548517 0.697226 0.300830
O O17 0.875531 0.690236 0.495616
O O18 0.301115 0.500000 0.149842
O O19 0.876817 0.500000 0.357741
O O20 0.000000 0.286643 0.500000
O O21 0.500000 0.239190 0.500000
O O22 0.665761 0.000000 0.643822
#
# Coordination Sequence:
#
# PCOD8058492 Si02
#       8
#     4   4   4   4   4   4   4   4
#     4  10  18  31  50  72  98 126 160 202 243 284
#     4   9  16  30  50  71  95 125 165 205 244 291
#     4   9  17  29  49  72  95 129 167 201 243 298
#     4  10  21  35  49  73 109 139 166 206 256 304
#     4   9  18  32  49  73 102 127 159 209 254 290
#     4  10  19  30  48  74 102 129 160 201 251 296
#     4  10  19  33  54  76  98 128 170 212 250 297
#     4   9  17  30  49  72  96 124 160 203 243 280
#
# _framework density 17.140844000000001
#
# number of rings (size 3 to 8) (size 9 to 14) (size 15 to 20)
#    0.000    2.500    2.500    0.375    0.000    1.750 
#    0.000    1.250    0.000    4.500    0.000    0.000 
#    0.000    0.000    0.000    0.000    0.000    0.000 
#
# Total GULP energy -396685.519692 kJ/mol
# GULP energy per Si atom -12396.422490 kJ/mol
# Density = 1.710183 g / cm^3
# Si number density = 17.140844 Si / 1000 Ang^3
#
#
#
# Elastic Constant Matrix: (Units=GPa)
#
#
# Indices 1 2 3 4 5 6 
#
# 1 140.2199 43.4031 75.6855 0.0000 5.1162 0.0000
# 2 43.4031 45.0816 33.7684 0.0000 1.2244 0.0000
# 3 75.6855 33.7684 120.3871 0.0000 3.1113 0.0000
# 4 0.0000 0.0000 0.0000 9.5980 0.0000 11.5872
# 5 5.1162 1.2244 3.1113 0.0000 26.5082 0.0000
# 6 0.0000 0.0000 0.0000 11.5872 0.0000 15.8105
#
#
#
# Elastic Compliance Matrix: (Units=1/GPa)
#
#
# Indices 1 2 3 4 5 6 
#
# 1 0.012738 -0.007918 -0.005751 0.000000 -0.001418 0.000000
# 2 -0.007918 0.033008 -0.004294 0.000000 0.000508 0.000000
# 3 -0.005751 -0.004294 0.013132 0.000000 -0.000233 0.000000
# 4 0.000000 0.000000 0.000000 0.904177 0.000000 -0.662654
# 5 -0.001418 0.000508 -0.000233 0.000000 0.038002 0.000000
# 6 0.000000 0.000000 0.000000 -0.662654 0.000000 0.548896
#
#
# Mechanical properties :
#
#
# Convention : Reuss Voigt Hill
#
# Bulk Modulus (GPa) = 43.56671 67.93363 55.75017
# Shear Modulus (GPa) = 3.13769 20.57210 11.85489
#
# Velocity S-wave (km/s) = 1.35444 3.46812 2.63271
# Velocity P-wave (km/s) = 5.28376 7.46698 6.46815
#
# Compressibility (1/GPa) = 0.02295331
#
# Stress axis : x y z
#
# Youngs Moduli (GPa) = 78.50320 30.29599 76.14745
#
# Poissons Ratio (x) = 0.23988 0.43791
# Poissons Ratio (y) = 0.62158 0.32697
# Poissons Ratio (z) = 0.45146 0.13009
#
# Static dielectric constant tensor:
#      x y z
#    x 3.555980 0.000000 0.209440 
#    y 0.000000 3.087920 0.000000 
#    z 0.209440 0.000000 3.149930 
# 
# 
# High freq. dielectric constant tensor:
#      x y z
#    x 1.671430 0.000000 0.021760 
#    y 0.000000 1.647410 0.000000 
#    z 0.021760 0.000000 1.637570 
# 
# From -- ./inp_files/93735.got.cif
#   From: 2010.06.25/outbox.cif.g09.slc.cpg/sg10_47_cif.got.tgz:93735.got - 2010.06.27 22:07:45.
