data_PCOD8058221
_publ_section_title
;
Structure prediction by ZEFSAII (Michael W. Deem and Ramdas Pophale) SiO2 
 PCOD8058221
Probable space group: P 2/M
;
_chemical_formula_sum "Si O2"
_cell_formula_units_Z 32
_cell_length_a 20.789123
_cell_length_b 9.410175
_cell_length_c 13.353908
_cell_angle_alpha 90.000000
_cell_angle_beta 40.653563
_cell_angle_gamma 90.000000
_cell_volume 1701.946203
_symmetry_space_group_name_H-M "P 2/M"
_symmetry_group_IT_number 10
_symmetry_cell_setting 'monoclinic'
loop_
_space_group_symop_operation_xyz
x,y,z
-x,y,-z
-x,-y,-z
x,-y,z
loop_
_atom_site_type_symbol
_atom_site_label
_atom_site_fract_x
_atom_site_fract_y
_atom_site_fract_z
Si Si1 0.960695 0.658229 0.835236
Si Si2 0.937518 0.658620 0.488591
Si Si3 0.088164 0.158197 0.819017
Si Si4 0.599198 0.331349 0.679499
Si Si5 0.280293 0.330704 0.271812
Si Si6 0.725231 0.334394 0.341730
Si Si7 0.622881 0.669478 0.050091
Si Si8 0.740837 0.665666 0.101723
O O1 0.964390 0.500000 0.880681
O O2 0.985086 0.647441 0.691128
O O3 0.047781 0.757175 0.772196
O O4 0.852201 0.728455 0.976024
O O5 0.910551 0.500000 0.559606
O O6 0.831694 0.730391 0.588911
O O7 0.000000 0.741928 0.500000
O O8 0.176601 0.243767 0.763598
O O9 0.122968 0.000000 0.746513
O O10 0.000000 0.148914 0.000000
O O11 0.597070 0.500000 0.687948
O O12 0.660586 0.269380 0.701626
O O13 0.646196 0.283097 0.517711
O O14 0.488452 0.270376 0.815157
O O15 0.284005 0.500000 0.274005
O O16 0.327638 0.276826 0.111515
O O17 0.751281 0.500000 0.326951
O O18 0.686143 0.308472 0.273654
O O19 0.622020 0.500000 0.055037
O O20 0.679794 0.732398 0.080826
O O21 0.752529 0.500000 0.065373
#
# Coordination Sequence:
#
# PCOD8058221 Si02
#       8
#     4   4   4   4   4   4   4   4
#     4  10  18  30  49  72 100 131 164 199 238 286
#     4   9  16  25  41  68 100 131 161 197 239 284
#     4  11  22  34  49  71  97 127 163 199 239 288
#     4   9  17  27  42  65  93 128 162 197 241 285
#     4   9  15  24  37  57  91 130 162 191 234 289
#     4  10  19  32  49  71  99 126 159 197 239 291
#     4   9  16  26  40  62  95 128 159 197 243 288
#     4   9  17  27  42  65  92 126 159 193 238 286
#
# _framework density 18.802002999999999
#
# number of rings (size 3 to 8) (size 9 to 14) (size 15 to 20)
#    0.000    2.500    1.250    2.250    0.000    7.500 
#    0.000    2.500    0.000    0.375    0.000    2.625 
#    0.000    8.000    0.000    0.000    0.000    0.000 
#
# Total GULP energy -396535.941010 kJ/mol
# GULP energy per Si atom -12391.748157 kJ/mol
# Density = 1.875921 g / cm^3
# Si number density = 18.802003 Si / 1000 Ang^3
#
#
#
# Elastic Constant Matrix: (Units=GPa)
#
#
# Indices 1 2 3 4 5 6 
#
# 1 135.7266 14.6966 59.4413 0.0000 7.9921 0.0000
# 2 14.6966 29.6213 7.6037 0.0000 2.5843 0.0000
# 3 59.4413 7.6037 128.1438 0.0000 7.3894 0.0000
# 4 0.0000 0.0000 0.0000 -5.3478 0.0000 2.6554
# 5 7.9921 2.5843 7.3894 0.0000 34.6077 0.0000
# 6 0.0000 0.0000 0.0000 2.6554 0.0000 -2.2448
#
#
#
# Elastic Compliance Matrix: (Units=1/GPa)
#
#
# Indices 1 2 3 4 5 6 
#
# 1 0.009665 -0.003623 -0.004207 0.000000 -0.001063 0.000000
# 2 -0.003623 0.035799 -0.000342 0.000000 -0.001764 0.000000
# 3 -0.004207 -0.000342 0.009839 0.000000 -0.001104 0.000000
# 4 0.000000 0.000000 0.000000 -0.453157 0.000000 -0.536040
# 5 -0.001063 -0.001764 -0.001104 0.000000 0.029508 0.000000
# 6 0.000000 0.000000 0.000000 -0.536040 0.000000 -1.079552
#
#
# Mechanical properties :
#
#
# Convention : Reuss Voigt Hill
#
# Bulk Modulus (GPa) = 25.66781 50.77499 38.22140
# Shear Modulus (GPa) = -3.52468 19.51968 7.99750
#
# Velocity S-wave (km/s) = -1.37066 3.22556 2.06465
# Velocity P-wave (km/s) = 3.34310 6.39813 5.10453
#
# Compressibility (1/GPa) = 0.03895930
#
# Stress axis : x y z
#
# Youngs Moduli (GPa) = 103.46527 27.93412 101.63469
#
# Poissons Ratio (x) = 0.10120 0.42758
# Poissons Ratio (y) = 0.37482 0.03477
# Poissons Ratio (z) = 0.43528 0.00956
#
# Static dielectric constant tensor:
#      x y z
#    x 3.740120 0.000000 0.003840 
#    y 0.000000 2.862260 0.000000 
#    z 0.003840 0.000000 3.578010 
# 
# 
# High freq. dielectric constant tensor:
#      x y z
#    x 1.742500 0.000000 0.006250 
#    y 0.000000 1.639100 0.000000 
#    z 0.006250 0.000000 1.742020 
# 
# From -- ./inp_files/53518.got.cif
#   From: 2010.06.25/outbox.cif.g09.slc.cpg/sg10_27_cif.got.tgz:53518.got - 2010.06.27 22:07:45.
