data_PCOD8058421
_publ_section_title
;
Structure prediction by ZEFSAII (Michael W. Deem and Ramdas Pophale) SiO2 
 PCOD8058421
Probable space group: P 2/M
;
_chemical_formula_sum "Si O2"
_cell_formula_units_Z 24
_cell_length_a 18.507115
_cell_length_b 13.913416
_cell_length_c 5.333921
_cell_angle_alpha 90.000000
_cell_angle_beta 86.017767
_cell_angle_gamma 90.000000
_cell_volume 1370.153609
_symmetry_space_group_name_H-M "P 2/M"
_symmetry_group_IT_number 10
_symmetry_cell_setting 'monoclinic'
loop_
_space_group_symop_operation_xyz
x,y,z
-x,y,-z
-x,-y,-z
x,-y,z
loop_
_atom_site_type_symbol
_atom_site_label
_atom_site_fract_x
_atom_site_fract_y
_atom_site_fract_z
Si Si1 0.703799 0.114701 0.217372
Si Si2 0.920179 0.105477 0.412998
Si Si3 0.539065 0.114373 0.240549
Si Si4 0.223503 0.110218 0.298300
Si Si5 0.921273 0.386718 0.746173
Si Si6 0.083087 0.692942 0.755304
O O1 0.621486 0.150917 0.219414
O O2 0.739443 0.157230 0.462898
O O3 0.708754 0.000000 0.219870
O O4 0.748048 0.157549 0.967288
O O5 0.863505 0.120196 0.655070
O O6 0.910696 0.191415 0.215706
O O7 0.000000 0.110158 0.500000
O O8 0.906031 0.000000 0.288856
O O9 0.500000 0.154522 0.500000
O O10 0.535959 0.000000 0.241426
O O11 0.500000 0.154598 0.000000
O O12 0.248289 0.000000 0.284037
O O13 0.928397 0.500000 0.718564
O O14 0.879501 0.343340 0.513483
O O15 0.999984 0.339486 0.751365
O O16 0.879234 0.356662 0.012063
#
# Coordination Sequence:
#
# PCOD8058421 Si02
#       6
#     4   4   4   4   4   4
#     4   9  16  28  41  54  75 100 131 165 206 264
#     4  10  20  35  48  63  86 115 154 199 235 269
#     4   9  15  22  36  58  77  93 116 156 209 255
#     4   9  18  30  42  54  72 107 142 172 214 256
#     4  10  18  31  49  67  85 103 126 166 235 293
#     4  10  18  31  46  66  84 105 134 173 226 278
#
# _framework density 17.516283999999999
#
# number of rings (size 3 to 8) (size 9 to 14) (size 15 to 20)
#    0.000    2.500    1.667    3.500    0.000    5.333 
#    0.000    4.167    0.000    0.000    0.000    0.000 
#    0.000    0.000    0.000    0.000    0.000    0.000 
#
# Total GULP energy -297350.078884 kJ/mol
# GULP energy per Si atom -12389.586620 kJ/mol
# Density = 1.747642 g / cm^3
# Si number density = 17.516284 Si / 1000 Ang^3
#
#
#
# Elastic Constant Matrix: (Units=GPa)
#
#
# Indices 1 2 3 4 5 6 
#
# 1 87.4467 -3.5674 42.8027 0.0000 -16.1025 0.0000
# 2 -3.5674 89.4213 25.1918 0.0000 -3.4976 0.0000
# 3 42.8027 25.1918 165.4177 0.0000 2.9474 0.0000
# 4 0.0000 0.0000 0.0000 15.4941 0.0000 -1.2601
# 5 -16.1025 -3.4976 2.9474 0.0000 16.2095 0.0000
# 6 0.0000 0.0000 0.0000 -1.2601 0.0000 -1.4661
#
#
#
# Elastic Compliance Matrix: (Units=1/GPa)
#
#
# Indices 1 2 3 4 5 6 
#
# 1 0.017736 0.002977 -0.005386 0.000000 0.019241 0.000000
# 2 0.002977 0.012317 -0.002755 0.000000 0.006116 0.000000
# 3 -0.005386 -0.002755 0.007990 0.000000 -0.007397 0.000000
# 4 0.000000 0.000000 0.000000 0.060324 0.000000 -0.051847
# 5 0.019241 0.006116 -0.007397 0.000000 0.083471 0.000000
# 6 0.000000 0.000000 0.000000 -0.051847 0.000000 -0.637513
#
#
# Mechanical properties :
#
#
# Convention : Reuss Voigt Hill
#
# Bulk Modulus (GPa) = 36.07926 52.34889 44.21407
# Shear Modulus (GPa) = -11.46503 24.57142 6.55320
#
# Velocity S-wave (km/s) = -2.56116 3.74943 1.93632
# Velocity P-wave (km/s) = 3.44908 6.97818 5.50414
#
# Compressibility (1/GPa) = 0.02771676
#
# Stress axis : x y z
#
# Youngs Moduli (GPa) = 56.38223 81.18708 125.15255
#
# Poissons Ratio (x) = -0.24172 0.67402
# Poissons Ratio (y) = -0.16787 0.34482
# Poissons Ratio (z) = 0.30365 0.22369
#
# Static dielectric constant tensor:
#      x y z
#    x 3.113540 0.000000 0.350330 
#    y 0.000000 2.923530 0.000000 
#    z 0.350330 0.000000 5.674910 
# 
# 
# High freq. dielectric constant tensor:
#      x y z
#    x 1.636120 0.000000 0.001960 
#    y 0.000000 1.611080 0.000000 
#    z 0.001960 0.000000 1.702180 
# 
# From -- ./inp_files/9206.got.cif
#   From: 2010.06.25/outbox.cif.g09.slc.cpg/sg10_5_cif.got.tgz:9206.got - 2010.06.27 22:07:45.
