data_PCOD8058885
_publ_section_title
;
Structure prediction by ZEFSAII (Michael W. Deem and Ramdas Pophale) SiO2 
 PCOD8058885
Probable space group: P 2/M
;
_chemical_formula_sum "Si O2"
_cell_formula_units_Z 32
_cell_length_a 21.104152
_cell_length_b 8.669066
_cell_length_c 26.172229
_cell_angle_alpha 90.000000
_cell_angle_beta 159.709482
_cell_angle_gamma 90.000000
_cell_volume 1660.487125
_symmetry_space_group_name_H-M "P 2/M"
_symmetry_group_IT_number 10
_symmetry_cell_setting 'monoclinic'
loop_
_space_group_symop_operation_xyz
x,y,z
-x,y,-z
-x,-y,-z
x,-y,z
loop_
_atom_site_type_symbol
_atom_site_label
_atom_site_fract_x
_atom_site_fract_y
_atom_site_fract_z
Si Si1 0.538804 0.320441 0.356021
Si Si2 0.484840 0.682066 0.046080
Si Si3 0.800995 0.316197 0.839904
Si Si4 0.102206 0.177041 0.775182
Si Si5 0.201985 0.682701 0.640247
Si Si6 0.191179 0.177019 0.364878
Si Si7 0.714915 0.674604 0.665179
Si Si8 0.218670 0.180532 0.542867
O O1 0.545418 0.500000 0.346153
O O2 0.336185 0.263869 0.218751
O O3 0.664711 0.292390 0.500548
O O4 0.605957 0.219582 0.359142
O O5 0.504454 0.500000 0.059533
O O6 0.646837 0.749166 0.205213
O O7 0.500000 0.750274 0.000000
O O8 0.285885 0.724070 0.916886
O O9 0.793368 0.500000 0.831288
O O10 0.752891 0.248015 0.748409
O O11 0.000000 0.249483 0.000000
O O12 0.004813 0.199430 0.756227
O O13 0.966175 0.233903 0.626665
O O14 0.154873 0.000000 0.805436
O O15 0.202324 0.500000 0.643740
O O16 0.248601 0.731660 0.618240
O O17 0.000000 0.748713 0.500000
O O18 0.180714 0.221779 0.297714
O O19 0.254960 0.000000 0.420239
O O20 0.500000 0.677475 0.500000
O O21 0.790483 0.500000 0.717279
O O22 0.212972 0.000000 0.549161
#
# Coordination Sequence:
#
# PCOD8058885 Si02
#       8
#     4   4   4   4   4   4   4   4
#     4  10  18  33  57  80 107 142 184 228 274 323
#     4  10  21  37  59  87 114 141 179 227 274 318
#     4   9  18  33  52  76 106 138 176 227 278 326
#     4   9  20  37  55  78 111 148 184 221 269 330
#     4  10  21  38  60  86 114 145 185 227 268 320
#     4  10  20  34  53  80 111 142 182 226 274 326
#     4  10  18  32  54  80 104 135 184 229 272 324
#     4  10  21  37  57  83 113 147 186 226 272 329
#
# _framework density 19.271452
#
# number of rings (size 3 to 8) (size 9 to 14) (size 15 to 20)
#    0.000    2.250    1.250    2.625    0.000    5.250 
#    2.250    0.000    0.000    2.625    0.000    0.000 
#    0.000    0.000    0.000    0.000    0.000    0.000 
#
# Total GULP energy -396706.976706 kJ/mol
# GULP energy per Si atom -12397.093022 kJ/mol
# Density = 1.922759 g / cm^3
# Si number density = 19.271452 Si / 1000 Ang^3
#
#
#
# Elastic Constant Matrix: (Units=GPa)
#
#
# Indices 1 2 3 4 5 6 
#
# 1 130.6241 10.8626 64.9988 0.0000 -0.6053 0.0000
# 2 10.8626 21.8362 15.1476 0.0000 3.5098 0.0000
# 3 64.9988 15.1476 130.8612 0.0000 4.1440 0.0000
# 4 0.0000 0.0000 0.0000 17.6017 0.0000 -0.7799
# 5 -0.6053 3.5098 4.1440 0.0000 31.9556 0.0000
# 6 0.0000 0.0000 0.0000 -0.7799 0.0000 21.0710
#
#
#
# Elastic Compliance Matrix: (Units=1/GPa)
#
#
# Indices 1 2 3 4 5 6 
#
# 1 0.010260 -0.001862 -0.004914 0.000000 0.001036 0.000000
# 2 -0.001862 0.050858 -0.004804 0.000000 -0.004998 0.000000
# 3 -0.004914 -0.004804 0.010668 0.000000 -0.000949 0.000000
# 4 0.000000 0.000000 0.000000 0.056906 0.000000 0.002106
# 5 0.001036 -0.004998 -0.000949 0.000000 0.031985 0.000000
# 6 0.000000 0.000000 0.000000 0.002106 0.000000 0.047537
#
#
# Mechanical properties :
#
#
# Convention : Reuss Voigt Hill
#
# Bulk Modulus (GPa) = 20.56454 51.70438 36.13446
# Shear Modulus (GPa) = 20.19537 26.94649 23.57093
#
# Velocity S-wave (km/s) = 3.24071 3.74339 3.50108
# Velocity P-wave (km/s) = 4.96961 6.75068 5.92743
#
# Compressibility (1/GPa) = 0.04862740
#
# Stress axis : x y z
#
# Youngs Moduli (GPa) = 97.46426 19.66277 93.73545
#
# Poissons Ratio (x) = 0.03661 0.46057
# Poissons Ratio (y) = 0.18148 0.45028
# Poissons Ratio (z) = 0.47889 0.09445
#
# Static dielectric constant tensor:
#      x y z
#    x 3.650010 0.000000 0.027920 
#    y 0.000000 3.275060 0.000000 
#    z 0.027920 0.000000 3.529940 
# 
# 
# High freq. dielectric constant tensor:
#      x y z
#    x 1.762410 0.000000 0.007570 
#    y 0.000000 1.728600 0.000000 
#    z 0.007570 0.000000 1.737600 
# 
# From -- ./inp_files/86868.got.cif
#   From: 2010.06.25/outbox.cif.g09.slc.cpg/sg10_44_cif.got.tgz:86868.got - 2010.06.27 22:07:45.
