data_PCOD8058258
_publ_section_title
;
Structure prediction by ZEFSAII (Michael W. Deem and Ramdas Pophale) SiO2 
 PCOD8058258
Probable space group: P 2/M
;
_chemical_formula_sum "Si O2"
_cell_formula_units_Z 28
_cell_length_a 15.978989
_cell_length_b 9.222729
_cell_length_c 11.857295
_cell_angle_alpha 90.000000
_cell_angle_beta 57.070390
_cell_angle_gamma 90.000000
_cell_volume 1466.667931
_symmetry_space_group_name_H-M "P 2/M"
_symmetry_group_IT_number 10
_symmetry_cell_setting 'monoclinic'
loop_
_space_group_symop_operation_xyz
x,y,z
-x,y,-z
-x,-y,-z
x,-y,z
loop_
_atom_site_type_symbol
_atom_site_label
_atom_site_fract_x
_atom_site_fract_y
_atom_site_fract_z
Si Si1 0.625606 0.334346 0.142045
Si Si2 0.797188 0.670163 0.400572
Si Si3 0.456473 0.169593 0.153261
Si Si4 0.251336 0.667761 0.316360
Si Si5 0.609354 0.334374 0.410376
Si Si6 0.991864 0.673188 0.134482
Si Si7 0.182209 0.330047 0.126337
O O1 0.604606 0.500000 0.120861
O O2 0.526052 0.242622 0.195802
O O3 0.653393 0.324175 0.252704
O O4 0.717159 0.266168 0.003749
O O5 0.794504 0.500000 0.376955
O O6 0.809654 0.701293 0.524691
O O7 0.692763 0.738519 0.430915
O O8 0.891463 0.737057 0.265031
O O9 0.346889 0.231957 0.243141
O O10 0.452767 0.000000 0.179008
O O11 0.500000 0.208997 0.000000
O O12 0.285470 0.500000 0.287233
O O13 0.180857 0.704517 0.261037
O O14 0.500000 0.257814 0.500000
O O15 0.594732 0.500000 0.460620
O O16 0.991546 0.500000 0.139452
O O17 0.084742 0.737253 0.138238
O O18 0.000000 0.728368 0.000000
O O19 0.182366 0.500000 0.102001
#
# Coordination Sequence:
#
# PCOD8058258 Si02
#       7
#     4   4   4   4   4   4   4
#     4  10  18  30  50  72  98 130 166 207 246 292
#     4   9  17  28  45  71 103 138 168 201 249 297
#     4  11  22  34  49  72 102 133 165 203 251 303
#     4  10  19  32  50  73 102 133 168 206 246 296
#     4   9  16  26  42  67  96 127 165 202 239 288
#     4   9  16  27  43  68 105 137 162 202 255 299
#     4   9  17  27  43  69  96 128 167 204 245 292
#
# _framework density 19.090893000000001
#
# number of rings (size 3 to 8) (size 9 to 14) (size 15 to 20)
#    0.000    2.429    1.429    2.143    0.000    6.857 
#    0.000    2.857    0.000    3.857    0.000    3.000 
#    0.000    4.000    0.000    0.000    0.000    0.000 
#
# Total GULP energy -347131.104815 kJ/mol
# GULP energy per Si atom -12397.539458 kJ/mol
# Density = 1.904744 g / cm^3
# Si number density = 19.090893 Si / 1000 Ang^3
#
#
#
# Elastic Constant Matrix: (Units=GPa)
#
#
# Indices 1 2 3 4 5 6 
#
# 1 156.9303 15.7016 67.2452 0.0000 1.6246 0.0000
# 2 15.7016 23.0865 16.1642 0.0000 0.9335 0.0000
# 3 67.2452 16.1642 135.2200 0.0000 0.2892 0.0000
# 4 0.0000 0.0000 0.0000 7.9268 0.0000 0.0811
# 5 1.6246 0.9335 0.2892 0.0000 34.3263 0.0000
# 6 0.0000 0.0000 0.0000 0.0811 0.0000 1.3721
#
#
#
# Elastic Compliance Matrix: (Units=1/GPa)
#
#
# Indices 1 2 3 4 5 6 
#
# 1 0.008287 -0.002990 -0.003763 0.000000 -0.000279 0.000000
# 2 -0.002990 0.048403 -0.004297 0.000000 -0.001139 0.000000
# 3 -0.003763 -0.004297 0.009780 0.000000 0.000213 0.000000
# 4 0.000000 0.000000 0.000000 0.126231 0.000000 -0.007460
# 5 -0.000279 -0.001139 0.000213 0.000000 0.029175 0.000000
# 6 0.000000 0.000000 0.000000 -0.007460 0.000000 0.729265
#
#
# Mechanical properties :
#
#
# Convention : Reuss Voigt Hill
#
# Bulk Modulus (GPa) = 22.53749 57.05096 39.79422
# Shear Modulus (GPa) = 5.06057 23.13342 14.09699
#
# Velocity S-wave (km/s) = 1.62989 3.48480 2.72033
# Velocity P-wave (km/s) = 3.92085 6.79268 5.54588
#
# Compressibility (1/GPa) = 0.04437051
#
# Stress axis : x y z
#
# Youngs Moduli (GPa) = 120.67426 20.65970 102.25063
#
# Poissons Ratio (x) = 0.06177 0.38477
# Poissons Ratio (y) = 0.36082 0.43935
# Poissons Ratio (z) = 0.45410 0.08877
#
# Static dielectric constant tensor:
#      x y z
#    x 3.734550 0.000000 0.019830 
#    y 0.000000 2.780680 0.000000 
#    z 0.019830 0.000000 3.661010 
# 
# 
# High freq. dielectric constant tensor:
#      x y z
#    x 1.753500 0.000000 0.006300 
#    y 0.000000 1.658120 0.000000 
#    z 0.006300 0.000000 1.754390 
# 
# From -- ./inp_files/49126.got.cif
#   From: 2010.06.25/outbox.cif.g09.slc.cpg/sg10_25_cif.got.tgz:49126.got - 2010.06.27 22:07:45.
