data_PCOD8058399
_publ_section_title
;
Structure prediction by ZEFSAII (Michael W. Deem and Ramdas Pophale) SiO2 
 PCOD8058399
Probable space group: P 2/M
;
_chemical_formula_sum "Si O2"
_cell_formula_units_Z 32
_cell_length_a 20.968656
_cell_length_b 9.224015
_cell_length_c 12.600738
_cell_angle_alpha 90.000000
_cell_angle_beta 135.858418
_cell_angle_gamma 90.000000
_cell_volume 1697.330481
_symmetry_space_group_name_H-M "P 2/M"
_symmetry_group_IT_number 10
_symmetry_cell_setting 'monoclinic'
loop_
_space_group_symop_operation_xyz
x,y,z
-x,y,-z
-x,-y,-z
x,-y,z
loop_
_atom_site_type_symbol
_atom_site_label
_atom_site_fract_x
_atom_site_fract_y
_atom_site_fract_z
Si Si1 0.903085 0.162155 0.363640
Si Si2 0.624323 0.831459 0.330517
Si Si3 0.708767 0.666691 0.627097
Si Si4 0.090847 0.331921 0.052432
Si Si5 0.842784 0.839080 0.056838
Si Si6 0.437537 0.331598 0.110672
Si Si7 0.710502 0.169964 0.208622
Si Si8 0.669058 0.335130 0.813914
O O1 0.893994 0.158374 0.227820
O O2 0.813230 0.232778 0.311268
O O3 0.000000 0.245362 0.500000
O O4 0.910826 0.000000 0.420435
O O5 0.673057 0.770418 0.492896
O O6 0.530854 0.748492 0.194553
O O7 0.689343 0.807548 0.307118
O O8 0.602447 0.000000 0.322467
O O9 0.691525 0.500000 0.573460
O O10 0.816790 0.698503 0.770544
O O11 0.653624 0.703105 0.670966
O O12 0.080745 0.500000 0.015009
O O13 0.093225 0.250025 0.944770
O O14 0.000000 0.271814 0.000000
O O15 0.827881 0.000000 0.993436
O O16 0.744408 0.767242 0.955370
O O17 0.445464 0.500000 0.088601
O O18 0.419859 0.316479 0.217227
O O19 0.357890 0.260260 0.946392
O O20 0.703883 0.000000 0.167966
O O21 0.706038 0.500000 0.862693
#
# Coordination Sequence:
#
# PCOD8058399 Si02
#       8
#     4   4   4   4   4   4   4   4
#     4   9  18  33  54  81 111 145 182 223 280 337
#     4  11  24  38  55  81 116 154 187 230 284 338
#     4   9  19  37  57  78 110 147 186 229 278 336
#     4   9  19  36  57  79 109 151 188 225 281 340
#     4  10  18  30  54  82 107 140 184 234 276 324
#     4  11  22  37  61  86 109 144 192 238 281 338
#     4  10  21  39  58  79 113 152 188 229 281 340
#     4   9  19  36  58  81 108 145 182 226 284 339
#
# _framework density 18.853134000000001
#
# number of rings (size 3 to 8) (size 9 to 14) (size 15 to 20)
#    0.000    2.250    1.250    2.250    0.000    6.750 
#    0.000    3.750    0.000    3.375    0.000    0.000 
#    0.000    0.000    0.000    0.000    0.000    0.000 
#
# Total GULP energy -396685.577258 kJ/mol
# GULP energy per Si atom -12396.424289 kJ/mol
# Density = 1.881022 g / cm^3
# Si number density = 18.853134 Si / 1000 Ang^3
#
#
#
# Elastic Constant Matrix: (Units=GPa)
#
#
# Indices 1 2 3 4 5 6 
#
# 1 116.6216 46.9554 57.9551 0.0000 8.7159 0.0000
# 2 46.9554 80.6021 49.1993 0.0000 0.5729 0.0000
# 3 57.9551 49.1993 103.0561 0.0000 5.8684 0.0000
# 4 0.0000 0.0000 0.0000 23.3878 0.0000 -5.6048
# 5 8.7159 0.5729 5.8684 0.0000 31.3395 0.0000
# 6 0.0000 0.0000 0.0000 -5.6048 0.0000 22.5646
#
#
#
# Elastic Compliance Matrix: (Units=1/GPa)
#
#
# Indices 1 2 3 4 5 6 
#
# 1 0.013109 -0.004529 -0.005061 0.000000 -0.002615 0.000000
# 2 -0.004529 0.019123 -0.006706 0.000000 0.002166 0.000000
# 3 -0.005061 -0.006706 0.015832 0.000000 -0.001435 0.000000
# 4 0.000000 0.000000 0.000000 0.045464 0.000000 0.011293
# 5 -0.002615 0.002166 -0.001435 0.000000 0.032865 0.000000
# 6 0.000000 0.000000 0.000000 0.011293 0.000000 0.047122
#
#
# Mechanical properties :
#
#
# Convention : Reuss Voigt Hill
#
# Bulk Modulus (GPa) = 64.62830 67.61104 66.11967
# Shear Modulus (GPa) = 23.66719 25.20304 24.43512
#
# Velocity S-wave (km/s) = 3.54693 3.66021 3.60401
# Velocity P-wave (km/s) = 7.15042 7.33503 7.24331
#
# Compressibility (1/GPa) = 0.01547310
#
# Stress axis : x y z
#
# Youngs Moduli (GPa) = 76.28569 52.29390 63.16132
#
# Poissons Ratio (x) = 0.23683 0.31965
# Poissons Ratio (y) = 0.34549 0.42354
# Poissons Ratio (z) = 0.38607 0.35067
#
# Static dielectric constant tensor:
#      x y z
#    x 3.762700 0.000000 0.132030 
#    y 0.000000 3.476470 0.000000 
#    z 0.132030 0.000000 3.351620 
# 
# 
# High freq. dielectric constant tensor:
#      x y z
#    x 1.746530 0.000000 0.001680 
#    y 0.000000 1.723170 0.000000 
#    z 0.001680 0.000000 1.721610 
# 
# From -- ./inp_files/70019.got.cif
#   From: 2010.06.25/outbox.cif.g09.slc.cpg/sg10_36_cif.got.tgz:70019.got - 2010.06.27 22:07:45.
