data_PCOD8058360
_publ_section_title
;
Structure prediction by ZEFSAII (Michael W. Deem and Ramdas Pophale) SiO2 
 PCOD8058360
Probable space group: P 2/M
;
_chemical_formula_sum "Si O2"
_cell_formula_units_Z 24
_cell_length_a 17.774037
_cell_length_b 17.756919
_cell_length_c 11.481831
_cell_angle_alpha 90.000000
_cell_angle_beta 160.176243
_cell_angle_gamma 90.000000
_cell_volume 1228.933867
_symmetry_space_group_name_H-M "P 2/M"
_symmetry_group_IT_number 10
_symmetry_cell_setting 'monoclinic'
loop_
_space_group_symop_operation_xyz
x,y,z
-x,y,-z
-x,-y,-z
x,-y,z
loop_
_atom_site_type_symbol
_atom_site_label
_atom_site_fract_x
_atom_site_fract_y
_atom_site_fract_z
Si Si1 0.417155 0.081964 0.749644
Si Si2 0.253182 0.699201 0.156493
Si Si3 0.794130 0.412042 0.122157
Si Si4 0.187303 0.776483 0.486100
Si Si5 0.578931 0.317071 0.359521
Si Si6 0.742890 0.192781 0.153263
O O1 0.223498 0.145709 0.466520
O O2 0.335487 0.000000 0.582919
O O3 0.500000 0.069670 0.000000
O O4 0.620349 0.111820 0.963947
O O5 0.500000 0.731979 0.500000
O O6 0.242474 0.673925 0.276628
O O7 0.203348 0.628554 0.999871
O O8 0.075151 0.765420 0.877851
O O9 0.812007 0.500000 0.123743
O O10 0.000000 0.383088 0.500000
O O11 0.565431 0.393922 0.859675
O O12 0.290641 0.705027 0.567542
O O13 0.302342 0.780422 0.779471
O O14 0.384193 0.254859 0.109806
O O15 0.000000 0.184448 0.500000
#
# Coordination Sequence:
#
# PCOD8058360 Si02
#       6
#     4   4   4   4   4   4
#     4   8  16  30  49  76 108 142 180 224 272 316
#     4  10  20  33  54  78 105 140 178 219 261 314
#     4  10  21  37  57  81 111 143 173 211 262 317
#     4  10  19  33  54  78 106 142 183 226 269 316
#     4  10  19  32  52  77 106 138 179 221 261 314
#     4  10  18  30  52  78 106 141 183 229 269 316
#
# _framework density 19.529122999999998
#
# number of rings (size 3 to 8) (size 9 to 14) (size 15 to 20)
#    0.000    2.333    0.000    5.500    0.000    3.333 
#    0.000    0.833    0.000   17.500    0.000    0.000 
#    0.000    0.000    0.000    0.000    0.000    0.000 
#
# Total GULP energy -297365.200840 kJ/mol
# GULP energy per Si atom -12390.216702 kJ/mol
# Density = 1.948467 g / cm^3
# Si number density = 19.529123 Si / 1000 Ang^3
#
#
#
# Elastic Constant Matrix: (Units=GPa)
#
#
# Indices 1 2 3 4 5 6 
#
# 1 77.0702 34.8997 21.2715 0.0000 -0.5480 0.0000
# 2 34.8997 88.7329 46.7641 0.0000 1.9069 0.0000
# 3 21.2715 46.7641 79.2224 0.0000 -0.2070 0.0000
# 4 0.0000 0.0000 0.0000 16.1751 0.0000 8.1766
# 5 -0.5480 1.9069 -0.2070 0.0000 35.5362 0.0000
# 6 0.0000 0.0000 0.0000 8.1766 0.0000 15.0981
#
#
#
# Elastic Compliance Matrix: (Units=1/GPa)
#
#
# Indices 1 2 3 4 5 6 
#
# 1 0.015836 -0.005806 -0.000823 0.000000 0.000551 0.000000
# 2 -0.005806 0.018519 -0.009376 0.000000 -0.001138 0.000000
# 3 -0.000823 -0.009376 0.018380 0.000000 0.000597 0.000000
# 4 0.000000 0.000000 0.000000 0.085128 0.000000 -0.046102
# 5 0.000551 -0.001138 0.000597 0.000000 0.028213 0.000000
# 6 0.000000 0.000000 0.000000 -0.046102 0.000000 0.091200
#
#
# Mechanical properties :
#
#
# Convention : Reuss Voigt Hill
#
# Bulk Modulus (GPa) = 48.25269 50.09959 49.17614
# Shear Modulus (GPa) = 16.88081 22.83455 19.85768
#
# Velocity S-wave (km/s) = 2.94324 3.42315 3.19223
# Velocity P-wave (km/s) = 6.02594 6.42911 6.23078
#
# Compressibility (1/GPa) = 0.02072423
#
# Stress axis : x y z
#
# Youngs Moduli (GPa) = 63.14894 53.99841 54.40843
#
# Poissons Ratio (x) = 0.31354 0.04478
# Poissons Ratio (y) = 0.36667 0.51011
# Poissons Ratio (z) = 0.05197 0.50626
#
# Static dielectric constant tensor:
#      x y z
#    x 3.619960 0.000000 -0.042790 
#    y 0.000000 3.527360 0.000000 
#    z -0.042790 0.000000 3.682000 
# 
# 
# High freq. dielectric constant tensor:
#      x y z
#    x 1.755300 0.000000 0.004170 
#    y 0.000000 1.733020 0.000000 
#    z 0.004170 0.000000 1.763180 
# 
# From -- ./inp_files/19296.got.cif
#   From: 2010.06.25/outbox.cif.g09.slc.cpg/sg10_10_cif.got.tgz:19296.got - 2010.06.27 22:07:45.
