data_PCOD8058655
_publ_section_title
;
Structure prediction by ZEFSAII (Michael W. Deem and Ramdas Pophale) SiO2 
 PCOD8058655
Probable space group: P 2/M
;
_chemical_formula_sum "Si O2"
_cell_formula_units_Z 24
_cell_length_a 23.316631
_cell_length_b 8.850955
_cell_length_c 16.573242
_cell_angle_alpha 90.000000
_cell_angle_beta 23.022741
_cell_angle_gamma 90.000000
_cell_volume 1337.664740
_symmetry_space_group_name_H-M "P 2/M"
_symmetry_group_IT_number 10
_symmetry_cell_setting 'monoclinic'
loop_
_space_group_symop_operation_xyz
x,y,z
-x,y,-z
-x,-y,-z
x,-y,z
loop_
_atom_site_type_symbol
_atom_site_label
_atom_site_fract_x
_atom_site_fract_y
_atom_site_fract_z
Si Si1 0.659755 0.320676 0.266916
Si Si2 0.666887 0.820620 0.781308
Si Si3 0.903959 0.678348 0.372292
Si Si4 0.187002 0.176525 0.075088
Si Si5 0.161580 0.176759 0.287264
Si Si6 0.052748 0.677909 0.016611
O O1 0.500000 0.262258 0.500000
O O2 0.664416 0.500000 0.253234
O O3 0.690636 0.252789 0.139048
O O4 0.784891 0.263316 0.167724
O O5 0.746585 0.744774 0.601249
O O6 0.738120 0.756278 0.771572
O O7 0.679074 0.000000 0.756427
O O8 0.500000 0.766435 0.000000
O O9 0.908903 0.500000 0.378694
O O10 0.935771 0.720390 0.237583
O O11 0.026950 0.753035 0.269256
O O12 0.234814 0.208017 0.105449
O O13 0.177173 0.000000 0.068583
O O14 0.000000 0.251224 0.500000
O O15 0.145993 0.000000 0.323748
O O16 0.062950 0.500000 0.992356
O O17 0.000000 0.751955 0.000000
#
# Coordination Sequence:
#
# PCOD8058655 Si02
#       6
#     4   4   4   4   4   4
#     4   9  18  33  51  73 102 130 160 204 252 294
#     4  10  20  35  53  72  99 136 169 200 247 299
#     4  10  19  32  52  76 102 129 165 208 250 292
#     4  10  18  31  54  76  98 131 171 205 242 292
#     4   9  16  30  52  74  96 128 169 204 239 293
#     4   8  15  30  51  70  91 128 167 195 237 298
#
# _framework density 17.941714999999999
#
# number of rings (size 3 to 8) (size 9 to 14) (size 15 to 20)
#    0.000    2.667    1.667    2.000    0.000    0.667 
#    3.000    2.500    0.000   12.500    0.000    0.000 
#    0.000    0.000    0.000    0.000    0.000    0.000 
#
# Total GULP energy -297514.954404 kJ/mol
# GULP energy per Si atom -12396.456433 kJ/mol
# Density = 1.790088 g / cm^3
# Si number density = 17.941715 Si / 1000 Ang^3
#
#
#
# Elastic Constant Matrix: (Units=GPa)
#
#
# Indices 1 2 3 4 5 6 
#
# 1 132.9135 17.7241 74.4545 0.0000 1.7464 0.0000
# 2 17.7241 28.3344 28.0442 0.0000 3.2911 0.0000
# 3 74.4545 28.0442 167.1214 0.0000 5.8956 0.0000
# 4 0.0000 0.0000 0.0000 26.6367 0.0000 7.4089
# 5 1.7464 3.2911 5.8956 0.0000 22.4419 0.0000
# 6 0.0000 0.0000 0.0000 7.4089 0.0000 18.9283
#
#
#
# Elastic Compliance Matrix: (Units=1/GPa)
#
#
# Indices 1 2 3 4 5 6 
#
# 1 0.010153 -0.002310 -0.004158 0.000000 0.000641 0.000000
# 2 -0.002310 0.043279 -0.006072 0.000000 -0.004572 0.000000
# 3 -0.004158 -0.006072 0.008895 0.000000 -0.001123 0.000000
# 4 0.000000 0.000000 0.000000 0.042129 0.000000 -0.016490
# 5 0.000641 -0.004572 -0.001123 0.000000 0.045475 0.000000
# 6 0.000000 0.000000 0.000000 -0.016490 0.000000 0.059285
#
#
# Mechanical properties :
#
#
# Convention : Reuss Voigt Hill
#
# Bulk Modulus (GPa) = 26.84857 63.20166 45.02511
# Shear Modulus (GPa) = 20.26670 27.47783 23.87227
#
# Velocity S-wave (km/s) = 3.36458 3.91769 3.65162
# Velocity P-wave (km/s) = 5.48549 7.46773 6.55201
#
# Compressibility (1/GPa) = 0.03724593
#
# Stress axis : x y z
#
# Youngs Moduli (GPa) = 98.49782 23.10606 112.42630
#
# Poissons Ratio (x) = 0.05337 0.46748
# Poissons Ratio (y) = 0.22750 0.68268
# Poissons Ratio (z) = 0.40956 0.14031
#
# Static dielectric constant tensor:
#      x y z
#    x 3.548610 0.000000 0.017430 
#    y 0.000000 3.018590 0.000000 
#    z 0.017430 0.000000 3.398740 
# 
# 
# High freq. dielectric constant tensor:
#      x y z
#    x 1.694760 0.000000 0.012210 
#    y 0.000000 1.664660 0.000000 
#    z 0.012210 0.000000 1.691380 
# 
# From -- ./inp_files/52626.got.cif
#   From: 2010.06.25/outbox.cif.g09.slc.cpg/sg10_27_cif.got.tgz:52626.got - 2010.06.27 22:07:45.
