data_PCOD8058208
_publ_section_title
;
Structure prediction by ZEFSAII (Michael W. Deem and Ramdas Pophale) SiO2 
 PCOD8058208
Probable space group: P 2/M
;
_chemical_formula_sum "Si O2"
_cell_formula_units_Z 32
_cell_length_a 15.839917
_cell_length_b 9.074983
_cell_length_c 28.355601
_cell_angle_alpha 90.000000
_cell_angle_beta 26.946481
_cell_angle_gamma 90.000000
_cell_volume 1847.086595
_symmetry_space_group_name_H-M "P 2/M"
_symmetry_group_IT_number 10
_symmetry_cell_setting 'monoclinic'
loop_
_space_group_symop_operation_xyz
x,y,z
-x,y,-z
-x,-y,-z
x,-y,z
loop_
_atom_site_type_symbol
_atom_site_label
_atom_site_fract_x
_atom_site_fract_y
_atom_site_fract_z
Si Si1 0.450694 0.673930 0.909098
Si Si2 0.205170 0.825893 0.846512
Si Si3 0.216984 0.669746 0.670465
Si Si4 0.215171 0.825333 0.947065
Si Si5 0.201108 0.169130 0.583748
Si Si6 0.779777 0.173115 0.789449
Si Si7 0.430310 0.170873 0.646768
Si Si8 0.213226 0.330507 0.117948
O O1 0.468434 0.500000 0.894525
O O2 0.355891 0.739316 0.910171
O O3 0.654939 0.745023 0.812693
O O4 0.331766 0.719166 0.014046
O O5 0.258485 0.770401 0.872185
O O6 0.354536 0.764262 0.734151
O O7 0.208926 0.000000 0.846941
O O8 0.996817 0.777426 0.935197
O O9 0.272310 0.500000 0.642822
O O10 0.270160 0.734063 0.593134
O O11 0.332407 0.749360 0.652750
O O12 0.000429 0.695454 0.789146
O O13 0.243618 0.000000 0.939095
O O14 0.346177 0.194337 0.468465
O O15 0.993965 0.213823 0.670349
O O16 0.201490 0.000000 0.600479
O O17 0.727044 0.230894 0.867724
O O18 0.741798 0.000000 0.806148
O O19 0.377016 0.000000 0.669735
O O20 0.251930 0.500000 0.112556
#
# Coordination Sequence:
#
# PCOD8058208 Si02
#       8
#     4   4   4   4   4   4   4   4
#     4  11  21  32  48  70  95 124 156 189 231 279
#     4   8  16  31  52  75  97 121 149 186 231 276
#     4  10  19  30  45  68  98 128 156 187 226 273
#     4   9  17  32  52  74  98 121 149 186 229 277
#     4   9  19  33  47  65  92 125 160 196 230 267
#     4  10  20  33  48  67  91 122 161 199 231 266
#     4  10  18  30  49  70  93 123 157 191 230 274
#     4   9  19  33  46  65  97 129 154 186 229 276
#
# _framework density 17.324580000000001
#
# number of rings (size 3 to 8) (size 9 to 14) (size 15 to 20)
#    0.000    2.500    0.000    3.375    0.000    5.500 
#    0.000    1.875    0.000    0.750    0.000    5.250 
#    0.000    0.000    0.000    0.000    0.000    0.000 
#
# Total GULP energy -396779.461115 kJ/mol
# GULP energy per Si atom -12399.358160 kJ/mol
# Density = 1.728515 g / cm^3
# Si number density = 17.324580 Si / 1000 Ang^3
#
#
#
# Elastic Constant Matrix: (Units=GPa)
#
#
# Indices 1 2 3 4 5 6 
#
# 1 127.5914 48.7849 72.0521 0.0000 -9.0207 0.0000
# 2 48.7849 61.5835 39.2728 0.0000 -2.4809 0.0000
# 3 72.0521 39.2728 120.4125 0.0000 10.3156 0.0000
# 4 0.0000 0.0000 0.0000 17.9268 0.0000 -3.2106
# 5 -9.0207 -2.4809 10.3156 0.0000 17.4402 0.0000
# 6 0.0000 0.0000 0.0000 -3.2106 0.0000 -1.2885
#
#
#
# Elastic Compliance Matrix: (Units=1/GPa)
#
#
# Indices 1 2 3 4 5 6 
#
# 1 0.016119 -0.006874 -0.008462 0.000000 0.012365 0.000000
# 2 -0.006874 0.024340 -0.004021 0.000000 0.002285 0.000000
# 3 -0.008462 -0.004021 0.015910 0.000000 -0.014360 0.000000
# 4 0.000000 0.000000 0.000000 0.038570 0.000000 -0.096107
# 5 0.012365 0.002285 -0.014360 0.000000 0.072553 0.000000
# 6 0.000000 0.000000 0.000000 -0.096107 0.000000 -0.536626
#
#
# Mechanical properties :
#
#
# Convention : Reuss Voigt Hill
#
# Bulk Modulus (GPa) = 56.64486 69.97855 63.31171
# Shear Modulus (GPa) = -15.40666 16.78088 0.68711
#
# Velocity S-wave (km/s) = -2.98534 3.11564 0.63045
# Velocity P-wave (km/s) = 4.56993 7.30912 6.09539
#
# Compressibility (1/GPa) = 0.01765385
#
# Stress axis : x y z
#
# Youngs Moduli (GPa) = 62.03895 41.08465 62.85312
#
# Poissons Ratio (x) = 0.28243 0.53189
# Poissons Ratio (y) = 0.42647 0.25273
# Poissons Ratio (z) = 0.52500 0.16520
#
# Static dielectric constant tensor:
#      x y z
#    x 3.185900 0.000000 0.037910 
#    y 0.000000 3.128040 0.000000 
#    z 0.037910 0.000000 3.592430 
# 
# 
# High freq. dielectric constant tensor:
#      x y z
#    x 1.653220 0.000000 -0.009120 
#    y 0.000000 1.660760 0.000000 
#    z -0.009120 0.000000 1.670160 
# 
# From -- ./inp_files/66464.got.cif
#   From: 2010.06.25/outbox.cif.g09.slc.cpg/sg10_34_cif.got.tgz:66464.got - 2010.06.27 22:07:45.
