data_PCOD8058970
_publ_section_title
;
Structure prediction by ZEFSAII (Michael W. Deem and Ramdas Pophale) SiO2 
 PCOD8058970
Probable space group: P 2/M
;
_chemical_formula_sum "Si O2"
_cell_formula_units_Z 32
_cell_length_a 17.988151
_cell_length_b 15.291224
_cell_length_c 11.675800
_cell_angle_alpha 90.000000
_cell_angle_beta 30.156905
_cell_angle_gamma 90.000000
_cell_volume 1613.388267
_symmetry_space_group_name_H-M "P 2/M"
_symmetry_group_IT_number 10
_symmetry_cell_setting 'monoclinic'
loop_
_space_group_symop_operation_xyz
x,y,z
-x,y,-z
-x,-y,-z
x,-y,z
loop_
_atom_site_type_symbol
_atom_site_label
_atom_site_fract_x
_atom_site_fract_y
_atom_site_fract_z
Si Si1 0.322584 0.404203 0.976414
Si Si2 0.669154 0.595945 0.510397
Si Si3 0.683316 0.242739 0.878502
Si Si4 0.671288 0.317773 0.270104
Si Si5 0.877761 0.149894 0.998656
Si Si6 0.142264 0.900966 0.235322
Si Si7 0.664104 0.759943 0.651852
Si Si8 0.184791 0.900845 0.676902
O O1 0.251523 0.500000 0.093681
O O2 0.496381 0.409492 0.766035
O O3 0.292812 0.376237 0.886654
O O4 0.249697 0.332905 0.159153
O O5 0.739850 0.500000 0.442907
O O6 0.700713 0.619395 0.337297
O O7 0.737494 0.673208 0.497654
O O8 0.724834 0.161834 0.904270
O O9 0.742394 0.227586 0.670988
O O10 0.509026 0.253130 0.106846
O O11 0.500000 0.282898 0.500000
O O12 0.789276 0.239951 0.112879
O O13 0.878036 0.104245 0.874461
O O14 0.048100 0.157645 0.811543
O O15 0.804385 0.092825 0.199165
O O16 0.000000 0.872093 0.500000
O O17 0.185147 0.000000 0.209885
O O18 0.677507 0.847155 0.556539
O O19 0.179260 0.000000 0.636067
#
# Coordination Sequence:
#
# PCOD8058970 Si02
#       8
#     4   4   4   4   4   4   4   4
#     4   9  17  31  54  84 115 147 183 224 276 332
#     4   9  17  31  54  84 115 146 183 228 274 329
#     4  10  21  36  56  84 114 149 190 232 276 328
#     4  10  18  32  57  87 116 145 180 228 283 331
#     4  11  21  37  60  83 110 144 185 229 278 336
#     4  11  23  39  59  83 110 145 187 230 278 335
#     4  10  21  37  56  82 115 150 189 232 281 323
#     4  11  23  39  59  82 110 147 189 230 278 337
#
# _framework density 19.834033999999999
#
# number of rings (size 3 to 8) (size 9 to 14) (size 15 to 20)
#    0.000    1.875    2.500    2.625    0.000    4.000 
#    0.000    3.750    0.000    6.750    0.000    0.000 
#    0.000    0.000    0.000    0.000    0.000    0.000 
#
# Total GULP energy -396538.342647 kJ/mol
# GULP energy per Si atom -12391.823208 kJ/mol
# Density = 1.978889 g / cm^3
# Si number density = 19.834034 Si / 1000 Ang^3
#
#
#
# Elastic Constant Matrix: (Units=GPa)
#
#
# Indices 1 2 3 4 5 6 
#
# 1 115.0482 50.4487 29.0329 0.0000 31.2188 0.0000
# 2 50.4487 156.3980 38.8071 0.0000 9.0211 0.0000
# 3 29.0329 38.8071 42.5919 0.0000 21.6978 0.0000
# 4 0.0000 0.0000 0.0000 23.1876 0.0000 5.1189
# 5 31.2188 9.0211 21.6978 0.0000 31.5265 0.0000
# 6 0.0000 0.0000 0.0000 5.1189 0.0000 26.5719
#
#
#
# Elastic Compliance Matrix: (Units=1/GPa)
#
#
# Indices 1 2 3 4 5 6 
#
# 1 0.013726 -0.003880 0.000828 0.000000 -0.013052 0.000000
# 2 -0.003880 0.009763 -0.010448 0.000000 0.008239 0.000000
# 3 0.000828 -0.010448 0.048243 0.000000 -0.031033 0.000000
# 4 0.000000 0.000000 0.000000 0.045042 0.000000 -0.008677
# 5 -0.013052 0.008239 -0.031033 0.000000 0.063644 0.000000
# 6 0.000000 0.000000 0.000000 -0.008677 0.000000 0.039305
#
#
# Mechanical properties :
#
#
# Convention : Reuss Voigt Hill
#
# Bulk Modulus (GPa) = 22.35543 61.17950 41.76746
# Shear Modulus (GPa) = 19.11072 29.30717 24.20894
#
# Velocity S-wave (km/s) = 3.10745 3.84815 3.49746
# Velocity P-wave (km/s) = 4.91637 7.11738 6.11669
#
# Compressibility (1/GPa) = 0.04473187
#
# Stress axis : x y z
#
# Youngs Moduli (GPa) = 72.85348 102.43081 20.72850
#
# Poissons Ratio (x) = 0.39745 -0.01716
# Poissons Ratio (y) = 0.28269 0.21656
# Poissons Ratio (z) = -0.06032 1.07015
#
# Static dielectric constant tensor:
#      x y z
#    x 3.799090 0.000000 0.383710 
#    y 0.000000 3.783580 0.000000 
#    z 0.383710 0.000000 3.439900 
# 
# 
# High freq. dielectric constant tensor:
#      x y z
#    x 1.772570 0.000000 0.029310 
#    y 0.000000 1.780240 0.000000 
#    z 0.029310 0.000000 1.744510 
# 
# From -- ./inp_files/53984.got.cif
#   From: 2010.06.25/outbox.cif.g09.slc.cpg/sg10_27_cif.got.tgz:53984.got - 2010.06.27 22:07:45.
