data_PCOD8058315
_publ_section_title
;
Structure prediction by ZEFSAII (Michael W. Deem and Ramdas Pophale) SiO2 
 PCOD8058315
Probable space group: P 2/M
;
_chemical_formula_sum "Si O2"
_cell_formula_units_Z 32
_cell_length_a 20.228124
_cell_length_b 8.583598
_cell_length_c 11.864753
_cell_angle_alpha 90.000000
_cell_angle_beta 121.664489
_cell_angle_gamma 90.000000
_cell_volume 1753.407894
_symmetry_space_group_name_H-M "P 2/M"
_symmetry_group_IT_number 10
_symmetry_cell_setting 'monoclinic'
loop_
_space_group_symop_operation_xyz
x,y,z
-x,y,-z
-x,-y,-z
x,-y,z
loop_
_atom_site_type_symbol
_atom_site_label
_atom_site_fract_x
_atom_site_fract_y
_atom_site_fract_z
Si Si1 0.229906 0.686410 0.099495
Si Si2 0.454904 0.819213 0.073926
Si Si3 0.712253 0.317619 0.087527
Si Si4 0.673450 0.329507 0.617643
Si Si5 0.174324 0.328602 0.396195
Si Si6 0.084118 0.686051 0.106608
Si Si7 0.268551 0.180288 0.662543
Si Si8 0.413084 0.685455 0.667505
O O1 0.233875 0.500000 0.112934
O O2 0.300392 0.755547 0.242529
O O3 0.146694 0.747134 0.070445
O O4 0.242493 0.742150 0.983316
O O5 0.508173 0.771084 0.227126
O O6 0.432355 0.000000 0.061453
O O7 0.500000 0.780580 0.000000
O O8 0.378410 0.715822 0.008474
O O9 0.724889 0.500000 0.117797
O O10 0.749792 0.224895 0.225140
O O11 0.640571 0.500000 0.618560
O O12 0.750270 0.346529 0.612344
O O13 0.609245 0.248825 0.478476
O O14 0.150567 0.500000 0.420830
O O15 0.106936 0.258807 0.254242
O O16 0.192527 0.217795 0.518940
O O17 0.082905 0.500000 0.104005
O O18 0.000000 0.755955 0.000000
O O19 0.344053 0.276861 0.692815
O O20 0.289483 0.000000 0.671672
O O21 0.424704 0.500000 0.677288
#
# Coordination Sequence:
#
# PCOD8058315 Si02
#       8
#     4   4   4   4   4   4   4   4
#     4   8  15  28  46  72 102 127 156 193 238 291
#     4  11  22  34  47  66  95 128 162 206 250 288
#     4  11  21  32  49  69  93 129 167 202 239 288
#     4   7  12  25  45  68  93 119 150 193 236 277
#     4   8  14  26  46  73 100 125 158 195 232 282
#     4   8  13  25  51  84 110 127 149 193 246 285
#     4  11  20  30  45  67  96 128 163 204 246 282
#     4  10  18  30  51  73  92 119 159 205 248 291
#
# _framework density 18.250174999999999
#
# number of rings (size 3 to 8) (size 9 to 14) (size 15 to 20)
#    0.000    2.750    1.250    4.500    0.000    0.500 
#    0.000    0.625    0.000   19.875    0.000    5.250 
#    0.000    0.000    0.000    0.000    0.000    0.000 
#
# Total GULP energy -396484.904266 kJ/mol
# GULP energy per Si atom -12390.153258 kJ/mol
# Density = 1.820864 g / cm^3
# Si number density = 18.250175 Si / 1000 Ang^3
#
#
#
# Elastic Constant Matrix: (Units=GPa)
#
#
# Indices 1 2 3 4 5 6 
#
# 1 55.8409 9.1623 48.7580 0.0000 -2.8327 0.0000
# 2 9.1623 32.0030 16.9477 0.0000 -1.6337 0.0000
# 3 48.7580 16.9477 154.0172 0.0000 3.6593 0.0000
# 4 0.0000 0.0000 0.0000 7.9021 0.0000 1.0603
# 5 -2.8327 -1.6337 3.6593 0.0000 27.5296 0.0000
# 6 0.0000 0.0000 0.0000 1.0603 0.0000 5.0662
#
#
#
# Elastic Compliance Matrix: (Units=1/GPa)
#
#
# Indices 1 2 3 4 5 6 
#
# 1 0.025370 -0.002962 -0.007788 0.000000 0.003470 0.000000
# 2 -0.002962 0.033694 -0.002819 0.000000 0.002069 0.000000
# 3 -0.007788 -0.002819 0.009321 0.000000 -0.002208 0.000000
# 4 0.000000 0.000000 0.000000 0.130205 0.000000 -0.027250
# 5 0.003470 0.002069 -0.002208 0.000000 0.037098 0.000000
# 6 0.000000 0.000000 0.000000 -0.027250 0.000000 0.203090
#
#
# Mechanical properties :
#
#
# Convention : Reuss Voigt Hill
#
# Bulk Modulus (GPa) = 24.24442 43.51081 33.87761
# Shear Modulus (GPa) = 10.42394 19.23244 14.82819
#
# Velocity S-wave (km/s) = 2.39251 3.24978 2.85352
# Velocity P-wave (km/s) = 4.57662 6.16235 5.42771
#
# Compressibility (1/GPa) = 0.04124661
#
# Stress axis : x y z
#
# Youngs Moduli (GPa) = 39.41613 29.67922 107.28501
#
# Poissons Ratio (x) = 0.08791 0.83555
# Poissons Ratio (y) = 0.11675 0.30244
# Poissons Ratio (z) = 0.30698 0.08367
#
# Static dielectric constant tensor:
#      x y z
#    x 3.076440 0.000000 0.027480 
#    y 0.000000 2.991650 0.000000 
#    z 0.027480 0.000000 4.028630 
# 
# 
# High freq. dielectric constant tensor:
#      x y z
#    x 1.655110 0.000000 -0.001540 
#    y 0.000000 1.671160 0.000000 
#    z -0.001540 0.000000 1.730760 
# 
# From -- ./inp_files/54881.got.cif
#   From: 2010.06.25/outbox.cif.g09.slc.cpg/sg10_28_cif.got.tgz:54881.got - 2010.06.27 22:07:45.
