data_PCOD8058402
_publ_section_title
;
Structure prediction by ZEFSAII (Michael W. Deem and Ramdas Pophale) SiO2 
 PCOD8058402
Probable space group: P 2/M
;
_chemical_formula_sum "Si O2"
_cell_formula_units_Z 32
_cell_length_a 16.754332
_cell_length_b 9.135449
_cell_length_c 25.175993
_cell_angle_alpha 90.000000
_cell_angle_beta 25.321923
_cell_angle_gamma 90.000000
_cell_volume 1648.111887
_symmetry_space_group_name_H-M "P 2/M"
_symmetry_group_IT_number 10
_symmetry_cell_setting 'monoclinic'
loop_
_space_group_symop_operation_xyz
x,y,z
-x,y,-z
-x,-y,-z
x,-y,z
loop_
_atom_site_type_symbol
_atom_site_label
_atom_site_fract_x
_atom_site_fract_y
_atom_site_fract_z
Si Si1 0.530730 0.170775 0.848074
Si Si2 0.862081 0.831467 0.714850
Si Si3 0.852381 0.668324 0.320372
Si Si4 0.218690 0.165769 0.119542
Si Si5 0.867434 0.666636 0.192424
Si Si6 0.284931 0.669885 0.913239
Si Si7 0.744248 0.172350 0.485838
Si Si8 0.347830 0.828370 0.767670
O O1 0.736663 0.231658 0.741558
O O2 0.454971 0.259627 0.843598
O O3 0.535733 0.000000 0.829177
O O4 0.405901 0.197237 0.975064
O O5 0.745833 0.810386 0.839194
O O6 0.070757 0.763264 0.595480
O O7 0.889132 0.000000 0.685147
O O8 0.846152 0.500000 0.340988
O O9 0.779859 0.689540 0.303692
O O10 0.725402 0.756587 0.438662
O O11 0.064300 0.721626 0.192943
O O12 0.146908 0.000000 0.152535
O O13 0.832604 0.500000 0.193776
O O14 0.768452 0.780576 0.213558
O O15 0.089392 0.698061 0.060482
O O16 0.328683 0.500000 0.879788
O O17 0.270441 0.742856 0.864508
O O18 0.565058 0.211378 0.628649
O O19 0.764681 0.000000 0.464225
O O20 0.318513 0.000000 0.794102
#
# Coordination Sequence:
#
# PCOD8058402 Si02
#       8
#     4   4   4   4   4   4   4   4
#     4  10  18  30  54  84 110 142 186 227 267 321
#     4   8  15  30  53  80 110 145 181 220 270 323
#     4  10  19  33  55  83 114 148 184 218 265 332
#     4   9  16  28  49  79 115 147 178 221 273 320
#     4  10  22  39  58  82 113 146 178 219 279 338
#     4  11  23  40  58  79 114 149 180 224 279 332
#     4   9  20  39  58  80 113 147 183 229 276 320
#     4  11  24  40  60  83 105 139 190 238 277 322
#
# _framework density 19.416157999999999
#
# number of rings (size 3 to 8) (size 9 to 14) (size 15 to 20)
#    0.000    2.250    1.250    2.625    0.000    6.500 
#    0.000    5.625    0.000    7.500    0.000    0.000 
#    0.000    0.000    0.000    0.000    0.000    0.000 
#
# Total GULP energy -396681.700469 kJ/mol
# GULP energy per Si atom -12396.303140 kJ/mol
# Density = 1.937197 g / cm^3
# Si number density = 19.416158 Si / 1000 Ang^3
#
#
#
# Elastic Constant Matrix: (Units=GPa)
#
#
# Indices 1 2 3 4 5 6 
#
# 1 64.2069 27.4898 3.9113 0.0000 -15.9360 0.0000
# 2 27.4898 66.1642 23.3159 0.0000 -0.7856 0.0000
# 3 3.9113 23.3159 43.1350 0.0000 -2.3819 0.0000
# 4 0.0000 0.0000 0.0000 14.4962 0.0000 10.0677
# 5 -15.9360 -0.7856 -2.3819 0.0000 18.2165 0.0000
# 6 0.0000 0.0000 0.0000 10.0677 0.0000 23.3704
#
#
#
# Elastic Compliance Matrix: (Units=1/GPa)
#
#
# Indices 1 2 3 4 5 6 
#
# 1 0.026493 -0.012771 0.005792 0.000000 0.023383 0.000000
# 2 -0.012771 0.024831 -0.012915 0.000000 -0.011790 0.000000
# 3 0.005792 -0.012915 0.030105 0.000000 0.008446 0.000000
# 4 0.000000 0.000000 0.000000 0.098433 0.000000 -0.042404
# 5 0.023383 -0.011790 0.008446 0.000000 0.075947 0.000000
# 6 0.000000 0.000000 0.000000 -0.042404 0.000000 0.061056
#
#
# Mechanical properties :
#
#
# Convention : Reuss Voigt Hill
#
# Bulk Modulus (GPa) = 24.01437 31.43780 27.72608
# Shear Modulus (GPa) = 13.49403 19.13589 16.31496
#
# Velocity S-wave (km/s) = 2.63913 3.14278 2.90190
# Velocity P-wave (km/s) = 4.65637 5.42182 5.05361
#
# Compressibility (1/GPa) = 0.04164174
#
# Stress axis : x y z
#
# Youngs Moduli (GPa) = 37.74560 40.27216 33.21683
#
# Poissons Ratio (x) = 0.51430 -0.19239
# Poissons Ratio (y) = 0.48204 0.42900
# Poissons Ratio (z) = -0.21862 0.52012
#
# Static dielectric constant tensor:
#      x y z
#    x 3.582260 0.000000 -0.103230 
#    y 0.000000 3.400470 0.000000 
#    z -0.103230 0.000000 3.563860 
# 
# 
# High freq. dielectric constant tensor:
#      x y z
#    x 1.756650 0.000000 -0.004260 
#    y 0.000000 1.738810 0.000000 
#    z -0.004260 0.000000 1.745540 
# 
# From -- ./inp_files/89496.got.cif
#   From: 2010.06.25/outbox.cif.g09.slc.cpg/sg10_45_cif.got.tgz:89496.got - 2010.06.27 22:07:45.
