data_PCOD8058647
_publ_section_title
;
Structure prediction by ZEFSAII (Michael W. Deem and Ramdas Pophale) SiO2 
 PCOD8058647
Probable space group: P 2/M
;
_chemical_formula_sum "Si O2"
_cell_formula_units_Z 32
_cell_length_a 11.850927
_cell_length_b 8.881638
_cell_length_c 19.754924
_cell_angle_alpha 90.000000
_cell_angle_beta 58.049544
_cell_angle_gamma 90.000000
_cell_volume 1764.313161
_symmetry_space_group_name_H-M "P 2/M"
_symmetry_group_IT_number 10
_symmetry_cell_setting 'monoclinic'
loop_
_space_group_symop_operation_xyz
x,y,z
-x,y,-z
-x,-y,-z
x,-y,z
loop_
_atom_site_type_symbol
_atom_site_label
_atom_site_fract_x
_atom_site_fract_y
_atom_site_fract_z
Si Si1 0.554902 0.322108 0.718070
Si Si2 0.425713 0.823555 0.151047
Si Si3 0.256823 0.323999 0.826072
Si Si4 0.705497 0.322618 0.036456
Si Si5 0.298333 0.175076 0.603039
Si Si6 0.916444 0.321777 0.240977
Si Si7 0.814295 0.823942 0.872146
Si Si8 0.420663 0.174357 0.424157
O O1 0.565187 0.500000 0.723513
O O2 0.621932 0.246017 0.762340
O O3 0.403374 0.261001 0.763054
O O4 0.625871 0.269899 0.626347
O O5 0.559721 0.749270 0.080431
O O6 0.312719 0.786554 0.132846
O O7 0.449709 0.000000 0.151857
O O8 0.261512 0.500000 0.811867
O O9 0.221732 0.286016 0.915112
O O10 0.148805 0.257431 0.808221
O O11 0.688931 0.500000 0.031581
O O12 0.799297 0.255282 0.949335
O O13 0.177006 0.276971 0.666673
O O14 0.316609 0.206156 0.517349
O O15 0.432223 0.224030 0.599289
O O16 0.267477 0.000000 0.625970
O O17 0.936769 0.500000 0.233411
O O18 0.057445 0.242260 0.206165
O O19 0.832323 0.000000 0.877901
O O20 0.420178 0.000000 0.404652
#
# Coordination Sequence:
#
# PCOD8058647 Si02
#       8
#     4   4   4   4   4   4   4   4
#     4  10  18  31  53  81 110 136 172 219 264 310
#     4  10  21  37  56  77 104 137 175 221 269 314
#     4   8  17  32  49  75 107 137 166 207 262 310
#     4  10  20  36  58  81 105 132 171 222 270 313
#     4   9  18  32  50  77 111 144 176 211 252 307
#     4  11  21  35  54  75 106 144 180 216 260 312
#     4  11  24  39  53  74 104 140 181 220 264 316
#     4   9  17  30  51  79 111 143 174 209 256 310
#
# _framework density 18.137370000000001
#
# number of rings (size 3 to 8) (size 9 to 14) (size 15 to 20)
#    0.000    2.250    1.250    3.750    0.000    4.500 
#    0.000    5.625    0.000    0.750    0.000    5.250 
#    0.000    0.000    0.000    0.000    0.000    0.000 
#
# Total GULP energy -396805.929289 kJ/mol
# GULP energy per Si atom -12400.185290 kJ/mol
# Density = 1.809609 g / cm^3
# Si number density = 18.137370 Si / 1000 Ang^3
#
#
#
# Elastic Constant Matrix: (Units=GPa)
#
#
# Indices 1 2 3 4 5 6 
#
# 1 32.0907 29.9280 30.5296 0.0000 -3.1965 0.0000
# 2 29.9280 72.1532 39.3090 0.0000 1.5608 0.0000
# 3 30.5296 39.3090 107.8394 0.0000 7.2681 0.0000
# 4 0.0000 0.0000 0.0000 36.3582 0.0000 2.4477
# 5 -3.1965 1.5608 7.2681 0.0000 26.4313 0.0000
# 6 0.0000 0.0000 0.0000 2.4477 0.0000 22.9407
#
#
#
# Elastic Compliance Matrix: (Units=1/GPa)
#
#
# Indices 1 2 3 4 5 6 
#
# 1 0.060941 -0.019596 -0.010886 0.000000 0.011521 0.000000
# 2 -0.019596 0.023608 -0.002857 0.000000 -0.002978 0.000000
# 3 -0.010886 -0.002857 0.013728 0.000000 -0.004923 0.000000
# 4 0.000000 0.000000 0.000000 0.027703 0.000000 -0.002956
# 5 0.011521 -0.002978 -0.004923 0.000000 0.040757 0.000000
# 6 0.000000 0.000000 0.000000 -0.002956 0.000000 0.043906
#
#
# Mechanical properties :
#
#
# Convention : Reuss Voigt Hill
#
# Bulk Modulus (GPa) = 31.64625 45.73517 38.69071
# Shear Modulus (GPa) = 17.36990 24.63382 21.00186
#
# Velocity S-wave (km/s) = 3.09801 3.68935 3.40653
# Velocity P-wave (km/s) = 5.50298 6.58932 6.07050
#
# Compressibility (1/GPa) = 0.03159932
#
# Stress axis : x y z
#
# Youngs Moduli (GPa) = 16.40941 42.35773 72.84275
#
# Poissons Ratio (x) = 0.83003 0.79296
# Poissons Ratio (y) = 0.32155 0.20813
# Poissons Ratio (z) = 0.17863 0.12103
#
# Static dielectric constant tensor:
#      x y z
#    x 3.257680 0.000000 0.187900 
#    y 0.000000 3.259020 0.000000 
#    z 0.187900 0.000000 3.363130 
# 
# 
# High freq. dielectric constant tensor:
#      x y z
#    x 1.679530 0.000000 0.017770 
#    y 0.000000 1.702320 0.000000 
#    z 0.017770 0.000000 1.703680 
# 
# From -- ./inp_files/55330.got.cif
#   From: 2010.06.25/outbox.cif.g09.slc.cpg/sg10_28_cif.got.tgz:55330.got - 2010.06.27 22:07:45.
