data_PCOD8058125
_publ_section_title
;
Structure prediction by ZEFSAII (Michael W. Deem and Ramdas Pophale) SiO2 
 PCOD8058125
Probable space group: P 2/M
;
_chemical_formula_sum "Si O2"
_cell_formula_units_Z 32
_cell_length_a 5.244668
_cell_length_b 26.677200
_cell_length_c 13.695144
_cell_angle_alpha 90.000000
_cell_angle_beta 73.102493
_cell_angle_gamma 90.000000
_cell_volume 1833.402936
_symmetry_space_group_name_H-M "P 2/M"
_symmetry_group_IT_number 10
_symmetry_cell_setting 'monoclinic'
loop_
_space_group_symop_operation_xyz
x,y,z
-x,y,-z
-x,-y,-z
x,-y,z
loop_
_atom_site_type_symbol
_atom_site_label
_atom_site_fract_x
_atom_site_fract_y
_atom_site_fract_z
Si Si1 0.694593 0.057475 0.101948
Si Si2 0.396351 0.386918 0.120700
Si Si3 0.101921 0.556269 0.878689
Si Si4 0.823827 0.815814 0.736412
Si Si5 0.829283 0.302093 0.733353
Si Si6 0.578541 0.301709 0.386964
Si Si7 0.410247 0.183327 0.613987
Si Si8 0.183225 0.901138 0.120926
O O1 0.384710 0.064616 0.163499
O O2 0.882498 0.077681 0.168652
O O3 0.759153 0.000000 0.069674
O O4 0.748417 0.092560 0.001179
O O5 0.632844 0.409660 0.161242
O O6 0.305808 0.331449 0.162263
O O7 0.138227 0.422551 0.160349
O O8 0.500000 0.382189 0.000000
O O9 0.171139 0.500000 0.836308
O O10 0.000000 0.555656 0.000000
O O11 0.811753 0.756771 0.759728
O O12 0.605252 0.832639 0.680705
O O13 0.781021 0.844230 0.844607
O O14 0.109686 0.834309 0.666104
O O15 0.658364 0.317242 0.658205
O O16 0.132616 0.320377 0.682447
O O17 0.500000 0.325748 0.500000
O O18 0.590629 0.242568 0.395738
O O19 0.500000 0.159771 0.500000
#
# Coordination Sequence:
#
# PCOD8058125 Si02
#       8
#     4   4   4   4   4   4   4   4
#     4  10  19  33  51  69  94 119 155 207 242 260
#     4  10  19  31  46  68 100 133 162 187 231 291
#     4   9  17  30  49  68  89 119 162 213 250 270
#     4  10  19  30  46  69  99 126 159 189 220 281
#     4  10  19  31  46  68 102 133 158 193 228 283
#     4   9  17  30  49  68  89 122 165 207 247 269
#     4   9  17  30  47  66  91 124 155 195 240 271
#     4  10  18  30  47  69  95 121 152 192 233 271
#
# _framework density 17.453883999999999
#
# number of rings (size 3 to 8) (size 9 to 14) (size 15 to 20)
#    0.000    2.375    0.000    4.500    0.000    4.500 
#    2.250    0.000    5.500    0.000    0.000    0.000 
#    0.000   93.000    0.000    0.000    0.000    0.000 
#
# Total GULP energy -396510.454597 kJ/mol
# GULP energy per Si atom -12390.951706 kJ/mol
# Density = 1.741416 g / cm^3
# Si number density = 17.453884 Si / 1000 Ang^3
#
#
#
# Elastic Constant Matrix: (Units=GPa)
#
#
# Indices 1 2 3 4 5 6 
#
# 1 169.8705 44.2883 28.8804 0.0000 -0.8919 0.0000
# 2 44.2883 82.2360 43.2593 0.0000 0.2261 0.0000
# 3 28.8804 43.2593 50.9472 0.0000 -0.6070 0.0000
# 4 0.0000 0.0000 0.0000 28.5218 0.0000 -18.0073
# 5 -0.8919 0.2261 -0.6070 0.0000 16.7603 0.0000
# 6 0.0000 0.0000 0.0000 -18.0073 0.0000 34.5192
#
#
#
# Elastic Compliance Matrix: (Units=1/GPa)
#
#
# Indices 1 2 3 4 5 6 
#
# 1 0.006903 -0.003004 -0.001358 0.000000 0.000359 0.000000
# 2 -0.003004 0.023299 -0.018094 0.000000 -0.001129 0.000000
# 3 -0.001358 -0.018094 0.035779 0.000000 0.001468 0.000000
# 4 0.000000 0.000000 0.000000 0.052279 0.000000 0.027272
# 5 0.000359 -0.001129 0.001468 0.000000 0.059752 0.000000
# 6 0.000000 0.000000 0.000000 0.027272 0.000000 0.043196
#
#
# Mechanical properties :
#
#
# Convention : Reuss Voigt Hill
#
# Bulk Modulus (GPa) = 47.46290 59.54553 53.50421
# Shear Modulus (GPa) = 18.30543 28.40197 23.35370
#
# Velocity S-wave (km/s) = 3.24201 4.03830 3.66187
# Velocity P-wave (km/s) = 6.42390 7.47889 6.97138
#
# Compressibility (1/GPa) = 0.02106909
#
# Stress axis : x y z
#
# Youngs Moduli (GPa) = 144.86810 42.91985 27.94947
#
# Poissons Ratio (x) = 0.12894 0.03795
# Poissons Ratio (y) = 0.43522 0.50571
# Poissons Ratio (z) = 0.19670 0.77659
#
# Static dielectric constant tensor:
#      x y z
#    x 4.196590 0.000000 -0.016450 
#    y 0.000000 3.065800 0.000000 
#    z -0.016450 0.000000 2.982910 
# 
# 
# High freq. dielectric constant tensor:
#      x y z
#    x 1.712230 0.000000 0.000210 
#    y 0.000000 1.642460 0.000000 
#    z 0.000210 0.000000 1.630360 
# 
# From -- ./inp_files/39998.got.cif
#   From: 2010.06.25/outbox.cif.g09.slc.cpg/sg10_20_cif.got.tgz:39998.got - 2010.06.27 22:07:45.
