data_PCOD8058601
_publ_section_title
;
Structure prediction by ZEFSAII (Michael W. Deem and Ramdas Pophale) SiO2 
 PCOD8058601
Probable space group: P 2/M
;
_chemical_formula_sum "Si O2"
_cell_formula_units_Z 32
_cell_length_a 13.882512
_cell_length_b 13.389248
_cell_length_c 15.453577
_cell_angle_alpha 90.000000
_cell_angle_beta 144.253743
_cell_angle_gamma 90.000000
_cell_volume 1678.078693
_symmetry_space_group_name_H-M "P 2/M"
_symmetry_group_IT_number 10
_symmetry_cell_setting 'monoclinic'
loop_
_space_group_symop_operation_xyz
x,y,z
-x,y,-z
-x,-y,-z
x,-y,z
loop_
_atom_site_type_symbol
_atom_site_label
_atom_site_fract_x
_atom_site_fract_y
_atom_site_fract_z
Si Si1 0.991621 0.744016 0.390349
Si Si2 0.951643 0.741088 0.061656
Si Si3 0.608422 0.319531 0.760877
Si Si4 0.708530 0.608547 0.384196
Si Si5 0.679642 0.613584 0.160488
Si Si6 0.601423 0.805181 0.494211
Si Si7 0.944970 0.885793 0.712577
Si Si8 0.250309 0.386684 0.312647
O O1 0.158310 0.686779 0.482250
O O2 0.000000 0.765787 0.500000
O O3 0.831834 0.682520 0.240522
O O4 0.990665 0.844716 0.332974
O O5 0.979500 0.829979 0.149609
O O6 0.059963 0.644268 0.164062
O O7 0.764129 0.705603 0.934076
O O8 0.000000 0.779109 0.000000
O O9 0.475997 0.382848 0.715928
O O10 0.528114 0.211692 0.677663
O O11 0.662543 0.382058 0.716610
O O12 0.779477 0.500000 0.460295
O O13 0.690771 0.618945 0.270168
O O14 0.702819 0.500000 0.142893
O O15 0.500000 0.655273 0.000000
O O16 0.500000 0.852477 0.500000
O O17 0.664836 0.691672 0.560563
O O18 0.746344 0.878900 0.572527
O O19 0.000281 0.000000 0.757924
O O20 0.263846 0.500000 0.358706
#
# Coordination Sequence:
#
# PCOD8058601 Si02
#       8
#     4   4   4   4   4   4   4   4
#     4  10  21  39  60  84 116 150 179 238 290 337
#     4   9  21  38  55  78 116 155 190 237 282 337
#     4  10  18  31  52  78 116 145 185 226 276 332
#     4  10  19  31  53  85 115 149 184 220 273 337
#     4   9  19  35  56  84 115 150 186 222 270 337
#     4   9  19  36  55  81 111 147 188 239 287 330
#     4  11  23  41  62  84 108 147 199 243 298 348
#     4   9  18  32  50  77 116 159 192 223 271 336
#
# _framework density 19.069427999999998
#
# number of rings (size 3 to 8) (size 9 to 14) (size 15 to 20)
#    0.000    2.375    1.250    1.500    1.750    7.750 
#    0.000    1.250    0.000    0.375    0.000    0.000 
#    0.000    0.000    0.000    0.000    0.000    0.000 
#
# Total GULP energy -396620.571200 kJ/mol
# GULP energy per Si atom -12394.392850 kJ/mol
# Density = 1.902602 g / cm^3
# Si number density = 19.069428 Si / 1000 Ang^3
#
#
#
# Elastic Constant Matrix: (Units=GPa)
#
#
# Indices 1 2 3 4 5 6 
#
# 1 73.1584 40.0936 25.9739 0.0000 14.0387 0.0000
# 2 40.0936 90.0707 26.8410 0.0000 0.4209 0.0000
# 3 25.9739 26.8410 98.6086 0.0000 26.0323 0.0000
# 4 0.0000 0.0000 0.0000 14.6836 0.0000 0.1334
# 5 14.0387 0.4209 26.0323 0.0000 23.6552 0.0000
# 6 0.0000 0.0000 0.0000 0.1334 0.0000 21.4351
#
#
#
# Elastic Compliance Matrix: (Units=1/GPa)
#
#
# Indices 1 2 3 4 5 6 
#
# 1 0.021196 -0.009491 0.000390 0.000000 -0.012840 0.000000
# 2 -0.009491 0.016732 -0.004881 0.000000 0.010706 0.000000
# 3 0.000390 -0.004881 0.016075 0.000000 -0.017835 0.000000
# 4 0.000000 0.000000 0.000000 0.068107 0.000000 -0.000424
# 5 -0.012840 0.010706 -0.017835 0.000000 0.069331 0.000000
# 6 0.000000 0.000000 0.000000 -0.000424 0.000000 0.046655
#
#
# Mechanical properties :
#
#
# Convention : Reuss Voigt Hill
#
# Bulk Modulus (GPa) = 38.40386 49.73941 44.07163
# Shear Modulus (GPa) = 18.19903 23.21673 20.70788
#
# Velocity S-wave (km/s) = 3.09262 3.49303 3.29891
# Velocity P-wave (km/s) = 5.73891 6.51217 6.13773
#
# Compressibility (1/GPa) = 0.02603905
#
# Stress axis : x y z
#
# Youngs Moduli (GPa) = 47.17894 59.76677 62.20687
#
# Poissons Ratio (x) = 0.56726 -0.02426
# Poissons Ratio (y) = 0.44779 0.30361
# Poissons Ratio (z) = -0.01840 0.29171
#
# Static dielectric constant tensor:
#      x y z
#    x 3.484100 0.000000 0.147190 
#    y 0.000000 3.107460 0.000000 
#    z 0.147190 0.000000 3.781920 
# 
# 
# High freq. dielectric constant tensor:
#      x y z
#    x 1.743500 0.000000 0.006730 
#    y 0.000000 1.699070 0.000000 
#    z 0.006730 0.000000 1.753440 
# 
# From -- ./inp_files/78218.got.cif
#   From: 2010.06.25/outbox.cif.g09.slc.cpg/sg10_40_cif.got.tgz:78218.got - 2010.06.27 22:07:45.
