data_PCOD8058751
_publ_section_title
;
Structure prediction by ZEFSAII (Michael W. Deem and Ramdas Pophale) SiO2 
 PCOD8058751
Probable space group: P 2/M
;
_chemical_formula_sum "Si O2"
_cell_formula_units_Z 32
_cell_length_a 23.997219
_cell_length_b 8.878555
_cell_length_c 17.947028
_cell_angle_alpha 90.000000
_cell_angle_beta 30.395349
_cell_angle_gamma 90.000000
_cell_volume 1934.706743
_symmetry_space_group_name_H-M "P 2/M"
_symmetry_group_IT_number 10
_symmetry_cell_setting 'monoclinic'
loop_
_space_group_symop_operation_xyz
x,y,z
-x,y,-z
-x,-y,-z
x,-y,z
loop_
_atom_site_type_symbol
_atom_site_label
_atom_site_fract_x
_atom_site_fract_y
_atom_site_fract_z
Si Si1 0.934554 0.179733 0.901225
Si Si2 0.127684 0.166070 0.873555
Si Si3 0.175040 0.819681 0.663060
Si Si4 0.895836 0.177334 0.781733
Si Si5 0.690317 0.178819 0.628554
Si Si6 0.764177 0.677068 0.807541
Si Si7 0.861907 0.822261 0.552526
Si Si8 0.535168 0.826692 0.044276
O O1 0.881436 0.229664 0.884356
O O2 0.060438 0.237729 0.759576
O O3 0.936301 0.000000 0.905243
O O4 0.864883 0.245917 0.053098
O O5 0.189111 0.246140 0.731907
O O6 0.179093 0.000000 0.822512
O O7 0.000000 0.153944 0.000000
O O8 0.272785 0.762708 0.495967
O O9 0.173671 0.000000 0.669383
O O10 0.804339 0.266496 0.841513
O O11 0.017258 0.222202 0.614313
O O12 0.876127 0.000000 0.795376
O O13 0.772584 0.242431 0.596956
O O14 0.565687 0.230574 0.787817
O O15 0.698865 0.000000 0.622243
O O16 0.774740 0.500000 0.790429
O O17 0.842154 0.748898 0.655249
O O18 0.637918 0.722630 0.943179
O O19 0.848847 0.000000 0.577138
O O20 0.565940 0.000000 0.025577
O O21 0.500000 0.807594 0.000000
#
# Coordination Sequence:
#
# PCOD8058751 Si02
#       8
#     4   4   4   4   4   4   4   4
#     4   8  12  20  36  62  94 125 149 172 210 265
#     4   7  10  15  28  55  95 129 142 161 210 271
#     4   8  11  18  34  62  96 122 144 173 218 270
#     4  10  19  31  50  70  92 123 160 192 218 263
#     4   9  15  25  45  69  90 116 150 188 225 265
#     4  12  25  36  46  63  92 123 155 194 236 277
#     4  10  18  32  51  70  91 119 156 191 224 266
#     4  10  19  34  54  69  85 113 155 199 233 270
#
# _framework density 16.539974999999998
#
# number of rings (size 3 to 8) (size 9 to 14) (size 15 to 20)
#    0.000    2.750    2.500    3.000    0.000    2.250 
#    0.000    0.000    0.000    0.000    0.000    0.875 
#    0.000   13.500    0.000    0.000    0.000    0.000 
#
# Total GULP energy -396465.900660 kJ/mol
# GULP energy per Si atom -12389.559396 kJ/mol
# Density = 1.650233 g / cm^3
# Si number density = 16.539975 Si / 1000 Ang^3
#
#
#
# Elastic Constant Matrix: (Units=GPa)
#
#
# Indices 1 2 3 4 5 6 
#
# 1 99.9678 20.1621 49.8248 0.0000 23.2059 0.0000
# 2 20.1621 20.9641 15.8524 0.0000 -0.3105 0.0000
# 3 49.8248 15.8524 79.7387 0.0000 26.3074 0.0000
# 4 0.0000 0.0000 0.0000 3.0879 0.0000 -2.0528
# 5 23.2059 -0.3105 26.3074 0.0000 33.9885 0.0000
# 6 0.0000 0.0000 0.0000 -2.0528 0.0000 -0.1005
#
#
#
# Elastic Compliance Matrix: (Units=1/GPa)
#
#
# Indices 1 2 3 4 5 6 
#
# 1 0.017029 -0.012042 -0.005874 0.000000 -0.007190 0.000000
# 2 -0.012042 0.068757 -0.012173 0.000000 0.018272 0.000000
# 3 -0.005874 -0.012173 0.023293 0.000000 -0.014130 0.000000
# 4 0.000000 0.000000 0.000000 0.022208 0.000000 -0.453739
# 5 -0.007190 0.018272 -0.014130 0.000000 0.045434 0.000000
# 6 0.000000 0.000000 0.000000 -0.453739 0.000000 -0.682536
#
#
# Mechanical properties :
#
#
# Convention : Reuss Voigt Hill
#
# Bulk Modulus (GPa) = 20.44969 41.37214 30.91091
# Shear Modulus (GPa) = -11.64588 15.05060 1.70236
#
# Velocity S-wave (km/s) = -2.65638 3.01982 1.01562
# Velocity P-wave (km/s) = 1.72690 6.10137 4.48380
#
# Compressibility (1/GPa) = 0.04890050
#
# Stress axis : x y z
#
# Youngs Moduli (GPa) = 58.72450 14.54398 42.93069
#
# Poissons Ratio (x) = 0.17513 0.25220
# Poissons Ratio (y) = 0.70714 0.52260
# Poissons Ratio (z) = 0.34498 0.17705
#
# Static dielectric constant tensor:
#      x y z
#    x 3.276860 0.000000 0.413180 
#    y 0.000000 2.576690 0.000000 
#    z 0.413180 0.000000 3.373460 
# 
# 
# High freq. dielectric constant tensor:
#      x y z
#    x 1.629020 0.000000 0.028720 
#    y 0.000000 1.578440 0.000000 
#    z 0.028720 0.000000 1.629500 
# 
# From -- ./inp_files/56410.got.cif
#   From: 2010.06.25/outbox.cif.g09.slc.cpg/sg10_29_cif.got.tgz:56410.got - 2010.06.27 22:07:45.
