data_PCOD8058956
_publ_section_title
;
Structure prediction by ZEFSAII (Michael W. Deem and Ramdas Pophale) SiO2 
 PCOD8058956
Probable space group: P 2/M
;
_chemical_formula_sum "Si O2"
_cell_formula_units_Z 24
_cell_length_a 11.530027
_cell_length_b 9.190416
_cell_length_c 21.914341
_cell_angle_alpha 90.000000
_cell_angle_beta 31.545211
_cell_angle_gamma 90.000000
_cell_volume 1214.892193
_symmetry_space_group_name_H-M "P 2/M"
_symmetry_group_IT_number 10
_symmetry_cell_setting 'monoclinic'
loop_
_space_group_symop_operation_xyz
x,y,z
-x,y,-z
-x,-y,-z
x,-y,z
loop_
_atom_site_type_symbol
_atom_site_label
_atom_site_fract_x
_atom_site_fract_y
_atom_site_fract_z
Si Si1 0.646072 0.670180 0.755997
Si Si2 0.078216 0.830106 0.811298
Si Si3 0.751994 0.666140 0.379262
Si Si4 0.442357 0.329261 0.721501
Si Si5 0.870518 0.333693 0.462419
Si Si6 0.566791 0.830341 0.037197
O O1 0.661650 0.500000 0.764669
O O2 0.470948 0.700378 0.780666
O O3 0.580524 0.751113 0.846691
O O4 0.889363 0.726011 0.623621
O O5 0.133095 0.771680 0.719875
O O6 0.220904 0.751313 0.799431
O O7 0.130781 0.000000 0.789814
O O8 0.821522 0.797023 0.938513
O O9 0.500000 0.715048 0.500000
O O10 0.764075 0.500000 0.349929
O O11 0.874321 0.685698 0.388189
O O12 0.414438 0.500000 0.719656
O O13 0.655307 0.259891 0.590180
O O14 0.850454 0.500000 0.491855
O O15 0.512325 0.000000 0.065484
O O16 0.500000 0.771446 0.000000
#
# Coordination Sequence:
#
# PCOD8058956 Si02
#       6
#     4   4   4   4   4   4
#     4  10  21  36  60  88 110 144 192 235 273 325
#     4  11  23  37  56  83 113 149 191 232 275 328
#     4  10  18  32  56  84 113 146 179 222 283 333
#     4  10  20  37  58  83 117 150 182 227 284 336
#     4   9  17  33  57  85 116 147 181 225 280 336
#     4  10  23  43  61  78 110 152 187 228 284 335
#
# _framework density 19.754837999999999
#
# number of rings (size 3 to 8) (size 9 to 14) (size 15 to 20)
#    0.000    2.000    1.667    2.000    0.000    5.333 
#    0.000    4.167    0.000    2.000    0.000    0.000 
#    0.000    0.000    0.000    0.000    0.000    0.000 
#
# Total GULP energy -297582.991373 kJ/mol
# GULP energy per Si atom -12399.291307 kJ/mol
# Density = 1.970988 g / cm^3
# Si number density = 19.754838 Si / 1000 Ang^3
#
#
#
# Elastic Constant Matrix: (Units=GPa)
#
#
# Indices 1 2 3 4 5 6 
#
# 1 95.4828 35.0339 42.7114 0.0000 -4.7676 0.0000
# 2 35.0339 53.8312 42.5081 0.0000 -5.0080 0.0000
# 3 42.7114 42.5081 89.5856 0.0000 -3.6275 0.0000
# 4 0.0000 0.0000 0.0000 166.8535 0.0000 73.4972
# 5 -4.7676 -5.0080 -3.6275 0.0000 30.4276 0.0000
# 6 0.0000 0.0000 0.0000 73.4972 0.0000 64.2444
#
#
#
# Elastic Compliance Matrix: (Units=1/GPa)
#
#
# Indices 1 2 3 4 5 6 
#
# 1 0.014587 -0.006323 -0.003923 0.000000 0.000777 0.000000
# 2 -0.006323 0.032767 -0.012415 0.000000 0.002922 0.000000
# 3 -0.003923 -0.012415 0.018907 0.000000 -0.000404 0.000000
# 4 0.000000 0.000000 0.000000 0.012082 0.000000 -0.013822
# 5 0.000777 0.002922 -0.000404 0.000000 0.033420 0.000000
# 6 0.000000 0.000000 0.000000 -0.013822 0.000000 0.031378
#
#
# Mechanical properties :
#
#
# Convention : Reuss Voigt Hill
#
# Bulk Modulus (GPa) = 47.75679 53.26738 50.51209
# Shear Modulus (GPa) = 25.58313 60.21485 42.89899
#
# Velocity S-wave (km/s) = 3.60256 5.52696 4.66506
# Velocity P-wave (km/s) = 6.44452 8.23119 7.39203
#
# Compressibility (1/GPa) = 0.02093943
#
# Stress axis : x y z
#
# Youngs Moduli (GPa) = 68.55579 30.51827 52.89018
#
# Poissons Ratio (x) = 0.19298 0.20746
# Poissons Ratio (y) = 0.43351 0.65662
# Poissons Ratio (z) = 0.26891 0.37888
#
# Static dielectric constant tensor:
#      x y z
#    x 3.705750 0.000000 -0.153270 
#    y 0.000000 3.285280 0.000000 
#    z -0.153270 0.000000 3.696240 
# 
# 
# High freq. dielectric constant tensor:
#      x y z
#    x 1.787940 0.000000 -0.008510 
#    y 0.000000 1.734770 0.000000 
#    z -0.008510 0.000000 1.773230 
# 
# From -- ./inp_files/45061.got.cif
#   From: 2010.06.25/outbox.cif.g09.slc.cpg/sg10_23_cif.got.tgz:45061.got - 2010.06.27 22:07:45.
