data_PCOD8058759
_publ_section_title
;
Structure prediction by ZEFSAII (Michael W. Deem and Ramdas Pophale) SiO2 
 PCOD8058759
Probable space group: P 2/M
;
_chemical_formula_sum "Si O2"
_cell_formula_units_Z 32
_cell_length_a 11.735631
_cell_length_b 8.879209
_cell_length_c 21.634459
_cell_angle_alpha 90.000000
_cell_angle_beta 51.767076
_cell_angle_gamma 90.000000
_cell_volume 1770.817196
_symmetry_space_group_name_H-M "P 2/M"
_symmetry_group_IT_number 10
_symmetry_cell_setting 'monoclinic'
loop_
_space_group_symop_operation_xyz
x,y,z
-x,y,-z
-x,-y,-z
x,-y,z
loop_
_atom_site_type_symbol
_atom_site_label
_atom_site_fract_x
_atom_site_fract_y
_atom_site_fract_z
Si Si1 0.170308 0.671953 0.453721
Si Si2 0.946348 0.171919 0.827446
Si Si3 0.067290 0.824612 0.912551
Si Si4 0.840997 0.322738 0.749659
Si Si5 0.229626 0.671239 0.696063
Si Si6 0.148796 0.673818 0.594801
Si Si7 0.347708 0.176771 0.286988
Si Si8 0.637829 0.672629 0.225249
O O1 0.225731 0.500000 0.427697
O O2 0.202420 0.742453 0.511540
O O3 0.254012 0.772194 0.376768
O O4 0.000000 0.681896 0.500000
O O5 0.941772 0.204600 0.902764
O O6 0.111589 0.205831 0.753614
O O7 0.836431 0.273261 0.823577
O O8 0.908940 0.000000 0.825020
O O9 0.207690 0.722821 0.853377
O O10 0.113502 0.000000 0.896523
O O11 0.000000 0.775012 0.000000
O O12 0.824385 0.500000 0.750802
O O13 0.708986 0.248825 0.757366
O O14 0.992453 0.262863 0.669369
O O15 0.164979 0.500000 0.723335
O O16 0.267299 0.698398 0.610398
O O17 0.363562 0.688594 0.698632
O O18 0.123452 0.500000 0.587804
O O19 0.514013 0.223572 0.238961
O O20 0.337510 0.000000 0.284168
O O21 0.609611 0.500000 0.215923
#
# Coordination Sequence:
#
# PCOD8058759 Si02
#       8
#     4   4   4   4   4   4   4   4
#     4  10  18  32  51  72  99 134 174 216 264 312
#     4   9  16  27  47  78 108 133 166 206 248 295
#     4   9  18  34  57  84 114 143 167 199 249 305
#     4  10  18  32  51  72  99 134 175 215 258 304
#     4   8  15  29  49  71  95 130 172 213 255 302
#     4   8  14  27  49  72  94 123 166 215 259 302
#     4  12  24  35  49  72 103 138 175 216 268 318
#     4  10  20  35  54  76 103 136 177 217 255 304
#
# _framework density 18.070753
#
# number of rings (size 3 to 8) (size 9 to 14) (size 15 to 20)
#    0.000    2.500    1.250    3.000    0.000    1.500 
#    0.000    1.250    0.000    4.500    0.000    5.250 
#    0.000    0.000    0.000    0.000    0.000    0.000 
#
# Total GULP energy -396522.594514 kJ/mol
# GULP energy per Si atom -12391.331079 kJ/mol
# Density = 1.802962 g / cm^3
# Si number density = 18.070753 Si / 1000 Ang^3
#
#
#
# Elastic Constant Matrix: (Units=GPa)
#
#
# Indices 1 2 3 4 5 6 
#
# 1 113.9261 46.5970 49.4163 0.0000 27.1900 0.0000
# 2 46.5970 86.4515 32.9518 0.0000 12.6753 0.0000
# 3 49.4163 32.9518 78.4654 0.0000 29.3636 0.0000
# 4 0.0000 0.0000 0.0000 21.0065 0.0000 2.9437
# 5 27.1900 12.6753 29.3636 0.0000 30.7019 0.0000
# 6 0.0000 0.0000 0.0000 2.9437 0.0000 24.1619
#
#
#
# Elastic Compliance Matrix: (Units=1/GPa)
#
#
# Indices 1 2 3 4 5 6 
#
# 1 0.014311 -0.005064 -0.004557 0.000000 -0.006225 0.000000
# 2 -0.005064 0.015565 -0.004082 0.000000 0.001963 0.000000
# 3 -0.004557 -0.004082 0.023653 0.000000 -0.016902 0.000000
# 4 0.000000 0.000000 0.000000 0.048431 0.000000 -0.005900
# 5 -0.006225 0.001963 -0.016902 0.000000 0.053439 0.000000
# 6 0.000000 0.000000 0.000000 -0.005900 0.000000 0.042106
#
#
# Mechanical properties :
#
#
# Convention : Reuss Voigt Hill
#
# Bulk Modulus (GPa) = 38.27812 59.64148 48.95980
# Shear Modulus (GPa) = 21.40242 25.16592 23.28417
#
# Velocity S-wave (km/s) = 3.44520 3.73585 3.59346
# Velocity P-wave (km/s) = 6.08722 7.18922 6.66104
#
# Compressibility (1/GPa) = 0.02612458
#
# Stress axis : x y z
#
# Youngs Moduli (GPa) = 69.87578 64.24797 42.27757
#
# Poissons Ratio (x) = 0.32536 0.19264
# Poissons Ratio (y) = 0.35386 0.17256
# Poissons Ratio (z) = 0.31839 0.26223
#
# Static dielectric constant tensor:
#      x y z
#    x 3.492510 0.000000 0.509630 
#    y 0.000000 3.240980 0.000000 
#    z 0.509630 0.000000 3.328260 
# 
# 
# High freq. dielectric constant tensor:
#      x y z
#    x 1.697660 0.000000 0.042080 
#    y 0.000000 1.691490 0.000000 
#    z 0.042080 0.000000 1.667870 
# 
# From -- ./inp_files/83335.got.cif
#   From: 2010.06.25/outbox.cif.g09.slc.cpg/sg10_42_cif.got.tgz:83335.got - 2010.06.27 22:07:45.
