data_PCOD8058106
_publ_section_title
;
Structure prediction by ZEFSAII (Michael W. Deem and Ramdas Pophale) SiO2 
 PCOD8058106
Probable space group: P 2/M
;
_chemical_formula_sum "Si O2"
_cell_formula_units_Z 32
_cell_length_a 21.761647
_cell_length_b 18.558795
_cell_length_c 7.633617
_cell_angle_alpha 90.000000
_cell_angle_beta 33.956709
_cell_angle_gamma 90.000000
_cell_volume 1722.053616
_symmetry_space_group_name_H-M "P 2/M"
_symmetry_group_IT_number 10
_symmetry_cell_setting 'monoclinic'
loop_
_space_group_symop_operation_xyz
x,y,z
-x,y,-z
-x,-y,-z
x,-y,z
loop_
_atom_site_type_symbol
_atom_site_label
_atom_site_fract_x
_atom_site_fract_y
_atom_site_fract_z
Si Si1 0.679319 0.579125 0.000995
Si Si2 0.115288 0.139312 0.431848
Si Si3 0.264835 0.081899 0.377354
Si Si4 0.397682 0.216026 0.022649
Si Si5 0.466575 0.578910 0.310828
Si Si6 0.372913 0.277862 0.437726
Si Si7 0.250377 0.724857 0.078007
Si Si8 0.120822 0.916703 0.046518
O O1 0.736701 0.500000 0.851412
O O2 0.597401 0.592286 0.030866
O O3 0.599038 0.582596 0.354822
O O4 0.771213 0.642194 0.805666
O O5 0.167868 0.097612 0.469607
O O6 0.162602 0.104455 0.141106
O O7 0.984178 0.132303 0.754571
O O8 0.145841 0.224589 0.364972
O O9 0.371010 0.130881 0.089145
O O10 0.304150 0.000000 0.266771
O O11 0.218843 0.098127 0.680216
O O12 0.332651 0.251669 0.342330
O O13 0.527671 0.226878 0.730496
O O14 0.356280 0.248398 0.937147
O O15 0.448986 0.500000 0.265412
O O16 0.418216 0.640888 0.300940
O O17 0.275882 0.273040 0.809728
O O18 0.083552 0.000000 0.130281
#
# Coordination Sequence:
#
# PCOD8058106 Si02
#       8
#     4   4   4   4   4   4   4   4
#     4   8  13  23  41  65  89 119 154 184 219 262
#     4  10  19  30  50  75  94 113 146 180 230 285
#     4  10  20  34  50  67  91 120 149 186 231 272
#     4  10  20  30  45  67  88 120 162 187 217 270
#     4   8  13  23  42  63  87 120 154 187 226 261
#     4  10  18  31  45  62  94 126 154 188 223 252
#     4  10  18  30  47  66  93 125 148 184 226 265
#     4  10  19  33  52  73  94 113 138 186 241 281
#
# _framework density 18.582464000000002
#
# number of rings (size 3 to 8) (size 9 to 14) (size 15 to 20)
#    0.000    2.500    1.250    3.750    0.000    1.000 
#    0.000    3.125    0.000    7.500    0.000    1.750 
#    0.000   10.000    0.000    0.000    0.000    4.000 
#
# Total GULP energy -396583.849445 kJ/mol
# GULP energy per Si atom -12393.245295 kJ/mol
# Density = 1.854017 g / cm^3
# Si number density = 18.582464 Si / 1000 Ang^3
#
#
#
# Elastic Constant Matrix: (Units=GPa)
#
#
# Indices 1 2 3 4 5 6 
#
# 1 47.3283 8.2144 -1.3719 0.0000 15.1464 0.0000
# 2 8.2144 133.4447 25.1051 0.0000 -4.7343 0.0000
# 3 -1.3719 25.1051 24.1254 0.0000 1.0636 0.0000
# 4 0.0000 0.0000 0.0000 12.1817 0.0000 -20.1619
# 5 15.1464 -4.7343 1.0636 0.0000 22.6979 0.0000
# 6 0.0000 0.0000 0.0000 -20.1619 0.0000 -4.9349
#
#
#
# Elastic Compliance Matrix: (Units=1/GPa)
#
#
# Indices 1 2 3 4 5 6 
#
# 1 0.028327 -0.003631 0.006269 0.000000 -0.019954 0.000000
# 2 -0.003631 0.009916 -0.010745 0.000000 0.004995 0.000000
# 3 0.006269 -0.010745 0.053382 0.000000 -0.008926 0.000000
# 4 0.000000 0.000000 0.000000 0.010576 0.000000 -0.043209
# 5 -0.019954 0.004995 -0.008926 0.000000 0.058832 0.000000
# 6 0.000000 0.000000 0.000000 -0.043209 0.000000 -0.026106
#
#
# Mechanical properties :
#
#
# Convention : Reuss Voigt Hill
#
# Bulk Modulus (GPa) = 13.26093 29.86595 21.56344
# Shear Modulus (GPa) = 28.36445 17.51902 22.94173
#
# Velocity S-wave (km/s) = 3.91117 3.07379 3.51749
# Velocity P-wave (km/s) = 5.24862 5.35767 5.30343
#
# Compressibility (1/GPa) = 0.07540949
#
# Stress axis : x y z
#
# Youngs Moduli (GPa) = 35.30251 100.84742 18.73299
#
# Poissons Ratio (x) = 0.36617 -0.11743
# Poissons Ratio (y) = 0.12818 0.20129
# Poissons Ratio (z) = -0.22131 1.08364
#
# Static dielectric constant tensor:
#      x y z
#    x 3.456420 0.000000 0.300630 
#    y 0.000000 3.854020 0.000000 
#    z 0.300630 0.000000 2.947990 
# 
# 
# High freq. dielectric constant tensor:
#      x y z
#    x 1.718930 0.000000 0.034340 
#    y 0.000000 1.734040 0.000000 
#    z 0.034340 0.000000 1.668530 
# 
# From -- ./inp_files/36461.got.cif
#   From: 2010.06.25/outbox.cif.g09.slc.cpg/sg10_19_cif.got.tgz:36461.got - 2010.06.27 22:07:45.
