data_PCOD8058555
_publ_section_title
;
Structure prediction by ZEFSAII (Michael W. Deem and Ramdas Pophale) SiO2 
 PCOD8058555
Probable space group: P 2/M
;
_chemical_formula_sum "Si O2"
_cell_formula_units_Z 24
_cell_length_a 17.580494
_cell_length_b 8.445656
_cell_length_c 25.205626
_cell_angle_alpha 90.000000
_cell_angle_beta 160.546222
_cell_angle_gamma 90.000000
_cell_volume 1246.426173
_symmetry_space_group_name_H-M "P 2/M"
_symmetry_group_IT_number 10
_symmetry_cell_setting 'monoclinic'
loop_
_space_group_symop_operation_xyz
x,y,z
-x,y,-z
-x,-y,-z
x,-y,z
loop_
_atom_site_type_symbol
_atom_site_label
_atom_site_fract_x
_atom_site_fract_y
_atom_site_fract_z
Si Si1 0.169217 0.684757 0.262253
Si Si2 0.178347 0.687992 0.462277
Si Si3 0.291471 0.688702 0.897210
Si Si4 0.327967 0.687851 0.039559
Si Si5 0.787577 0.311205 0.395133
Si Si6 0.577378 0.183751 0.472554
O O1 0.200869 0.500000 0.271622
O O2 0.255840 0.718386 0.378939
O O3 0.313993 0.782096 0.314324
O O4 0.904229 0.736171 0.082441
O O5 0.199076 0.500000 0.474361
O O6 0.193251 0.751297 0.532172
O O7 0.382128 0.762262 0.561322
O O8 0.941492 0.750187 0.282120
O O9 0.293391 0.500000 0.899027
O O10 0.500000 0.755898 0.000000
O O11 0.317617 0.758142 0.973452
O O12 0.345691 0.500000 0.047641
O O13 0.550221 0.756486 0.215404
O O14 0.789073 0.500000 0.395017
O O15 0.000000 0.246596 0.500000
O O16 0.629173 0.000000 0.514150
#
# Coordination Sequence:
#
# PCOD8058555 Si02
#       6
#     4   4   4   4   4   4
#     4  10  18  32  54  78 105 134 169 212 263 311
#     4  10  18  31  51  77 105 137 171 208 257 307
#     4   9  15  24  43  73 103 128 162 209 254 295
#     4   9  16  27  45  74 106 133 164 206 256 304
#     4   9  17  29  48  78 111 137 166 210 259 303
#     4  11  21  33  51  76 105 135 172 215 262 307
#
# _framework density 19.255051999999999
#
# number of rings (size 3 to 8) (size 9 to 14) (size 15 to 20)
#    0.000    2.333    1.667    4.000    0.000    4.000 
#    0.000    0.833    0.000    8.000    0.000    0.000 
#    0.000    0.000    0.000    0.000    0.000    0.000 
#
# Total GULP energy -297578.588312 kJ/mol
# GULP energy per Si atom -12399.107846 kJ/mol
# Density = 1.921123 g / cm^3
# Si number density = 19.255052 Si / 1000 Ang^3
#
#
#
# Elastic Constant Matrix: (Units=GPa)
#
#
# Indices 1 2 3 4 5 6 
#
# 1 175.5003 15.4435 86.0814 0.0000 2.1604 0.0000
# 2 15.4435 26.7292 9.2673 0.0000 2.5793 0.0000
# 3 86.0814 9.2673 158.9295 0.0000 4.8329 0.0000
# 4 0.0000 0.0000 0.0000 1.7883 0.0000 -1.9073
# 5 2.1604 2.5793 4.8329 0.0000 35.4429 0.0000
# 6 0.0000 0.0000 0.0000 -1.9073 0.0000 2.9810
#
#
#
# Elastic Compliance Matrix: (Units=1/GPa)
#
#
# Indices 1 2 3 4 5 6 
#
# 1 0.008021 -0.003220 -0.004166 0.000000 0.000314 0.000000
# 2 -0.003220 0.039696 -0.000491 0.000000 -0.002626 0.000000
# 3 -0.004166 -0.000491 0.008604 0.000000 -0.000884 0.000000
# 4 0.000000 0.000000 0.000000 1.760930 0.000000 1.126708
# 5 0.000314 -0.002626 -0.000884 0.000000 0.028507 0.000000
# 6 0.000000 0.000000 0.000000 1.126708 0.000000 1.056372
#
#
# Mechanical properties :
#
#
# Convention : Reuss Voigt Hill
#
# Bulk Modulus (GPa) = 24.65042 64.74927 44.69984
# Shear Modulus (GPa) = 1.70567 24.73354 13.21960
#
# Velocity S-wave (km/s) = 0.94221 3.58791 2.62306
# Velocity P-wave (km/s) = 3.74346 7.13192 5.69552
#
# Compressibility (1/GPa) = 0.04056726
#
# Stress axis : x y z
#
# Youngs Moduli (GPa) = 124.67307 25.19126 116.22327
#
# Poissons Ratio (x) = 0.08112 0.48421
# Poissons Ratio (y) = 0.40146 0.05704
# Poissons Ratio (z) = 0.51941 0.01236
#
# Static dielectric constant tensor:
#      x y z
#    x 3.717380 0.000000 0.123030 
#    y 0.000000 2.908030 0.000000 
#    z 0.123030 0.000000 3.636350 
# 
# 
# High freq. dielectric constant tensor:
#      x y z
#    x 1.759730 0.000000 0.016360 
#    y 0.000000 1.696860 0.000000 
#    z 0.016360 0.000000 1.740650 
# 
# From -- ./inp_files/80047.got.cif
#   From: 2010.06.25/outbox.cif.g09.slc.cpg/sg10_41_cif.got.tgz:80047.got - 2010.06.27 22:07:45.
