data_PCOD8058735
_publ_section_title
;
Structure prediction by ZEFSAII (Michael W. Deem and Ramdas Pophale) SiO2 
 PCOD8058735
Probable space group: P 2/M
;
_chemical_formula_sum "Si O2"
_cell_formula_units_Z 32
_cell_length_a 11.013411
_cell_length_b 9.396521
_cell_length_c 28.857984
_cell_angle_alpha 90.000000
_cell_angle_beta 148.121675
_cell_angle_gamma 90.000000
_cell_volume 1577.194227
_symmetry_space_group_name_H-M "P 2/M"
_symmetry_group_IT_number 10
_symmetry_cell_setting 'monoclinic'
loop_
_space_group_symop_operation_xyz
x,y,z
-x,y,-z
-x,-y,-z
x,-y,z
loop_
_atom_site_type_symbol
_atom_site_label
_atom_site_fract_x
_atom_site_fract_y
_atom_site_fract_z
Si Si1 0.781081 0.340331 0.400623
Si Si2 0.731581 0.167724 0.051815
Si Si3 0.524945 0.833329 0.241524
Si Si4 0.719943 0.837070 0.539038
Si Si5 0.030984 0.834190 0.233883
Si Si6 0.155350 0.834788 0.733214
Si Si7 0.982065 0.169784 0.941416
Si Si8 0.484559 0.659393 0.390154
O O1 0.841731 0.500000 0.402574
O O2 0.707651 0.242332 0.334069
O O3 0.558315 0.345350 0.360861
O O4 0.000000 0.278273 0.500000
O O5 0.938493 0.206177 0.153496
O O6 0.812120 0.224103 0.026644
O O7 0.691874 0.000000 0.035099
O O8 0.500000 0.235553 0.000000
O O9 0.605739 0.797929 0.214896
O O10 0.261876 0.779656 0.159569
O O11 0.539298 0.000000 0.257408
O O12 0.500000 0.825017 0.500000
O O13 0.685776 0.738768 0.483206
O O14 0.936051 0.767315 0.635921
O O15 0.760084 0.000000 0.536007
O O16 0.836567 0.794284 0.209611
O O17 0.251101 0.745298 0.318588
O O18 0.098241 0.000000 0.257843
O O19 0.105244 0.000000 0.713501
O O20 0.987936 0.000000 0.945375
O O21 0.000000 0.230260 0.000000
O O22 0.448406 0.500000 0.397939
#
# Coordination Sequence:
#
# PCOD8058735 Si02
#       8
#     4   4   4   4   4   4   4   4
#     4  10  22  39  55  74 106 145 181 223 278 327
#     4   9  18  30  50  79 105 137 178 215 264 329
#     4  10  20  34  55  81 108 140 185 226 268 323
#     4  10  18  32  50  72 104 141 179 216 265 318
#     4  10  19  34  54  76 108 141 175 218 267 319
#     4   9  18  31  50  77 105 140 177 219 266 313
#     4   9  18  31  49  78 114 143 172 223 281 324
#     4  11  22  34  52  77 104 137 180 222 267 318
#
# _framework density 20.289194999999999
#
# number of rings (size 3 to 8) (size 9 to 14) (size 15 to 20)
#    0.000    2.250    1.250    1.875    1.750    2.500 
#    0.000    0.625    0.000    0.750    0.000    0.000 
#    0.000    0.000    0.000    0.000    0.000    0.000 
#
# Total GULP energy -396516.068129 kJ/mol
# GULP energy per Si atom -12391.127129 kJ/mol
# Density = 2.024302 g / cm^3
# Si number density = 20.289195 Si / 1000 Ang^3
#
#
#
# Elastic Constant Matrix: (Units=GPa)
#
#
# Indices 1 2 3 4 5 6 
#
# 1 131.0129 17.8147 48.4635 0.0000 -6.9599 0.0000
# 2 17.8147 46.7946 23.1227 0.0000 -8.9902 0.0000
# 3 48.4635 23.1227 74.3085 0.0000 -0.4575 0.0000
# 4 0.0000 0.0000 0.0000 6.6407 0.0000 0.9520
# 5 -6.9599 -8.9902 -0.4575 0.0000 33.4917 0.0000
# 6 0.0000 0.0000 0.0000 0.9520 0.0000 11.3714
#
#
#
# Elastic Compliance Matrix: (Units=1/GPa)
#
#
# Indices 1 2 3 4 5 6 
#
# 1 0.010198 -0.000267 -0.006556 0.000000 0.001958 0.000000
# 2 -0.000267 0.026844 -0.008136 0.000000 0.007039 0.000000
# 3 -0.006556 -0.008136 0.020245 0.000000 -0.003270 0.000000
# 4 0.000000 0.000000 0.000000 0.152415 0.000000 -0.012760
# 5 0.001958 0.007039 -0.003270 0.000000 0.032110 0.000000
# 6 0.000000 0.000000 0.000000 -0.012760 0.000000 0.089008
#
#
# Mechanical properties :
#
#
# Convention : Reuss Voigt Hill
#
# Bulk Modulus (GPa) = 36.53671 47.87977 42.20824
# Shear Modulus (GPa) = 13.51858 21.14843 17.33351
#
# Velocity S-wave (km/s) = 2.58407 3.23205 2.92605
# Velocity P-wave (km/s) = 5.19137 6.13009 5.68015
#
# Compressibility (1/GPa) = 0.02736973
#
# Stress axis : x y z
#
# Youngs Moduli (GPa) = 98.05480 37.25218 49.39515
#
# Poissons Ratio (x) = 0.00993 0.32385
# Poissons Ratio (y) = 0.02615 0.40187
# Poissons Ratio (z) = 0.64288 0.30308
#
# Static dielectric constant tensor:
#      x y z
#    x 4.077670 0.000000 -0.042360 
#    y 0.000000 3.220870 0.000000 
#    z -0.042360 0.000000 3.622560 
# 
# 
# High freq. dielectric constant tensor:
#      x y z
#    x 1.811860 0.000000 0.001710 
#    y 0.000000 1.727740 0.000000 
#    z 0.001710 0.000000 1.789730 
# 
# From -- ./inp_files/95039.got.cif
#   From: 2010.06.25/outbox.cif.g09.slc.cpg/sg10_48_cif.got.tgz:95039.got - 2010.06.27 22:07:45.
