data_PCOD8058892
_publ_section_title
;
Structure prediction by ZEFSAII (Michael W. Deem and Ramdas Pophale) SiO2 
 PCOD8058892
Probable space group: P 2/M
;
_chemical_formula_sum "Si O2"
_cell_formula_units_Z 28
_cell_length_a 14.875092
_cell_length_b 8.905851
_cell_length_c 11.794546
_cell_angle_alpha 90.000000
_cell_angle_beta 71.701390
_cell_angle_gamma 90.000000
_cell_volume 1483.476530
_symmetry_space_group_name_H-M "P 2/M"
_symmetry_group_IT_number 10
_symmetry_cell_setting 'monoclinic'
loop_
_space_group_symop_operation_xyz
x,y,z
-x,y,-z
-x,-y,-z
x,-y,z
loop_
_atom_site_type_symbol
_atom_site_label
_atom_site_fract_x
_atom_site_fract_y
_atom_site_fract_z
Si Si1 0.628163 0.322138 0.847405
Si Si2 0.907292 0.329693 0.961344
Si Si3 0.831485 0.321883 0.393868
Si Si4 0.747822 0.321525 0.193236
Si Si5 0.789094 0.173218 0.638813
Si Si6 0.421744 0.322280 0.883192
Si Si7 0.968679 0.172769 0.715046
O O1 0.643227 0.500000 0.831723
O O2 0.715907 0.240181 0.756785
O O3 0.530369 0.270147 0.824185
O O4 0.622047 0.267316 0.980074
O O5 0.886441 0.500000 0.928254
O O6 0.917302 0.222937 0.849985
O O7 0.822337 0.263581 0.070466
O O8 0.000000 0.326528 0.000000
O O9 0.828778 0.500000 0.400267
O O10 0.774778 0.259075 0.306492
O O11 0.778363 0.256861 0.523766
O O12 0.940119 0.272529 0.345556
O O13 0.753531 0.500000 0.194762
O O14 0.643456 0.264765 0.195550
O O15 0.895782 0.195262 0.640990
O O16 0.765246 0.000000 0.629866
O O17 0.420911 0.500000 0.888599
O O18 0.999959 0.000000 0.713126
#
# Coordination Sequence:
#
# PCOD8058892 Si02
#       7
#     4   4   4   4   4   4   4
#     4   9  17  33  59  86 106 133 175 218 262 316
#     4  10  18  32  54  81 110 138 174 218 260 307
#     4  11  22  37  56  77 103 141 186 224 262 313
#     4   9  17  31  52  80 112 139 168 217 271 312
#     4  11  24  39  53  74 107 144 180 222 271 316
#     4   8  15  30  56  87 112 132 165 217 270 316
#     4  11  23  37  53  76 108 144 179 219 269 320
#
# _framework density 18.874582
#
# number of rings (size 3 to 8) (size 9 to 14) (size 15 to 20)
#    0.000    2.143    1.429    3.429    0.000    5.429 
#    0.000    2.143    0.000    7.714    0.000    0.000 
#    0.000    0.000    0.000    0.000    0.000    0.000 
#
# Total GULP energy -347166.065256 kJ/mol
# GULP energy per Si atom -12398.788045 kJ/mol
# Density = 1.883162 g / cm^3
# Si number density = 18.874582 Si / 1000 Ang^3
#
#
#
# Elastic Constant Matrix: (Units=GPa)
#
#
# Indices 1 2 3 4 5 6 
#
# 1 106.6985 29.4746 30.6376 0.0000 6.8565 0.0000
# 2 29.4746 60.6015 30.3379 0.0000 2.8772 0.0000
# 3 30.6376 30.3379 80.5255 0.0000 8.3588 0.0000
# 4 0.0000 0.0000 0.0000 -18.7880 0.0000 20.2094
# 5 6.8565 2.8772 8.3588 0.0000 21.7282 0.0000
# 6 0.0000 0.0000 0.0000 20.2094 0.0000 3.1951
#
#
#
# Elastic Compliance Matrix: (Units=1/GPa)
#
#
# Indices 1 2 3 4 5 6 
#
# 1 0.011387 -0.004164 -0.002550 0.000000 -0.002061 0.000000
# 2 -0.004164 0.021861 -0.006758 0.000000 0.001019 0.000000
# 3 -0.002550 -0.006758 0.016413 0.000000 -0.004615 0.000000
# 4 0.000000 0.000000 0.000000 -0.006820 0.000000 0.043141
# 5 -0.002061 0.001019 -0.004615 0.000000 0.048314 0.000000
# 6 0.000000 0.000000 0.000000 0.043141 0.000000 0.040107
#
#
# Mechanical properties :
#
#
# Convention : Reuss Voigt Hill
#
# Bulk Modulus (GPa) = 44.01619 47.63620 45.82619
# Shear Modulus (GPa) = 30.16095 11.71875 20.93985
#
# Velocity S-wave (km/s) = 4.00179 2.49444 3.33441
# Velocity P-wave (km/s) = 6.68756 5.79563 6.25751
#
# Compressibility (1/GPa) = 0.02271892
#
# Stress axis : x y z
#
# Youngs Moduli (GPa) = 87.81904 45.74342 60.92564
#
# Poissons Ratio (x) = 0.19048 0.15534
# Poissons Ratio (y) = 0.36568 0.41171
# Poissons Ratio (z) = 0.22391 0.30912
#
# Static dielectric constant tensor:
#      x y z
#    x 3.799900 0.000000 0.168510 
#    y 0.000000 3.184620 0.000000 
#    z 0.168510 0.000000 3.526850 
# 
# 
# High freq. dielectric constant tensor:
#      x y z
#    x 1.741260 0.000000 0.005700 
#    y 0.000000 1.703110 0.000000 
#    z 0.005700 0.000000 1.730430 
# 
# From -- ./inp_files/49092.got.cif
#   From: 2010.06.25/outbox.cif.g09.slc.cpg/sg10_25_cif.got.tgz:49092.got - 2010.06.27 22:07:45.
