data_PCOD8058184
_publ_section_title
;
Structure prediction by ZEFSAII (Michael W. Deem and Ramdas Pophale) SiO2 
 PCOD8058184
Probable space group: P 2/M
;
_chemical_formula_sum "Si O2"
_cell_formula_units_Z 30
_cell_length_a 12.571955
_cell_length_b 10.100172
_cell_length_c 24.711080
_cell_angle_alpha 90.000000
_cell_angle_beta 31.222165
_cell_angle_gamma 90.000000
_cell_volume 1626.496043
_symmetry_space_group_name_H-M "P 2/M"
_symmetry_group_IT_number 10
_symmetry_cell_setting 'monoclinic'
loop_
_space_group_symop_operation_xyz
x,y,z
-x,y,-z
-x,-y,-z
x,-y,z
loop_
_atom_site_type_symbol
_atom_site_label
_atom_site_fract_x
_atom_site_fract_y
_atom_site_fract_z
Si Si1 0.719695 0.153733 0.393157
Si Si2 0.000000 0.715887 0.000000
Si Si3 0.381135 0.847808 0.779418
Si Si4 0.824034 0.842538 0.616844
Si Si5 0.112662 0.154512 0.287152
Si Si6 0.838721 0.642323 0.959857
Si Si7 0.415165 0.650846 0.096531
Si Si8 0.136315 0.846088 0.782805
O O1 0.500000 0.222095 0.500000
O O2 0.807072 0.214290 0.299789
O O3 0.874190 0.175635 0.375616
O O4 0.682991 0.000000 0.397055
O O5 0.805166 0.802860 0.101902
O O6 0.082038 0.627642 0.013324
O O7 0.602106 0.781274 0.696289
O O8 0.327133 0.821450 0.740149
O O9 0.408959 0.000000 0.780333
O O10 0.866275 0.798397 0.660160
O O11 0.000000 0.785228 0.500000
O O12 0.825270 0.000000 0.611767
O O13 0.243142 0.244623 0.189363
O O14 0.176244 0.000000 0.251977
O O15 0.891676 0.500000 0.908869
O O16 0.937926 0.766214 0.887278
O O17 0.595155 0.664292 0.062660
O O18 0.327592 0.500000 0.134330
O O19 0.500000 0.687863 0.000000
O O20 0.072589 0.000000 0.809429
#
# Coordination Sequence:
#
# PCOD8058184 Si02
#       8
#     4   2   4   4   4   4   4   4
#     4   9  18  31  50  75 101 126 160 206 252 295
#     4  10  18  30  48  72  99 128 169 208 251 300
#     4   9  17  28  45  70 101 133 165 206 254 297
#     4   9  18  30  47  73 104 136 173 213 253 302
#     4  10  20  33  52  79 103 132 171 213 256 298
#     4  10  20  33  50  72 100 132 166 200 245 298
#     4  10  21  36  54  75 103 139 171 205 254 311
#     4   9  18  31  49  73  99 129 164 203 247 291
#
# _framework density 18.444557
#
# number of rings (size 3 to 8) (size 9 to 14) (size 15 to 20)
#    0.000    2.533    0.000    2.000    1.867    1.333 
#    0.000    0.000    0.000    2.000    0.000    0.000 
#    0.000    0.000    0.000    0.000    0.000    0.000 
#
# Total GULP energy -371804.282835 kJ/mol
# GULP energy per Si atom -12393.476095 kJ/mol
# Density = 1.840258 g / cm^3
# Si number density = 18.444557 Si / 1000 Ang^3
#
#
#
# Elastic Constant Matrix: (Units=GPa)
#
#
# Indices 1 2 3 4 5 6 
#
# 1 94.9963 25.3773 42.9863 0.0000 -7.9509 0.0000
# 2 25.3773 47.9412 31.6455 0.0000 -0.5988 0.0000
# 3 42.9863 31.6455 103.3255 0.0000 -4.9597 0.0000
# 4 0.0000 0.0000 0.0000 6.0023 0.0000 -1.1303
# 5 -7.9509 -0.5988 -4.9597 0.0000 33.3335 0.0000
# 6 0.0000 0.0000 0.0000 -1.1303 0.0000 16.1585
#
#
#
# Elastic Compliance Matrix: (Units=1/GPa)
#
#
# Indices 1 2 3 4 5 6 
#
# 1 0.013878 -0.004493 -0.004273 0.000000 0.002594 0.000000
# 2 -0.004493 0.027617 -0.006664 0.000000 -0.001567 0.000000
# 3 -0.004273 -0.006664 0.013539 0.000000 0.000876 0.000000
# 4 0.000000 0.000000 0.000000 0.168827 0.000000 0.011810
# 5 0.002594 -0.001567 0.000876 0.000000 0.030721 0.000000
# 6 0.000000 0.000000 0.000000 0.011810 0.000000 0.062713
#
#
# Mechanical properties :
#
#
# Convention : Reuss Voigt Hill
#
# Bulk Modulus (GPa) = 41.36869 49.58679 45.47774
# Shear Modulus (GPa) = 14.03661 20.84911 17.44286
#
# Velocity S-wave (km/s) = 2.76164 3.36574 3.07855
# Velocity P-wave (km/s) = 5.71369 6.48436 6.11118
#
# Compressibility (1/GPa) = 0.02417287
#
# Stress axis : x y z
#
# Youngs Moduli (GPa) = 72.05858 36.21004 73.86162
#
# Poissons Ratio (x) = 0.16270 0.31560
# Poissons Ratio (y) = 0.32377 0.49222
# Poissons Ratio (z) = 0.30790 0.24131
#
# Static dielectric constant tensor:
#      x y z
#    x 3.665420 0.000000 -0.006970 
#    y 0.000000 3.077100 0.000000 
#    z -0.006970 0.000000 3.503520 
# 
# 
# High freq. dielectric constant tensor:
#      x y z
#    x 1.738220 0.000000 -0.001890 
#    y 0.000000 1.674550 0.000000 
#    z -0.001890 0.000000 1.705950 
# 
# From -- ./inp_files/84037.got.cif
#   From: 2010.06.25/outbox.cif.g09.slc.cpg/sg10_43_cif.got.tgz:84037.got - 2010.06.27 22:07:45.
