data_PCOD8058259
_publ_section_title
;
Structure prediction by ZEFSAII (Michael W. Deem and Ramdas Pophale) SiO2 
 PCOD8058259
Probable space group: P 2/M
;
_chemical_formula_sum "Si O2"
_cell_formula_units_Z 32
_cell_length_a 11.694280
_cell_length_b 8.872527
_cell_length_c 20.082722
_cell_angle_alpha 90.000000
_cell_angle_beta 58.859649
_cell_angle_gamma 90.000000
_cell_volume 1783.478973
_symmetry_space_group_name_H-M "P 2/M"
_symmetry_group_IT_number 10
_symmetry_cell_setting 'monoclinic'
loop_
_space_group_symop_operation_xyz
x,y,z
-x,y,-z
-x,-y,-z
x,-y,z
loop_
_atom_site_type_symbol
_atom_site_label
_atom_site_fract_x
_atom_site_fract_y
_atom_site_fract_z
Si Si1 0.609936 0.171701 0.687023
Si Si2 0.352694 0.824074 0.910063
Si Si3 0.091388 0.323201 0.033127
Si Si4 0.621741 0.323911 0.820600
Si Si5 0.069964 0.675474 0.786866
Si Si6 0.107608 0.178496 0.264823
Si Si7 0.101926 0.173886 0.417249
Si Si8 0.679498 0.171227 0.235445
O O1 0.613914 0.292115 0.744560
O O2 0.744431 0.195328 0.602687
O O3 0.470992 0.192497 0.688685
O O4 0.611864 0.000000 0.716754
O O5 0.489578 0.746564 0.894294
O O6 0.324771 0.785809 0.841159
O O7 0.366547 0.000000 0.918072
O O8 0.232439 0.760784 0.990518
O O9 0.117683 0.500000 0.018375
O O10 0.017854 0.279386 0.123105
O O11 0.000000 0.264606 0.000000
O O12 0.625809 0.500000 0.834462
O O13 0.757915 0.249646 0.807792
O O14 0.060878 0.500000 0.773605
O O15 0.223551 0.717731 0.754349
O O16 0.019835 0.767960 0.738454
O O17 0.088488 0.238946 0.346414
O O18 0.120812 0.000000 0.258687
O O19 0.000000 0.254695 0.500000
O O20 0.062011 0.000000 0.425427
O O21 0.729461 0.000000 0.229861
#
# Coordination Sequence:
#
# PCOD8058259 Si02
#       8
#     4   4   4   4   4   4   4   4
#     4   8  15  28  47  75 105 130 163 207 247 290
#     4  10  19  31  50  74  99 128 168 215 259 298
#     4  10  20  34  49  70 100 131 168 214 260 300
#     4  10  18  30  50  72  98 131 167 206 251 299
#     4  11  22  34  50  71  99 134 171 208 250 302
#     4  10  20  35  53  74 103 132 165 205 247 300
#     4   8  14  28  54  83 105 127 158 201 250 294
#     4   9  17  29  46  70  99 131 167 207 249 290
#
# _framework density 17.942460000000001
#
# number of rings (size 3 to 8) (size 9 to 14) (size 15 to 20)
#    0.000    2.500    1.250    3.750    0.000    3.250 
#    0.000    0.625    0.000   13.875    0.000    5.250 
#    0.000    0.000    0.000    0.000    0.000    0.000 
#
# Total GULP energy -396648.797893 kJ/mol
# GULP energy per Si atom -12395.274934 kJ/mol
# Density = 1.790162 g / cm^3
# Si number density = 17.942460 Si / 1000 Ang^3
#
#
#
# Elastic Constant Matrix: (Units=GPa)
#
#
# Indices 1 2 3 4 5 6 
#
# 1 108.9073 37.7696 50.4709 0.0000 -18.1287 0.0000
# 2 37.7696 67.3461 27.7930 0.0000 -5.8853 0.0000
# 3 50.4709 27.7930 81.7769 0.0000 -22.0388 0.0000
# 4 0.0000 0.0000 0.0000 11.9522 0.0000 0.2313
# 5 -18.1287 -5.8853 -22.0388 0.0000 28.2256 0.0000
# 6 0.0000 0.0000 0.0000 0.2313 0.0000 26.4823
#
#
#
# Elastic Compliance Matrix: (Units=1/GPa)
#
#
# Indices 1 2 3 4 5 6 
#
# 1 0.014441 -0.005234 -0.006242 0.000000 0.003310 0.000000
# 2 -0.005234 0.019202 -0.003955 0.000000 -0.002446 0.000000
# 3 -0.006242 -0.003955 0.020419 0.000000 0.011110 0.000000
# 4 0.000000 0.000000 0.000000 0.083681 0.000000 -0.000731
# 5 0.003310 -0.002446 0.011110 0.000000 0.045719 0.000000
# 6 0.000000 0.000000 0.000000 -0.000731 0.000000 0.037767
#
#
# Mechanical properties :
#
#
# Convention : Reuss Voigt Hill
#
# Bulk Modulus (GPa) = 43.10189 54.45526 48.77858
# Shear Modulus (GPa) = 19.24377 22.79849 21.02113
#
# Velocity S-wave (km/s) = 3.27850 3.56848 3.42656
# Velocity P-wave (km/s) = 6.19724 6.88437 6.54982
#
# Compressibility (1/GPa) = 0.02320084
#
# Stress axis : x y z
#
# Youngs Moduli (GPa) = 69.24831 52.07680 48.97409
#
# Poissons Ratio (x) = 0.27255 0.30568
# Poissons Ratio (y) = 0.36242 0.19371
# Poissons Ratio (z) = 0.43223 0.20598
#
# Static dielectric constant tensor:
#      x y z
#    x 3.432960 0.000000 -0.339880 
#    y 0.000000 3.143320 0.000000 
#    z -0.339880 0.000000 3.238670 
# 
# 
# High freq. dielectric constant tensor:
#      x y z
#    x 1.696000 0.000000 -0.030950 
#    y 0.000000 1.685200 0.000000 
#    z -0.030950 0.000000 1.657430 
# 
# From -- ./inp_files/75966.got.cif
#   From: 2010.06.25/outbox.cif.g09.slc.cpg/sg10_38_cif.got.tgz:75966.got - 2010.06.27 22:07:45.
