data_PCOD8058058
_publ_section_title
;
Structure prediction by ZEFSAII (Michael W. Deem and Ramdas Pophale) SiO2 
 PCOD8058058
Probable space group: P 2/M
;
_chemical_formula_sum "Si O2"
_cell_formula_units_Z 28
_cell_length_a 9.646299
_cell_length_b 14.571624
_cell_length_c 13.137211
_cell_angle_alpha 90.000000
_cell_angle_beta 48.927696
_cell_angle_gamma 90.000000
_cell_volume 1392.113643
_symmetry_space_group_name_H-M "P 2/M"
_symmetry_group_IT_number 10
_symmetry_cell_setting 'monoclinic'
loop_
_space_group_symop_operation_xyz
x,y,z
-x,y,-z
-x,-y,-z
x,-y,z
loop_
_atom_site_type_symbol
_atom_site_label
_atom_site_fract_x
_atom_site_fract_y
_atom_site_fract_z
Si Si1 0.448348 0.395706 0.810994
Si Si2 0.128470 0.398721 0.123282
Si Si3 0.907192 0.208943 0.768632
Si Si4 0.363699 0.103351 0.971232
Si Si5 0.284707 0.601580 0.677972
Si Si6 0.358695 0.217854 0.277154
Si Si7 0.681307 0.774321 0.465882
O O1 0.522109 0.500000 0.785147
O O2 0.408506 0.368178 0.713510
O O3 0.601886 0.323771 0.773919
O O4 0.265365 0.382086 0.964553
O O5 0.167487 0.500000 0.154374
O O6 0.143277 0.316946 0.197584
O O7 0.922311 0.395664 0.179321
O O8 0.814622 0.180967 0.705160
O O9 0.124224 0.185191 0.667536
O O10 0.824064 0.152763 0.903688
O O11 0.459147 0.157389 0.832469
O O12 0.319047 0.000000 0.957411
O O13 0.500000 0.104919 0.000000
O O14 0.334878 0.500000 0.615233
O O15 0.320868 0.666634 0.563700
O O16 0.314808 0.208993 0.416461
O O17 0.500000 0.820823 0.500000
#
# Coordination Sequence:
#
# PCOD8058058 Si02
#       7
#     4   4   4   4   4   4   4
#     4  10  18  29  51  83 117 152 191 233 279 330
#     4   9  17  30  50  81 115 151 189 233 282 331
#     4  10  21  37  59  84 117 147 186 236 282 335
#     4   9  19  39  66  90 112 143 186 232 282 344
#     4   9  18  32  50  75 112 157 205 236 261 320
#     4  11  21  36  56  89 117 147 185 234 287 330
#     4  11  22  37  56  83 112 157 192 229 276 334
#
# _framework density 20.113299999999999
#
# number of rings (size 3 to 8) (size 9 to 14) (size 15 to 20)
#    0.000    2.143    2.857    0.857    0.000    3.143 
#    0.000    2.857    0.000   10.286    0.000    0.000 
#    0.000    0.000    0.000    0.000    0.000    0.000 
#
# Total GULP energy -346992.564494 kJ/mol
# GULP energy per Si atom -12392.591589 kJ/mol
# Density = 2.006752 g / cm^3
# Si number density = 20.113300 Si / 1000 Ang^3
#
#
#
# Elastic Constant Matrix: (Units=GPa)
#
#
# Indices 1 2 3 4 5 6 
#
# 1 85.6983 20.6946 40.1999 0.0000 -15.4158 0.0000
# 2 20.6946 83.2579 35.0460 0.0000 -11.0339 0.0000
# 3 40.1999 35.0460 120.4466 0.0000 -13.8623 0.0000
# 4 0.0000 0.0000 0.0000 14.2666 0.0000 1.4476
# 5 -15.4158 -11.0339 -13.8623 0.0000 30.0938 0.0000
# 6 0.0000 0.0000 0.0000 1.4476 0.0000 12.8311
#
#
#
# Elastic Compliance Matrix: (Units=1/GPa)
#
#
# Indices 1 2 3 4 5 6 
#
# 1 0.014786 -0.001316 -0.003945 0.000000 0.005275 0.000000
# 2 -0.001316 0.014134 -0.003331 0.000000 0.002974 0.000000
# 3 -0.003945 -0.003331 0.010787 0.000000 0.001727 0.000000
# 4 0.000000 0.000000 0.000000 0.070906 0.000000 -0.007999
# 5 0.005275 0.002974 0.001727 0.000000 0.037817 0.000000
# 6 0.000000 0.000000 0.000000 -0.007999 0.000000 0.078838
#
#
# Mechanical properties :
#
#
# Convention : Reuss Voigt Hill
#
# Bulk Modulus (GPa) = 44.39803 53.47600 48.93701
# Shear Modulus (GPa) = 19.84445 24.33579 22.09012
#
# Velocity S-wave (km/s) = 3.14448 3.48219 3.31763
# Velocity P-wave (km/s) = 5.94185 6.54313 6.24973
#
# Compressibility (1/GPa) = 0.02252352
#
# Stress axis : x y z
#
# Youngs Moduli (GPa) = 67.63188 70.75032 92.70301
#
# Poissons Ratio (x) = 0.09308 0.36572
# Poissons Ratio (y) = 0.08897 0.30882
# Poissons Ratio (z) = 0.26681 0.23569
#
# Static dielectric constant tensor:
#      x y z
#    x 3.546180 0.000000 -0.268230 
#    y 0.000000 3.625450 0.000000 
#    z -0.268230 0.000000 3.618940 
# 
# 
# High freq. dielectric constant tensor:
#      x y z
#    x 1.767140 0.000000 -0.017490 
#    y 0.000000 1.758730 0.000000 
#    z -0.017490 0.000000 1.792510 
# 
# From -- ./inp_files/35318.got.cif
#   From: 2010.06.25/outbox.cif.g09.slc.cpg/sg10_18_cif.got.tgz:35318.got - 2010.06.27 22:07:45.
