data_PCOD8058266
_publ_section_title
;
Structure prediction by ZEFSAII (Michael W. Deem and Ramdas Pophale) SiO2 
 PCOD8058266
Probable space group: P 2/M
;
_chemical_formula_sum "Si O2"
_cell_formula_units_Z 32
_cell_length_a 21.025627
_cell_length_b 9.004338
_cell_length_c 9.482492
_cell_angle_alpha 90.000000
_cell_angle_beta 88.928433
_cell_angle_gamma 90.000000
_cell_volume 1794.928989
_symmetry_space_group_name_H-M "P 2/M"
_symmetry_group_IT_number 10
_symmetry_cell_setting 'monoclinic'
loop_
_space_group_symop_operation_xyz
x,y,z
-x,y,-z
-x,-y,-z
x,-y,z
loop_
_atom_site_type_symbol
_atom_site_label
_atom_site_fract_x
_atom_site_fract_y
_atom_site_fract_z
Si Si1 0.606240 0.175385 0.252474
Si Si2 0.123039 0.826998 0.341884
Si Si3 0.937285 0.668458 0.409190
Si Si4 0.996572 0.824712 0.837622
Si Si5 0.361874 0.324606 0.477059
Si Si6 0.459197 0.175030 0.283750
Si Si7 0.265517 0.171975 0.280452
Si Si8 0.364939 0.827648 0.052434
O O1 0.646911 0.265271 0.364531
O O2 0.532222 0.217192 0.266458
O O3 0.617463 0.000000 0.271323
O O4 0.632111 0.240845 0.103299
O O5 0.116756 0.746120 0.493517
O O6 0.071300 0.777503 0.226831
O O7 0.191537 0.786076 0.274867
O O8 0.115463 0.000000 0.373908
O O9 0.917050 0.500000 0.378749
O O10 0.000000 0.678763 0.500000
O O11 0.947703 0.749513 0.258298
O O12 0.007429 0.000000 0.830811
O O13 0.000000 0.768792 0.000000
O O14 0.366030 0.500000 0.472521
O O15 0.428132 0.255578 0.419028
O O16 0.300338 0.272285 0.393756
O O17 0.421590 0.235384 0.147942
O O18 0.448751 0.000000 0.305786
O O19 0.296304 0.203735 0.125766
O O20 0.275699 0.000000 0.321859
O O21 0.378884 0.000000 0.032770
#
# Coordination Sequence:
#
# PCOD8058266 Si02
#       8
#     4   4   4   4   4   4   4   4
#     4  10  18  30  50  73  96 123 156 198 247 293
#     4   9  17  31  53  75  95 126 165 201 236 279
#     4   9  17  29  47  72 101 132 164 195 229 274
#     4   9  17  30  49  76 109 135 157 195 244 286
#     4  11  22  33  46  67  97 128 158 198 245 290
#     4   9  17  31  51  72  93 121 159 199 241 292
#     4   9  18  35  55  71  89 121 167 206 237 282
#     4   8  15  29  50  73  94 118 155 203 245 283
#
# _framework density 17.828002000000001
#
# number of rings (size 3 to 8) (size 9 to 14) (size 15 to 20)
#    0.000    2.750    0.000    3.000    0.000    5.750 
#    0.000    3.750    0.000    8.250    0.000    0.000 
#    0.000    0.000    0.000    0.000    0.000    0.000 
#
# Total GULP energy -396712.020821 kJ/mol
# GULP energy per Si atom -12397.250651 kJ/mol
# Density = 1.778742 g / cm^3
# Si number density = 17.828002 Si / 1000 Ang^3
#
#
#
# Elastic Constant Matrix: (Units=GPa)
#
#
# Indices 1 2 3 4 5 6 
#
# 1 84.4970 31.1727 45.6776 0.0000 -10.6378 0.0000
# 2 31.1727 60.6311 44.8933 0.0000 -3.7035 0.0000
# 3 45.6776 44.8933 150.7325 0.0000 -10.0936 0.0000
# 4 0.0000 0.0000 0.0000 6.2382 0.0000 3.4361
# 5 -10.6378 -3.7035 -10.0936 0.0000 13.2718 0.0000
# 6 0.0000 0.0000 0.0000 3.4361 0.0000 11.6930
#
#
#
# Elastic Compliance Matrix: (Units=1/GPa)
#
#
# Indices 1 2 3 4 5 6 
#
# 1 0.016704 -0.006066 -0.002605 0.000000 0.009715 0.000000
# 2 -0.006066 0.023380 -0.005283 0.000000 -0.002356 0.000000
# 3 -0.002605 -0.005283 0.009228 0.000000 0.003457 0.000000
# 4 0.000000 0.000000 0.000000 0.191262 0.000000 -0.056204
# 5 0.009715 -0.002356 0.003457 0.000000 0.085106 0.000000
# 6 0.000000 0.000000 0.000000 -0.056204 0.000000 0.102038
#
#
# Mechanical properties :
#
#
# Convention : Reuss Voigt Hill
#
# Bulk Modulus (GPa) = 46.71830 59.92754 53.32292
# Shear Modulus (GPa) = 10.80474 17.84838 14.32656
#
# Velocity S-wave (km/s) = 2.46449 3.16752 2.83786
# Velocity P-wave (km/s) = 5.86175 6.86038 6.38063
#
# Compressibility (1/GPa) = 0.02140489
#
# Stress axis : x y z
#
# Youngs Moduli (GPa) = 59.86691 42.77238 108.36083
#
# Poissons Ratio (x) = 0.25946 0.28224
# Poissons Ratio (y) = 0.36315 0.57244
# Poissons Ratio (z) = 0.15593 0.22596
#
# Static dielectric constant tensor:
#      x y z
#    x 3.182730 0.000000 -0.123620 
#    y 0.000000 3.072120 0.000000 
#    z -0.123620 0.000000 3.540120 
# 
# 
# High freq. dielectric constant tensor:
#      x y z
#    x 1.669790 0.000000 -0.011120 
#    y 0.000000 1.666630 0.000000 
#    z -0.011120 0.000000 1.695020 
# 
# From -- ./inp_files/35687.got.cif
#   From: 2010.06.25/outbox.cif.g09.slc.cpg/sg10_18_cif.got.tgz:35687.got - 2010.06.27 22:07:45.
