data_PCOD8058147
_publ_section_title
;
Structure prediction by ZEFSAII (Michael W. Deem and Ramdas Pophale) SiO2 
 PCOD8058147
Probable space group: P 2/M
;
_chemical_formula_sum "Si O2"
_cell_formula_units_Z 24
_cell_length_a 16.716131
_cell_length_b 8.873929
_cell_length_c 23.280802
_cell_angle_alpha 90.000000
_cell_angle_beta 23.938660
_cell_angle_gamma 90.000000
_cell_volume 1401.254928
_symmetry_space_group_name_H-M "P 2/M"
_symmetry_group_IT_number 10
_symmetry_cell_setting 'monoclinic'
loop_
_space_group_symop_operation_xyz
x,y,z
-x,y,-z
-x,-y,-z
x,-y,z
loop_
_atom_site_type_symbol
_atom_site_label
_atom_site_fract_x
_atom_site_fract_y
_atom_site_fract_z
Si Si1 0.007669 0.174212 0.077279
Si Si2 0.631631 0.673677 0.644902
Si Si3 0.726167 0.325989 0.191636
Si Si4 0.362472 0.824489 0.915800
Si Si5 0.982041 0.178655 0.576996
Si Si6 0.568296 0.822122 0.894623
O O1 0.803219 0.270762 0.204345
O O2 0.951139 0.000000 0.110144
O O3 0.157735 0.219752 0.928498
O O4 0.129930 0.208560 0.055719
O O5 0.681668 0.500000 0.621737
O O6 0.506658 0.697622 0.667596
O O7 0.505598 0.728206 0.781859
O O8 0.834858 0.763607 0.505426
O O9 0.783129 0.500000 0.144605
O O10 0.405167 0.780807 0.953675
O O11 0.411731 0.000000 0.871797
O O12 0.000000 0.238958 0.500000
O O13 0.781055 0.243369 0.736469
O O14 0.983050 0.000000 0.576872
O O15 0.588099 0.000000 0.888388
O O16 0.500000 0.749831 0.000000
#
# Coordination Sequence:
#
# PCOD8058147 Si02
#       6
#     4   4   4   4   4   4
#     4   9  15  22  37  59  84 114 144 178 220 261
#     4  10  19  28  42  65  91 120 150 183 224 265
#     4   9  16  25  36  55  86 117 144 177 217 263
#     4   9  16  28  44  64  90 118 150 186 222 265
#     4  10  18  30  48  68  89 117 151 186 223 264
#     4   9  17  30  48  68  90 118 151 184 221 267
#
# _framework density 17.127503999999998
#
# number of rings (size 3 to 8) (size 9 to 14) (size 15 to 20)
#    0.000    2.667    1.667    2.500    0.000    3.000 
#    0.000    0.000    0.000    2.000    0.000    1.167 
#    0.000    9.333    0.000    0.000    0.000    0.000 
#
# Total GULP energy -297342.758042 kJ/mol
# GULP energy per Si atom -12389.281585 kJ/mol
# Density = 1.708852 g / cm^3
# Si number density = 17.127504 Si / 1000 Ang^3
#
#
#
# Elastic Constant Matrix: (Units=GPa)
#
#
# Indices 1 2 3 4 5 6 
#
# 1 117.0886 22.6578 72.8972 0.0000 -29.5086 0.0000
# 2 22.6578 27.0332 21.8412 0.0000 -8.3475 0.0000
# 3 72.8972 21.8412 90.7717 0.0000 -19.5016 0.0000
# 4 0.0000 0.0000 0.0000 14.5954 0.0000 -10.1753
# 5 -29.5086 -8.3475 -19.5016 0.0000 34.1629 0.0000
# 6 0.0000 0.0000 0.0000 -10.1753 0.0000 14.7029
#
#
#
# Elastic Compliance Matrix: (Units=1/GPa)
#
#
# Indices 1 2 3 4 5 6 
#
# 1 0.019381 -0.003115 -0.012973 0.000000 0.008574 0.000000
# 2 -0.003115 0.047378 -0.007966 0.000000 0.004338 0.000000
# 3 -0.012973 -0.007966 0.023395 0.000000 0.000203 0.000000
# 4 0.000000 0.000000 0.000000 0.132390 0.000000 0.091622
# 5 0.008574 0.004338 0.000203 0.000000 0.037853 0.000000
# 6 0.000000 0.000000 0.000000 0.091622 0.000000 0.131422
#
#
# Mechanical properties :
#
#
# Convention : Reuss Voigt Hill
#
# Bulk Modulus (GPa) = 23.78341 52.18730 37.98536
# Shear Modulus (GPa) = 11.01459 20.52540 15.76999
#
# Velocity S-wave (km/s) = 2.53868 3.46553 3.03766
# Velocity P-wave (km/s) = 4.74441 6.82270 5.87617
#
# Compressibility (1/GPa) = 0.04204611
#
# Stress axis : x y z
#
# Youngs Moduli (GPa) = 51.59773 21.10665 42.74371
#
# Poissons Ratio (x) = 0.06575 0.55450
# Poissons Ratio (y) = 0.16074 0.34050
# Poissons Ratio (z) = 0.66936 0.16814
#
# Static dielectric constant tensor:
#      x y z
#    x 3.700120 0.000000 -0.627630 
#    y 0.000000 3.056610 0.000000 
#    z -0.627630 0.000000 3.190750 
# 
# 
# High freq. dielectric constant tensor:
#      x y z
#    x 1.651940 0.000000 -0.055490 
#    y 0.000000 1.649930 0.000000 
#    z -0.055490 0.000000 1.623360 
# 
# From -- ./inp_files/33447.got.cif
#   From: 2010.06.25/outbox.cif.g09.slc.cpg/sg10_17_cif.got.tgz:33447.got - 2010.06.27 22:07:45.
