data_PCOD8058153
_publ_section_title
;
Structure prediction by ZEFSAII (Michael W. Deem and Ramdas Pophale) SiO2 
 PCOD8058153
Probable space group: P 2/M
;
_chemical_formula_sum "Si O2"
_cell_formula_units_Z 20
_cell_length_a 12.305426
_cell_length_b 8.564750
_cell_length_c 12.666564
_cell_angle_alpha 90.000000
_cell_angle_beta 59.652161
_cell_angle_gamma 90.000000
_cell_volume 1152.040838
_symmetry_space_group_name_H-M "P 2/M"
_symmetry_group_IT_number 10
_symmetry_cell_setting 'monoclinic'
loop_
_space_group_symop_operation_xyz
x,y,z
-x,y,-z
-x,-y,-z
x,-y,z
loop_
_atom_site_type_symbol
_atom_site_label
_atom_site_fract_x
_atom_site_fract_y
_atom_site_fract_z
Si Si1 0.172853 0.684959 0.837258
Si Si2 0.359179 0.685980 0.571657
Si Si3 0.898763 0.684536 0.902979
Si Si4 0.910935 0.818196 0.681491
Si Si5 0.828643 0.683455 0.515332
O O1 0.170086 0.500000 0.832105
O O2 0.287876 0.752166 0.710940
O O3 0.040875 0.743976 0.854272
O O4 0.185902 0.734601 0.953982
O O5 0.500000 0.755902 0.500000
O O6 0.362714 0.500000 0.575217
O O7 0.285571 0.740164 0.502884
O O8 0.892604 0.500000 0.887411
O O9 0.847249 0.772066 0.824235
O O10 0.816350 0.772130 0.633169
O O11 0.040005 0.722172 0.606020
O O12 0.941185 0.000000 0.660972
O O13 0.822288 0.500000 0.539044
#
# Coordination Sequence:
#
# PCOD8058153 Si02
#       5
#     4   4   4   4   4
#     4   8  14  25  44  69  94 119 150 188 228 275
#     4   9  16  27  47  74  97 116 147 193 234 268
#     4   9  15  27  47  68  92 122 153 184 231 281
#     4  11  20  29  44  68  98 123 151 195 235 268
#     4  10  18  30  48  68  93 124 156 185 228 283
#
# _framework density 17.360495
#
# number of rings (size 3 to 8) (size 9 to 14) (size 15 to 20)
#    0.000    2.600    2.000    4.800    0.000    0.000 
#    0.000    2.000    0.000    3.600    0.000    8.400 
#    0.000    0.000    0.000    0.000    0.000    0.000 
#
# Total GULP energy -247888.808750 kJ/mol
# GULP energy per Si atom -12394.440438 kJ/mol
# Density = 1.732098 g / cm^3
# Si number density = 17.360495 Si / 1000 Ang^3
#
#
#
# Elastic Constant Matrix: (Units=GPa)
#
#
# Indices 1 2 3 4 5 6 
#
# 1 100.6295 10.8048 70.3156 0.0000 8.7672 0.0000
# 2 10.8048 31.3161 22.2081 0.0000 7.6985 0.0000
# 3 70.3156 22.2081 162.4900 0.0000 19.7555 0.0000
# 4 0.0000 0.0000 0.0000 5.3220 0.0000 -0.1660
# 5 8.7672 7.6985 19.7555 0.0000 31.1835 0.0000
# 6 0.0000 0.0000 0.0000 -0.1660 0.0000 1.7368
#
#
#
# Elastic Compliance Matrix: (Units=1/GPa)
#
#
# Indices 1 2 3 4 5 6 
#
# 1 0.014255 -0.000601 -0.006086 0.000000 -0.000004 0.000000
# 2 -0.000601 0.036505 -0.003959 0.000000 -0.006335 0.000000
# 3 -0.006086 -0.003959 0.009753 0.000000 -0.003491 0.000000
# 4 0.000000 0.000000 0.000000 0.188460 0.000000 0.018018
# 5 -0.000004 -0.006335 -0.003491 0.000000 0.035845 0.000000
# 6 0.000000 0.000000 0.000000 0.018018 0.000000 0.577491
#
#
# Mechanical properties :
#
#
# Convention : Reuss Voigt Hill
#
# Bulk Modulus (GPa) = 25.49685 55.67698 40.58691
# Shear Modulus (GPa) = 5.57615 20.38893 12.98254
#
# Velocity S-wave (km/s) = 1.79414 3.43073 2.73760
# Velocity P-wave (km/s) = 4.36011 6.91621 5.78120
#
# Compressibility (1/GPa) = 0.03922053
#
# Stress axis : x y z
#
# Youngs Moduli (GPa) = 70.15082 27.39375 102.52913
#
# Poissons Ratio (x) = 0.01648 0.62400
# Poissons Ratio (y) = 0.04219 0.40589
# Poissons Ratio (z) = 0.42694 0.10844
#
# Static dielectric constant tensor:
#      x y z
#    x 3.157600 0.000000 0.147660 
#    y 0.000000 2.817340 0.000000 
#    z 0.147660 0.000000 3.661670 
# 
# 
# High freq. dielectric constant tensor:
#      x y z
#    x 1.630670 0.000000 0.027640 
#    y 0.000000 1.637120 0.000000 
#    z 0.027640 0.000000 1.680490 
# 
# From -- ./inp_files/44612.got.cif
#   From: 2010.06.25/outbox.cif.g09.slc.cpg/sg10_23_cif.got.tgz:44612.got - 2010.06.27 22:07:45.
