data_PCOD8058428
_publ_section_title
;
Structure prediction by ZEFSAII (Michael W. Deem and Ramdas Pophale) SiO2 
 PCOD8058428
Probable space group: P 2/M
;
_chemical_formula_sum "Si O2"
_cell_formula_units_Z 32
_cell_length_a 21.338230
_cell_length_b 9.080904
_cell_length_c 30.803279
_cell_angle_alpha 90.000000
_cell_angle_beta 160.901580
_cell_angle_gamma 90.000000
_cell_volume 1952.930963
_symmetry_space_group_name_H-M "P 2/M"
_symmetry_group_IT_number 10
_symmetry_cell_setting 'monoclinic'
loop_
_space_group_symop_operation_xyz
x,y,z
-x,y,-z
-x,-y,-z
x,-y,z
loop_
_atom_site_type_symbol
_atom_site_label
_atom_site_fract_x
_atom_site_fract_y
_atom_site_fract_z
Si Si1 0.414631 0.171846 0.098975
Si Si2 0.821680 0.829617 0.972593
Si Si3 0.786828 0.674316 0.207253
Si Si4 0.806967 0.829503 0.399625
Si Si5 0.867387 0.666056 0.871213
Si Si6 0.188688 0.324600 0.506412
Si Si7 0.557497 0.828190 0.717643
Si Si8 0.411071 0.674128 0.008252
O O1 0.630687 0.215070 0.253459
O O2 0.350858 0.254799 0.014057
O O3 0.399157 0.000000 0.079989
O O4 0.268719 0.220560 0.041170
O O5 0.014566 0.736472 0.091286
O O6 0.879941 0.000000 0.010371
O O7 0.663707 0.798503 0.832503
O O8 0.784240 0.500000 0.207714
O O9 0.620820 0.732364 0.130910
O O10 0.991025 0.735322 0.356342
O O11 0.742442 0.723954 0.128822
O O12 0.800221 0.727199 0.436974
O O13 0.000000 0.797997 0.500000
O O14 0.789642 0.000000 0.402916
O O15 0.808356 0.500000 0.820361
O O16 0.677724 0.761138 0.756322
O O17 0.000000 0.669842 0.000000
O O18 0.205685 0.500000 0.515920
O O19 0.355364 0.254002 0.586686
O O20 0.525811 0.000000 0.688305
O O21 0.411427 0.500000 0.014188
#
# Coordination Sequence:
#
# PCOD8058428 Si02
#       8
#     4   4   4   4   4   4   4   4
#     4  10  19  31  45  68  98 125 156 196 236 275
#     4   9  17  30  45  62  93 131 158 184 229 284
#     4   8  17  33  50  68  92 121 157 204 249 283
#     4  10  20  33  46  63  94 132 161 188 232 288
#     4   9  17  28  44  68  94 119 156 198 230 265
#     4  11  20  30  47  70  96 123 158 201 239 275
#     4  10  18  31  47  65  94 131 161 184 229 287
#     4   9  17  33  53  68  87 122 164 201 242 287
#
# _framework density 16.385626999999999
#
# number of rings (size 3 to 8) (size 9 to 14) (size 15 to 20)
#    0.000    2.500    1.250    2.625    0.000    3.250 
#    0.000    3.125    0.000    0.000    0.000    0.875 
#    0.000    7.000    0.000    0.000    0.000    0.000 
#
# Total GULP energy -396798.474150 kJ/mol
# GULP energy per Si atom -12399.952317 kJ/mol
# Density = 1.634833 g / cm^3
# Si number density = 16.385627 Si / 1000 Ang^3
#
#
#
# Elastic Constant Matrix: (Units=GPa)
#
#
# Indices 1 2 3 4 5 6 
#
# 1 110.1727 39.7573 39.2950 0.0000 10.6682 0.0000
# 2 39.7573 63.2832 26.7653 0.0000 8.7292 0.0000
# 3 39.2950 26.7653 48.7641 0.0000 9.8814 0.0000
# 4 0.0000 0.0000 0.0000 19.4960 0.0000 5.2811
# 5 10.6682 8.7292 9.8814 0.0000 23.9385 0.0000
# 6 0.0000 0.0000 0.0000 5.2811 0.0000 30.4292
#
#
#
# Elastic Compliance Matrix: (Units=1/GPa)
#
#
# Indices 1 2 3 4 5 6 
#
# 1 0.013966 -0.005164 -0.008229 0.000000 -0.000944 0.000000
# 2 -0.005164 0.022702 -0.007735 0.000000 -0.002784 0.000000
# 3 -0.008229 -0.007735 0.032813 0.000000 -0.007057 0.000000
# 4 0.000000 0.000000 0.000000 0.053823 0.000000 -0.009341
# 5 -0.000944 -0.002784 -0.007057 0.000000 0.046123 0.000000
# 6 0.000000 0.000000 0.000000 -0.009341 0.000000 0.034484
#
#
# Mechanical properties :
#
#
# Convention : Reuss Voigt Hill
#
# Bulk Modulus (GPa) = 36.72937 48.20614 42.46775
# Shear Modulus (GPa) = 19.58921 22.53290 21.06106
#
# Velocity S-wave (km/s) = 3.46137 3.71234 3.58905
# Velocity P-wave (km/s) = 6.19992 6.91802 6.56879
#
# Compressibility (1/GPa) = 0.02722617
#
# Stress axis : x y z
#
# Youngs Moduli (GPa) = 71.60006 44.04968 30.47529
#
# Poissons Ratio (x) = 0.22746 0.25078
# Poissons Ratio (y) = 0.36972 0.23573
# Poissons Ratio (z) = 0.58918 0.34073
#
# Static dielectric constant tensor:
#      x y z
#    x 3.082510 0.000000 0.191030 
#    y 0.000000 3.009040 0.000000 
#    z 0.191030 0.000000 3.133500 
# 
# 
# High freq. dielectric constant tensor:
#      x y z
#    x 1.624570 0.000000 0.020200 
#    y 0.000000 1.626120 0.000000 
#    z 0.020200 0.000000 1.608780 
# 
# From -- ./inp_files/75985.got.cif
#   From: 2010.06.25/outbox.cif.g09.slc.cpg/sg10_38_cif.got.tgz:75985.got - 2010.06.27 22:07:45.
