data_PCOD8058974
_publ_section_title
;
Structure prediction by ZEFSAII (Michael W. Deem and Ramdas Pophale) SiO2 
 PCOD8058974
Probable space group: P 2/M
;
_chemical_formula_sum "Si O2"
_cell_formula_units_Z 28
_cell_length_a 13.776047
_cell_length_b 8.936688
_cell_length_c 17.367603
_cell_angle_alpha 90.000000
_cell_angle_beta 44.287410
_cell_angle_gamma 90.000000
_cell_volume 1492.990409
_symmetry_space_group_name_H-M "P 2/M"
_symmetry_group_IT_number 10
_symmetry_cell_setting 'monoclinic'
loop_
_space_group_symop_operation_xyz
x,y,z
-x,y,-z
-x,-y,-z
x,-y,z
loop_
_atom_site_type_symbol
_atom_site_label
_atom_site_fract_x
_atom_site_fract_y
_atom_site_fract_z
Si Si1 0.332627 0.825239 0.943411
Si Si2 0.404733 0.324716 0.750393
Si Si3 0.128619 0.322741 0.617147
Si Si4 0.695356 0.826253 0.605190
Si Si5 0.819465 0.675344 0.835784
Si Si6 0.353616 0.829615 0.193736
Si Si7 0.353277 0.324551 0.609934
O O1 0.318049 0.752115 0.867617
O O2 0.483894 0.790413 0.892570
O O3 0.308163 0.000000 0.947491
O O4 0.216110 0.757457 0.064631
O O5 0.415794 0.500000 0.760670
O O6 0.559682 0.261492 0.654394
O O7 0.324837 0.290071 0.715912
O O8 0.140006 0.500000 0.599075
O O9 0.171540 0.241396 0.513683
O O10 0.226948 0.261679 0.630246
O O11 0.972663 0.273031 0.724543
O O12 0.719707 0.804861 0.682392
O O13 0.674635 0.000000 0.597137
O O14 0.810834 0.500000 0.855502
O O15 0.712295 0.718158 0.829884
O O16 0.333724 0.000000 0.176295
O O17 0.500000 0.251810 0.500000
O O18 0.361885 0.500000 0.590329
#
# Coordination Sequence:
#
# PCOD8058974 Si02
#       7
#     4   4   4   4   4   4   4
#     4  10  21  38  58  79 108 143 180 221 267 321
#     4  10  18  32  58  85 108 137 178 226 268 309
#     4  10  21  37  54  78 112 144 180 222 266 320
#     4  10  20  34  53  81 112 143 178 218 269 322
#     4  11  23  36  54  80 108 141 182 228 270 311
#     4   9  20  37  56  77 105 142 180 219 267 323
#     4   9  16  31  57  83 106 140 178 214 265 320
#
# _framework density 18.754306
#
# number of rings (size 3 to 8) (size 9 to 14) (size 15 to 20)
#    0.000    2.143    1.429    3.000    0.000    6.857 
#    0.000    5.714    0.000    4.286    0.000    0.000 
#    0.000    0.000    0.000    0.000    0.000    0.000 
#
# Total GULP energy -347260.191633 kJ/mol
# GULP energy per Si atom -12402.149701 kJ/mol
# Density = 1.871162 g / cm^3
# Si number density = 18.754306 Si / 1000 Ang^3
#
#
#
# Elastic Constant Matrix: (Units=GPa)
#
#
# Indices 1 2 3 4 5 6 
#
# 1 34.3502 15.5145 19.3786 0.0000 9.9892 0.0000
# 2 15.5145 73.1738 47.1513 0.0000 7.3501 0.0000
# 3 19.3786 47.1513 133.9178 0.0000 12.5789 0.0000
# 4 0.0000 0.0000 0.0000 30.1796 0.0000 -0.1714
# 5 9.9892 7.3501 12.5789 0.0000 19.9319 0.0000
# 6 0.0000 0.0000 0.0000 -0.1714 0.0000 7.2676
#
#
#
# Elastic Compliance Matrix: (Units=1/GPa)
#
#
# Indices 1 2 3 4 5 6 
#
# 1 0.037028 -0.004895 -0.002191 0.000000 -0.015369 0.000000
# 2 -0.004895 0.018467 -0.005724 0.000000 -0.000744 0.000000
# 3 -0.002191 -0.005724 0.010097 0.000000 -0.003163 0.000000
# 4 0.000000 0.000000 0.000000 0.033139 0.000000 0.000782
# 5 -0.015369 -0.000744 -0.003163 0.000000 0.060144 0.000000
# 6 0.000000 0.000000 0.000000 0.000782 0.000000 0.137616
#
#
# Mechanical properties :
#
#
# Convention : Reuss Voigt Hill
#
# Bulk Modulus (GPa) = 25.01741 45.05896 35.03818
# Shear Modulus (GPa) = 14.90597 22.10232 18.50415
#
# Velocity S-wave (km/s) = 2.82228 3.43668 3.14452
# Velocity P-wave (km/s) = 4.89785 6.31077 5.64866
#
# Compressibility (1/GPa) = 0.03997217
#
# Stress axis : x y z
#
# Youngs Moduli (GPa) = 27.00624 54.15058 99.04203
#
# Poissons Ratio (x) = 0.26508 0.21700
# Poissons Ratio (y) = 0.13220 0.56690
# Poissons Ratio (z) = 0.05917 0.30995
#
# Static dielectric constant tensor:
#      x y z
#    x 3.377560 0.000000 0.118510 
#    y 0.000000 3.330880 0.000000 
#    z 0.118510 0.000000 3.546760 
# 
# 
# High freq. dielectric constant tensor:
#      x y z
#    x 1.715100 0.000000 0.017680 
#    y 0.000000 1.721810 0.000000 
#    z 0.017680 0.000000 1.733580 
# 
# From -- ./inp_files/57439.got.cif
#   From: 2010.06.25/outbox.cif.g09.slc.cpg/sg10_29_cif.got.tgz:57439.got - 2010.06.27 22:07:45.
