data_PCOD8058459
_publ_section_title
;
Structure prediction by ZEFSAII (Michael W. Deem and Ramdas Pophale) SiO2 
 PCOD8058459
Probable space group: P 2/M
;
_chemical_formula_sum "Si O2"
_cell_formula_units_Z 32
_cell_length_a 21.244922
_cell_length_b 8.864903
_cell_length_c 15.301687
_cell_angle_alpha 90.000000
_cell_angle_beta 137.715509
_cell_angle_gamma 90.000000
_cell_volume 1938.931001
_symmetry_space_group_name_H-M "P 2/M"
_symmetry_group_IT_number 10
_symmetry_cell_setting 'monoclinic'
loop_
_space_group_symop_operation_xyz
x,y,z
-x,y,-z
-x,-y,-z
x,-y,z
loop_
_atom_site_type_symbol
_atom_site_label
_atom_site_fract_x
_atom_site_fract_y
_atom_site_fract_z
Si Si1 0.911710 0.821438 0.717513
Si Si2 0.792602 0.677633 0.442630
Si Si3 0.892487 0.174598 0.385357
Si Si4 0.111266 0.676415 0.943280
Si Si5 0.218456 0.175813 0.903149
Si Si6 0.401765 0.822243 0.998640
Si Si7 0.391411 0.178282 0.790894
Si Si8 0.111018 0.833614 0.115235
O O1 0.853625 0.747492 0.581571
O O2 0.862145 0.778812 0.759256
O O3 0.017346 0.763042 0.821191
O O4 0.915532 0.000000 0.708441
O O5 0.795779 0.500000 0.454095
O O6 0.832285 0.727028 0.389913
O O7 0.686326 0.735260 0.345248
O O8 0.855656 0.203889 0.250215
O O9 0.000000 0.225934 0.500000
O O10 0.881000 0.000000 0.400330
O O11 0.092632 0.500000 0.919191
O O12 0.191521 0.724887 0.958638
O O13 0.146440 0.718904 0.077274
O O14 0.320940 0.236982 0.979940
O O15 0.220981 0.000000 0.931683
O O16 0.385352 0.760557 0.884042
O O17 0.392865 0.000000 0.981068
O O18 0.505263 0.779373 0.140120
O O19 0.373031 0.000000 0.765923
O O20 0.153176 0.000000 0.139585
O O21 0.000000 0.843802 0.000000
#
# Coordination Sequence:
#
# PCOD8058459 Si02
#       8
#     4   4   4   4   4   4   4   4
#     4  10  20  35  53  70  93 129 170 206 236 277
#     4  12  23  32  46  72 102 129 157 195 248 299
#     4  10  20  33  49  66  90 131 173 202 233 275
#     4  11  21  31  47  74 105 132 157 195 245 292
#     4  10  18  31  49  70  96 130 170 203 235 279
#     4   8  15  29  53  74  88 119 167 213 242 273
#     4   9  16  32  53  71  91 120 165 208 244 284
#     4   8  16  32  52  71  91 122 164 204 239 278
#
# _framework density 16.503941000000001
#
# number of rings (size 3 to 8) (size 9 to 14) (size 15 to 20)
#    0.000    2.250    1.250    4.875    0.000    4.500 
#    0.000    1.875    0.000    0.000    0.000    0.875 
#    0.000    7.000    0.000    0.000    0.000    0.000 
#
# Total GULP energy -396719.349747 kJ/mol
# GULP energy per Si atom -12397.479680 kJ/mol
# Density = 1.646638 g / cm^3
# Si number density = 16.503941 Si / 1000 Ang^3
#
#
#
# Elastic Constant Matrix: (Units=GPa)
#
#
# Indices 1 2 3 4 5 6 
#
# 1 98.8238 38.4751 36.6072 0.0000 5.1533 0.0000
# 2 38.4751 78.7411 21.9976 0.0000 -1.5134 0.0000
# 3 36.6072 21.9976 29.7224 0.0000 7.6821 0.0000
# 4 0.0000 0.0000 0.0000 10.6859 0.0000 -2.5351
# 5 5.1533 -1.5134 7.6821 0.0000 27.3590 0.0000
# 6 0.0000 0.0000 0.0000 -2.5351 0.0000 9.7242
#
#
#
# Elastic Compliance Matrix: (Units=1/GPa)
#
#
# Indices 1 2 3 4 5 6 
#
# 1 0.019494 -0.003278 -0.022199 0.000000 0.002380 0.000000
# 2 -0.003278 0.017103 -0.009731 0.000000 0.004296 0.000000
# 3 -0.022199 -0.009731 0.072508 0.000000 -0.016716 0.000000
# 4 0.000000 0.000000 0.000000 0.099751 0.000000 0.026005
# 5 0.002380 0.004296 -0.016716 0.000000 0.041034 0.000000
# 6 0.000000 0.000000 0.000000 0.026005 0.000000 0.109616
#
#
# Mechanical properties :
#
#
# Convention : Reuss Voigt Hill
#
# Bulk Modulus (GPa) = 25.84672 44.60526 35.22599
# Shear Modulus (GPa) = 11.29133 16.90096 14.09614
#
# Velocity S-wave (km/s) = 2.61848 3.20356 2.92568
# Velocity P-wave (km/s) = 4.98366 6.38509 5.72740
#
# Compressibility (1/GPa) = 0.03868963
#
# Stress axis : x y z
#
# Youngs Moduli (GPa) = 51.29700 58.47080 13.79159
#
# Poissons Ratio (x) = 0.19167 0.30616
# Poissons Ratio (y) = 0.16816 0.13420
# Poissons Ratio (z) = 1.13874 0.56895
#
# Static dielectric constant tensor:
#      x y z
#    x 3.307730 0.000000 -0.002170 
#    y 0.000000 2.963530 0.000000 
#    z -0.002170 0.000000 3.183510 
# 
# 
# High freq. dielectric constant tensor:
#      x y z
#    x 1.626070 0.000000 -0.002320 
#    y 0.000000 1.622700 0.000000 
#    z -0.002320 0.000000 1.617630 
# 
# From -- ./inp_files/66153.got.cif
#   From: 2010.06.25/outbox.cif.g09.slc.cpg/sg10_34_cif.got.tgz:66153.got - 2010.06.27 22:07:45.
