data_PCOD8058656
_publ_section_title
;
Structure prediction by ZEFSAII (Michael W. Deem and Ramdas Pophale) SiO2 
 PCOD8058656
Probable space group: P 2/M
;
_chemical_formula_sum "Si O2"
_cell_formula_units_Z 32
_cell_length_a 20.821507
_cell_length_b 9.038057
_cell_length_c 14.255248
_cell_angle_alpha 90.000000
_cell_angle_beta 136.766516
_cell_angle_gamma 90.000000
_cell_volume 1837.534353
_symmetry_space_group_name_H-M "P 2/M"
_symmetry_group_IT_number 10
_symmetry_cell_setting 'monoclinic'
loop_
_space_group_symop_operation_xyz
x,y,z
-x,y,-z
-x,-y,-z
x,-y,z
loop_
_atom_site_type_symbol
_atom_site_label
_atom_site_fract_x
_atom_site_fract_y
_atom_site_fract_z
Si Si1 0.668857 0.674533 0.368746
Si Si2 0.047928 0.831306 0.347417
Si Si3 0.128841 0.328903 0.902169
Si Si4 0.800692 0.825103 0.644845
Si Si5 0.522147 0.674006 0.921140
Si Si6 0.271573 0.327037 0.900305
Si Si7 0.893823 0.325541 0.912296
Si Si8 0.208250 0.172121 0.654580
O O1 0.686613 0.500000 0.395506
O O2 0.705628 0.754247 0.501833
O O3 0.558817 0.713372 0.239816
O O4 0.719382 0.734134 0.329798
O O5 0.114198 0.779349 0.332584
O O6 0.102877 0.807267 0.503403
O O7 0.953428 0.738529 0.248429
O O8 0.018895 0.000000 0.302048
O O9 0.105508 0.500000 0.884456
O O10 0.228154 0.298103 0.957211
O O11 0.129649 0.265304 0.008550
O O12 0.820948 0.758789 0.768190
O O13 0.786929 0.000000 0.635879
O O14 0.529111 0.500000 0.941687
O O15 0.500000 0.744943 0.000000
O O16 0.621519 0.732449 0.987119
O O17 0.265209 0.500000 0.867116
O O18 0.210127 0.233555 0.761591
O O19 0.877401 0.500000 0.883796
O O20 0.000000 0.281343 0.000000
O O21 0.237206 0.000000 0.680999
#
# Coordination Sequence:
#
# PCOD8058656 Si02
#       8
#     4   4   4   4   4   4   4   4
#     4  10  18  31  54  78 102 133 167 209 257 299
#     4   9  19  33  48  68 101 138 169 201 244 300
#     4  10  21  34  51  75 101 131 169 214 254 293
#     4  10  20  33  51  78 106 133 167 209 255 301
#     4   9  16  30  53  78  99 128 169 208 250 298
#     4  10  20  35  52  73 102 134 170 210 253 301
#     4  10  19  33  53  77 102 130 170 214 253 297
#     4  10  20  33  48  73 105 138 173 207 246 295
#
# _framework density 17.414639999999999
#
# number of rings (size 3 to 8) (size 9 to 14) (size 15 to 20)
#    0.000    2.250    2.500    1.875    0.000    4.250 
#    0.000    4.375    0.000    0.750    0.000    5.250 
#    0.000    0.000    0.000    0.000    0.000    0.000 
#
# Total GULP energy -396784.334653 kJ/mol
# GULP energy per Si atom -12399.510458 kJ/mol
# Density = 1.737500 g / cm^3
# Si number density = 17.414640 Si / 1000 Ang^3
#
#
#
# Elastic Constant Matrix: (Units=GPa)
#
#
# Indices 1 2 3 4 5 6 
#
# 1 102.9314 31.7962 68.7683 0.0000 1.9162 0.0000
# 2 31.7962 56.5531 46.9968 0.0000 -0.8294 0.0000
# 3 68.7683 46.9968 128.8147 0.0000 -2.6436 0.0000
# 4 0.0000 0.0000 0.0000 17.3764 0.0000 -6.9857
# 5 1.9162 -0.8294 -2.6436 0.0000 24.2221 0.0000
# 6 0.0000 0.0000 0.0000 -6.9857 0.0000 12.7042
#
#
#
# Elastic Compliance Matrix: (Units=1/GPa)
#
#
# Indices 1 2 3 4 5 6 
#
# 1 0.015474 -0.002626 -0.007346 0.000000 -0.002116 0.000000
# 2 -0.002626 0.025823 -0.008015 0.000000 0.000217 0.000000
# 3 -0.007346 -0.008015 0.014648 0.000000 0.001905 0.000000
# 4 0.000000 0.000000 0.000000 0.073882 0.000000 0.040626
# 5 -0.002116 0.000217 0.001905 0.000000 0.041667 0.000000
# 6 0.000000 0.000000 0.000000 0.040626 0.000000 0.101054
#
#
# Mechanical properties :
#
#
# Convention : Reuss Voigt Hill
#
# Bulk Modulus (GPa) = 50.07380 64.82466 57.44923
# Shear Modulus (GPa) = 15.86408 20.24306 18.05357
#
# Velocity S-wave (km/s) = 3.02149 3.41312 3.22326
# Velocity P-wave (km/s) = 6.40225 7.26895 6.84932
#
# Compressibility (1/GPa) = 0.01997052
#
# Stress axis : x y z
#
# Youngs Moduli (GPa) = 64.62579 38.72580 68.26897
#
# Poissons Ratio (x) = 0.10170 0.50150
# Poissons Ratio (y) = 0.16972 0.54715
# Poissons Ratio (z) = 0.47474 0.31037
#
# Static dielectric constant tensor:
#      x y z
#    x 3.148600 0.000000 0.002280 
#    y 0.000000 3.116760 0.000000 
#    z 0.002280 0.000000 3.359320 
# 
# 
# High freq. dielectric constant tensor:
#      x y z
#    x 1.647060 0.000000 -0.002300 
#    y 0.000000 1.664660 0.000000 
#    z -0.002300 0.000000 1.675660 
# 
# From -- ./inp_files/69968.got.cif
#   From: 2010.06.25/outbox.cif.g09.slc.cpg/sg10_35_cif.got.tgz:69968.got - 2010.06.27 22:07:45.
