data_PCOD8058335
_publ_section_title
;
Structure prediction by ZEFSAII (Michael W. Deem and Ramdas Pophale) SiO2 
 PCOD8058335
Probable space group: P 2/M
;
_chemical_formula_sum "Si O2"
_cell_formula_units_Z 20
_cell_length_a 11.672177
_cell_length_b 8.961953
_cell_length_c 16.664697
_cell_angle_alpha 90.000000
_cell_angle_beta 141.367181
_cell_angle_gamma 90.000000
_cell_volume 1088.338942
_symmetry_space_group_name_H-M "P 2/M"
_symmetry_group_IT_number 10
_symmetry_cell_setting 'monoclinic'
loop_
_space_group_symop_operation_xyz
x,y,z
-x,y,-z
-x,-y,-z
x,-y,z
loop_
_atom_site_type_symbol
_atom_site_label
_atom_site_fract_x
_atom_site_fract_y
_atom_site_fract_z
Si Si1 0.708984 0.176053 0.981026
Si Si2 0.960324 0.676841 0.236466
Si Si3 0.494538 0.330356 0.258914
Si Si4 0.634378 0.677690 0.504082
Si Si5 0.359233 0.668765 0.824137
O O1 0.675995 0.235806 0.871745
O O2 0.539851 0.232829 0.945519
O O3 0.721827 0.000000 0.988087
O O4 0.895685 0.245599 0.118650
O O5 0.961856 0.500000 0.224783
O O6 0.826138 0.727399 0.235777
O O7 0.161823 0.738403 0.367553
O O8 0.426905 0.500000 0.235418
O O9 0.562929 0.258947 0.379725
O O10 0.661663 0.325304 0.284928
O O11 0.500000 0.736463 0.500000
O O12 0.637892 0.500000 0.502408
O O13 0.400507 0.500000 0.874879
#
# Coordination Sequence:
#
# PCOD8058335 Si02
#       5
#     4   4   4   4   4
#     4  10  19  31  49  75 104 132 163 199 241 291
#     4  10  18  30  51  77 103 129 160 199 245 296
#     4   8  16  32  51  72 102 130 158 198 246 295
#     4   9  18  33  54  77  97 123 165 212 249 283
#     4   8  16  29  49  75 103 130 158 194 245 297
#
# _framework density 18.376628
#
# number of rings (size 3 to 8) (size 9 to 14) (size 15 to 20)
#    1.200    1.800    0.000    1.800    0.000    4.000 
#    0.000    6.000    0.000    9.600    0.000    0.000 
#    0.000    0.000    0.000    0.000    0.000    0.000 
#
# Total GULP energy -247774.080745 kJ/mol
# GULP energy per Si atom -12388.704037 kJ/mol
# Density = 1.833480 g / cm^3
# Si number density = 18.376628 Si / 1000 Ang^3
#
#
#
# Elastic Constant Matrix: (Units=GPa)
#
#
# Indices 1 2 3 4 5 6 
#
# 1 70.9373 11.1248 63.3301 0.0000 -10.0886 0.0000
# 2 11.1248 58.0014 36.7751 0.0000 -5.6297 0.0000
# 3 63.3301 36.7751 152.5612 0.0000 -27.0403 0.0000
# 4 0.0000 0.0000 0.0000 6.1928 0.0000 -3.7556
# 5 -10.0886 -5.6297 -27.0403 0.0000 19.9874 0.0000
# 6 0.0000 0.0000 0.0000 -3.7556 0.0000 6.2065
#
#
#
# Elastic Compliance Matrix: (Units=1/GPa)
#
#
# Indices 1 2 3 4 5 6 
#
# 1 0.022623 0.001939 -0.010179 0.000000 -0.001805 0.000000
# 2 0.001939 0.020539 -0.005995 0.000000 -0.001346 0.000000
# 3 -0.010179 -0.005995 0.014489 0.000000 0.012776 0.000000
# 4 0.000000 0.000000 0.000000 0.255087 0.000000 0.154356
# 5 -0.001805 -0.001346 0.012776 0.000000 0.066026 0.000000
# 6 0.000000 0.000000 0.000000 0.154356 0.000000 0.254525
#
#
# Mechanical properties :
#
#
# Convention : Reuss Voigt Hill
#
# Bulk Modulus (GPa) = 34.26530 55.99554 45.13042
# Shear Modulus (GPa) = 7.44618 17.82867 12.63742
#
# Velocity S-wave (km/s) = 2.01514 3.11815 2.62523
# Velocity P-wave (km/s) = 4.90928 6.59553 5.81386
#
# Compressibility (1/GPa) = 0.02918404
#
# Stress axis : x y z
#
# Youngs Moduli (GPa) = 44.20258 48.68750 69.01565
#
# Poissons Ratio (x) = -0.09441 0.70248
# Poissons Ratio (y) = -0.08572 0.41372
# Poissons Ratio (z) = 0.44992 0.29186
#
# Static dielectric constant tensor:
#      x y z
#    x 3.305520 0.000000 -0.122750 
#    y 0.000000 2.916470 0.000000 
#    z -0.122750 0.000000 3.420460 
# 
# 
# High freq. dielectric constant tensor:
#      x y z
#    x 1.690670 0.000000 -0.016000 
#    y 0.000000 1.672020 0.000000 
#    z -0.016000 0.000000 1.709230 
# 
# From -- ./inp_files/76076.got.cif
#   From: 2010.06.25/outbox.cif.g09.slc.cpg/sg10_39_cif.got.tgz:76076.got - 2010.06.27 22:07:45.
