data_PCOD8058158
_publ_section_title
;
Structure prediction by ZEFSAII (Michael W. Deem and Ramdas Pophale) SiO2 
 PCOD8058158
Probable space group: P 2/M
;
_chemical_formula_sum "Si O2"
_cell_formula_units_Z 32
_cell_length_a 30.750637
_cell_length_b 9.390438
_cell_length_c 12.644390
_cell_angle_alpha 90.000000
_cell_angle_beta 152.417013
_cell_angle_gamma 90.000000
_cell_volume 1690.634287
_symmetry_space_group_name_H-M "P 2/M"
_symmetry_group_IT_number 10
_symmetry_cell_setting 'monoclinic'
loop_
_space_group_symop_operation_xyz
x,y,z
-x,y,-z
-x,-y,-z
x,-y,z
loop_
_atom_site_type_symbol
_atom_site_label
_atom_site_fract_x
_atom_site_fract_y
_atom_site_fract_z
Si Si1 0.775018 0.834495 0.852448
Si Si2 0.819012 0.655196 0.760491
Si Si3 0.893489 0.155961 0.740746
Si Si4 0.631083 0.164804 0.066001
Si Si5 0.897547 0.831364 0.313036
Si Si6 0.428216 0.836122 0.663183
Si Si7 0.381286 0.342094 0.752108
Si Si8 0.814025 0.166222 0.348316
O O1 0.839780 0.754230 0.906020
O O2 0.664015 0.794046 0.603895
O O3 0.790778 0.000000 0.864687
O O4 0.816039 0.789684 0.054118
O O5 0.867015 0.500000 0.878490
O O6 0.850971 0.723281 0.720815
O O7 0.708247 0.637665 0.514897
O O8 0.880224 0.203725 0.590625
O O9 0.844964 0.000000 0.652734
O O10 0.000000 0.140865 0.000000
O O11 0.648439 0.252042 0.210279
O O12 0.706393 0.219024 0.140333
O O13 0.652309 0.000000 0.137668
O O14 0.522272 0.184007 0.793814
O O15 0.861055 0.763007 0.345452
O O16 0.000000 0.768615 0.500000
O O17 0.908054 0.000000 0.345431
O O18 0.449682 0.741359 0.815839
O O19 0.418293 0.000000 0.679351
O O20 0.420323 0.500000 0.867232
O O21 0.810215 0.000000 0.317099
#
# Coordination Sequence:
#
# PCOD8058158 Si02
#       8
#     4   4   4   4   4   4   4   4
#     4   9  18  33  53  75 102 132 174 219 254 298
#     4  10  20  33  50  74 106 139 169 207 260 310
#     4  10  20  32  52  78 104 134 171 208 255 315
#     4  10  18  30  48  69 101 139 170 204 254 311
#     4   9  18  32  54  80 102 127 167 221 266 300
#     4   9  18  30  46  71 101 137 173 205 251 306
#     4  10  19  30  46  71 103 137 173 210 248 296
#     4   9  18  32  49  75 106 133 166 212 259 302
#
# _framework density 18.927807000000001
#
# number of rings (size 3 to 8) (size 9 to 14) (size 15 to 20)
#    0.000    2.500    1.250    1.125    1.750    3.250 
#    0.000    0.625    0.000    5.625    0.000    0.000 
#    0.000    5.000    0.000    0.000    0.000    0.000 
#
# Total GULP energy -396441.927311 kJ/mol
# GULP energy per Si atom -12388.810228 kJ/mol
# Density = 1.888473 g / cm^3
# Si number density = 18.927807 Si / 1000 Ang^3
#
#
#
# Elastic Constant Matrix: (Units=GPa)
#
#
# Indices 1 2 3 4 5 6 
#
# 1 161.7303 40.7224 67.0250 0.0000 -0.4966 0.0000
# 2 40.7224 63.9095 24.8078 0.0000 -5.5541 0.0000
# 3 67.0250 24.8078 104.8415 0.0000 -0.4693 0.0000
# 4 0.0000 0.0000 0.0000 8.7453 0.0000 0.2530
# 5 -0.4966 -5.5541 -0.4693 0.0000 29.1378 0.0000
# 6 0.0000 0.0000 0.0000 0.2530 0.0000 10.6735
#
#
#
# Elastic Compliance Matrix: (Units=1/GPa)
#
#
# Indices 1 2 3 4 5 6 
#
# 1 0.009253 -0.004029 -0.004965 0.000000 -0.000690 0.000000
# 2 -0.004029 0.019291 -0.001973 0.000000 0.003577 0.000000
# 3 -0.004965 -0.001973 0.013178 0.000000 -0.000248 0.000000
# 4 0.000000 0.000000 0.000000 0.114426 0.000000 -0.002712
# 5 -0.000690 0.003577 -0.000248 0.000000 0.034986 0.000000
# 6 0.000000 0.000000 0.000000 -0.002712 0.000000 0.093755
#
#
# Mechanical properties :
#
#
# Convention : Reuss Voigt Hill
#
# Bulk Modulus (GPa) = 50.53536 66.17687 58.35612
# Shear Modulus (GPa) = 15.95311 22.90637 19.42974
#
# Velocity S-wave (km/s) = 2.90632 3.48256 3.20741
# Velocity P-wave (km/s) = 6.16597 7.15609 6.67940
#
# Compressibility (1/GPa) = 0.01978812
#
# Stress axis : x y z
#
# Youngs Moduli (GPa) = 108.07136 51.83804 75.88209
#
# Poissons Ratio (x) = 0.20883 0.37678
# Poissons Ratio (y) = 0.43537 0.14973
# Poissons Ratio (z) = 0.53661 0.10229
#
# Static dielectric constant tensor:
#      x y z
#    x 5.990490 0.000000 3.418510 
#    y 0.000000 3.503260 0.000000 
#    z 3.418510 0.000000 7.797010 
# 
# 
# High freq. dielectric constant tensor:
#      x y z
#    x 1.720710 0.000000 0.018150 
#    y 0.000000 1.703610 0.000000 
#    z 0.018150 0.000000 1.738830 
# 
# From -- ./inp_files/49850.got.cif
#   From: 2010.06.25/outbox.cif.g09.slc.cpg/sg10_25_cif.got.tgz:49850.got - 2010.06.27 22:07:45.
