data_PCOD8058025
_publ_section_title
;
Structure prediction by ZEFSAII (Michael W. Deem and Ramdas Pophale) SiO2 
 PCOD8058025
Probable space group: P 2/M
;
_chemical_formula_sum "Si O2"
_cell_formula_units_Z 32
_cell_length_a 22.803620
_cell_length_b 9.088195
_cell_length_c 17.256286
_cell_angle_alpha 90.000000
_cell_angle_beta 150.696927
_cell_angle_gamma 90.000000
_cell_volume 1750.324853
_symmetry_space_group_name_H-M "P 2/M"
_symmetry_group_IT_number 10
_symmetry_cell_setting 'monoclinic'
loop_
_space_group_symop_operation_xyz
x,y,z
-x,y,-z
-x,-y,-z
x,-y,z
loop_
_atom_site_type_symbol
_atom_site_label
_atom_site_fract_x
_atom_site_fract_y
_atom_site_fract_z
Si Si1 0.761563 0.329637 0.946951
Si Si2 0.126492 0.174334 0.235970
Si Si3 0.558230 0.671384 0.833529
Si Si4 0.142574 0.173875 0.082171
Si Si5 0.212169 0.324619 0.605274
Si Si6 0.251912 0.325719 0.823442
Si Si7 0.058162 0.325123 0.716410
Si Si8 0.315989 0.824943 0.579215
O O1 0.777428 0.500000 0.946882
O O2 0.637702 0.300440 0.848832
O O3 0.761216 0.244041 0.865291
O O4 0.872905 0.271982 0.127133
O O5 0.172119 0.226616 0.203743
O O6 0.213636 0.235697 0.403031
O O7 0.126823 0.000000 0.237237
O O8 0.991112 0.229904 0.094406
O O9 0.522574 0.500000 0.799301
O O10 0.442306 0.772217 0.691252
O O11 0.630780 0.723848 0.993678
O O12 0.151649 0.000000 0.085722
O O13 0.220369 0.500000 0.605123
O O14 0.259116 0.271442 0.743379
O O15 0.296866 0.247146 0.640848
O O16 0.076795 0.264690 0.438883
O O17 0.243919 0.500000 0.816972
O O18 0.131088 0.264530 0.725553
O O19 0.056348 0.500000 0.710749
O O20 0.314084 0.000000 0.583946
#
# Coordination Sequence:
#
# PCOD8058025 Si02
#       8
#     4   4   4   4   4   4   4   4
#     4   9  17  30  49  74 101 124 151 194 242 280
#     4   8  17  33  51  72  98 127 155 188 230 279
#     4   9  19  36  52  66  92 130 166 197 231 274
#     4   9  16  31  55  76  95 122 156 188 227 286
#     4  10  18  29  50  76  97 121 157 197 238 284
#     4   8  15  29  50  73  95 123 160 198 231 272
#     4   8  14  26  47  75 102 124 150 189 236 285
#     4  11  22  35  49  67  95 127 161 199 237 276
#
# _framework density 18.282321
#
# number of rings (size 3 to 8) (size 9 to 14) (size 15 to 20)
#    0.000    3.000    0.000    3.750    0.000    2.500 
#    0.000    6.875    0.000    6.750    0.000    0.000 
#    0.000    0.000    0.000    0.000    0.000    0.000 
#
# Total GULP energy -396673.920509 kJ/mol
# GULP energy per Si atom -12396.060016 kJ/mol
# Density = 1.824071 g / cm^3
# Si number density = 18.282321 Si / 1000 Ang^3
#
#
#
# Elastic Constant Matrix: (Units=GPa)
#
#
# Indices 1 2 3 4 5 6 
#
# 1 126.9523 35.1283 39.3652 0.0000 -11.1696 0.0000
# 2 35.1283 34.4309 17.5658 0.0000 -0.2458 0.0000
# 3 39.3652 17.5658 55.5717 0.0000 1.8852 0.0000
# 4 0.0000 0.0000 0.0000 19.3801 0.0000 -4.4660
# 5 -11.1696 -0.2458 1.8852 0.0000 24.1942 0.0000
# 6 0.0000 0.0000 0.0000 -4.4660 0.0000 9.8021
#
#
#
# Elastic Compliance Matrix: (Units=1/GPa)
#
#
# Indices 1 2 3 4 5 6 
#
# 1 0.013258 -0.010225 -0.006380 0.000000 0.006514 0.000000
# 2 -0.010225 0.042549 -0.006077 0.000000 -0.003815 0.000000
# 3 -0.006380 -0.006077 0.024602 0.000000 -0.004924 0.000000
# 4 0.000000 0.000000 0.000000 0.057652 0.000000 0.026267
# 5 0.006514 -0.003815 -0.004924 0.000000 0.044684 0.000000
# 6 0.000000 0.000000 0.000000 0.026267 0.000000 0.113986
#
#
# Mechanical properties :
#
#
# Convention : Reuss Voigt Hill
#
# Bulk Modulus (GPa) = 28.53519 44.56372 36.54945
# Shear Modulus (GPa) = 14.13318 19.00166 16.56742
#
# Velocity S-wave (km/s) = 2.78340 3.22739 3.01358
# Velocity P-wave (km/s) = 5.09624 6.19001 5.66957
#
# Compressibility (1/GPa) = 0.03504445
#
# Stress axis : x y z
#
# Youngs Moduli (GPa) = 75.42792 23.50256 40.64643
#
# Poissons Ratio (x) = 0.24030 0.25934
# Poissons Ratio (y) = 0.77122 0.24701
# Poissons Ratio (z) = 0.48126 0.14283
#
# Static dielectric constant tensor:
#      x y z
#    x 3.491290 0.000000 -0.133940 
#    y 0.000000 2.879390 0.000000 
#    z -0.133940 0.000000 3.524250 
# 
# 
# High freq. dielectric constant tensor:
#      x y z
#    x 1.719020 0.000000 -0.004620 
#    y 0.000000 1.663570 0.000000 
#    z -0.004620 0.000000 1.700320 
# 
# From -- ./inp_files/79993.got.cif
#   From: 2010.06.25/outbox.cif.g09.slc.cpg/sg10_40_cif.got.tgz:79993.got - 2010.06.27 22:07:45.
