data_PCOD8058439
_publ_section_title
;
Structure prediction by ZEFSAII (Michael W. Deem and Ramdas Pophale) SiO2 
 PCOD8058439
Probable space group: P 2/M
;
_chemical_formula_sum "Si O2"
_cell_formula_units_Z 28
_cell_length_a 15.968815
_cell_length_b 8.570786
_cell_length_c 16.160618
_cell_angle_alpha 90.000000
_cell_angle_beta 50.849748
_cell_angle_gamma 90.000000
_cell_volume 1715.256876
_symmetry_space_group_name_H-M "P 2/M"
_symmetry_group_IT_number 10
_symmetry_cell_setting 'monoclinic'
loop_
_space_group_symop_operation_xyz
x,y,z
-x,y,-z
-x,-y,-z
x,-y,z
loop_
_atom_site_type_symbol
_atom_site_label
_atom_site_fract_x
_atom_site_fract_y
_atom_site_fract_z
Si Si1 0.614891 0.183893 0.839784
Si Si2 0.987324 0.316703 0.201830
Si Si3 0.034735 0.815381 0.609247
Si Si4 0.120115 0.671559 0.891251
Si Si5 0.389905 0.681545 0.979509
Si Si6 0.202586 0.180118 0.995648
Si Si7 0.164917 0.184381 0.372330
O O1 0.508972 0.272419 0.872819
O O2 0.716230 0.248148 0.723313
O O3 0.598688 0.000000 0.838553
O O4 0.637463 0.219649 0.921713
O O5 0.012005 0.500000 0.178700
O O6 0.943625 0.273502 0.319091
O O7 0.892365 0.268808 0.195841
O O8 0.097395 0.225113 0.114017
O O9 0.130850 0.766632 0.486363
O O10 0.922019 0.754640 0.640545
O O11 0.033328 0.000000 0.625854
O O12 0.174739 0.500000 0.860336
O O13 0.188196 0.788325 0.906373
O O14 0.000000 0.659010 0.000000
O O15 0.386942 0.500000 0.003649
O O16 0.303958 0.719577 0.962502
O O17 0.227901 0.000000 0.993944
O O18 0.162853 0.000000 0.366629
#
# Coordination Sequence:
#
# PCOD8058439 Si02
#       7
#     4   4   4   4   4   4   4
#     4  10  18  31  48  67  91 120 155 190 221 257
#     4  10  19  30  44  66  95 123 148 179 222 267
#     4   9  16  29  47  67  90 120 155 183 216 261
#     4   8  16  30  44  61  90 121 145 176 221 268
#     4  11  21  32  45  65  92 121 151 184 227 271
#     4  11  20  30  46  67  89 117 153 188 221 263
#     4   8  16  29  46  66  90 119 151 189 223 253
#
# _framework density 16.324085
#
# number of rings (size 3 to 8) (size 9 to 14) (size 15 to 20)
#    0.000    2.429    0.000    6.857    0.000    4.286 
#    0.000    3.571    0.000    0.000    0.000    1.000 
#    0.000    8.000    0.000    0.000    0.000    0.000 
#
# Total GULP energy -347109.217892 kJ/mol
# GULP energy per Si atom -12396.757782 kJ/mol
# Density = 1.628693 g / cm^3
# Si number density = 16.324085 Si / 1000 Ang^3
#
#
#
# Elastic Constant Matrix: (Units=GPa)
#
#
# Indices 1 2 3 4 5 6 
#
# 1 91.3740 16.8638 50.4313 0.0000 6.0466 0.0000
# 2 16.8638 49.2964 13.0597 0.0000 -0.1749 0.0000
# 3 50.4313 13.0597 102.4631 0.0000 3.6104 0.0000
# 4 0.0000 0.0000 0.0000 12.7206 0.0000 4.0984
# 5 6.0466 -0.1749 3.6104 0.0000 29.9948 0.0000
# 6 0.0000 0.0000 0.0000 4.0984 0.0000 24.3817
#
#
#
# Elastic Compliance Matrix: (Units=1/GPa)
#
#
# Indices 1 2 3 4 5 6 
#
# 1 0.015720 -0.003475 -0.007212 0.000000 -0.002321 0.000000
# 2 -0.003475 0.021769 -0.001098 0.000000 0.000960 0.000000
# 3 -0.007212 -0.001098 0.013455 0.000000 -0.000172 0.000000
# 4 0.000000 0.000000 0.000000 0.083114 0.000000 -0.013971
# 5 -0.002321 0.000960 -0.000172 0.000000 0.033833 0.000000
# 6 0.000000 0.000000 0.000000 -0.013971 0.000000 0.043363
#
#
# Mechanical properties :
#
#
# Convention : Reuss Voigt Hill
#
# Bulk Modulus (GPa) = 36.53253 44.87145 40.70199
# Shear Modulus (GPa) = 20.49611 24.27133 22.38372
#
# Velocity S-wave (km/s) = 3.54725 3.86014 3.70700
# Velocity P-wave (km/s) = 6.26143 6.88587 6.58106
#
# Compressibility (1/GPa) = 0.02737286
#
# Stress axis : x y z
#
# Youngs Moduli (GPa) = 63.61472 45.93789 74.31920
#
# Poissons Ratio (x) = 0.15964 0.53602
# Poissons Ratio (y) = 0.22106 0.08160
# Poissons Ratio (z) = 0.45881 0.05044
#
# Static dielectric constant tensor:
#      x y z
#    x 3.218830 0.000000 0.083000 
#    y 0.000000 2.964900 0.000000 
#    z 0.083000 0.000000 3.180920 
# 
# 
# High freq. dielectric constant tensor:
#      x y z
#    x 1.617060 0.000000 0.012750 
#    y 0.000000 1.625480 0.000000 
#    z 0.012750 0.000000 1.605020 
# 
# From -- ./inp_files/65915.got.cif
#   From: 2010.06.25/outbox.cif.g09.slc.cpg/sg10_33_cif.got.tgz:65915.got - 2010.06.27 22:07:45.
