data_PCOD8058721
_publ_section_title
;
Structure prediction by ZEFSAII (Michael W. Deem and Ramdas Pophale) SiO2 
 PCOD8058721
Probable space group: P 2/M
;
_chemical_formula_sum "Si O2"
_cell_formula_units_Z 30
_cell_length_a 19.937402
_cell_length_b 9.450575
_cell_length_c 9.156763
_cell_angle_alpha 90.000000
_cell_angle_beta 78.722621
_cell_angle_gamma 90.000000
_cell_volume 1692.003979
_symmetry_space_group_name_H-M "P 2/M"
_symmetry_group_IT_number 10
_symmetry_cell_setting 'monoclinic'
loop_
_space_group_symop_operation_xyz
x,y,z
-x,y,-z
-x,-y,-z
x,-y,z
loop_
_atom_site_type_symbol
_atom_site_label
_atom_site_fract_x
_atom_site_fract_y
_atom_site_fract_z
Si Si1 0.500000 0.735154 0.000000
Si Si2 0.931645 0.660624 0.122927
Si Si3 0.389538 0.161574 0.834719
Si Si4 0.284522 0.166230 0.112583
Si Si5 0.420712 0.157536 0.511588
Si Si6 0.999560 0.164326 0.668979
Si Si7 0.133258 0.836858 0.088943
Si Si8 0.381975 0.658094 0.256062
O O1 0.540412 0.827449 0.102208
O O2 0.442962 0.645303 0.110740
O O3 0.907914 0.500000 0.165472
O O4 0.944075 0.742352 0.269970
O O5 0.874417 0.741793 0.052803
O O6 0.000000 0.662817 0.000000
O O7 0.392228 0.231817 0.673012
O O8 0.378543 0.000000 0.802604
O O9 0.323848 0.219411 0.950272
O O10 0.204793 0.201335 0.133874
O O11 0.315847 0.254268 0.232175
O O12 0.298137 0.000000 0.133995
O O13 0.500000 0.136828 0.500000
O O14 0.407615 0.266626 0.389427
O O15 0.389614 0.000000 0.491258
O O16 0.924653 0.194741 0.766320
O O17 0.000000 0.210408 0.500000
O O18 0.019659 0.000000 0.678121
O O19 0.130838 0.000000 0.039614
O O20 0.357856 0.500000 0.303494
#
# Coordination Sequence:
#
# PCOD8058721 Si02
#       8
#     2   4   4   4   4   4   4   4
#     4  10  18  32  48  72  95 124 157 202 243 290
#     4   9  17  29  48  74 101 130 163 199 241 286
#     4   9  17  30  51  74  95 119 158 204 246 287
#     4   9  19  35  54  73  94 128 168 206 242 289
#     4  10  19  33  51  73  95 122 156 199 250 297
#     4   9  17  30  50  77 105 131 163 205 247 284
#     4   9  17  32  53  74  98 129 167 204 243 287
#     4  11  22  34  49  72 100 130 162 200 247 297
#
# _framework density 17.730454000000002
#
# number of rings (size 3 to 8) (size 9 to 14) (size 15 to 20)
#    0.000    2.533    1.333    1.200    0.000    3.733 
#    0.000    2.000    0.000    8.000    0.000    0.000 
#    0.000    0.000    0.000    0.000    0.000    0.000 
#
# Total GULP energy -371821.539442 kJ/mol
# GULP energy per Si atom -12394.051315 kJ/mol
# Density = 1.769010 g / cm^3
# Si number density = 17.730454 Si / 1000 Ang^3
#
#
#
# Elastic Constant Matrix: (Units=GPa)
#
#
# Indices 1 2 3 4 5 6 
#
# 1 92.9140 44.8939 38.9324 0.0000 14.6623 0.0000
# 2 44.8939 94.3617 53.9051 0.0000 19.5424 0.0000
# 3 38.9324 53.9051 114.2843 0.0000 23.3536 0.0000
# 4 0.0000 0.0000 0.0000 12.1767 0.0000 -2.3772
# 5 14.6623 19.5424 23.3536 0.0000 23.0130 0.0000
# 6 0.0000 0.0000 0.0000 -2.3772 0.0000 10.3581
#
#
#
# Elastic Compliance Matrix: (Units=1/GPa)
#
#
# Indices 1 2 3 4 5 6 
#
# 1 0.014544 -0.005239 -0.001891 0.000000 -0.002898 0.000000
# 2 -0.005239 0.017284 -0.005110 0.000000 -0.006153 0.000000
# 3 -0.001891 -0.005110 0.013464 0.000000 -0.008119 0.000000
# 4 0.000000 0.000000 0.000000 0.085976 0.000000 0.019731
# 5 -0.002898 -0.006153 -0.008119 0.000000 0.058765 0.000000
# 6 0.000000 0.000000 0.000000 0.019731 0.000000 0.101071
#
#
# Mechanical properties :
#
#
# Convention : Reuss Voigt Hill
#
# Bulk Modulus (GPa) = 48.05214 64.11366 56.08290
# Shear Modulus (GPa) = 15.50291 20.03146 17.76718
#
# Velocity S-wave (km/s) = 2.96018 3.36486 3.16899
# Velocity P-wave (km/s) = 6.23248 7.16485 6.71487
#
# Compressibility (1/GPa) = 0.02081073
#
# Stress axis : x y z
#
# Youngs Moduli (GPa) = 68.75829 57.85859 74.27372
#
# Poissons Ratio (x) = 0.30310 0.14047
# Poissons Ratio (y) = 0.36021 0.37955
# Poissons Ratio (z) = 0.13004 0.29567
#
# Static dielectric constant tensor:
#      x y z
#    x 3.074200 0.000000 -0.086980 
#    y 0.000000 3.197400 0.000000 
#    z -0.086980 0.000000 3.128610 
# 
# 
# High freq. dielectric constant tensor:
#      x y z
#    x 1.665880 0.000000 0.011720 
#    y 0.000000 1.672420 0.000000 
#    z 0.011720 0.000000 1.684980 
# 
# From -- ./inp_files/33866.got.cif
#   From: 2010.06.25/outbox.cif.g09.slc.cpg/sg10_17_cif.got.tgz:33866.got - 2010.06.27 22:07:45.
