data_PCOD8058785
_publ_section_title
;
Structure prediction by ZEFSAII (Michael W. Deem and Ramdas Pophale) SiO2 
 PCOD8058785
Probable space group: P 2/M
;
_chemical_formula_sum "Si O2"
_cell_formula_units_Z 28
_cell_length_a 11.811656
_cell_length_b 9.060164
_cell_length_c 15.865051
_cell_angle_alpha 90.000000
_cell_angle_beta 57.256665
_cell_angle_gamma 90.000000
_cell_volume 1428.028762
_symmetry_space_group_name_H-M "P 2/M"
_symmetry_group_IT_number 10
_symmetry_cell_setting 'monoclinic'
loop_
_space_group_symop_operation_xyz
x,y,z
-x,y,-z
-x,-y,-z
x,-y,z
loop_
_atom_site_type_symbol
_atom_site_label
_atom_site_fract_x
_atom_site_fract_y
_atom_site_fract_z
Si Si1 0.629785 0.330503 0.646448
Si Si2 0.369167 0.824325 0.822472
Si Si3 0.911777 0.330496 0.613162
Si Si4 0.652205 0.168461 0.467963
Si Si5 0.361915 0.824118 0.015252
Si Si6 0.178035 0.173720 0.755858
Si Si7 0.094361 0.825906 0.211223
O O1 0.584940 0.500000 0.656050
O O2 0.507839 0.234597 0.729836
O O3 0.753538 0.312594 0.660325
O O4 0.678435 0.271460 0.537007
O O5 0.243890 0.765727 0.816125
O O6 0.379112 0.000000 0.817720
O O7 0.348286 0.764695 0.925469
O O8 0.952037 0.500000 0.611625
O O9 0.947154 0.242162 0.683048
O O10 0.000000 0.266532 0.500000
O O11 0.500000 0.176788 0.500000
O O12 0.742838 0.236439 0.356837
O O13 0.692379 0.000000 0.474219
O O14 0.235884 0.762670 0.119744
O O15 0.360942 0.000000 0.016572
O O16 0.500000 0.762801 0.000000
O O17 0.020566 0.215246 0.811532
O O18 0.199756 0.000000 0.746899
O O19 0.102774 0.000000 0.220663
#
# Coordination Sequence:
#
# PCOD8058785 Si02
#       7
#     4   4   4   4   4   4   4
#     4  11  22  34  52  80 108 137 181 227 263 310
#     4  10  19  35  56  76 107 145 175 214 271 320
#     4  10  22  39  55  75 108 145 179 215 265 324
#     4  10  18  32  52  75 108 145 177 211 260 320
#     4   9  18  32  53  81 107 135 176 223 268 314
#     4   9  18  32  52  80 108 138 178 218 260 315
#     4  10  20  35  56  82 108 135 179 227 262 312
#
# _framework density 19.607448999999999
#
# number of rings (size 3 to 8) (size 9 to 14) (size 15 to 20)
#    0.000    2.143    1.429    2.143    0.000    3.429 
#    0.000    4.286    0.000    2.571    0.000    2.000 
#    0.000    0.000    0.000    0.000    0.000    0.000 
#
# Total GULP energy -347197.315400 kJ/mol
# GULP energy per Si atom -12399.904121 kJ/mol
# Density = 1.956282 g / cm^3
# Si number density = 19.607449 Si / 1000 Ang^3
#
#
#
# Elastic Constant Matrix: (Units=GPa)
#
#
# Indices 1 2 3 4 5 6 
#
# 1 129.7718 25.2542 73.8375 0.0000 2.1561 0.0000
# 2 25.2542 28.9105 18.5098 0.0000 7.3198 0.0000
# 3 73.8375 18.5098 143.0849 0.0000 7.3728 0.0000
# 4 0.0000 0.0000 0.0000 -0.1550 0.0000 -1.3587
# 5 2.1561 7.3198 7.3728 0.0000 38.9603 0.0000
# 6 0.0000 0.0000 0.0000 -1.3587 0.0000 15.6126
#
#
#
# Elastic Compliance Matrix: (Units=1/GPa)
#
#
# Indices 1 2 3 4 5 6 
#
# 1 0.012258 -0.007690 -0.005423 0.000000 0.001793 0.000000
# 2 -0.007690 0.044092 -0.001344 0.000000 -0.007604 0.000000
# 3 -0.005423 -0.001344 0.010031 0.000000 -0.001346 0.000000
# 4 0.000000 0.000000 0.000000 -3.659773 0.000000 -0.318505
# 5 0.001793 -0.007604 -0.001346 0.000000 0.027251 0.000000
# 6 0.000000 0.000000 0.000000 -0.318505 0.000000 0.036332
#
#
# Mechanical properties :
#
#
# Convention : Reuss Voigt Hill
#
# Bulk Modulus (GPa) = 26.68977 59.66335 43.17656
# Shear Modulus (GPa) = -1.43332 23.16128 10.86398
#
# Velocity S-wave (km/s) = -0.85592 3.44066 2.35643
# Velocity P-wave (km/s) = 3.55877 6.80288 5.42881
#
# Compressibility (1/GPa) = 0.03746754
#
# Stress axis : x y z
#
# Youngs Moduli (GPa) = 81.57760 22.67968 99.69364
#
# Poissons Ratio (x) = 0.17440 0.54068
# Poissons Ratio (y) = 0.62730 0.13398
# Poissons Ratio (z) = 0.44243 0.03048
#
# Static dielectric constant tensor:
#      x y z
#    x 3.819990 0.000000 0.063820 
#    y 0.000000 3.174120 0.000000 
#    z 0.063820 0.000000 3.723050 
# 
# 
# High freq. dielectric constant tensor:
#      x y z
#    x 1.779790 0.000000 0.000650 
#    y 0.000000 1.718810 0.000000 
#    z 0.000650 0.000000 1.767330 
# 
# From -- ./inp_files/49124.got.cif
#   From: 2010.06.25/outbox.cif.g09.slc.cpg/sg10_25_cif.got.tgz:49124.got - 2010.06.27 22:07:45.
