data_PCOD8058649
_publ_section_title
;
Structure prediction by ZEFSAII (Michael W. Deem and Ramdas Pophale) SiO2 
 PCOD8058649
Probable space group: P 2/M
;
_chemical_formula_sum "Si O2"
_cell_formula_units_Z 28
_cell_length_a 10.172458
_cell_length_b 8.917623
_cell_length_c 30.250636
_cell_angle_alpha 90.000000
_cell_angle_beta 146.707397
_cell_angle_gamma 90.000000
_cell_volume 1506.310662
_symmetry_space_group_name_H-M "P 2/M"
_symmetry_group_IT_number 10
_symmetry_cell_setting 'monoclinic'
loop_
_space_group_symop_operation_xyz
x,y,z
-x,y,-z
-x,-y,-z
x,-y,z
loop_
_atom_site_type_symbol
_atom_site_label
_atom_site_fract_x
_atom_site_fract_y
_atom_site_fract_z
Si Si1 0.934181 0.169789 0.672024
Si Si2 0.437302 0.176430 0.677849
Si Si3 0.987268 0.675469 0.596250
Si Si4 0.641006 0.334396 0.993942
Si Si5 0.071969 0.322533 0.170232
Si Si6 0.773378 0.828062 0.161615
Si Si7 0.574112 0.172975 0.427294
O O1 0.692870 0.200491 0.631106
O O2 0.956477 0.287582 0.639053
O O3 0.156567 0.193817 0.767612
O O4 0.933540 0.000000 0.652915
O O5 0.207401 0.232176 0.639131
O O6 0.669193 0.251929 0.764717
O O7 0.411414 0.222068 0.619508
O O8 0.463586 0.000000 0.690719
O O9 0.034055 0.500000 0.603433
O O10 0.747350 0.720697 0.503465
O O11 0.649823 0.500000 0.974843
O O12 0.502850 0.224395 0.921543
O O13 0.500000 0.341669 0.000000
O O14 0.908501 0.277798 0.081590
O O15 0.093166 0.500000 0.180120
O O16 0.955421 0.265091 0.182778
O O17 0.796682 0.000000 0.153547
O O18 0.652640 0.000000 0.455373
#
# Coordination Sequence:
#
# PCOD8058649 Si02
#       7
#     4   4   4   4   4   4   4
#     4  10  21  39  59  81 111 148 188 229 275 328
#     4  11  22  39  61  83 109 147 189 228 276 330
#     4  12  26  39  54  83 114 146 186 228 281 333
#     4   8  16  29  46  75 113 148 176 216 277 328
#     4  10  19  32  52  80 115 147 179 224 277 328
#     4  10  18  31  53  82 110 143 188 229 269 321
#     4  10  21  40  62  82 107 143 187 232 279 329
#
# _framework density 18.588463999999998
#
# number of rings (size 3 to 8) (size 9 to 14) (size 15 to 20)
#    0.000    1.857    1.429    4.286    0.000    9.429 
#    0.000    0.000    0.000    0.857    0.000    6.000 
#    0.000    0.000    0.000    0.000    0.000    0.000 
#
# Total GULP energy -347238.056809 kJ/mol
# GULP energy per Si atom -12401.359172 kJ/mol
# Density = 1.854616 g / cm^3
# Si number density = 18.588464 Si / 1000 Ang^3
#
#
#
# Elastic Constant Matrix: (Units=GPa)
#
#
# Indices 1 2 3 4 5 6 
#
# 1 78.1584 26.0636 36.7189 0.0000 -30.8794 0.0000
# 2 26.0636 82.9202 57.5392 0.0000 -10.2965 0.0000
# 3 36.7189 57.5392 141.4496 0.0000 -11.9897 0.0000
# 4 0.0000 0.0000 0.0000 -266.0495 0.0000 115.5220
# 5 -30.8794 -10.2965 -11.9897 0.0000 36.1444 0.0000
# 6 0.0000 0.0000 0.0000 115.5220 0.0000 -19.0279
#
#
#
# Elastic Compliance Matrix: (Units=1/GPa)
#
#
# Indices 1 2 3 4 5 6 
#
# 1 0.021796 -0.002542 -0.003197 0.000000 0.016836 0.000000
# 2 -0.002542 0.017339 -0.006337 0.000000 0.000666 0.000000
# 3 -0.003197 -0.006337 0.010385 0.000000 -0.001092 0.000000
# 4 0.000000 0.000000 0.000000 0.002297 0.000000 0.013947
# 5 0.016836 0.000666 -0.001092 0.000000 0.041878 0.000000
# 6 0.000000 0.000000 0.000000 0.013947 0.000000 0.032120
#
#
# Mechanical properties :
#
#
# Convention : Reuss Voigt Hill
#
# Bulk Modulus (GPa) = 39.41967 60.35240 49.88603
# Shear Modulus (GPa) = 31.56131 -37.63949 -3.03909
#
# Velocity S-wave (km/s) = 4.12503 -4.50475 -1.28003
# Velocity P-wave (km/s) = 6.62875 2.34117 4.97099
#
# Compressibility (1/GPa) = 0.02536805
#
# Stress axis : x y z
#
# Youngs Moduli (GPa) = 45.88006 57.67499 96.29563
#
# Poissons Ratio (x) = 0.14661 0.30785
# Poissons Ratio (y) = 0.11662 0.61020
# Poissons Ratio (z) = 0.14667 0.36547
#
# Static dielectric constant tensor:
#      x y z
#    x 3.109840 0.000000 0.074950 
#    y 0.000000 3.489550 0.000000 
#    z 0.074950 0.000000 3.993940 
# 
# 
# High freq. dielectric constant tensor:
#      x y z
#    x 1.686070 0.000000 0.006310 
#    y 0.000000 1.725600 0.000000 
#    z 0.006310 0.000000 1.740160 
# 
# From -- ./inp_files/37256.got.cif
#   From: 2010.06.25/outbox.cif.g09.slc.cpg/sg10_19_cif.got.tgz:37256.got - 2010.06.27 22:07:45.
