data_PCOD8058350
_publ_section_title
;
Structure prediction by ZEFSAII (Michael W. Deem and Ramdas Pophale) SiO2 
 PCOD8058350
Probable space group: P 2/M
;
_chemical_formula_sum "Si O2"
_cell_formula_units_Z 26
_cell_length_a 15.339738
_cell_length_b 10.039650
_cell_length_c 10.279618
_cell_angle_alpha 90.000000
_cell_angle_beta 124.395890
_cell_angle_gamma 90.000000
_cell_volume 1306.316801
_symmetry_space_group_name_H-M "P 2/M"
_symmetry_group_IT_number 10
_symmetry_cell_setting 'monoclinic'
loop_
_space_group_symop_operation_xyz
x,y,z
-x,y,-z
-x,-y,-z
x,-y,z
loop_
_atom_site_type_symbol
_atom_site_label
_atom_site_fract_x
_atom_site_fract_y
_atom_site_fract_z
Si Si1 0.554626 0.845721 0.411113
Si Si2 0.771362 0.154386 0.717311
Si Si3 0.968869 0.151826 0.743040
Si Si4 0.563062 0.652905 0.184895
Si Si5 0.000000 0.718251 0.500000
Si Si6 0.226494 0.354098 0.774174
Si Si7 0.794188 0.154038 0.015908
O O1 0.500000 0.803007 0.500000
O O2 0.678956 0.824184 0.536444
O O3 0.520679 0.751036 0.262965
O O4 0.526803 0.000000 0.354085
O O5 0.876220 0.226006 0.746747
O O6 0.794164 0.000000 0.763532
O O7 0.740961 0.206865 0.836913
O O8 0.969798 0.191368 0.594745
O O9 0.081182 0.176328 0.904179
O O10 0.935554 0.000000 0.714682
O O11 0.541758 0.500000 0.209307
O O12 0.688734 0.676781 0.268088
O O13 0.500000 0.687342 0.000000
O O14 0.106010 0.635280 0.620601
O O15 0.253085 0.500000 0.855625
O O16 0.245597 0.243104 0.899262
O O17 0.768690 0.000000 0.029325
#
# Coordination Sequence:
#
# PCOD8058350 Si02
#       7
#     4   4   4   4   2   4   4
#     4  10  22  38  58  86 115 144 182 232 286 333
#     4   9  17  31  51  75 110 144 174 219 274 327
#     4   9  16  27  47  77 108 138 177 219 262 320
#     4  10  23  42  61  82 111 150 193 233 273 328
#     4  10  18  30  52  76 105 142 175 218 277 332
#     4  10  21  36  54  78 109 142 180 225 276 324
#     4   9  18  31  52  80 106 140 180 220 267 326
#
# _framework density 19.903289000000001
#
# number of rings (size 3 to 8) (size 9 to 14) (size 15 to 20)
#    0.000    2.462    0.000    1.846    2.154    3.692 
#    0.000    0.769    0.000    8.308    0.000    0.000 
#    0.000    0.000    0.000    0.000    0.000    0.000 
#
# Total GULP energy -322185.468008 kJ/mol
# GULP energy per Si atom -12391.748770 kJ/mol
# Density = 1.985799 g / cm^3
# Si number density = 19.903289 Si / 1000 Ang^3
#
#
#
# Elastic Constant Matrix: (Units=GPa)
#
#
# Indices 1 2 3 4 5 6 
#
# 1 83.7382 33.8169 24.2433 0.0000 -13.8389 0.0000
# 2 33.8169 65.8944 48.6244 0.0000 -14.3858 0.0000
# 3 24.2433 48.6244 100.9385 0.0000 -23.6675 0.0000
# 4 0.0000 0.0000 0.0000 17.6127 0.0000 -1.1736
# 5 -13.8389 -14.3858 -23.6675 0.0000 25.8582 0.0000
# 6 0.0000 0.0000 0.0000 -1.1736 0.0000 21.5676
#
#
#
# Elastic Compliance Matrix: (Units=1/GPa)
#
#
# Indices 1 2 3 4 5 6 
#
# 1 0.015574 -0.007759 0.001196 0.000000 0.005113 0.000000
# 2 -0.007759 0.027657 -0.011237 0.000000 0.000949 0.000000
# 3 0.001196 -0.011237 0.017465 0.000000 0.010374 0.000000
# 4 0.000000 0.000000 0.000000 0.056984 0.000000 0.003101
# 5 0.005113 0.000949 0.010374 0.000000 0.051432 0.000000
# 6 0.000000 0.000000 0.000000 0.003101 0.000000 0.046534
#
#
# Mechanical properties :
#
#
# Convention : Reuss Voigt Hill
#
# Bulk Modulus (GPa) = 39.84593 51.54893 45.69743
# Shear Modulus (GPa) = 19.25957 22.60015 20.92986
#
# Velocity S-wave (km/s) = 3.11409 3.37337 3.24632
# Velocity P-wave (km/s) = 5.74398 6.41317 6.08778
#
# Compressibility (1/GPa) = 0.02509667
#
# Stress axis : x y z
#
# Youngs Moduli (GPa) = 64.20921 36.15782 57.25648
#
# Poissons Ratio (x) = 0.28054 -0.06847
# Poissons Ratio (y) = 0.49819 0.64338
# Poissons Ratio (z) = -0.07679 0.40630
#
# Static dielectric constant tensor:
#      x y z
#    x 3.722980 0.000000 0.070310 
#    y 0.000000 3.334360 0.000000 
#    z 0.070310 0.000000 3.654600 
# 
# 
# High freq. dielectric constant tensor:
#      x y z
#    x 1.789080 0.000000 0.003630 
#    y 0.000000 1.739250 0.000000 
#    z 0.003630 0.000000 1.777050 
# 
# From -- ./inp_files/28401.got.cif
#   From: 2010.06.25/outbox.cif.g09.slc.cpg/sg10_15_cif.got.tgz:28401.got - 2010.06.27 22:07:45.
