data_PCOD8058327
_publ_section_title
;
Structure prediction by ZEFSAII (Michael W. Deem and Ramdas Pophale) SiO2 
 PCOD8058327
Probable space group: P 2/M
;
_chemical_formula_sum "Si O2"
_cell_formula_units_Z 32
_cell_length_a 23.187112
_cell_length_b 9.193578
_cell_length_c 15.365989
_cell_angle_alpha 90.000000
_cell_angle_beta 148.723233
_cell_angle_gamma 90.000000
_cell_volume 1700.605192
_symmetry_space_group_name_H-M "P 2/M"
_symmetry_group_IT_number 10
_symmetry_cell_setting 'monoclinic'
loop_
_space_group_symop_operation_xyz
x,y,z
-x,y,-z
-x,-y,-z
x,-y,z
loop_
_atom_site_type_symbol
_atom_site_label
_atom_site_fract_x
_atom_site_fract_y
_atom_site_fract_z
Si Si1 0.874722 0.673340 0.336708
Si Si2 0.083290 0.333265 0.262123
Si Si3 0.266597 0.672981 0.367552
Si Si4 0.497414 0.328172 0.742606
Si Si5 0.262108 0.672217 0.004755
Si Si6 0.780048 0.333104 0.396736
Si Si7 0.565904 0.833119 0.173141
Si Si8 0.837234 0.673811 0.944210
O O1 0.877895 0.500000 0.339832
O O2 0.812586 0.726777 0.343806
O O3 0.000000 0.735460 0.500000
O O4 0.808593 0.735426 0.167822
O O5 0.074782 0.500000 0.222325
O O6 0.176438 0.261037 0.319451
O O7 0.113856 0.319782 0.403190
O O8 0.961767 0.262197 0.092653
O O9 0.265639 0.500000 0.371599
O O10 0.390014 0.728599 0.550741
O O11 0.237276 0.727262 0.232821
O O12 0.492171 0.500000 0.752032
O O13 0.608694 0.283263 0.834787
O O14 0.503179 0.251323 0.843089
O O15 0.249425 0.500000 0.987577
O O16 0.215199 0.737111 0.034477
O O17 0.738570 0.500000 0.338836
O O18 0.686391 0.235393 0.318592
O O19 0.579230 0.000000 0.217677
O O20 0.500000 0.813556 0.000000
O O21 0.840630 0.500000 0.953466
#
# Coordination Sequence:
#
# PCOD8058327 Si02
#       8
#     4   4   4   4   4   4   4   4
#     4   9  16  26  42  68 100 131 164 200 241 291
#     4   9  15  25  42  68 100 130 163 199 240 291
#     4   9  16  26  42  67  99 134 165 197 242 294
#     4  10  19  33  51  72 101 128 162 205 245 294
#     4   9  17  27  40  64  97 131 163 199 244 290
#     4  10  18  30  51  75  99 130 164 202 247 287
#     4  11  23  36  50  71  98 128 164 202 244 296
#     4   9  16  25  40  67 104 136 160 198 249 290
#
# _framework density 18.816831000000001
#
# number of rings (size 3 to 8) (size 9 to 14) (size 15 to 20)
#    0.000    2.500    1.250    2.250    0.000    7.000 
#    0.000    2.500    0.000    0.375    0.000    6.125 
#    0.000    0.000    0.000    0.000    0.000    0.000 
#
# Total GULP energy -396729.205832 kJ/mol
# GULP energy per Si atom -12397.787682 kJ/mol
# Density = 1.877400 g / cm^3
# Si number density = 18.816831 Si / 1000 Ang^3
#
#
#
# Elastic Constant Matrix: (Units=GPa)
#
#
# Indices 1 2 3 4 5 6 
#
# 1 151.3290 13.3650 77.6760 0.0000 -1.9540 0.0000
# 2 13.3650 20.5690 18.9416 0.0000 2.0164 0.0000
# 3 77.6760 18.9416 137.2521 0.0000 6.1516 0.0000
# 4 0.0000 0.0000 0.0000 5.1847 0.0000 -1.9661
# 5 -1.9540 2.0164 6.1516 0.0000 38.6760 0.0000
# 6 0.0000 0.0000 0.0000 -1.9661 0.0000 2.9240
#
#
#
# Elastic Compliance Matrix: (Units=1/GPa)
#
#
# Indices 1 2 3 4 5 6 
#
# 1 0.009420 -0.001477 -0.005189 0.000000 0.001378 0.000000
# 2 -0.001477 0.056037 -0.006812 0.000000 -0.001913 0.000000
# 3 -0.005189 -0.006812 0.011238 0.000000 -0.001695 0.000000
# 4 0.000000 0.000000 0.000000 0.258890 0.000000 0.174078
# 5 0.001378 -0.001913 -0.001695 0.000000 0.026295 0.000000
# 6 0.000000 0.000000 0.000000 0.174078 0.000000 0.459047
#
#
# Mechanical properties :
#
#
# Convention : Reuss Voigt Hill
#
# Bulk Modulus (GPa) = 20.10472 58.79058 39.44765
# Shear Modulus (GPa) = 5.78394 22.63475 14.20935
#
# Velocity S-wave (km/s) = 1.75513 3.47205 2.75096
# Velocity P-wave (km/s) = 3.84902 6.88367 5.57673
#
# Compressibility (1/GPa) = 0.04973956
#
# Stress axis : x y z
#
# Youngs Moduli (GPa) = 106.15912 17.84530 88.98023
#
# Poissons Ratio (x) = 0.02636 0.46171
# Poissons Ratio (y) = 0.15684 0.60610
# Poissons Ratio (z) = 0.55085 0.12156
#
# Static dielectric constant tensor:
#      x y z
#    x 3.678530 0.000000 -0.017950 
#    y 0.000000 2.731800 0.000000 
#    z -0.017950 0.000000 3.697420 
# 
# 
# High freq. dielectric constant tensor:
#      x y z
#    x 1.742950 0.000000 -0.000220 
#    y 0.000000 1.643490 0.000000 
#    z -0.000220 0.000000 1.747070 
# 
# From -- ./inp_files/71589.got.cif
#   From: 2010.06.25/outbox.cif.g09.slc.cpg/sg10_36_cif.got.tgz:71589.got - 2010.06.27 22:07:45.
