data_PCOD8058894
_publ_section_title
;
Structure prediction by ZEFSAII (Michael W. Deem and Ramdas Pophale) SiO2 
 PCOD8058894
Probable space group: P 2/M
;
_chemical_formula_sum "Si O2"
_cell_formula_units_Z 26
_cell_length_a 9.028608
_cell_length_b 15.007817
_cell_length_c 11.115424
_cell_angle_alpha 90.000000
_cell_angle_beta 61.867406
_cell_angle_gamma 90.000000
_cell_volume 1328.199763
_symmetry_space_group_name_H-M "P 2/M"
_symmetry_group_IT_number 10
_symmetry_cell_setting 'monoclinic'
loop_
_space_group_symop_operation_xyz
x,y,z
-x,y,-z
-x,-y,-z
x,-y,z
loop_
_atom_site_type_symbol
_atom_site_label
_atom_site_fract_x
_atom_site_fract_y
_atom_site_fract_z
Si Si1 0.175769 0.402843 0.250994
Si Si2 0.175316 0.395877 0.707272
Si Si3 0.625882 0.278441 0.194179
Si Si4 0.259083 0.288041 0.436361
Si Si5 0.733546 0.903999 0.511650
Si Si6 0.500000 0.653914 0.000000
Si Si7 0.345034 0.904803 0.724529
O O1 0.152318 0.500000 0.319000
O O2 0.158532 0.332796 0.365543
O O3 0.027152 0.385525 0.212083
O O4 0.355842 0.404508 0.116898
O O5 0.229345 0.500000 0.680303
O O6 0.246728 0.352910 0.802814
O O7 0.242388 0.342634 0.565800
O O8 0.456989 0.287704 0.335756
O O9 0.705962 0.179682 0.175101
O O10 0.591525 0.287037 0.065751
O O11 0.184322 0.186850 0.468419
O O12 0.540630 0.902719 0.621429
O O13 0.757450 0.898621 0.359688
O O14 0.811435 0.000000 0.527230
O O15 0.301106 0.000000 0.805242
#
# Coordination Sequence:
#
# PCOD8058894 Si02
#       7
#     4   4   4   4   4   2   4
#     4  10  22  38  55  74 102 142 178 216 262 309
#     4  11  22  34  52  79 106 136 174 216 266 316
#     4  10  20  34  53  80 107 139 176 215 256 305
#     4  10  18  32  54  81 113 138 168 210 261 314
#     4   8  13  23  46  78 109 138 167 203 251 308
#     4  10  23  40  57  72 100 136 181 224 261 304
#     4   8  13  25  47  76 107 136 169 208 252 304
#
# _framework density 19.575368999999998
#
# number of rings (size 3 to 8) (size 9 to 14) (size 15 to 20)
#    0.000    2.462    1.538    2.538    0.000    6.154 
#    0.000    1.923    0.000    3.692    0.000    1.077 
#    0.000    0.000    0.000    0.000    0.000    0.000 
#
# Total GULP energy -322114.050501 kJ/mol
# GULP energy per Si atom -12389.001942 kJ/mol
# Density = 1.953081 g / cm^3
# Si number density = 19.575369 Si / 1000 Ang^3
#
#
#
# Elastic Constant Matrix: (Units=GPa)
#
#
# Indices 1 2 3 4 5 6 
#
# 1 86.8127 63.2565 26.8153 0.0000 20.5858 0.0000
# 2 63.2565 207.0419 37.6294 0.0000 26.2410 0.0000
# 3 26.8153 37.6294 51.5822 0.0000 18.3610 0.0000
# 4 0.0000 0.0000 0.0000 6.8407 0.0000 9.3747
# 5 20.5858 26.2410 18.3610 0.0000 25.0682 0.0000
# 6 0.0000 0.0000 0.0000 9.3747 0.0000 18.5260
#
#
#
# Elastic Compliance Matrix: (Units=1/GPa)
#
#
# Indices 1 2 3 4 5 6 
#
# 1 0.017040 -0.003598 -0.003508 0.000000 -0.007658 0.000000
# 2 -0.003598 0.006618 -0.002088 0.000000 -0.002444 0.000000
# 3 -0.003508 -0.002088 0.028311 0.000000 -0.015670 0.000000
# 4 0.000000 0.000000 0.000000 0.476905 0.000000 -0.241329
# 5 -0.007658 -0.002444 -0.015670 0.000000 0.060216 0.000000
# 6 0.000000 0.000000 0.000000 -0.241329 0.000000 0.176098
#
#
# Mechanical properties :
#
#
# Convention : Reuss Voigt Hill
#
# Bulk Modulus (GPa) = 29.77754 66.75992 48.26873
# Shear Modulus (GPa) = 6.29113 24.60268 15.44690
#
# Velocity S-wave (km/s) = 1.79465 3.54901 2.81214
# Velocity P-wave (km/s) = 4.42031 7.13947 5.93764
#
# Compressibility (1/GPa) = 0.03358236
#
# Stress axis : x y z
#
# Youngs Moduli (GPa) = 58.68470 151.09215 35.32207
#
# Poissons Ratio (x) = 0.54365 0.12390
# Poissons Ratio (y) = 0.21116 0.07374
# Poissons Ratio (z) = 0.20586 0.31542
#
# Static dielectric constant tensor:
#      x y z
#    x 3.457900 0.000000 0.070000 
#    y 0.000000 4.294670 0.000000 
#    z 0.070000 0.000000 3.195260 
# 
# 
# High freq. dielectric constant tensor:
#      x y z
#    x 1.748030 0.000000 0.005980 
#    y 0.000000 1.783960 0.000000 
#    z 0.005980 0.000000 1.718830 
# 
# From -- ./inp_files/42611.got.cif
#   From: 2010.06.25/outbox.cif.g09.slc.cpg/sg10_22_cif.got.tgz:42611.got - 2010.06.27 22:07:45.
