data_PCOD8058198
_publ_section_title
;
Structure prediction by ZEFSAII (Michael W. Deem and Ramdas Pophale) SiO2 
 PCOD8058198
Probable space group: P 2/M
;
_chemical_formula_sum "Si O2"
_cell_formula_units_Z 24
_cell_length_a 5.264245
_cell_length_b 14.232560
_cell_length_c 20.035343
_cell_angle_alpha 90.000000
_cell_angle_beta 89.177495
_cell_angle_gamma 90.000000
_cell_volume 1500.967013
_symmetry_space_group_name_H-M "P 2/M"
_symmetry_group_IT_number 10
_symmetry_cell_setting 'monoclinic'
loop_
_space_group_symop_operation_xyz
x,y,z
-x,y,-z
-x,-y,-z
x,-y,z
loop_
_atom_site_type_symbol
_atom_site_label
_atom_site_fract_x
_atom_site_fract_y
_atom_site_fract_z
Si Si1 0.833853 0.700589 0.589715
Si Si2 0.662928 0.394046 0.428357
Si Si3 0.746505 0.102325 0.543476
Si Si4 0.996501 0.611979 0.924533
Si Si5 0.501403 0.611951 0.149741
Si Si6 0.406558 0.605279 0.297085
O O1 0.616935 0.645222 0.545436
O O2 0.775392 0.811559 0.594488
O O3 0.819040 0.664703 0.666374
O O4 0.105651 0.676860 0.555323
O O5 0.711303 0.500000 0.454873
O O6 0.645351 0.395274 0.347175
O O7 0.500000 0.121221 0.500000
O O8 0.000000 0.100862 0.500000
O O9 0.718225 0.000000 0.579810
O O10 0.000126 0.500000 0.924299
O O11 0.742657 0.649601 0.889652
O O12 0.243034 0.652065 0.885040
O O13 0.000000 0.650323 0.000000
O O14 0.510692 0.500000 0.148684
O O15 0.486011 0.649650 0.225891
O O16 0.301145 0.500000 0.286000
#
# Coordination Sequence:
#
# PCOD8058198 Si02
#       6
#     4   4   4   4   4   4
#     4  10  18  30  49  67  88 114 140 177 221 255
#     4   9  17  28  45  65  90 116 141 171 210 257
#     4  10  21  37  55  72  88 110 145 182 213 255
#     4   9  16  24  32  45  69 102 141 182 214 236
#     4   9  16  23  35  51  70 100 140 179 209 241
#     4   8  17  27  42  62  85 111 143 177 212 254
#
# _framework density 15.989692
#
# number of rings (size 3 to 8) (size 9 to 14) (size 15 to 20)
#    1.000    1.833    0.000    2.500    2.333    2.000 
#    0.000    0.000    0.000   17.000    0.000    0.000 
#    0.000    0.000    0.000    0.000    0.000    5.000 
#
# Total GULP energy -297367.397118 kJ/mol
# GULP energy per Si atom -12390.308213 kJ/mol
# Density = 1.595330 g / cm^3
# Si number density = 15.989692 Si / 1000 Ang^3
#
#
#
# Elastic Constant Matrix: (Units=GPa)
#
#
# Indices 1 2 3 4 5 6 
#
# 1 126.7341 26.8552 43.3497 0.0000 -13.8700 0.0000
# 2 26.8552 88.4572 18.0605 0.0000 -5.5122 0.0000
# 3 43.3497 18.0605 60.2686 0.0000 -8.1997 0.0000
# 4 0.0000 0.0000 0.0000 4.8125 0.0000 -1.1604
# 5 -13.8700 -5.5122 -8.1997 0.0000 24.0611 0.0000
# 6 0.0000 0.0000 0.0000 -1.1604 0.0000 15.4733
#
#
#
# Elastic Compliance Matrix: (Units=1/GPa)
#
#
# Indices 1 2 3 4 5 6 
#
# 1 0.011013 -0.001706 -0.006921 0.000000 0.003599 0.000000
# 2 -0.001706 0.012365 -0.002335 0.000000 0.001054 0.000000
# 3 -0.006921 -0.002335 0.022707 0.000000 0.003214 0.000000
# 4 0.000000 0.000000 0.000000 0.211618 0.000000 0.015870
# 5 0.003599 0.001054 0.003214 0.000000 0.044972 0.000000
# 6 0.000000 0.000000 0.000000 0.015870 0.000000 0.065818
#
#
# Mechanical properties :
#
#
# Convention : Reuss Voigt Hill
#
# Bulk Modulus (GPa) = 41.38678 50.22116 45.80397
# Shear Modulus (GPa) = 12.54798 21.34901 16.94849
#
# Velocity S-wave (km/s) = 2.80439 3.65797 3.25924
# Velocity P-wave (km/s) = 6.03537 7.02265 6.54765
#
# Compressibility (1/GPa) = 0.02416230
#
# Stress axis : x y z
#
# Youngs Moduli (GPa) = 90.80023 80.87157 44.03908
#
# Poissons Ratio (x) = 0.13799 0.30477
# Poissons Ratio (y) = 0.15493 0.10282
# Poissons Ratio (z) = 0.62838 0.18882
#
# Static dielectric constant tensor:
#      x y z
#    x 3.151510 0.000000 -0.046630 
#    y 0.000000 2.821800 0.000000 
#    z -0.046630 0.000000 3.096390 
# 
# 
# High freq. dielectric constant tensor:
#      x y z
#    x 1.633000 0.000000 -0.004940 
#    y 0.000000 1.548730 0.000000 
#    z -0.004940 0.000000 1.604570 
# 
# From -- ./inp_files/87375.got.cif
#   From: 2010.06.25/outbox.cif.g09.slc.cpg/sg10_44_cif.got.tgz:87375.got - 2010.06.27 22:07:45.
