data_PCOD8058941
_publ_section_title
;
Structure prediction by ZEFSAII (Michael W. Deem and Ramdas Pophale) SiO2 
 PCOD8058941
Probable space group: P 2/M
;
_chemical_formula_sum "Si O2"
_cell_formula_units_Z 32
_cell_length_a 20.053998
_cell_length_b 8.519074
_cell_length_c 25.694399
_cell_angle_alpha 90.000000
_cell_angle_beta 21.803589
_cell_angle_gamma 90.000000
_cell_volume 1630.437357
_symmetry_space_group_name_H-M "P 2/M"
_symmetry_group_IT_number 10
_symmetry_cell_setting 'monoclinic'
loop_
_space_group_symop_operation_xyz
x,y,z
-x,y,-z
-x,-y,-z
x,-y,z
loop_
_atom_site_type_symbol
_atom_site_label
_atom_site_fract_x
_atom_site_fract_y
_atom_site_fract_z
Si Si1 0.346946 0.322204 0.068560
Si Si2 0.530859 0.313753 0.420418
Si Si3 0.921980 0.312626 0.110461
Si Si4 0.532403 0.313627 0.131360
Si Si5 0.140274 0.315452 0.440435
Si Si6 0.982560 0.819387 0.363540
Si Si7 0.831019 0.685877 0.370306
Si Si8 0.104225 0.686570 0.083103
O O1 0.272274 0.500000 0.115605
O O2 0.189766 0.209328 0.200782
O O3 0.500000 0.317967 0.000000
O O4 0.425576 0.257776 0.957552
O O5 0.500000 0.242238 0.500000
O O6 0.538422 0.500000 0.419116
O O7 0.718445 0.249741 0.262060
O O8 0.368216 0.261285 0.501560
O O9 0.927104 0.500000 0.106818
O O10 0.037748 0.247802 0.075504
O O11 0.000000 0.245151 0.000000
O O12 0.523866 0.500000 0.139964
O O13 0.339884 0.241982 0.287718
O O14 0.692736 0.253270 0.053034
O O15 0.151597 0.500000 0.423197
O O16 0.073855 0.282682 0.546301
O O17 0.000000 0.243299 0.500000
O O18 0.862764 0.770596 0.401591
O O19 0.951152 0.000000 0.399690
O O20 0.846887 0.500000 0.366235
O O21 0.973048 0.745738 0.224202
O O22 0.096583 0.500000 0.087782
#
# Coordination Sequence:
#
# PCOD8058941 Si02
#       8
#     4   4   4   4   4   4   4   4
#     4  10  19  35  61  88 110 137 181 234 280 325
#     4   9  15  25  45  74 102 136 178 222 282 339
#     4   9  16  24  37  68 110 138 163 213 279 337
#     4   9  17  30  53  82 107 136 178 226 280 333
#     4  10  21  39  61  83 109 144 188 235 281 332
#     4  12  25  38  54  81 118 154 188 227 275 334
#     4  10  18  32  56  79 106 142 185 236 280 327
#     4   9  15  26  47  75 108 138 168 222 284 332
#
# _framework density 19.626635
#
# number of rings (size 3 to 8) (size 9 to 14) (size 15 to 20)
#    0.000    2.250    2.500    1.875    0.000    3.500 
#    0.000    4.375    0.000    0.375    0.000    0.000 
#    0.000    2.000    0.000    0.000    0.000    0.000 
#
# Total GULP energy -396755.237601 kJ/mol
# GULP energy per Si atom -12398.601175 kJ/mol
# Density = 1.958196 g / cm^3
# Si number density = 19.626635 Si / 1000 Ang^3
#
#
#
# Elastic Constant Matrix: (Units=GPa)
#
#
# Indices 1 2 3 4 5 6 
#
# 1 160.1555 5.0634 86.7429 0.0000 -5.4085 0.0000
# 2 5.0634 13.5649 8.1074 0.0000 -4.9585 0.0000
# 3 86.7429 8.1074 160.6798 0.0000 -13.4590 0.0000
# 4 0.0000 0.0000 0.0000 5.1963 0.0000 0.2776
# 5 -5.4085 -4.9585 -13.4590 0.0000 40.3790 0.0000
# 6 0.0000 0.0000 0.0000 0.2776 0.0000 1.1196
#
#
#
# Elastic Compliance Matrix: (Units=1/GPa)
#
#
# Indices 1 2 3 4 5 6 
#
# 1 0.008836 -0.000619 -0.004779 0.000000 -0.000486 0.000000
# 2 -0.000619 0.078850 -0.002922 0.000000 0.008626 0.000000
# 3 -0.004779 -0.002922 0.009122 0.000000 0.002042 0.000000
# 4 0.000000 0.000000 0.000000 0.195028 0.000000 -0.048360
# 5 -0.000486 0.008626 0.002042 0.000000 0.026440 0.000000
# 6 0.000000 0.000000 0.000000 -0.048360 0.000000 0.905206
#
#
# Mechanical properties :
#
#
# Convention : Reuss Voigt Hill
#
# Bulk Modulus (GPa) = 12.47393 59.35864 35.91628
# Shear Modulus (GPa) = 3.94681 24.97140 14.45911
#
# Velocity S-wave (km/s) = 1.41962 3.57083 2.71718
# Velocity P-wave (km/s) = 3.00940 6.87828 5.30882
#
# Compressibility (1/GPa) = 0.08016718
#
# Stress axis : x y z
#
# Youngs Moduli (GPa) = 113.17722 12.68233 109.62341
#
# Poissons Ratio (x) = 0.00785 0.52393
# Poissons Ratio (y) = 0.07007 0.32030
# Poissons Ratio (z) = 0.54092 0.03706
#
# Static dielectric constant tensor:
#      x y z
#    x 3.780160 0.000000 -0.147300 
#    y 0.000000 2.891720 0.000000 
#    z -0.147300 0.000000 3.834890 
# 
# 
# High freq. dielectric constant tensor:
#      x y z
#    x 1.780720 0.000000 -0.008210 
#    y 0.000000 1.694870 0.000000 
#    z -0.008210 0.000000 1.774850 
# 
# From -- ./inp_files/93689.got.cif
#   From: 2010.06.25/outbox.cif.g09.slc.cpg/sg10_47_cif.got.tgz:93689.got - 2010.06.27 22:07:45.
