data_PCOD8058875
_publ_section_title
;
Structure prediction by ZEFSAII (Michael W. Deem and Ramdas Pophale) SiO2 
 PCOD8058875
Probable space group: P 2/M
;
_chemical_formula_sum "Si O2"
_cell_formula_units_Z 28
_cell_length_a 10.276804
_cell_length_b 7.823127
_cell_length_c 27.672140
_cell_angle_alpha 90.000000
_cell_angle_beta 41.285592
_cell_angle_gamma 90.000000
_cell_volume 1467.918318
_symmetry_space_group_name_H-M "P 2/M"
_symmetry_group_IT_number 10
_symmetry_cell_setting 'monoclinic'
loop_
_space_group_symop_operation_xyz
x,y,z
-x,y,-z
-x,-y,-z
x,-y,z
loop_
_atom_site_type_symbol
_atom_site_label
_atom_site_fract_x
_atom_site_fract_y
_atom_site_fract_z
Si Si1 0.823666 0.197393 0.085853
Si Si2 0.648499 0.695075 0.919471
Si Si3 0.780326 0.190408 0.682277
Si Si4 0.012609 0.500000 0.417906
Si Si5 0.940797 0.802325 0.157882
Si Si6 0.410074 0.305555 0.170038
Si Si7 0.476754 0.194143 0.683039
Si Si8 0.681079 0.500000 0.581028
O O1 0.890866 0.269771 0.118874
O O2 0.640599 0.304565 0.117773
O O3 0.759222 0.000000 0.108621
O O4 0.000000 0.224158 0.000000
O O5 0.580727 0.500000 0.932567
O O6 0.624799 0.780230 0.873041
O O7 0.874059 0.701444 0.873023
O O8 0.500000 0.783397 0.000000
O O9 0.714666 0.199943 0.756117
O O10 0.588680 0.225775 0.702525
O O11 0.949919 0.329052 0.623852
O O12 0.864818 0.000000 0.648753
O O13 0.786286 0.500000 0.499317
O O14 0.155061 0.500000 0.423707
O O15 0.754386 0.772849 0.244683
O O16 0.999730 0.000000 0.138169
O O17 0.333713 0.500000 0.192788
O O18 0.550358 0.328138 0.622193
O O19 0.514823 0.000000 0.654132
#
# Coordination Sequence:
#
# PCOD8058875 Si02
#       8
#     4   4   4   2   4   4   4   2
#     4  10  20  33  51  76 103 135 181 231 279 330
#     4  10  23  39  52  73 108 145 185 236 284 327
#     4  10  18  32  54  78 111 146 177 226 274 316
#     4   9  18  32  48  83 114 141 185 211 259 345
#     4  10  20  34  52  76 104 139 184 230 273 329
#     4  11  21  34  53  76 106 143 188 232 273 331
#     4   9  18  31  50  80 110 141 185 224 266 329
#     4   9  18  30  52  77 114 151 171 215 275 319
#
# _framework density 19.074631
#
# number of rings (size 3 to 8) (size 9 to 14) (size 15 to 20)
#    0.000    2.143    2.143    1.286    1.000    2.857 
#    0.000    2.857    0.000    0.000    0.000    2.000 
#    0.000    3.429    0.000    0.000    0.000    0.000 
#
# Total GULP energy -347211.446374 kJ/mol
# GULP energy per Si atom -12400.408799 kJ/mol
# Density = 1.903122 g / cm^3
# Si number density = 19.074631 Si / 1000 Ang^3
#
#
#
# Elastic Constant Matrix: (Units=GPa)
#
#
# Indices 1 2 3 4 5 6 
#
# 1 93.6370 19.3554 47.8342 0.0000 3.2128 0.0000
# 2 19.3554 89.9659 53.6355 0.0000 3.7051 0.0000
# 3 47.8342 53.6355 136.3775 0.0000 7.5546 0.0000
# 4 0.0000 0.0000 0.0000 10.3476 0.0000 -4.6143
# 5 3.2128 3.7051 7.5546 0.0000 19.7806 0.0000
# 6 0.0000 0.0000 0.0000 -4.6143 0.0000 16.5555
#
#
#
# Elastic Compliance Matrix: (Units=1/GPa)
#
#
# Indices 1 2 3 4 5 6 
#
# 1 0.013014 -0.000099 -0.004505 0.000000 -0.000375 0.000000
# 2 -0.000099 0.014526 -0.005648 0.000000 -0.000548 0.000000
# 3 -0.004505 -0.005648 0.011273 0.000000 -0.002516 0.000000
# 4 0.000000 0.000000 0.000000 0.110357 0.000000 0.030759
# 5 -0.000375 -0.000548 -0.002516 0.000000 0.051679 0.000000
# 6 0.000000 0.000000 0.000000 0.030759 0.000000 0.068976
#
#
# Mechanical properties :
#
#
# Convention : Reuss Voigt Hill
#
# Bulk Modulus (GPa) = 54.61407 62.40340 58.50873
# Shear Modulus (GPa) = 16.86723 22.61377 19.74050
#
# Velocity S-wave (km/s) = 2.97690 3.44691 3.22049
# Velocity P-wave (km/s) = 6.36474 6.97337 6.67600
#
# Compressibility (1/GPa) = 0.01831030
#
# Stress axis : x y z
#
# Youngs Moduli (GPa) = 76.83897 68.84037 88.70388
#
# Poissons Ratio (x) = 0.00679 0.39963
# Poissons Ratio (y) = 0.00758 0.50101
# Poissons Ratio (z) = 0.34617 0.38882
#
# Static dielectric constant tensor:
#      x y z
#    x 3.220770 0.000000 0.140250 
#    y 0.000000 3.492720 0.000000 
#    z 0.140250 0.000000 3.532500 
# 
# 
# High freq. dielectric constant tensor:
#      x y z
#    x 1.705860 0.000000 0.006630 
#    y 0.000000 1.742230 0.000000 
#    z 0.006630 0.000000 1.736390 
# 
# From -- ./inp_files/79333.got.cif
#   From: 2010.06.25/outbox.cif.g09.slc.cpg/sg10_40_cif.got.tgz:79333.got - 2010.06.27 22:07:45.
