data_PCOD8058874
_publ_section_title
;
Structure prediction by ZEFSAII (Michael W. Deem and Ramdas Pophale) SiO2 
 PCOD8058874
Probable space group: P 2/M
;
_chemical_formula_sum "Si O2"
_cell_formula_units_Z 28
_cell_length_a 10.299253
_cell_length_b 7.774138
_cell_length_c 27.829252
_cell_angle_alpha 90.000000
_cell_angle_beta 138.712816
_cell_angle_gamma 90.000000
_cell_volume 1470.259308
_symmetry_space_group_name_H-M "P 2/M"
_symmetry_group_IT_number 10
_symmetry_cell_setting 'monoclinic'
loop_
_space_group_symop_operation_xyz
x,y,z
-x,y,-z
-x,-y,-z
x,-y,z
loop_
_atom_site_type_symbol
_atom_site_label
_atom_site_fract_x
_atom_site_fract_y
_atom_site_fract_z
Si Si1 0.997127 0.000000 0.077289
Si Si2 0.076037 0.805296 0.665261
Si Si3 0.572812 0.296869 0.663000
Si Si4 0.160101 0.699385 0.585054
Si Si5 0.513763 0.308257 0.185601
Si Si6 0.653340 0.301321 0.580630
Si Si7 0.797230 0.697716 0.818670
Si Si8 0.680491 0.000000 0.915346
O O1 0.028722 0.173614 0.117087
O O2 0.147666 0.000000 0.075514
O O3 0.774888 0.000000 0.994894
O O4 0.092202 0.803854 0.612479
O O5 0.255588 0.704921 0.739653
O O6 0.875013 0.716101 0.624728
O O7 0.078342 0.000000 0.684361
O O8 0.552027 0.500000 0.653081
O O9 0.364350 0.221890 0.622498
O O10 0.628229 0.215952 0.626536
O O11 0.740447 0.251047 0.748515
O O12 0.182641 0.500000 0.605966
O O13 0.000000 0.726975 0.500000
O O14 0.468135 0.500000 0.153344
O O15 0.396019 0.274169 0.202276
O O16 0.450812 0.171176 0.127587
O O17 0.500000 0.215266 0.500000
O O18 0.597908 0.500000 0.569770
O O19 0.871605 0.500000 0.843078
#
# Coordination Sequence:
#
# PCOD8058874 Si02
#       8
#     2   4   4   4   4   4   4   2
#     4   9  18  30  50  77 116 147 171 215 275 333
#     4  12  23  35  52  77 112 148 187 231 277 332
#     4   9  17  32  53  77 104 137 184 236 277 328
#     4  10  19  33  55  79 101 135 186 235 282 333
#     4  10  18  32  54  78 109 146 183 226 272 323
#     4  10  21  38  57  76 104 145 190 239 289 329
#     4   9  17  30  51  79 108 142 184 226 271 327
#     4   9  18  32  48  81 114 143 179 215 267 337
#
# _framework density 19.044257999999999
#
# number of rings (size 3 to 8) (size 9 to 14) (size 15 to 20)
#    0.000    2.143    2.143    2.143    0.000    3.429 
#    1.286    2.857    0.000    0.000    0.000    2.000 
#    0.000    4.571    0.000    0.000    0.000    0.000 
#
# Total GULP energy -347178.883055 kJ/mol
# GULP energy per Si atom -12399.245823 kJ/mol
# Density = 1.900091 g / cm^3
# Si number density = 19.044258 Si / 1000 Ang^3
#
#
#
# Elastic Constant Matrix: (Units=GPa)
#
#
# Indices 1 2 3 4 5 6 
#
# 1 93.1404 12.1300 55.8118 0.0000 -7.3855 0.0000
# 2 12.1300 86.0762 54.4644 0.0000 -9.3502 0.0000
# 3 55.8118 54.4644 143.7932 0.0000 -11.7781 0.0000
# 4 0.0000 0.0000 0.0000 19.7632 0.0000 -1.6917
# 5 -7.3855 -9.3502 -11.7781 0.0000 21.9001 0.0000
# 6 0.0000 0.0000 0.0000 -1.6917 0.0000 3.2100
#
#
#
# Elastic Compliance Matrix: (Units=1/GPa)
#
#
# Indices 1 2 3 4 5 6 
#
# 1 0.014358 0.002158 -0.006191 0.000000 0.002434 0.000000
# 2 0.002158 0.015875 -0.006523 0.000000 0.003997 0.000000
# 3 -0.006191 -0.006523 0.011956 0.000000 0.001557 0.000000
# 4 0.000000 0.000000 0.000000 0.052990 0.000000 0.027925
# 5 0.002434 0.003997 0.001557 0.000000 0.049027 0.000000
# 6 0.000000 0.000000 0.000000 0.027925 0.000000 0.326240
#
#
# Mechanical properties :
#
#
# Convention : Reuss Voigt Hill
#
# Bulk Modulus (GPa) = 47.44470 63.09134 55.26802
# Shear Modulus (GPa) = 10.02839 22.34823 16.18831
#
# Velocity S-wave (km/s) = 2.29723 3.42934 2.91870
# Velocity P-wave (km/s) = 5.65715 6.99151 6.35942
#
# Compressibility (1/GPa) = 0.02107717
#
# Stress axis : x y z
#
# Youngs Moduli (GPa) = 69.64620 62.99070 83.64080
#
# Poissons Ratio (x) = -0.13596 0.51784
# Poissons Ratio (y) = -0.15033 0.54563
# Poissons Ratio (z) = 0.43119 0.41092
#
# Static dielectric constant tensor:
#      x y z
#    x 3.316470 0.000000 -0.152710 
#    y 0.000000 3.450290 0.000000 
#    z -0.152710 0.000000 3.566440 
# 
# 
# High freq. dielectric constant tensor:
#      x y z
#    x 1.705470 0.000000 -0.005940 
#    y 0.000000 1.735610 0.000000 
#    z -0.005940 0.000000 1.736970 
# 
# From -- ./inp_files/92120.got.cif
#   From: 2010.06.25/outbox.cif.g09.slc.cpg/sg10_47_cif.got.tgz:92120.got - 2010.06.27 22:07:45.
