data_PCOD8058254
_publ_section_title
;
Structure prediction by ZEFSAII (Michael W. Deem and Ramdas Pophale) SiO2 
 PCOD8058254
Probable space group: P 2/M
;
_chemical_formula_sum "Si O2"
_cell_formula_units_Z 32
_cell_length_a 11.713487
_cell_length_b 8.923959
_cell_length_c 18.665469
_cell_angle_alpha 90.000000
_cell_angle_beta 114.890833
_cell_angle_gamma 90.000000
_cell_volume 1769.877799
_symmetry_space_group_name_H-M "P 2/M"
_symmetry_group_IT_number 10
_symmetry_cell_setting 'monoclinic'
loop_
_space_group_symop_operation_xyz
x,y,z
-x,y,-z
-x,-y,-z
x,-y,z
loop_
_atom_site_type_symbol
_atom_site_label
_atom_site_fract_x
_atom_site_fract_y
_atom_site_fract_z
Si Si1 0.055523 0.177595 0.746510
Si Si2 0.296707 0.821617 0.722497
Si Si3 0.197952 0.178609 0.393290
Si Si4 0.445700 0.676885 0.201432
Si Si5 0.692500 0.171908 0.433711
Si Si6 0.590705 0.827039 0.659610
Si Si7 0.968499 0.322603 0.106402
Si Si8 0.191831 0.676858 0.067244
O O1 0.181438 0.233642 0.740383
O O2 0.052475 0.242362 0.824517
O O3 0.937221 0.236772 0.668995
O O4 0.051741 0.000000 0.750548
O O5 0.425383 0.755657 0.789232
O O6 0.277449 0.757114 0.636438
O O7 0.310086 0.000000 0.724433
O O8 0.227048 0.246231 0.480308
O O9 0.304399 0.235451 0.366639
O O10 0.203964 0.000000 0.398350
O O11 0.465435 0.500000 0.204584
O O12 0.402735 0.725250 0.268733
O O13 0.334951 0.729822 0.118033
O O14 0.545218 0.189259 0.413664
O O15 0.732441 0.000000 0.439508
O O16 0.614818 0.000000 0.687704
O O17 0.968572 0.500000 0.118984
O O18 0.098887 0.264150 0.105545
O O19 0.855066 0.271489 0.023490
O O20 0.181287 0.500000 0.068345
#
# Coordination Sequence:
#
# PCOD8058254 Si02
#       8
#     4   4   4   4   4   4   4   4
#     4  10  20  32  46  69  98 123 154 196 234 268
#     4   9  19  34  48  64  92 127 160 195 231 266
#     4   9  16  26  45  71  95 121 155 193 229 271
#     4  10  18  30  50  72  92 118 156 194 227 271
#     4   8  14  26  45  67  90 122 160 191 223 267
#     4   9  16  27  45  71 100 123 146 184 235 283
#     4   9  17  33  54  72  95 124 149 180 228 281
#     4   8  16  31  52  76  96 117 150 188 224 272
#
# _framework density 18.080345000000001
#
# number of rings (size 3 to 8) (size 9 to 14) (size 15 to 20)
#    0.000    3.000    0.000    3.000    0.000    2.500 
#    0.000    6.250    0.000   12.750    0.000    4.375 
#    0.000    0.000    0.000    0.000    0.000    0.000 
#
# Total GULP energy -396625.433702 kJ/mol
# GULP energy per Si atom -12394.544803 kJ/mol
# Density = 1.803919 g / cm^3
# Si number density = 18.080345 Si / 1000 Ang^3
#
#
#
# Elastic Constant Matrix: (Units=GPa)
#
#
# Indices 1 2 3 4 5 6 
#
# 1 139.9350 23.3177 84.2861 0.0000 10.8695 0.0000
# 2 23.3177 18.7532 23.1424 0.0000 3.4560 0.0000
# 3 84.2861 23.1424 141.7147 0.0000 19.1113 0.0000
# 4 0.0000 0.0000 0.0000 2.5185 0.0000 5.7502
# 5 10.8695 3.4560 19.1113 0.0000 20.2914 0.0000
# 6 0.0000 0.0000 0.0000 5.7502 0.0000 18.4594
#
#
#
# Elastic Compliance Matrix: (Units=1/GPa)
#
#
# Indices 1 2 3 4 5 6 
#
# 1 0.011950 -0.007635 -0.005925 0.000000 0.000480 0.000000
# 2 -0.007635 0.071689 -0.006954 0.000000 -0.001570 0.000000
# 3 -0.005925 -0.006954 0.012748 0.000000 -0.007648 0.000000
# 4 0.000000 0.000000 0.000000 1.375075 0.000000 -0.428346
# 5 0.000480 -0.001570 -0.007648 0.000000 0.056495 0.000000
# 6 0.000000 0.000000 0.000000 -0.428346 0.000000 0.187606
#
#
# Mechanical properties :
#
#
# Convention : Reuss Voigt Hill
#
# Bulk Modulus (GPa) = 18.06438 62.43281 40.24859
# Shear Modulus (GPa) = 2.81683 19.56429 11.19056
#
# Velocity S-wave (km/s) = 1.24953 3.29306 2.49054
# Velocity P-wave (km/s) = 3.47773 7.00462 5.52989
#
# Compressibility (1/GPa) = 0.05535757
#
# Stress axis : x y z
#
# Youngs Moduli (GPa) = 83.68124 13.94913 78.44627
#
# Poissons Ratio (x) = 0.10650 0.46482
# Poissons Ratio (y) = 0.63891 0.54553
# Poissons Ratio (z) = 0.49584 0.09701
#
# Static dielectric constant tensor:
#      x y z
#    x 3.454830 0.000000 0.186120 
#    y 0.000000 2.900610 0.000000 
#    z 0.186120 0.000000 3.658040 
# 
# 
# High freq. dielectric constant tensor:
#      x y z
#    x 1.697070 0.000000 0.007770 
#    y 0.000000 1.654870 0.000000 
#    z 0.007770 0.000000 1.707710 
# 
# From -- ./inp_files/83400.got.cif
#   From: 2010.06.25/outbox.cif.g09.slc.cpg/sg10_42_cif.got.tgz:83400.got - 2010.06.27 22:07:45.
