data_PCOD8058348
_publ_section_title
;
Structure prediction by ZEFSAII (Michael W. Deem and Ramdas Pophale) SiO2 
 PCOD8058348
Probable space group: P 2/M
;
_chemical_formula_sum "Si O2"
_cell_formula_units_Z 32
_cell_length_a 17.541285
_cell_length_b 8.888105
_cell_length_c 23.852919
_cell_angle_alpha 90.000000
_cell_angle_beta 149.331307
_cell_angle_gamma 90.000000
_cell_volume 1896.900095
_symmetry_space_group_name_H-M "P 2/M"
_symmetry_group_IT_number 10
_symmetry_cell_setting 'monoclinic'
loop_
_space_group_symop_operation_xyz
x,y,z
-x,y,-z
-x,-y,-z
x,-y,z
loop_
_atom_site_type_symbol
_atom_site_label
_atom_site_fract_x
_atom_site_fract_y
_atom_site_fract_z
Si Si1 0.776832 0.176919 0.092809
Si Si2 0.675358 0.176047 0.835735
Si Si3 0.390613 0.325526 0.695199
Si Si4 0.102186 0.321655 0.936701
Si Si5 0.053901 0.321985 0.475043
Si Si6 0.134777 0.666184 0.128611
Si Si7 0.469027 0.327559 0.871939
Si Si8 0.817880 0.324175 0.235871
O O1 0.889193 0.252694 0.119474
O O2 0.828158 0.229985 0.185971
O O3 0.793162 0.000000 0.098217
O O4 0.606737 0.220914 0.972738
O O5 0.502985 0.224383 0.729966
O O6 0.739171 0.220791 0.814664
O O7 0.693489 0.000000 0.855780
O O8 0.761868 0.259504 0.940162
O O9 0.422201 0.500000 0.702326
O O10 0.224995 0.277502 0.571283
O O11 0.405376 0.292098 0.770419
O O12 0.122071 0.500000 0.947192
O O13 0.939831 0.277791 0.860194
O O14 0.034750 0.500000 0.467001
O O15 0.000000 0.250952 0.500000
O O16 0.949926 0.262003 0.359168
O O17 0.206167 0.500000 0.180857
O O18 0.000000 0.657208 0.000000
O O19 0.523508 0.500000 0.910803
O O20 0.340744 0.293719 0.835539
O O21 0.837672 0.500000 0.234844
#
# Coordination Sequence:
#
# PCOD8058348 Si02
#       8
#     4   4   4   4   4   4   4   4
#     4  12  24  34  47  71 104 138 171 205 247 301
#     4  11  20  29  45  73 106 135 163 197 242 299
#     4  10  18  30  52  76 100 131 167 209 252 294
#     4  10  19  33  51  70  96 131 169 206 247 293
#     4   9  16  31  55  79  95 119 168 221 258 289
#     4   8  16  30  48  69  95 129 164 200 243 293
#     4  10  19  32  52  73  97 133 170 207 252 297
#     4  10  20  35  54  74  97 129 173 216 254 296
#
# _framework density 16.869627999999999
#
# number of rings (size 3 to 8) (size 9 to 14) (size 15 to 20)
#    0.000    2.000    2.500    3.750    0.000    4.750 
#    0.000    0.625    0.000    0.750    0.000    0.875 
#    0.000    7.000    0.000    0.000    0.000    0.000 
#
# Total GULP energy -396796.225646 kJ/mol
# GULP energy per Si atom -12399.882051 kJ/mol
# Density = 1.683123 g / cm^3
# Si number density = 16.869628 Si / 1000 Ang^3
#
#
#
# Elastic Constant Matrix: (Units=GPa)
#
#
# Indices 1 2 3 4 5 6 
#
# 1 137.3796 57.9261 45.6611 0.0000 3.4961 0.0000
# 2 57.9261 87.9732 31.8553 0.0000 1.9668 0.0000
# 3 45.6611 31.8553 59.4266 0.0000 -8.0780 0.0000
# 4 0.0000 0.0000 0.0000 2.6678 0.0000 -1.9299
# 5 3.4961 1.9668 -8.0780 0.0000 15.7622 0.0000
# 6 0.0000 0.0000 0.0000 -1.9299 0.0000 12.0473
#
#
#
# Elastic Compliance Matrix: (Units=1/GPa)
#
#
# Indices 1 2 3 4 5 6 
#
# 1 0.012005 -0.005155 -0.007239 0.000000 -0.005730 0.000000
# 2 -0.005155 0.016878 -0.005608 0.000000 -0.003837 0.000000
# 3 -0.007239 -0.005608 0.027635 0.000000 0.016468 0.000000
# 4 0.000000 0.000000 0.000000 0.423976 0.000000 0.067917
# 5 -0.005730 -0.003837 0.016468 0.000000 0.073632 0.000000
# 6 0.000000 0.000000 0.000000 0.067917 0.000000 0.093886
#
#
# Mechanical properties :
#
#
# Convention : Reuss Voigt Hill
#
# Bulk Modulus (GPa) = 48.75094 61.74047 55.24571
# Shear Modulus (GPa) = 7.23742 16.05126 11.64434
#
# Velocity S-wave (km/s) = 2.07353 3.08797 2.63012
# Velocity P-wave (km/s) = 5.89017 7.02795 6.48406
#
# Compressibility (1/GPa) = 0.02051243
#
# Stress axis : x y z
#
# Youngs Moduli (GPa) = 83.30073 59.24943 36.18650
#
# Poissons Ratio (x) = 0.30543 0.26197
# Poissons Ratio (y) = 0.42941 0.20293
# Poissons Ratio (z) = 0.60305 0.33226
#
# Static dielectric constant tensor:
#      x y z
#    x 3.510180 0.000000 0.098880 
#    y 0.000000 2.992440 0.000000 
#    z 0.098880 0.000000 3.001770 
# 
# 
# High freq. dielectric constant tensor:
#      x y z
#    x 1.660190 0.000000 0.010630 
#    y 0.000000 1.636180 0.000000 
#    z 0.010630 0.000000 1.614510 
# 
# From -- ./inp_files/89964.got.cif
#   From: 2010.06.25/outbox.cif.g09.slc.cpg/sg10_45_cif.got.tgz:89964.got - 2010.06.27 22:07:45.
