data_PCOD8058171
_publ_section_title
;
Structure prediction by ZEFSAII (Michael W. Deem and Ramdas Pophale) SiO2 
 PCOD8058171
Probable space group: P 2/M
;
_chemical_formula_sum "Si O2"
_cell_formula_units_Z 28
_cell_length_a 19.712502
_cell_length_b 8.880759
_cell_length_c 16.857904
_cell_angle_alpha 90.000000
_cell_angle_beta 31.880094
_cell_angle_gamma 90.000000
_cell_volume 1558.645055
_symmetry_space_group_name_H-M "P 2/M"
_symmetry_group_IT_number 10
_symmetry_cell_setting 'monoclinic'
loop_
_space_group_symop_operation_xyz
x,y,z
-x,y,-z
-x,-y,-z
x,-y,z
loop_
_atom_site_type_symbol
_atom_site_label
_atom_site_fract_x
_atom_site_fract_y
_atom_site_fract_z
Si Si1 0.860919 0.177727 0.802129
Si Si2 0.506438 0.179399 0.583792
Si Si3 0.240329 0.178767 0.576799
Si Si4 0.742873 0.178134 0.079894
Si Si5 0.993579 0.820645 0.917905
Si Si6 0.847912 0.833517 0.643013
Si Si7 0.862481 0.677239 0.471065
O O1 0.798766 0.223201 0.778551
O O2 0.995505 0.258960 0.685171
O O3 0.891912 0.000000 0.773264
O O4 0.757988 0.222532 0.972108
O O5 0.500000 0.241477 0.500000
O O6 0.635370 0.235864 0.498624
O O7 0.386853 0.245437 0.753301
O O8 0.502870 0.000000 0.585492
O O9 0.236827 0.254796 0.493925
O O10 0.116931 0.236447 0.747609
O O11 0.241790 0.000000 0.564601
O O12 0.740051 0.000000 0.092475
O O13 0.865218 0.244224 0.005124
O O14 0.991755 0.000000 0.920712
O O15 0.000000 0.755290 0.000000
O O16 0.808362 0.720975 0.612069
O O17 0.000000 0.841585 0.500000
O O18 0.793003 0.000000 0.678165
O O19 0.866344 0.500000 0.459728
#
# Coordination Sequence:
#
# PCOD8058171 Si02
#       7
#     4   4   4   4   4   4   4
#     4   9  16  29  48  71  98 129 159 193 243 292
#     4   9  17  28  45  74 103 124 156 203 244 280
#     4  10  18  30  48  70  99 129 158 195 242 288
#     4   9  15  25  43  68  99 126 154 193 237 285
#     4   9  15  23  41  69  95 120 151 191 238 282
#     4   8  15  27  45  68  96 126 157 193 240 293
#     4  11  20  29  45  70  99 127 162 200 238 283
#
# _framework density 17.964321999999999
#
# number of rings (size 3 to 8) (size 9 to 14) (size 15 to 20)
#    0.000    2.714    1.429    3.000    0.000    6.000 
#    0.000    0.000    0.000    2.571    0.000    6.000 
#    0.000    0.000    0.000    0.000    0.000    0.000 
#
# Total GULP energy -347055.984230 kJ/mol
# GULP energy per Si atom -12394.856580 kJ/mol
# Density = 1.792343 g / cm^3
# Si number density = 17.964322 Si / 1000 Ang^3
#
#
#
# Elastic Constant Matrix: (Units=GPa)
#
#
# Indices 1 2 3 4 5 6 
#
# 1 156.4100 35.1878 80.8536 0.0000 19.9202 0.0000
# 2 35.1878 40.7850 18.2329 0.0000 3.4283 0.0000
# 3 80.8536 18.2329 127.5795 0.0000 12.3462 0.0000
# 4 0.0000 0.0000 0.0000 3.3221 0.0000 -0.9266
# 5 19.9202 3.4283 12.3462 0.0000 36.6342 0.0000
# 6 0.0000 0.0000 0.0000 -0.9266 0.0000 3.8248
#
#
#
# Elastic Compliance Matrix: (Units=1/GPa)
#
#
# Indices 1 2 3 4 5 6 
#
# 1 0.011484 -0.006952 -0.005937 0.000000 -0.003593 0.000000
# 2 -0.006952 0.030454 -0.000038 0.000000 0.000943 0.000000
# 3 -0.005937 -0.000038 0.011674 0.000000 -0.000703 0.000000
# 4 0.000000 0.000000 0.000000 0.322829 0.000000 0.078213
# 5 -0.003593 0.000943 -0.000703 0.000000 0.029399 0.000000
# 6 0.000000 0.000000 0.000000 0.078213 0.000000 0.280400
#
#
# Mechanical properties :
#
#
# Convention : Reuss Voigt Hill
#
# Bulk Modulus (GPa) = 36.02377 65.92479 50.97428
# Shear Modulus (GPa) = 6.93147 21.45624 14.19385
#
# Velocity S-wave (km/s) = 1.96643 3.45973 2.81395
# Velocity P-wave (km/s) = 5.02516 7.26202 6.24457
#
# Compressibility (1/GPa) = 0.02775945
#
# Stress axis : x y z
#
# Youngs Moduli (GPa) = 87.07813 32.83605 85.66007
#
# Poissons Ratio (x) = 0.22827 0.50854
# Poissons Ratio (y) = 0.60536 0.00324
# Poissons Ratio (z) = 0.51696 0.00124
#
# Static dielectric constant tensor:
#      x y z
#    x 3.634850 0.000000 0.359780 
#    y 0.000000 2.756940 0.000000 
#    z 0.359780 0.000000 3.461570 
# 
# 
# High freq. dielectric constant tensor:
#      x y z
#    x 1.703590 0.000000 0.027330 
#    y 0.000000 1.637560 0.000000 
#    z 0.027330 0.000000 1.678630 
# 
# From -- ./inp_files/79252.got.cif
#   From: 2010.06.25/outbox.cif.g09.slc.cpg/sg10_40_cif.got.tgz:79252.got - 2010.06.27 22:07:45.
