data_PCOD8058884
_publ_section_title
;
Structure prediction by ZEFSAII (Michael W. Deem and Ramdas Pophale) SiO2 
 PCOD8058884
Probable space group: P 2/M
;
_chemical_formula_sum "Si O2"
_cell_formula_units_Z 28
_cell_length_a 14.514204
_cell_length_b 8.758575
_cell_length_c 10.608926
_cell_angle_alpha 90.000000
_cell_angle_beta 99.399870
_cell_angle_gamma 90.000000
_cell_volume 1330.537490
_symmetry_space_group_name_H-M "P 2/M"
_symmetry_group_IT_number 10
_symmetry_cell_setting 'monoclinic'
loop_
_space_group_symop_operation_xyz
x,y,z
-x,y,-z
-x,-y,-z
x,-y,z
loop_
_atom_site_type_symbol
_atom_site_label
_atom_site_fract_x
_atom_site_fract_y
_atom_site_fract_z
Si Si1 0.062811 0.823533 0.891891
Si Si2 0.287774 0.680661 0.197562
Si Si3 0.394602 0.318638 0.464310
Si Si4 0.262970 0.678865 0.918132
Si Si5 0.280262 0.821711 0.667658
Si Si6 0.900207 0.329227 0.742725
Si Si7 0.896032 0.671465 0.462791
O O1 0.155205 0.723263 0.911374
O O2 0.994717 0.771691 0.762538
O O3 0.090727 0.000000 0.884662
O O4 0.000000 0.788648 0.000000
O O5 0.282230 0.500000 0.214492
O O6 0.356290 0.746616 0.321259
O O7 0.182012 0.745075 0.190655
O O8 0.318317 0.721684 0.060936
O O9 0.500000 0.258144 0.500000
O O10 0.390637 0.500000 0.466420
O O11 0.336941 0.260191 0.570748
O O12 0.269719 0.500000 0.891935
O O13 0.313160 0.766736 0.813832
O O14 0.170103 0.778783 0.636198
O O15 0.294926 0.000000 0.657474
O O16 0.926585 0.500000 0.793878
O O17 0.854023 0.334312 0.593829
O O18 0.899170 0.500000 0.404256
O O19 0.000000 0.739068 0.500000
#
# Coordination Sequence:
#
# PCOD8058884 Si02
#       7
#     4   4   4   4   4   4   4
#     4  11  22  33  48  79 124 164 207 252 300 360
#     4   9  18  35  61  91 116 148 199 252 297 354
#     4  10  21  43  74 100 121 151 198 255 313 374
#     4  11  22  38  60  83 119 167 212 252 298 353
#     4  12  25  40  60  90 129 163 201 253 310 371
#     4  10  18  32  54  79 113 154 206 253 289 349
#     4  10  20  35  57  84 117 160 207 252 300 357
#
# _framework density 21.044127
#
# number of rings (size 3 to 8) (size 9 to 14) (size 15 to 20)
#    0.000    1.571    2.857    3.000    0.000    2.857 
#    0.000    2.143    0.000    4.286    0.000    0.000 
#    0.000    0.000    0.000    0.000    0.000    0.000 
#
# Total GULP energy -347087.370009 kJ/mol
# GULP energy per Si atom -12395.977500 kJ/mol
# Density = 2.099623 g / cm^3
# Si number density = 21.044127 Si / 1000 Ang^3
#
#
#
# Elastic Constant Matrix: (Units=GPa)
#
#
# Indices 1 2 3 4 5 6 
#
# 1 78.3209 11.1214 46.3479 0.0000 7.5496 0.0000
# 2 11.1214 36.2660 14.7808 0.0000 1.6935 0.0000
# 3 46.3479 14.7808 141.4412 0.0000 -2.5618 0.0000
# 4 0.0000 0.0000 0.0000 10.8778 0.0000 -4.1191
# 5 7.5496 1.6935 -2.5618 0.0000 23.6552 0.0000
# 6 0.0000 0.0000 0.0000 -4.1191 0.0000 11.3090
#
#
#
# Elastic Compliance Matrix: (Units=1/GPa)
#
#
# Indices 1 2 3 4 5 6 
#
# 1 0.016877 -0.002726 -0.005350 0.000000 -0.005771 0.000000
# 2 -0.002726 0.029377 -0.002203 0.000000 -0.001472 0.000000
# 3 -0.005350 -0.002203 0.009105 0.000000 0.002851 0.000000
# 4 0.000000 0.000000 0.000000 0.106638 0.000000 0.038841
# 5 -0.005771 -0.001472 0.002851 0.000000 0.044530 0.000000
# 6 0.000000 0.000000 0.000000 0.038841 0.000000 0.102573
#
#
# Mechanical properties :
#
#
# Convention : Reuss Voigt Hill
#
# Bulk Modulus (GPa) = 28.73501 44.50317 36.61909
# Shear Modulus (GPa) = 14.65166 21.42027 18.03597
#
# Velocity S-wave (km/s) = 2.64149 3.19388 2.93073
# Velocity P-wave (km/s) = 4.79454 5.89869 5.37504
#
# Compressibility (1/GPa) = 0.03480076
#
# Stress axis : x y z
#
# Youngs Moduli (GPa) = 59.25122 34.04068 109.82839
#
# Poissons Ratio (x) = 0.09278 0.58759
# Poissons Ratio (y) = 0.16150 0.24200
# Poissons Ratio (z) = 0.31700 0.07501
#
# Static dielectric constant tensor:
#      x y z
#    x 3.620920 0.000000 -0.048100 
#    y 0.000000 3.431360 0.000000 
#    z -0.048100 0.000000 4.269650 
# 
# 
# High freq. dielectric constant tensor:
#      x y z
#    x 1.796940 0.000000 -0.014280 
#    y 0.000000 1.791310 0.000000 
#    z -0.014280 0.000000 1.846140 
# 
# From -- ./inp_files/49377.got.cif
#   From: 2010.06.25/outbox.cif.g09.slc.cpg/sg10_25_cif.got.tgz:49377.got - 2010.06.27 22:07:45.
