data_PCOD8058898
_publ_section_title
;
Structure prediction by ZEFSAII (Michael W. Deem and Ramdas Pophale) SiO2 
 PCOD8058898
Probable space group: P 2/M
;
_chemical_formula_sum "Si O2"
_cell_formula_units_Z 28
_cell_length_a 12.021049
_cell_length_b 8.540784
_cell_length_c 15.246364
_cell_angle_alpha 90.000000
_cell_angle_beta 60.330645
_cell_angle_gamma 90.000000
_cell_volume 1360.111093
_symmetry_space_group_name_H-M "P 2/M"
_symmetry_group_IT_number 10
_symmetry_cell_setting 'monoclinic'
loop_
_space_group_symop_operation_xyz
x,y,z
-x,y,-z
-x,-y,-z
x,-y,z
loop_
_atom_site_type_symbol
_atom_site_label
_atom_site_fract_x
_atom_site_fract_y
_atom_site_fract_z
Si Si1 0.882960 0.317150 0.483030
Si Si2 0.251280 0.321034 0.208829
Si Si3 0.634589 0.174570 0.993510
Si Si4 0.991684 0.816561 0.279809
Si Si5 0.640912 0.818420 0.669865
Si Si6 0.365511 0.186041 0.812323
Si Si7 0.084091 0.186095 0.883925
O O1 0.897039 0.500000 0.459168
O O2 0.877331 0.223327 0.392239
O O3 0.744144 0.286654 0.579750
O O4 0.000000 0.258287 0.500000
O O5 0.279728 0.500000 0.222090
O O6 0.339043 0.207825 0.233779
O O7 0.103660 0.281925 0.282659
O O8 0.273629 0.286412 0.097824
O O9 0.623130 0.251349 0.093383
O O10 0.696058 0.000000 0.974380
O O11 0.500000 0.167730 0.000000
O O12 0.969765 0.756616 0.188759
O O13 0.021716 0.000000 0.267340
O O14 0.493072 0.763842 0.707386
O O15 0.661425 0.000000 0.638321
O O16 0.230835 0.249600 0.827360
O O17 0.366462 0.000000 0.815618
O O18 0.085360 0.000000 0.888139
O O19 0.000000 0.250069 0.000000
#
# Coordination Sequence:
#
# PCOD8058898 Si02
#       7
#     4   4   4   4   4   4   4
#     4  11  23  39  59  86 120 157 191 242 303 355
#     4  12  23  34  51  81 121 157 189 236 296 352
#     4  10  18  32  54  82 112 149 193 238 288 346
#     4  11  22  37  62  89 113 152 202 245 289 347
#     4  11  21  36  59  86 115 151 194 241 291 352
#     4   9  18  34  57  86 119 150 190 248 300 341
#     4   9  18  35  61  91 120 151 193 245 295 341
#
# _framework density 20.586552000000001
#
# number of rings (size 3 to 8) (size 9 to 14) (size 15 to 20)
#    0.000    1.571    2.857    3.429    0.000    3.143 
#    0.000    0.714    0.000   15.429    0.000    0.000 
#    0.000    0.000    0.000    0.000    0.000    0.000 
#
# Total GULP energy -347025.239279 kJ/mol
# GULP energy per Si atom -12393.758546 kJ/mol
# Density = 2.053970 g / cm^3
# Si number density = 20.586552 Si / 1000 Ang^3
#
#
#
# Elastic Constant Matrix: (Units=GPa)
#
#
# Indices 1 2 3 4 5 6 
#
# 1 102.8230 13.7029 38.8337 0.0000 -16.2593 0.0000
# 2 13.7029 46.9043 17.0035 0.0000 0.3584 0.0000
# 3 38.8337 17.0035 120.2896 0.0000 -7.5894 0.0000
# 4 0.0000 0.0000 0.0000 5.1389 0.0000 -8.3637
# 5 -16.2593 0.3584 -7.5894 0.0000 37.0625 0.0000
# 6 0.0000 0.0000 0.0000 -8.3637 0.0000 7.2965
#
#
#
# Elastic Compliance Matrix: (Units=1/GPa)
#
#
# Indices 1 2 3 4 5 6 
#
# 1 0.011998 -0.002363 -0.003248 0.000000 0.004621 0.000000
# 2 -0.002363 0.022965 -0.002596 0.000000 -0.001790 0.000000
# 3 -0.003248 -0.002596 0.009767 0.000000 0.000600 0.000000
# 4 0.000000 0.000000 0.000000 -0.224808 0.000000 -0.257691
# 5 0.004621 -0.001790 0.000600 0.000000 0.029149 0.000000
# 6 0.000000 0.000000 0.000000 -0.257691 0.000000 -0.158332
#
#
# Mechanical properties :
#
#
# Convention : Reuss Voigt Hill
#
# Bulk Modulus (GPa) = 35.31645 45.45525 40.38585
# Shear Modulus (GPa) = -17.64236 23.26469 2.81116
#
# Velocity S-wave (km/s) = -2.93061 3.36533 1.16983
# Velocity P-wave (km/s) = 2.39606 6.10152 4.63517
#
# Compressibility (1/GPa) = 0.02831542
#
# Stress axis : x y z
#
# Youngs Moduli (GPa) = 83.34943 43.54398 102.38959
#
# Poissons Ratio (x) = 0.10290 0.33253
# Poissons Ratio (y) = 0.19696 0.26584
# Poissons Ratio (z) = 0.27069 0.11306
#
# Static dielectric constant tensor:
#      x y z
#    x 3.814920 0.000000 -0.133170 
#    y 0.000000 3.274870 0.000000 
#    z -0.133170 0.000000 4.000990 
# 
# 
# High freq. dielectric constant tensor:
#      x y z
#    x 1.790830 0.000000 -0.016370 
#    y 0.000000 1.767590 0.000000 
#    z -0.016370 0.000000 1.815610 
# 
# From -- ./inp_files/50082.got.cif
#   From: 2010.06.25/outbox.cif.g09.slc.cpg/sg10_26_cif.got.tgz:50082.got - 2010.06.27 22:07:45.
