data_PCOD8058982
_publ_section_title
;
Structure prediction by ZEFSAII (Michael W. Deem and Ramdas Pophale) SiO2 
 PCOD8058982
Probable space group: P 2/M
;
_chemical_formula_sum "Si O2"
_cell_formula_units_Z 32
_cell_length_a 22.374406
_cell_length_b 13.968058
_cell_length_c 15.620883
_cell_angle_alpha 90.000000
_cell_angle_beta 18.932208
_cell_angle_gamma 90.000000
_cell_volume 1583.944007
_symmetry_space_group_name_H-M "P 2/M"
_symmetry_group_IT_number 10
_symmetry_cell_setting 'monoclinic'
loop_
_space_group_symop_operation_xyz
x,y,z
-x,y,-z
-x,-y,-z
x,-y,z
loop_
_atom_site_type_symbol
_atom_site_label
_atom_site_fract_x
_atom_site_fract_y
_atom_site_fract_z
Si Si1 0.236689 0.611243 0.871067
Si Si2 0.569267 0.894009 0.310004
Si Si3 0.536214 0.692924 0.585778
Si Si4 0.182516 0.306479 0.308771
Si Si5 0.545654 0.390524 0.758866
Si Si6 0.177577 0.099863 0.316877
Si Si7 0.130654 0.303467 0.579981
Si Si8 0.999871 0.896369 0.740415
O O1 0.286173 0.500000 0.795281
O O2 0.343905 0.655412 0.807009
O O3 0.297312 0.665821 0.702875
O O4 0.019375 0.624055 0.178092
O O5 0.500000 0.884438 0.500000
O O6 0.473032 0.808274 0.387638
O O7 0.516958 0.000000 0.344360
O O8 0.786799 0.878222 0.009413
O O9 0.574681 0.644685 0.623668
O O10 0.277216 0.201007 0.162965
O O11 0.127832 0.315960 0.481645
O O12 0.000000 0.322337 0.500000
O O13 0.333685 0.383111 0.075837
O O14 0.606511 0.500000 0.682317
O O15 0.669466 0.329054 0.655549
O O16 0.000000 0.096466 0.500000
O O17 0.115344 0.098635 0.498209
O O18 0.293173 0.000000 0.142854
O O19 0.079718 0.195832 0.681987
O O20 0.022542 0.000000 0.758239
#
# Coordination Sequence:
#
# PCOD8058982 Si02
#       8
#     4   4   4   4   4   4   4   4
#     4  11  21  37  63  87 114 155 206 259 298 343
#     4  10  18  32  59  93 123 152 189 240 302 356
#     4  11  21  39  59  91 122 152 198 251 300 350
#     4  10  22  39  64  88 115 155 204 256 304 357
#     4  12  27  42  58  83 122 164 202 251 304 361
#     4   8  15  28  51  84 113 139 176 230 292 347
#     4  11  22  40  60  86 120 162 203 249 309 365
#     4   9  17  32  56  84 114 151 191 235 294 357
#
# _framework density 20.202735000000001
#
# number of rings (size 3 to 8) (size 9 to 14) (size 15 to 20)
#    0.000    1.750    2.500    3.000    3.500    2.250 
#    0.000    2.500    0.000    3.000    0.000    4.375 
#    0.000    0.000    0.000    0.000    0.000    0.000 
#
# Total GULP energy -396535.898061 kJ/mol
# GULP energy per Si atom -12391.746814 kJ/mol
# Density = 2.015675 g / cm^3
# Si number density = 20.202735 Si / 1000 Ang^3
#
#
#
# Elastic Constant Matrix: (Units=GPa)
#
#
# Indices 1 2 3 4 5 6 
#
# 1 78.4904 31.4723 36.1724 0.0000 -1.5421 0.0000
# 2 31.4723 157.8913 27.1301 0.0000 -0.2469 0.0000
# 3 36.1724 27.1301 64.0251 0.0000 -7.1106 0.0000
# 4 0.0000 0.0000 0.0000 29.2351 0.0000 -1.9610
# 5 -1.5421 -0.2469 -7.1106 0.0000 14.6060 0.0000
# 6 0.0000 0.0000 0.0000 -1.9610 0.0000 21.8185
#
#
#
# Elastic Compliance Matrix: (Units=1/GPa)
#
#
# Indices 1 2 3 4 5 6 
#
# 1 0.017879 -0.001918 -0.009601 0.000000 -0.002819 0.000000
# 2 -0.001918 0.007063 -0.002028 0.000000 -0.001070 0.000000
# 3 -0.009601 -0.002028 0.023031 0.000000 0.010164 0.000000
# 4 0.000000 0.000000 0.000000 0.034413 0.000000 0.003093
# 5 -0.002819 -0.001070 0.010164 0.000000 0.073097 0.000000
# 6 0.000000 0.000000 0.000000 0.003093 0.000000 0.046111
#
#
# Mechanical properties :
#
#
# Convention : Reuss Voigt Hill
#
# Bulk Modulus (GPa) = 47.89701 54.43961 51.16831
# Shear Modulus (GPa) = 21.21805 26.84073 24.02939
#
# Velocity S-wave (km/s) = 3.24428 3.64891 3.45253
# Velocity P-wave (km/s) = 6.14764 6.69013 6.42461
#
# Compressibility (1/GPa) = 0.02087813
#
# Stress axis : x y z
#
# Youngs Moduli (GPa) = 55.93136 141.59049 43.41889
#
# Poissons Ratio (x) = 0.27163 0.41688
# Poissons Ratio (y) = 0.10730 0.08804
# Poissons Ratio (z) = 0.53702 0.28711
#
# Static dielectric constant tensor:
#      x y z
#    x 3.426760 0.000000 0.216990 
#    y 0.000000 4.493860 0.000000 
#    z 0.216990 0.000000 3.704850 
# 
# 
# High freq. dielectric constant tensor:
#      x y z
#    x 1.754670 0.000000 0.019520 
#    y 0.000000 1.819170 0.000000 
#    z 0.019520 0.000000 1.773630 
# 
# From -- ./inp_files/70747.got.cif
#   From: 2010.06.25/outbox.cif.g09.slc.cpg/sg10_36_cif.got.tgz:70747.got - 2010.06.27 22:07:45.
