data_PCOD8058237
_publ_section_title
;
Structure prediction by ZEFSAII (Michael W. Deem and Ramdas Pophale) SiO2 
 PCOD8058237
Probable space group: P 2/M
;
_chemical_formula_sum "Si O2"
_cell_formula_units_Z 28
_cell_length_a 9.812447
_cell_length_b 13.666257
_cell_length_c 14.467178
_cell_angle_alpha 90.000000
_cell_angle_beta 53.397428
_cell_angle_gamma 90.000000
_cell_volume 1557.446261
_symmetry_space_group_name_H-M "P 2/M"
_symmetry_group_IT_number 10
_symmetry_cell_setting 'monoclinic'
loop_
_space_group_symop_operation_xyz
x,y,z
-x,y,-z
-x,-y,-z
x,-y,z
loop_
_atom_site_type_symbol
_atom_site_label
_atom_site_fract_x
_atom_site_fract_y
_atom_site_fract_z
Si Si1 0.779676 0.390386 0.006526
Si Si2 0.843085 0.610983 0.194882
Si Si3 0.616413 0.886021 0.567013
Si Si4 0.731453 0.799047 0.335649
Si Si5 0.673710 0.113060 0.746973
Si Si6 0.614346 0.800674 0.037733
Si Si7 0.094222 0.885797 0.181060
O O1 0.710968 0.500000 0.020011
O O2 0.799922 0.366907 0.106261
O O3 0.640762 0.315855 0.023828
O O4 0.953824 0.376113 0.878813
O O5 0.791079 0.500000 0.242837
O O6 0.740123 0.684060 0.304387
O O7 0.703450 0.815090 0.456597
O O8 0.419626 0.854089 0.657750
O O9 0.721166 0.871894 0.620020
O O10 0.625232 0.000000 0.532201
O O11 0.911189 0.842561 0.234816
O O12 0.491615 0.167456 0.829775
O O13 0.819840 0.154274 0.757304
O O14 0.643143 0.000000 0.782390
O O15 0.500000 0.836665 0.000000
O O16 0.793725 0.856351 0.953806
O O17 0.073020 0.000000 0.197661
#
# Coordination Sequence:
#
# PCOD8058237 Si02
#       7
#     4   4   4   4   4   4   4
#     4   9  17  31  49  73 100 126 158 199 245 296
#     4   9  18  32  52  73  96 125 160 202 249 295
#     4  10  21  35  50  72 102 135 165 202 246 284
#     4  11  19  33  53  74  97 127 165 210 247 283
#     4   9  19  34  49  69 104 140 166 195 238 291
#     4  10  18  30  49  74 103 130 161 199 247 292
#     4  10  19  31  50  75 100 131 167 202 240 292
#
# _framework density 17.978148000000001
#
# number of rings (size 3 to 8) (size 9 to 14) (size 15 to 20)
#    0.000    2.286    1.429    3.857    0.000    2.571 
#    0.000    3.571    0.000    4.286    0.000    1.000 
#    0.000    0.000    0.000    0.000    0.000    0.000 
#
# Total GULP energy -347004.385765 kJ/mol
# GULP energy per Si atom -12393.013777 kJ/mol
# Density = 1.793723 g / cm^3
# Si number density = 17.978148 Si / 1000 Ang^3
#
#
#
# Elastic Constant Matrix: (Units=GPa)
#
#
# Indices 1 2 3 4 5 6 
#
# 1 21.6726 11.2855 9.0401 0.0000 -5.0294 0.0000
# 2 11.2855 84.0817 33.3369 0.0000 0.1827 0.0000
# 3 9.0401 33.3369 64.9999 0.0000 -3.4604 0.0000
# 4 0.0000 0.0000 0.0000 36.4739 0.0000 -0.0386
# 5 -5.0294 0.1827 -3.4604 0.0000 27.6539 0.0000
# 6 0.0000 0.0000 0.0000 -0.0386 0.0000 22.0752
#
#
#
# Elastic Compliance Matrix: (Units=1/GPa)
#
#
# Indices 1 2 3 4 5 6 
#
# 1 0.052813 -0.005509 -0.004033 0.000000 0.009137 0.000000
# 2 -0.005509 0.015535 -0.007309 0.000000 -0.002019 0.000000
# 3 -0.004033 -0.007309 0.019789 0.000000 0.001791 0.000000
# 4 0.000000 0.000000 0.000000 0.027417 0.000000 0.000048
# 5 0.009137 -0.002019 0.001791 0.000000 0.038060 0.000000
# 6 0.000000 0.000000 0.000000 0.000048 0.000000 0.045300
#
#
# Mechanical properties :
#
#
# Convention : Reuss Voigt Hill
#
# Bulk Modulus (GPa) = 18.37066 30.89767 24.63417
# Shear Modulus (GPa) = 19.93929 25.04671 22.49300
#
# Velocity S-wave (km/s) = 3.33391 3.73658 3.54097
# Velocity P-wave (km/s) = 5.00604 5.98661 5.51815
#
# Compressibility (1/GPa) = 0.05443462
#
# Stress axis : x y z
#
# Youngs Moduli (GPa) = 18.93484 64.37153 50.53221
#
# Poissons Ratio (x) = 0.35464 0.20380
# Poissons Ratio (y) = 0.10432 0.36932
# Poissons Ratio (z) = 0.07637 0.47047
#
# Static dielectric constant tensor:
#      x y z
#    x 3.271800 0.000000 -0.050780 
#    y 0.000000 3.304060 0.000000 
#    z -0.050780 0.000000 3.296810 
# 
# 
# High freq. dielectric constant tensor:
#      x y z
#    x 1.686280 0.000000 -0.002250 
#    y 0.000000 1.689240 0.000000 
#    z -0.002250 0.000000 1.683390 
# 
# From -- ./inp_files/61764.got.cif
#   From: 2010.06.25/outbox.cif.g09.slc.cpg/sg10_31_cif.got.tgz:61764.got - 2010.06.27 22:07:45.
