data_PCOD8058671
_publ_section_title
;
Structure prediction by ZEFSAII (Michael W. Deem and Ramdas Pophale) SiO2 
 PCOD8058671
Probable space group: P 2/M
;
_chemical_formula_sum "Si O2"
_cell_formula_units_Z 32
_cell_length_a 11.947987
_cell_length_b 8.657629
_cell_length_c 21.463347
_cell_angle_alpha 90.000000
_cell_angle_beta 51.097746
_cell_angle_gamma 90.000000
_cell_volume 1727.796855
_symmetry_space_group_name_H-M "P 2/M"
_symmetry_group_IT_number 10
_symmetry_cell_setting 'monoclinic'
loop_
_space_group_symop_operation_xyz
x,y,z
-x,y,-z
-x,-y,-z
x,-y,z
loop_
_atom_site_type_symbol
_atom_site_label
_atom_site_fract_x
_atom_site_fract_y
_atom_site_fract_z
Si Si1 0.417473 0.323655 0.679504
Si Si2 0.787531 0.320043 0.063844
Si Si3 0.985084 0.180501 0.097790
Si Si4 0.054491 0.819998 0.633498
Si Si5 0.469887 0.177683 0.788955
Si Si6 0.268841 0.322016 0.466929
Si Si7 0.215771 0.180573 0.354685
Si Si8 0.893119 0.321947 0.254732
O O1 0.419930 0.500000 0.703732
O O2 0.411455 0.210080 0.740146
O O3 0.560110 0.290844 0.589162
O O4 0.278646 0.291905 0.685496
O O5 0.805249 0.500000 0.044638
O O6 0.619214 0.276723 0.129307
O O7 0.866610 0.275932 0.100621
O O8 0.856553 0.226894 0.982098
O O9 0.972742 0.221523 0.174515
O O10 0.959080 0.000000 0.096079
O O11 0.198272 0.779824 0.545494
O O12 0.045560 0.726534 0.700365
O O13 0.916853 0.769304 0.641426
O O14 0.052680 0.000000 0.649665
O O15 0.638225 0.221719 0.733798
O O16 0.443437 0.000000 0.813782
O O17 0.231605 0.500000 0.492302
O O18 0.206186 0.275616 0.421690
O O19 0.211444 0.000000 0.373552
O O20 0.928870 0.500000 0.229757
#
# Coordination Sequence:
#
# PCOD8058671 Si02
#       8
#     4   4   4   4   4   4   4   4
#     4   9  19  34  52  75 107 141 172 215 273 323
#     4  11  20  32  52  81 114 144 173 212 263 313
#     4  11  21  34  53  80 110 143 179 216 256 310
#     4  11  23  38  54  75 105 144 184 222 268 320
#     4  10  18  31  54  81 107 137 176 222 267 315
#     4  10  20  35  56  81 105 134 176 227 276 321
#     4   9  20  37  56  78 106 139 178 226 274 315
#     4  11  22  37  55  76 108 145 179 219 267 320
#
# _framework density 18.520696000000001
#
# number of rings (size 3 to 8) (size 9 to 14) (size 15 to 20)
#    0.000    1.750    1.250    4.875    0.000    4.500 
#    0.000    2.500    0.000    0.750    0.000    5.250 
#    0.000    0.000    0.000    0.000    0.000    0.000 
#
# Total GULP energy -396917.217066 kJ/mol
# GULP energy per Si atom -12403.663033 kJ/mol
# Density = 1.847854 g / cm^3
# Si number density = 18.520696 Si / 1000 Ang^3
#
#
#
# Elastic Constant Matrix: (Units=GPa)
#
#
# Indices 1 2 3 4 5 6 
#
# 1 42.1395 16.1539 30.1652 0.0000 8.1192 0.0000
# 2 16.1539 67.8331 24.2040 0.0000 -1.5083 0.0000
# 3 30.1652 24.2040 112.1203 0.0000 -4.4326 0.0000
# 4 0.0000 0.0000 0.0000 35.0026 0.0000 0.6203
# 5 8.1192 -1.5083 -4.4326 0.0000 19.3189 0.0000
# 6 0.0000 0.0000 0.0000 0.6203 0.0000 24.5116
#
#
#
# Elastic Compliance Matrix: (Units=1/GPa)
#
#
# Indices 1 2 3 4 5 6 
#
# 1 0.035810 -0.005670 -0.009106 0.000000 -0.017582 0.000000
# 2 -0.005670 0.016874 -0.001989 0.000000 0.003244 0.000000
# 3 -0.009106 -0.001989 0.012053 0.000000 0.006437 0.000000
# 4 0.000000 0.000000 0.000000 0.028582 0.000000 -0.000723
# 5 -0.017582 0.003244 0.006437 0.000000 0.060882 0.000000
# 6 0.000000 0.000000 0.000000 -0.000723 0.000000 0.040815
#
#
# Mechanical properties :
#
#
# Convention : Reuss Voigt Hill
#
# Bulk Modulus (GPa) = 32.04314 40.34882 36.19598
# Shear Modulus (GPa) = 20.92511 25.87126 23.39819
#
# Velocity S-wave (km/s) = 3.36493 3.74155 3.55822
# Velocity P-wave (km/s) = 5.69525 6.36385 6.03881
#
# Compressibility (1/GPa) = 0.03120793
#
# Stress axis : x y z
#
# Youngs Moduli (GPa) = 27.92527 59.26230 82.96942
#
# Poissons Ratio (x) = 0.33600 0.75548
# Poissons Ratio (y) = 0.15833 0.16503
# Poissons Ratio (z) = 0.25427 0.11788
#
# Static dielectric constant tensor:
#      x y z
#    x 3.204930 0.000000 -0.267550 
#    y 0.000000 3.454530 0.000000 
#    z -0.267550 0.000000 3.542330 
# 
# 
# High freq. dielectric constant tensor:
#      x y z
#    x 1.685900 0.000000 -0.019500 
#    y 0.000000 1.729440 0.000000 
#    z -0.019500 0.000000 1.724420 
# 
# From -- ./inp_files/83561.got.cif
#   From: 2010.06.25/outbox.cif.g09.slc.cpg/sg10_42_cif.got.tgz:83561.got - 2010.06.27 22:07:45.
