data_PCOD8058296
_publ_section_title
;
Structure prediction by ZEFSAII (Michael W. Deem and Ramdas Pophale) SiO2 
 PCOD8058296
Probable space group: P 2/M
;
_chemical_formula_sum "Si O2"
_cell_formula_units_Z 32
_cell_length_a 19.988327
_cell_length_b 9.158621
_cell_length_c 24.790526
_cell_angle_alpha 90.000000
_cell_angle_beta 22.825627
_cell_angle_gamma 90.000000
_cell_volume 1760.529318
_symmetry_space_group_name_H-M "P 2/M"
_symmetry_group_IT_number 10
_symmetry_cell_setting 'monoclinic'
loop_
_space_group_symop_operation_xyz
x,y,z
-x,y,-z
-x,-y,-z
x,-y,z
loop_
_atom_site_type_symbol
_atom_site_label
_atom_site_fract_x
_atom_site_fract_y
_atom_site_fract_z
Si Si1 0.332850 0.834953 0.161504
Si Si2 0.847690 0.827224 0.149934
Si Si3 0.145062 0.668670 0.214621
Si Si4 0.471664 0.330344 0.898004
Si Si5 0.668967 0.167716 0.094223
Si Si6 0.192642 0.327540 0.598353
Si Si7 0.934113 0.172373 0.204101
Si Si8 0.471276 0.168492 0.683165
O O1 0.174821 0.760986 0.246936
O O2 0.370344 0.747708 0.188666
O O3 0.281604 0.000000 0.214158
O O4 0.500000 0.828257 0.000000
O O5 0.862912 0.769897 0.199695
O O6 0.661897 0.783220 0.264450
O O7 0.871480 0.000000 0.131957
O O8 0.000000 0.758424 0.000000
O O9 0.144443 0.500000 0.231811
O O10 0.965667 0.719107 0.322132
O O11 0.293148 0.700826 0.061150
O O12 0.515661 0.500000 0.861580
O O13 0.455629 0.265458 0.850059
O O14 0.621978 0.193827 0.190908
O O15 0.643168 0.000000 0.096500
O O16 0.866063 0.215709 0.939156
O O17 0.198944 0.500000 0.601653
O O18 0.176029 0.253458 0.668819
O O19 0.364070 0.271830 0.442048
O O20 0.907079 0.000000 0.230596
O O21 0.526951 0.000000 0.634733
#
# Coordination Sequence:
#
# PCOD8058296 Si02
#       8
#     4   4   4   4   4   4   4   4
#     4   9  17  28  46  76 108 136 172 221 269 311
#     4   9  16  32  58  84 107 135 177 228 277 323
#     4   9  18  32  49  71 103 144 180 214 260 317
#     4  10  18  30  50  76 108 143 178 216 262 320
#     4  10  19  32  54  82 108 135 177 230 275 316
#     4  11  23  38  53  76 113 150 183 219 264 323
#     4  10  19  33  58  84 105 137 180 228 275 319
#     4  10  21  37  57  81 108 140 181 227 275 325
#
# _framework density 18.176351
#
# number of rings (size 3 to 8) (size 9 to 14) (size 15 to 20)
#    0.000    2.250    2.500    1.125    0.000    4.000 
#    0.000    3.125    0.000    1.500    0.000    5.250 
#    0.000    0.000    0.000    0.000    0.000    0.000 
#
# Total GULP energy -396869.401944 kJ/mol
# GULP energy per Si atom -12402.168811 kJ/mol
# Density = 1.813498 g / cm^3
# Si number density = 18.176351 Si / 1000 Ang^3
#
#
#
# Elastic Constant Matrix: (Units=GPa)
#
#
# Indices 1 2 3 4 5 6 
#
# 1 122.3224 51.9681 11.9027 0.0000 -20.3017 0.0000
# 2 51.9681 72.4169 20.6024 0.0000 -8.1308 0.0000
# 3 11.9027 20.6024 45.9924 0.0000 -5.9248 0.0000
# 4 0.0000 0.0000 0.0000 21.9167 0.0000 -5.2100
# 5 -20.3017 -8.1308 -5.9248 0.0000 21.5084 0.0000
# 6 0.0000 0.0000 0.0000 -5.2100 0.0000 16.5560
#
#
#
# Elastic Compliance Matrix: (Units=1/GPa)
#
#
# Indices 1 2 3 4 5 6 
#
# 1 0.013491 -0.009108 0.001851 0.000000 0.009801 0.000000
# 2 -0.009108 0.022345 -0.007954 0.000000 -0.002341 0.000000
# 3 0.001851 -0.007954 0.025572 0.000000 0.005784 0.000000
# 4 0.000000 0.000000 0.000000 0.049317 0.000000 0.015520
# 5 0.009801 -0.002341 0.005784 0.000000 0.056453 0.000000
# 6 0.000000 0.000000 0.000000 0.015520 0.000000 0.065285
#
#
# Mechanical properties :
#
#
# Convention : Reuss Voigt Hill
#
# Bulk Modulus (GPa) = 32.27218 45.51979 38.89598
# Shear Modulus (GPa) = 18.30079 22.41346 20.35712
#
# Velocity S-wave (km/s) = 3.17653 3.51538 3.35024
# Velocity P-wave (km/s) = 5.58993 6.44786 6.03416
#
# Compressibility (1/GPa) = 0.03098644
#
# Stress axis : x y z
#
# Youngs Moduli (GPa) = 74.12342 44.75307 39.10555
#
# Poissons Ratio (x) = 0.40759 -0.07238
# Poissons Ratio (y) = 0.67509 0.31104
# Poissons Ratio (z) = -0.13720 0.35596
#
# Static dielectric constant tensor:
#      x y z
#    x 3.521000 0.000000 -0.146220 
#    y 0.000000 3.218100 0.000000 
#    z -0.146220 0.000000 3.055830 
# 
# 
# High freq. dielectric constant tensor:
#      x y z
#    x 1.718680 0.000000 -0.011760 
#    y 0.000000 1.690820 0.000000 
#    z -0.011760 0.000000 1.673440 
# 
# From -- ./inp_files/93628.got.cif
#   From: 2010.06.25/outbox.cif.g09.slc.cpg/sg10_47_cif.got.tgz:93628.got - 2010.06.27 22:07:45.
