data_PCOD8058148
_publ_section_title
;
Structure prediction by ZEFSAII (Michael W. Deem and Ramdas Pophale) SiO2 
 PCOD8058148
Probable space group: P 2/M
;
_chemical_formula_sum "Si O2"
_cell_formula_units_Z 32
_cell_length_a 21.316399
_cell_length_b 9.204913
_cell_length_c 30.952338
_cell_angle_alpha 90.000000
_cell_angle_beta 160.586309
_cell_angle_gamma 90.000000
_cell_volume 2018.693457
_symmetry_space_group_name_H-M "P 2/M"
_symmetry_group_IT_number 10
_symmetry_cell_setting 'monoclinic'
loop_
_space_group_symop_operation_xyz
x,y,z
-x,y,-z
-x,-y,-z
x,-y,z
loop_
_atom_site_type_symbol
_atom_site_label
_atom_site_fract_x
_atom_site_fract_y
_atom_site_fract_z
Si Si1 0.078097 0.167461 0.729537
Si Si2 0.685977 0.330375 0.592992
Si Si3 0.959784 0.828719 0.136739
Si Si4 0.332401 0.171276 0.509342
Si Si5 0.936476 0.172363 0.024925
Si Si6 0.290278 0.827640 0.201832
Si Si7 0.622889 0.335731 0.122881
Si Si8 0.316205 0.832543 0.967631
O O1 0.176456 0.258949 0.755291
O O2 0.857901 0.207279 0.588104
O O3 0.112110 0.000000 0.740510
O O4 0.164598 0.206954 0.832308
O O5 0.500000 0.302663 0.500000
O O6 0.728189 0.500000 0.614096
O O7 0.657463 0.257667 0.528319
O O8 0.859145 0.257657 0.729991
O O9 0.007327 0.000000 0.169380
O O10 0.907015 0.772544 0.054541
O O11 0.778654 0.792727 0.048465
O O12 0.502876 0.227470 0.650395
O O13 0.344449 0.000000 0.506495
O O14 0.767410 0.228533 0.883701
O O15 0.938221 0.000000 0.025640
O O16 0.136661 0.230266 0.136663
O O17 0.287924 0.000000 0.200498
O O18 0.662206 0.500000 0.162196
O O19 0.508254 0.258971 0.087073
O O20 0.500000 0.323023 0.000000
O O21 0.374360 0.000000 0.002739
#
# Coordination Sequence:
#
# PCOD8058148 Si02
#       8
#     4   4   4   4   4   4   4   4
#     4   9  16  27  41  61  88 115 144 180 219 260
#     4  11  23  33  41  60  93 126 153 185 226 267
#     4  10  18  30  48  68  89 119 155 186 222 272
#     4  10  18  30  48  68  89 119 155 186 222 272
#     4   8  14  25  43  68  93 115 146 191 232 261
#     4   8  14  25  43  68  93 115 146 191 232 261
#     4   9  17  27  41  61  84 115 148 174 213 264
#     4   9  16  27  41  61  88 115 144 180 219 260
#
# _framework density 15.851837
#
# number of rings (size 3 to 8) (size 9 to 14) (size 15 to 20)
#    0.000    2.750    1.250    2.250    0.000    4.500 
#    0.000    0.000    0.000    0.750    0.000    4.375 
#    0.000    7.000    0.000    0.000    0.000    0.000 
#
# Total GULP energy -396690.696555 kJ/mol
# GULP energy per Si atom -12396.584267 kJ/mol
# Density = 1.581576 g / cm^3
# Si number density = 15.851837 Si / 1000 Ang^3
#
#
#
# Elastic Constant Matrix: (Units=GPa)
#
#
# Indices 1 2 3 4 5 6 
#
# 1 118.8731 49.5664 87.1285 0.0000 11.0210 0.0000
# 2 49.5664 59.7197 43.2421 0.0000 9.5867 0.0000
# 3 87.1285 43.2421 109.3436 0.0000 3.3309 0.0000
# 4 0.0000 0.0000 0.0000 8.5089 0.0000 7.1676
# 5 11.0210 9.5867 3.3309 0.0000 23.8235 0.0000
# 6 0.0000 0.0000 0.0000 7.1676 0.0000 13.2507
#
#
#
# Elastic Compliance Matrix: (Units=1/GPa)
#
#
# Indices 1 2 3 4 5 6 
#
# 1 0.023390 -0.007177 -0.015624 0.000000 -0.005748 0.000000
# 2 -0.007177 0.027368 -0.004891 0.000000 -0.007009 0.000000
# 3 -0.015624 -0.004891 0.023349 0.000000 0.005932 0.000000
# 4 0.000000 0.000000 0.000000 0.215902 0.000000 -0.116786
# 5 -0.005748 -0.007009 0.005932 0.000000 0.046626 0.000000
# 6 0.000000 0.000000 0.000000 -0.116786 0.000000 0.138640
#
#
# Mechanical properties :
#
#
# Convention : Reuss Voigt Hill
#
# Bulk Modulus (GPa) = 53.41181 71.97894 62.69538
# Shear Modulus (GPa) = 9.31273 16.31656 12.81465
#
# Velocity S-wave (km/s) = 2.42644 3.21178 2.84632
# Velocity P-wave (km/s) = 6.45118 7.69805 7.10203
#
# Compressibility (1/GPa) = 0.01872245
#
# Stress axis : x y z
#
# Youngs Moduli (GPa) = 42.75382 36.53853 42.82857
#
# Poissons Ratio (x) = 0.26224 0.66916
# Poissons Ratio (y) = 0.30685 0.20947
# Poissons Ratio (z) = 0.66800 0.17871
#
# Static dielectric constant tensor:
#      x y z
#    x 3.141720 0.000000 0.024370 
#    y 0.000000 2.831370 0.000000 
#    z 0.024370 0.000000 3.125450 
# 
# 
# High freq. dielectric constant tensor:
#      x y z
#    x 1.602400 0.000000 0.017280 
#    y 0.000000 1.586570 0.000000 
#    z 0.017280 0.000000 1.590930 
# 
# From -- ./inp_files/87226.got.cif
#   From: 2010.06.25/outbox.cif.g09.slc.cpg/sg10_44_cif.got.tgz:87226.got - 2010.06.27 22:07:45.
