data_PCOD8058867
_publ_section_title
;
Structure prediction by ZEFSAII (Michael W. Deem and Ramdas Pophale) SiO2 
 PCOD8058867
Probable space group: P 2/M
;
_chemical_formula_sum "Si O2"
_cell_formula_units_Z 32
_cell_length_a 25.178594
_cell_length_b 9.268628
_cell_length_c 15.423578
_cell_angle_alpha 90.000000
_cell_angle_beta 27.532010
_cell_angle_gamma 90.000000
_cell_volume 1663.808866
_symmetry_space_group_name_H-M "P 2/M"
_symmetry_group_IT_number 10
_symmetry_cell_setting 'monoclinic'
loop_
_space_group_symop_operation_xyz
x,y,z
-x,y,-z
-x,-y,-z
x,-y,z
loop_
_atom_site_type_symbol
_atom_site_label
_atom_site_fract_x
_atom_site_fract_y
_atom_site_fract_z
Si Si1 0.619058 0.668249 0.861420
Si Si2 0.011493 0.835024 0.385648
Si Si3 0.631604 0.666662 0.332987
Si Si4 0.665264 0.329598 0.477649
Si Si5 0.133013 0.671384 0.548795
Si Si6 0.274283 0.835377 0.957049
Si Si7 0.902320 0.671579 0.206558
Si Si8 0.418961 0.332447 0.888313
O O1 0.609267 0.500000 0.855464
O O2 0.733903 0.726212 0.647532
O O3 0.500000 0.741925 0.000000
O O4 0.634242 0.698974 0.941165
O O5 0.936863 0.741723 0.427860
O O6 0.000000 0.774444 0.500000
O O7 0.967878 0.000000 0.444250
O O8 0.142827 0.821288 0.170964
O O9 0.500000 0.690161 0.500000
O O10 0.667356 0.500000 0.272608
O O11 0.652359 0.727982 0.398799
O O12 0.712051 0.759057 0.154701
O O13 0.677348 0.500000 0.458462
O O14 0.779610 0.262895 0.354839
O O15 0.552952 0.285616 0.695357
O O16 0.128213 0.500000 0.542777
O O17 0.078231 0.717221 0.721085
O O18 0.350963 0.759577 0.917777
O O19 0.314642 0.000000 0.891893
O O20 0.901148 0.500000 0.201819
O O21 0.000000 0.733851 0.000000
O O22 0.408112 0.500000 0.877129
#
# Coordination Sequence:
#
# PCOD8058867 Si02
#       8
#     4   4   4   4   4   4   4   4
#     4   9  17  30  53  84 113 137 168 222 282 322
#     4  10  23  42  59  76 108 153 188 221 279 343
#     4  10  19  34  55  81 109 141 183 223 269 329
#     4   9  17  30  50  75 107 144 177 212 260 323
#     4  10  20  34  56  86 111 138 186 235 270 317
#     4  11  23  36  53  78 107 140 182 226 276 327
#     4   9  18  31  49  78 112 143 176 219 271 320
#     4  10  18  32  54  78 106 140 176 216 267 328
#
# _framework density 19.232977999999999
#
# number of rings (size 3 to 8) (size 9 to 14) (size 15 to 20)
#    0.000    2.250    1.250    1.875    1.750    4.500 
#    0.000    0.000    0.000    4.875    0.000    0.000 
#    0.000    0.000    0.000    0.000    0.000    0.000 
#
# Total GULP energy -396734.011851 kJ/mol
# GULP energy per Si atom -12397.937870 kJ/mol
# Density = 1.918920 g / cm^3
# Si number density = 19.232978 Si / 1000 Ang^3
#
#
#
# Elastic Constant Matrix: (Units=GPa)
#
#
# Indices 1 2 3 4 5 6 
#
# 1 121.7066 33.9735 54.9428 0.0000 -0.4343 0.0000
# 2 33.9735 42.3619 33.3747 0.0000 6.1318 0.0000
# 3 54.9428 33.3747 120.8779 0.0000 13.9925 0.0000
# 4 0.0000 0.0000 0.0000 17.3682 0.0000 4.0709
# 5 -0.4343 6.1318 13.9925 0.0000 28.7022 0.0000
# 6 0.0000 0.0000 0.0000 4.0709 0.0000 41.3130
#
#
#
# Elastic Compliance Matrix: (Units=1/GPa)
#
#
# Indices 1 2 3 4 5 6 
#
# 1 0.011956 -0.007028 -0.003909 0.000000 0.003588 0.000000
# 2 -0.007028 0.034474 -0.005786 0.000000 -0.004651 0.000000
# 3 -0.003909 -0.005786 0.012199 0.000000 -0.004770 0.000000
# 4 0.000000 0.000000 0.000000 0.058938 0.000000 -0.005808
# 5 0.003588 -0.004651 -0.004770 0.000000 0.038214 0.000000
# 6 0.000000 0.000000 0.000000 -0.005808 0.000000 0.024778
#
#
# Mechanical properties :
#
#
# Convention : Reuss Voigt Hill
#
# Bulk Modulus (GPa) = 39.70855 58.83649 49.27252
# Shear Modulus (GPa) = 22.48222 28.32037 25.40130
#
# Velocity S-wave (km/s) = 3.42269 3.84147 3.63811
# Velocity P-wave (km/s) = 6.02583 7.09462 6.58196
#
# Compressibility (1/GPa) = 0.02518349
#
# Stress axis : x y z
#
# Youngs Moduli (GPa) = 83.64124 29.00768 81.97196
#
# Poissons Ratio (x) = 0.20386 0.32045
# Poissons Ratio (y) = 0.58782 0.47425
# Poissons Ratio (z) = 0.32697 0.16783
#
# Static dielectric constant tensor:
#      x y z
#    x 3.600380 0.000000 0.145740 
#    y 0.000000 3.119870 0.000000 
#    z 0.145740 0.000000 3.830860 
# 
# 
# High freq. dielectric constant tensor:
#      x y z
#    x 1.760570 0.000000 0.005440 
#    y 0.000000 1.691350 0.000000 
#    z 0.005440 0.000000 1.766260 
# 
# From -- ./inp_files/71491.got.cif
#   From: 2010.06.25/outbox.cif.g09.slc.cpg/sg10_36_cif.got.tgz:71491.got - 2010.06.27 22:07:45.
