data_PCOD8058357
_publ_section_title
;
Structure prediction by ZEFSAII (Michael W. Deem and Ramdas Pophale) SiO2 
 PCOD8058357
Probable space group: P 2/M
;
_chemical_formula_sum "Si O2"
_cell_formula_units_Z 32
_cell_length_a 12.093484
_cell_length_b 8.811718
_cell_length_c 21.848259
_cell_angle_alpha 90.000000
_cell_angle_beta 133.857122
_cell_angle_gamma 90.000000
_cell_volume 1678.827916
_symmetry_space_group_name_H-M "P 2/M"
_symmetry_group_IT_number 10
_symmetry_cell_setting 'monoclinic'
loop_
_space_group_symop_operation_xyz
x,y,z
-x,y,-z
-x,-y,-z
x,-y,z
loop_
_atom_site_type_symbol
_atom_site_label
_atom_site_fract_x
_atom_site_fract_y
_atom_site_fract_z
Si Si1 0.222887 0.320454 0.571547
Si Si2 0.919454 0.319871 0.029402
Si Si3 0.436494 0.321062 0.273407
Si Si4 0.131200 0.320025 0.218589
Si Si5 0.968485 0.820159 0.397047
Si Si6 0.583228 0.320138 0.871874
Si Si7 0.943819 0.177277 0.247663
Si Si8 0.602189 0.821385 0.095247
O O1 0.195600 0.500000 0.556044
O O2 0.401705 0.277392 0.634123
O O3 0.135703 0.234442 0.483577
O O4 0.161706 0.263981 0.613645
O O5 0.931853 0.500000 0.032150
O O6 0.006989 0.257040 0.122345
O O7 0.743397 0.267280 0.963525
O O8 0.000000 0.251799 0.000000
O O9 0.416906 0.500000 0.260166
O O10 0.299024 0.257440 0.263248
O O11 0.425992 0.254494 0.200610
O O12 0.131859 0.500000 0.221380
O O13 0.083514 0.258472 0.266520
O O14 0.946480 0.769289 0.318870
O O15 0.952733 0.000000 0.400040
O O16 0.565849 0.500000 0.865239
O O17 0.447750 0.250443 0.859807
O O18 0.780625 0.221756 0.154413
O O19 0.973531 0.000000 0.254897
O O20 0.579847 0.000000 0.092189
O O21 0.500000 0.755776 0.000000
#
# Coordination Sequence:
#
# PCOD8058357 Si02
#       8
#     4   4   4   4   4   4   4   4
#     4  10  19  33  56  83 108 129 161 212 262 308
#     4   9  15  27  49  75 103 135 169 206 250 297
#     4   9  18  32  51  79 108 132 161 208 264 305
#     4  10  19  33  54  77 103 138 176 211 251 302
#     4  10  20  36  56  77 103 136 171 207 254 308
#     4  10  18  30  52  78 103 131 170 213 251 301
#     4  10  22  38  53  72 103 141 176 210 252 302
#     4  10  21  36  51  70 103 140 169 207 258 303
#
# _framework density 19.060918000000001
#
# number of rings (size 3 to 8) (size 9 to 14) (size 15 to 20)
#    0.000    2.250    1.250    3.000    0.000    1.750 
#    0.000    3.125    0.000    4.500    0.000    0.000 
#    0.000    0.000    0.000    0.000    0.000    0.000 
#
# Total GULP energy -396785.911782 kJ/mol
# GULP energy per Si atom -12399.559743 kJ/mol
# Density = 1.901753 g / cm^3
# Si number density = 19.060918 Si / 1000 Ang^3
#
#
#
# Elastic Constant Matrix: (Units=GPa)
#
#
# Indices 1 2 3 4 5 6 
#
# 1 123.8692 23.2942 49.9971 0.0000 5.3444 0.0000
# 2 23.2942 23.8082 19.0558 0.0000 0.7002 0.0000
# 3 49.9971 19.0558 104.4812 0.0000 1.6965 0.0000
# 4 0.0000 0.0000 0.0000 21.4906 0.0000 -3.8192
# 5 5.3444 0.7002 1.6965 0.0000 32.4447 0.0000
# 6 0.0000 0.0000 0.0000 -3.8192 0.0000 0.1722
#
#
#
# Elastic Compliance Matrix: (Units=1/GPa)
#
#
# Indices 1 2 3 4 5 6 
#
# 1 0.011173 -0.007761 -0.003907 0.000000 -0.001469 0.000000
# 2 -0.007761 0.054585 -0.006248 0.000000 0.000427 0.000000
# 3 -0.003907 -0.006248 0.012578 0.000000 0.000121 0.000000
# 4 0.000000 0.000000 0.000000 -0.015817 0.000000 -0.350839
# 5 -0.001469 0.000427 0.000121 0.000000 0.031048 0.000000
# 6 0.000000 0.000000 0.000000 -0.350839 0.000000 -1.974175
#
#
# Mechanical properties :
#
#
# Convention : Reuss Voigt Hill
#
# Bulk Modulus (GPa) = 23.52810 48.53919 36.03364
# Shear Modulus (GPa) = -2.73133 21.47561 9.37214
#
# Velocity S-wave (km/s) = -1.19836 3.36025 2.21982
# Velocity P-wave (km/s) = 3.23352 6.36990 5.05130
#
# Compressibility (1/GPa) = 0.04250237
#
# Stress axis : x y z
#
# Youngs Moduli (GPa) = 89.50150 18.32015 79.50105
#
# Poissons Ratio (x) = 0.14219 0.31063
# Poissons Ratio (y) = 0.69465 0.49675
# Poissons Ratio (z) = 0.34970 0.11447
#
# Static dielectric constant tensor:
#      x y z
#    x 3.563000 0.000000 0.076740 
#    y 0.000000 3.118190 0.000000 
#    z 0.076740 0.000000 3.630780 
# 
# 
# High freq. dielectric constant tensor:
#      x y z
#    x 1.744960 0.000000 0.005470 
#    y 0.000000 1.709660 0.000000 
#    z 0.005470 0.000000 1.742560 
# 
# From -- ./inp_files/83626.got.cif
#   From: 2010.06.25/outbox.cif.g09.slc.cpg/sg10_42_cif.got.tgz:83626.got - 2010.06.27 22:07:45.
