data_PCOD8058234
_publ_section_title
;
Structure prediction by ZEFSAII (Michael W. Deem and Ramdas Pophale) SiO2 
 PCOD8058234
Probable space group: P 2/M
;
_chemical_formula_sum "Si O2"
_cell_formula_units_Z 32
_cell_length_a 17.583082
_cell_length_b 8.873318
_cell_length_c 12.432152
_cell_angle_alpha 90.000000
_cell_angle_beta 76.473584
_cell_angle_gamma 90.000000
_cell_volume 1885.865670
_symmetry_space_group_name_H-M "P 2/M"
_symmetry_group_IT_number 10
_symmetry_cell_setting 'monoclinic'
loop_
_space_group_symop_operation_xyz
x,y,z
-x,y,-z
-x,-y,-z
x,-y,z
loop_
_atom_site_type_symbol
_atom_site_label
_atom_site_fract_x
_atom_site_fract_y
_atom_site_fract_z
Si Si1 0.321108 0.324742 0.197430
Si Si2 0.998277 0.169956 0.372695
Si Si3 0.576332 0.676195 0.031612
Si Si4 0.586552 0.177255 0.643347
Si Si5 0.576331 0.679250 0.272614
Si Si6 0.841562 0.676432 0.424389
Si Si7 0.687392 0.177571 0.404138
Si Si8 0.846751 0.325158 0.671544
O O1 0.333507 0.500000 0.223873
O O2 0.374190 0.227144 0.258720
O O3 0.230315 0.279609 0.236307
O O4 0.347489 0.290809 0.066548
O O5 0.926065 0.269140 0.353346
O O6 0.000000 0.179001 0.500000
O O7 0.080394 0.234962 0.301832
O O8 0.988191 0.000000 0.334528
O O9 0.561122 0.500000 0.049544
O O10 0.587339 0.742378 0.147330
O O11 0.500000 0.749181 0.000000
O O12 0.504620 0.260303 0.651943
O O13 0.642597 0.225305 0.527352
O O14 0.571262 0.000000 0.650351
O O15 0.576736 0.500000 0.278501
O O16 0.648282 0.743221 0.315652
O O17 0.832598 0.500000 0.406420
O O18 0.776060 0.765077 0.380163
O O19 0.831729 0.718478 0.552831
O O20 0.686352 0.000000 0.387315
O O21 0.867254 0.500000 0.674859
#
# Coordination Sequence:
#
# PCOD8058234 Si02
#       8
#     4   4   4   4   4   4   4   4
#     4  10  18  32  53  75  99 131 168 206 250 294
#     4   9  17  28  44  67 100 137 164 192 241 295
#     4   9  17  32  54  75  96 124 165 214 255 291
#     4  11  22  34  49  71 101 133 165 205 252 297
#     4  11  22  36  54  72  94 130 174 212 248 294
#     4  10  18  30  49  73  99 129 168 203 239 291
#     4  11  23  36  49  70 103 135 166 205 251 299
#     4   9  17  28  46  72 100 128 164 205 240 286
#
# _framework density 16.968335
#
# number of rings (size 3 to 8) (size 9 to 14) (size 15 to 20)
#    0.000    2.000    2.500    2.250    0.000    5.500 
#    0.000    1.875    0.000    0.000    0.000    0.875 
#    0.000    7.000    0.000    0.000    0.000    0.000 
#
# Total GULP energy -396854.903976 kJ/mol
# GULP energy per Si atom -12401.715749 kJ/mol
# Density = 1.692971 g / cm^3
# Si number density = 16.968335 Si / 1000 Ang^3
#
#
#
# Elastic Constant Matrix: (Units=GPa)
#
#
# Indices 1 2 3 4 5 6 
#
# 1 134.1595 40.2756 39.9691 0.0000 -4.5899 0.0000
# 2 40.2756 62.1187 25.9025 0.0000 3.2653 0.0000
# 3 39.9691 25.9025 56.4541 0.0000 5.8352 0.0000
# 4 0.0000 0.0000 0.0000 14.2533 0.0000 1.4487
# 5 -4.5899 3.2653 5.8352 0.0000 20.6257 0.0000
# 6 0.0000 0.0000 0.0000 1.4487 0.0000 30.4640
#
#
#
# Elastic Compliance Matrix: (Units=1/GPa)
#
#
# Indices 1 2 3 4 5 6 
#
# 1 0.010840 -0.004790 -0.005979 0.000000 0.004862 0.000000
# 2 -0.004790 0.022031 -0.006434 0.000000 -0.002733 0.000000
# 3 -0.005979 -0.006434 0.025682 0.000000 -0.007578 0.000000
# 4 0.000000 0.000000 0.000000 0.070500 0.000000 -0.003353
# 5 0.004862 -0.002733 -0.007578 0.000000 0.052142 0.000000
# 6 0.000000 0.000000 0.000000 -0.003353 0.000000 0.032985
#
#
# Mechanical properties :
#
#
# Convention : Reuss Voigt Hill
#
# Bulk Modulus (GPa) = 41.41594 51.66964 46.54279
# Shear Modulus (GPa) = 19.48301 22.84095 21.16198
#
# Velocity S-wave (km/s) = 3.39218 3.67289 3.53533
# Velocity P-wave (km/s) = 6.30899 6.96445 6.64481
#
# Compressibility (1/GPa) = 0.02414529
#
# Stress axis : x y z
#
# Youngs Moduli (GPa) = 92.25508 45.39100 38.93797
#
# Poissons Ratio (x) = 0.21744 0.23280
# Poissons Ratio (y) = 0.44194 0.25053
# Poissons Ratio (z) = 0.55158 0.29205
#
# Static dielectric constant tensor:
#      x y z
#    x 3.308390 0.000000 -0.094900 
#    y 0.000000 3.122490 0.000000 
#    z -0.094900 0.000000 3.014860 
# 
# 
# High freq. dielectric constant tensor:
#      x y z
#    x 1.661730 0.000000 -0.007150 
#    y 0.000000 1.653070 0.000000 
#    z -0.007150 0.000000 1.616290 
# 
# From -- ./inp_files/49852.got.cif
#   From: 2010.06.25/outbox.cif.g09.slc.cpg/sg10_25_cif.got.tgz:49852.got - 2010.06.27 22:07:45.
