data_PCOD8058765
_publ_section_title
;
Structure prediction by ZEFSAII (Michael W. Deem and Ramdas Pophale) SiO2 
 PCOD8058765
Probable space group: P 2/M
;
_chemical_formula_sum "Si O2"
_cell_formula_units_Z 18
_cell_length_a 5.295502
_cell_length_b 19.904038
_cell_length_c 8.568827
_cell_angle_alpha 90.000000
_cell_angle_beta 71.979801
_cell_angle_gamma 90.000000
_cell_volume 858.867664
_symmetry_space_group_name_H-M "P 2/M"
_symmetry_group_IT_number 10
_symmetry_cell_setting 'monoclinic'
loop_
_space_group_symop_operation_xyz
x,y,z
-x,y,-z
-x,-y,-z
x,-y,z
loop_
_atom_site_type_symbol
_atom_site_label
_atom_site_fract_x
_atom_site_fract_y
_atom_site_fract_z
Si Si1 0.903397 0.783736 0.192805
Si Si2 0.303797 0.000000 0.392529
Si Si3 0.596389 0.864477 0.807622
Si Si4 0.338095 0.420881 0.324019
Si Si5 0.155459 0.364245 0.688859
O O1 0.627465 0.824219 0.245406
O O2 0.853123 0.715345 0.294096
O O3 0.126173 0.824436 0.245401
O O4 0.000000 0.767428 0.000000
O O5 0.500000 0.000000 0.500000
O O6 0.360842 0.935455 0.278677
O O7 0.000000 0.000000 0.500000
O O8 0.500000 0.878118 0.000000
O O9 0.324668 0.500000 0.350889
O O10 0.250776 0.383834 0.498444
O O11 0.637149 0.396586 0.226342
O O12 0.136812 0.396594 0.226349
#
# Coordination Sequence:
#
# PCOD8058765 Si02
#       5
#     4   2   4   4   4
#     4  10  21  38  60  85 113 150 200 244 279 339
#     4  12  25  44  61  98 126 154 190 256 303 326
#     4  10  22  43  65  84 116 168 204 230 285 369
#     4  10  19  33  53  76 109 149 191 232 285 356
#     4  10  18  32  51  80 106 141 185 233 293 327
#
# _framework density 20.957827999999999
#
# number of rings (size 3 to 8) (size 9 to 14) (size 15 to 20)
#    0.000    1.778    0.000    6.333    0.000    0.000 
#   24.000    4.444    0.000    7.333    0.000    0.000 
#    0.000    0.000    0.000    0.000    0.000    0.000 
#
# Total GULP energy -223161.791905 kJ/mol
# GULP energy per Si atom -12397.877328 kJ/mol
# Density = 2.091013 g / cm^3
# Si number density = 20.957828 Si / 1000 Ang^3
#
#
#
# Elastic Constant Matrix: (Units=GPa)
#
#
# Indices 1 2 3 4 5 6 
#
# 1 259.1046 110.6711 34.3239 0.0000 17.4029 0.0000
# 2 110.6711 239.2132 62.0814 0.0000 4.4355 0.0000
# 3 34.3239 62.0814 28.8709 0.0000 1.6345 0.0000
# 4 0.0000 0.0000 0.0000 2.7832 0.0000 2.9618
# 5 17.4029 4.4355 1.6345 0.0000 8.0884 0.0000
# 6 0.0000 0.0000 0.0000 2.9618 0.0000 40.5143
#
#
#
# Elastic Compliance Matrix: (Units=1/GPa)
#
#
# Indices 1 2 3 4 5 6 
#
# 1 0.005658 -0.001879 -0.002078 0.000000 -0.010722 0.000000
# 2 -0.001879 0.010093 -0.019608 0.000000 0.002471 0.000000
# 3 -0.002078 -0.019608 0.079317 0.000000 -0.000805 0.000000
# 4 0.000000 0.000000 0.000000 0.389601 0.000000 -0.028482
# 5 -0.010722 0.002471 -0.000805 0.000000 0.145511 0.000000
# 6 0.000000 0.000000 0.000000 -0.028482 0.000000 0.026765
#
#
# Mechanical properties :
#
#
# Convention : Reuss Voigt Hill
#
# Bulk Modulus (GPa) = 20.86111 104.59351 62.72731
# Shear Modulus (GPa) = 6.94392 31.61801 19.28097
#
# Velocity S-wave (km/s) = 1.82222 3.88835 3.03642
# Velocity P-wave (km/s) = 3.79510 8.37699 6.50295
#
# Compressibility (1/GPa) = 0.04793609
#
# Stress axis : x y z
#
# Youngs Moduli (GPa) = 176.75263 99.07991 12.60768
#
# Poissons Ratio (x) = 0.18621 0.02620
# Poissons Ratio (y) = 0.33219 0.24722
# Poissons Ratio (z) = 0.36726 1.94279
#
# Static dielectric constant tensor:
#      x y z
#    x 11.881420 0.000000 0.684880 
#    y 0.000000 3.752050 0.000000 
#    z 0.684880 0.000000 3.374990 
# 
# 
# High freq. dielectric constant tensor:
#      x y z
#    x 1.862520 0.000000 0.006880 
#    y 0.000000 1.833730 0.000000 
#    z 0.006880 0.000000 1.777160 
# 
# From -- ./inp_files/14720.got.cif
#   From: 2010.06.25/outbox.cif.g09.slc.cpg/sg10_8_cif.got.tgz:14720.got - 2010.06.27 22:07:45.
