data_PCOD8058407
_publ_section_title
;
Structure prediction by ZEFSAII (Michael W. Deem and Ramdas Pophale) SiO2 
 PCOD8058407
Probable space group: P 2/M
;
_chemical_formula_sum "Si O2"
_cell_formula_units_Z 32
_cell_length_a 18.694534
_cell_length_b 14.611291
_cell_length_c 12.253575
_cell_angle_alpha 90.000000
_cell_angle_beta 28.820228
_cell_angle_gamma 90.000000
_cell_volume 1613.503325
_symmetry_space_group_name_H-M "P 2/M"
_symmetry_group_IT_number 10
_symmetry_cell_setting 'monoclinic'
loop_
_space_group_symop_operation_xyz
x,y,z
-x,y,-z
-x,-y,-z
x,-y,z
loop_
_atom_site_type_symbol
_atom_site_label
_atom_site_fract_x
_atom_site_fract_y
_atom_site_fract_z
Si Si1 0.327110 0.597108 0.244861
Si Si2 0.652724 0.108310 0.056634
Si Si3 0.844780 0.599004 0.066212
Si Si4 0.195195 0.798493 0.947161
Si Si5 0.140737 0.164976 0.648604
Si Si6 0.328266 0.795993 0.195533
Si Si7 0.332121 0.100606 0.570413
Si Si8 0.181725 0.633955 0.657144
O O1 0.261231 0.500000 0.285077
O O2 0.266610 0.690297 0.268820
O O3 0.297588 0.597238 0.414096
O O4 0.500000 0.595310 0.000000
O O5 0.756861 0.160171 0.002551
O O6 0.481979 0.131551 0.309063
O O7 0.684557 0.000000 0.015048
O O8 0.696894 0.149888 0.881491
O O9 0.795728 0.500000 0.079874
O O10 0.800823 0.687154 0.051728
O O11 0.770311 0.604538 0.285675
O O12 0.021028 0.595902 0.841976
O O13 0.305715 0.829684 0.704281
O O14 0.034298 0.840900 0.136036
O O15 0.228435 0.152231 0.418223
O O16 0.199577 0.092100 0.658367
O O17 0.182730 0.257422 0.654572
O O18 0.500000 0.797033 0.000000
O O19 0.352497 0.000000 0.595356
#
# Coordination Sequence:
#
# PCOD8058407 Si02
#       8
#     4   4   4   4   4   4   4   4
#     4   9  17  28  48  81 116 147 183 229 284 336
#     4  11  25  43  62  82 112 159 199 236 298 365
#     4  10  18  30  55  84 115 156 192 228 280 340
#     4  11  23  38  57  88 126 151 188 241 295 348
#     4  10  20  36  60  92 118 148 190 245 293 329
#     4  10  20  38  62  83 114 151 199 243 284 340
#     4  11  22  39  63  86 112 152 195 237 293 357
#     4   9  16  30  51  84 120 149 186 234 279 334
#
# _framework density 19.832619999999999
#
# number of rings (size 3 to 8) (size 9 to 14) (size 15 to 20)
#    0.000    1.875    2.500    2.625    0.000    3.750 
#    0.000    1.250    0.000    1.500    0.000    5.250 
#    0.000    0.000    0.000    0.000    0.000    0.000 
#
# Total GULP energy -396561.070544 kJ/mol
# GULP energy per Si atom -12392.533455 kJ/mol
# Density = 1.978748 g / cm^3
# Si number density = 19.832620 Si / 1000 Ang^3
#
#
#
# Elastic Constant Matrix: (Units=GPa)
#
#
# Indices 1 2 3 4 5 6 
#
# 1 80.5333 43.9669 6.8733 0.0000 11.1745 0.0000
# 2 43.9669 115.4768 16.2093 0.0000 10.5473 0.0000
# 3 6.8733 16.2093 75.1766 0.0000 20.3492 0.0000
# 4 0.0000 0.0000 0.0000 46.0703 0.0000 8.0013
# 5 11.1745 10.5473 20.3492 0.0000 27.1134 0.0000
# 6 0.0000 0.0000 0.0000 8.0013 0.0000 21.0445
#
#
#
# Elastic Compliance Matrix: (Units=1/GPa)
#
#
# Indices 1 2 3 4 5 6 
#
# 1 0.016261 -0.005876 0.001224 0.000000 -0.005335 0.000000
# 2 -0.005876 0.011195 -0.001698 0.000000 -0.000659 0.000000
# 3 0.001224 -0.001698 0.016959 0.000000 -0.012572 0.000000
# 4 0.000000 0.000000 0.000000 0.023241 0.000000 -0.008836
# 5 -0.005335 -0.000659 -0.012572 0.000000 0.048773 0.000000
# 6 0.000000 0.000000 0.000000 -0.008836 0.000000 0.050878
#
#
# Mechanical properties :
#
#
# Convention : Reuss Voigt Hill
#
# Bulk Modulus (GPa) = 31.52985 45.03175 38.28080
# Shear Modulus (GPa) = 26.23585 32.45478 29.34531
#
# Velocity S-wave (km/s) = 3.64106 4.04968 3.85079
# Velocity P-wave (km/s) = 5.79732 6.67995 6.25422
#
# Compressibility (1/GPa) = 0.03171597
#
# Stress axis : x y z
#
# Youngs Moduli (GPa) = 61.49746 89.32180 58.96432
#
# Poissons Ratio (x) = 0.52483 -0.07219
# Poissons Ratio (y) = 0.36134 0.10014
# Poissons Ratio (z) = -0.07529 0.15170
#
# Static dielectric constant tensor:
#      x y z
#    x 3.255700 0.000000 0.199400 
#    y 0.000000 4.130260 0.000000 
#    z 0.199400 0.000000 3.768690 
# 
# 
# High freq. dielectric constant tensor:
#      x y z
#    x 1.724690 0.000000 0.020580 
#    y 0.000000 1.791650 0.000000 
#    z 0.020580 0.000000 1.782030 
# 
# From -- ./inp_files/53975.got.cif
#   From: 2010.06.25/outbox.cif.g09.slc.cpg/sg10_27_cif.got.tgz:53975.got - 2010.06.27 22:07:45.
