data_PCOD8058571
_publ_section_title
;
Structure prediction by ZEFSAII (Michael W. Deem and Ramdas Pophale) SiO2 
 PCOD8058571
Probable space group: P 2/M
;
_chemical_formula_sum "Si O2"
_cell_formula_units_Z 20
_cell_length_a 13.654766
_cell_length_b 8.577896
_cell_length_c 22.617438
_cell_angle_alpha 90.000000
_cell_angle_beta 155.621003
_cell_angle_gamma 90.000000
_cell_volume 1093.495937
_symmetry_space_group_name_H-M "P 2/M"
_symmetry_group_IT_number 10
_symmetry_cell_setting 'monoclinic'
loop_
_space_group_symop_operation_xyz
x,y,z
-x,y,-z
-x,-y,-z
x,-y,z
loop_
_atom_site_type_symbol
_atom_site_label
_atom_site_fract_x
_atom_site_fract_y
_atom_site_fract_z
Si Si1 0.257637 0.816310 0.202927
Si Si2 0.121649 0.315588 0.778721
Si Si3 0.450079 0.315478 0.063500
Si Si4 0.395271 0.816040 0.503374
Si Si5 0.257259 0.316062 0.080122
O O1 0.445347 0.757339 0.354482
O O2 0.356475 0.773164 0.192243
O O3 0.208178 0.000000 0.179799
O O4 0.016731 0.723050 0.082060
O O5 0.087452 0.500000 0.761056
O O6 0.291306 0.263353 0.817518
O O7 0.870767 0.236541 0.631656
O O8 0.242588 0.253696 0.905795
O O9 0.433705 0.500000 0.052785
O O10 0.407779 0.254292 0.106671
O O11 0.500000 0.744852 0.500000
O O12 0.400842 0.000000 0.503060
O O13 0.285709 0.500000 0.105088
#
# Coordination Sequence:
#
# PCOD8058571 Si02
#       5
#     4   4   4   4   4
#     4  10  20  33  48  69  99 129 158 195 239 282
#     4   9  17  32  53  74  97 124 158 196 236 284
#     4   8  16  31  51  75  99 123 153 197 244 279
#     4  10  21  35  49  69  99 129 157 195 240 282
#     4  10  18  31  52  74  96 123 160 199 234 280
#
# _framework density 18.289963
#
# number of rings (size 3 to 8) (size 9 to 14) (size 15 to 20)
#    0.000    2.600    0.000    4.800    0.000    2.000 
#    0.000    6.000    0.000    6.000    0.000    0.000 
#    0.000    0.000    0.000    0.000    0.000    0.000 
#
# Total GULP energy -247947.878470 kJ/mol
# GULP energy per Si atom -12397.393923 kJ/mol
# Density = 1.824833 g / cm^3
# Si number density = 18.289963 Si / 1000 Ang^3
#
#
#
# Elastic Constant Matrix: (Units=GPa)
#
#
# Indices 1 2 3 4 5 6 
#
# 1 169.1078 11.9696 75.2905 0.0000 -11.5961 0.0000
# 2 11.9696 18.2410 11.3402 0.0000 -5.5813 0.0000
# 3 75.2905 11.3402 135.7383 0.0000 -11.3775 0.0000
# 4 0.0000 0.0000 0.0000 8.6375 0.0000 -44.2183
# 5 -11.5961 -5.5813 -11.3775 0.0000 25.0160 0.0000
# 6 0.0000 0.0000 0.0000 -44.2183 0.0000 -75.9778
#
#
#
# Elastic Compliance Matrix: (Units=1/GPa)
#
#
# Indices 1 2 3 4 5 6 
#
# 1 0.008009 -0.002277 -0.004141 0.000000 0.001321 0.000000
# 2 -0.002277 0.061614 -0.002933 0.000000 0.011358 0.000000
# 3 -0.004141 -0.002933 0.010078 0.000000 0.002009 0.000000
# 4 0.000000 0.000000 0.000000 0.029093 0.000000 -0.016932
# 5 0.001321 0.011358 0.002009 0.000000 0.044035 0.000000
# 6 0.000000 0.000000 0.000000 -0.016932 0.000000 -0.003307
#
#
# Mechanical properties :
#
#
# Convention : Reuss Voigt Hill
#
# Bulk Modulus (GPa) = 16.39372 57.80975 37.10174
# Shear Modulus (GPa) = 26.51737 6.50092 16.50915
#
# Velocity S-wave (km/s) = 3.81180 1.88735 3.00765
# Velocity P-wave (km/s) = 5.32501 6.03535 5.69127
#
# Compressibility (1/GPa) = 0.06099895
#
# Stress axis : x y z
#
# Youngs Moduli (GPa) = 124.86003 16.23012 99.22895
#
# Poissons Ratio (x) = 0.03695 0.41095
# Poissons Ratio (y) = 0.28425 0.29102
# Poissons Ratio (z) = 0.51710 0.04760
#
# Static dielectric constant tensor:
#      x y z
#    x 3.954290 0.000000 -0.141020 
#    y 0.000000 3.113990 0.000000 
#    z -0.141020 0.000000 3.336710 
# 
# 
# High freq. dielectric constant tensor:
#      x y z
#    x 1.722500 0.000000 -0.004570 
#    y 0.000000 1.690020 0.000000 
#    z -0.004570 0.000000 1.696180 
# 
# From -- ./inp_files/44188.got.cif
#   From: 2010.06.25/outbox.cif.g09.slc.cpg/sg10_23_cif.got.tgz:44188.got - 2010.06.27 22:07:45.
