data_PCOD8058232
_publ_section_title
;
Structure prediction by ZEFSAII (Michael W. Deem and Ramdas Pophale) SiO2 
 PCOD8058232
Probable space group: P 2/M
;
_chemical_formula_sum "Si O2"
_cell_formula_units_Z 28
_cell_length_a 20.309534
_cell_length_b 12.508507
_cell_length_c 9.658675
_cell_angle_alpha 90.000000
_cell_angle_beta 135.508962
_cell_angle_gamma 90.000000
_cell_volume 1719.553333
_symmetry_space_group_name_H-M "P 2/M"
_symmetry_group_IT_number 10
_symmetry_cell_setting 'monoclinic'
loop_
_space_group_symop_operation_xyz
x,y,z
-x,y,-z
-x,-y,-z
x,-y,z
loop_
_atom_site_type_symbol
_atom_site_label
_atom_site_fract_x
_atom_site_fract_y
_atom_site_fract_z
Si Si1 0.892718 0.875563 0.180112
Si Si2 0.787196 0.708856 0.843061
Si Si3 0.586226 0.376933 0.538185
Si Si4 0.787196 0.708856 0.518528
Si Si5 0.105998 0.500000 0.323597
Si Si6 0.413775 0.623067 0.779509
Si Si7 0.107282 0.875563 0.501956
Si Si8 0.105997 0.500000 0.994396
O O1 0.873218 0.844790 0.309828
O O2 1.000000 0.847206 0.301636
O O3 0.873603 0.000000 0.126960
O O4 0.821902 0.812502 0.975769
O O5 0.676952 0.694337 0.707564
O O6 0.806914 0.725016 0.710372
O O7 0.842222 0.605482 0.983669
O O8 0.500000 0.334013 0.500000
O O9 0.610308 0.500000 0.609543
O O10 0.556256 0.365238 0.334384
O O11 0.842222 0.605482 0.542997
O O12 0.676952 0.694337 0.323292
O O13 0.821903 0.812502 0.489938
O O14 0.000000 0.500000 0.221102
O O15 0.110132 0.500000 0.165198
O O16 0.389692 0.500000 0.778619
O O17 0.500000 0.665987 0.000000
O O18 0.126398 0.000000 0.506153
#
# Coordination Sequence:
#
# PCOD8058232 Si02
#       8
#     4   4   4   4   2   4   4   2
#     4   9  19  35  51  68  95 130 164 199 240 284
#     4  10  18  30  49  73  98 125 160 200 237 281
#     4   9  17  30  47  69  98 128 159 195 236 284
#     4  10  18  30  49  73  98 125 160 200 237 281
#     4   9  16  26  42  67  99 129 151 181 234 287
#     4   9  17  30  47  69  98 128 159 195 236 284
#     4   9  19  35  51  68  95 130 164 199 240 284
#     4   9  16  26  42  67  99 129 151 181 234 287
#
# _framework density 16.283297999999998
#
# number of rings (size 3 to 8) (size 9 to 14) (size 15 to 20)
#    0.000    2.714    1.429    1.714    0.000    3.429 
#    0.000    2.143    0.000    3.429    0.000    0.000 
#    0.000    0.000    0.000    0.000    0.000    0.000 
#
# Total GULP energy -347217.718813 kJ/mol
# GULP energy per Si atom -12400.632815 kJ/mol
# Density = 1.624624 g / cm^3
# Si number density = 16.283298 Si / 1000 Ang^3
#
#
#
# Elastic Constant Matrix: (Units=GPa)
#
#
# Indices 1 2 3 4 5 6 
#
# 1 115.3006 52.8732 50.6331 0.0000 10.3660 0.0000
# 2 52.8732 75.2049 51.5931 0.0000 3.6315 0.0000
# 3 50.6331 51.5931 106.0669 0.0000 15.8325 0.0000
# 4 0.0000 0.0000 0.0000 25.8899 0.0000 -1.5556
# 5 10.3660 3.6315 15.8325 0.0000 14.9967 0.0000
# 6 0.0000 0.0000 0.0000 -1.5556 0.0000 25.3417
#
#
#
# Elastic Compliance Matrix: (Units=1/GPa)
#
#
# Indices 1 2 3 4 5 6 
#
# 1 0.013681 -0.008172 -0.001709 0.000000 -0.005673 0.000000
# 2 -0.008172 0.025374 -0.009933 0.000000 0.009991 0.000000
# 3 -0.001709 -0.009933 0.017260 0.000000 -0.014635 0.000000
# 4 0.000000 0.000000 0.000000 0.038768 0.000000 0.002380
# 5 -0.005673 0.009991 -0.014635 0.000000 0.083635 0.000000
# 6 0.000000 0.000000 0.000000 0.002380 0.000000 0.039607
#
#
# Mechanical properties :
#
#
# Convention : Reuss Voigt Hill
#
# Bulk Modulus (GPa) = 59.92487 67.41904 63.67196
# Shear Modulus (GPa) = 18.97428 22.67719 20.82573
#
# Velocity S-wave (km/s) = 3.41729 3.73589 3.58014
# Velocity P-wave (km/s) = 7.24237 7.75260 7.50182
#
# Compressibility (1/GPa) = 0.01668756
#
# Stress axis : x y z
#
# Youngs Moduli (GPa) = 73.09409 39.40999 57.93791
#
# Poissons Ratio (x) = 0.32207 0.09901
# Poissons Ratio (y) = 0.59734 0.57548
# Poissons Ratio (z) = 0.12491 0.39145
#
# Static dielectric constant tensor:
#      x y z
#    x 3.017870 0.000000 0.101470 
#    y 0.000000 2.875040 0.000000 
#    z 0.101470 0.000000 2.982110 
# 
# 
# High freq. dielectric constant tensor:
#      x y z
#    x 1.621750 0.000000 0.008270 
#    y 0.000000 1.608930 0.000000 
#    z 0.008270 0.000000 1.618840 
# 
# From -- ./inp_files/34695.got.cif
#   From: 2010.06.25/outbox.cif.g09.slc.cpg/sg10_18_cif.got.tgz:34695.got - 2010.06.27 22:07:45.
