data_PCOD8058756
_publ_section_title
;
Structure prediction by ZEFSAII (Michael W. Deem and Ramdas Pophale) SiO2 
 PCOD8058756
Probable space group: P 2/M
;
_chemical_formula_sum "Si O2"
_cell_formula_units_Z 32
_cell_length_a 22.116201
_cell_length_b 8.564714
_cell_length_c 12.166369
_cell_angle_alpha 90.000000
_cell_angle_beta 46.363638
_cell_angle_gamma 90.000000
_cell_volume 1667.874574
_symmetry_space_group_name_H-M "P 2/M"
_symmetry_group_IT_number 10
_symmetry_cell_setting 'monoclinic'
loop_
_space_group_symop_operation_xyz
x,y,z
-x,y,-z
-x,-y,-z
x,-y,z
loop_
_atom_site_type_symbol
_atom_site_label
_atom_site_fract_x
_atom_site_fract_y
_atom_site_fract_z
Si Si1 0.024112 0.322761 0.095718
Si Si2 0.754729 0.684792 0.931730
Si Si3 0.581138 0.314251 0.763055
Si Si4 0.872956 0.819483 0.401343
Si Si5 0.396988 0.685912 0.019474
Si Si6 0.729559 0.684629 0.432672
Si Si7 0.093914 0.316036 0.408609
Si Si8 0.211347 0.686084 0.872273
O O1 0.017963 0.500000 0.149179
O O2 0.965625 0.213309 0.241495
O O3 0.116575 0.253558 0.990938
O O4 0.000000 0.317340 0.000000
O O5 0.745643 0.500000 0.942042
O O6 0.845078 0.730237 0.768603
O O7 0.678537 0.758883 0.957165
O O8 0.746690 0.746465 0.067273
O O9 0.584775 0.500000 0.759045
O O10 0.486303 0.258914 0.857264
O O11 0.644222 0.245737 0.592081
O O12 0.610556 0.253074 0.845895
O O13 0.807835 0.722758 0.410896
O O14 0.867921 0.768821 0.533807
O O15 0.850914 0.000000 0.417923
O O16 0.392319 0.500000 0.024478
O O17 0.723391 0.500000 0.433137
O O18 0.740896 0.753896 0.295056
O O19 0.094125 0.500000 0.431072
O O20 0.000000 0.257464 0.500000
O O21 0.210698 0.500000 0.867248
#
# Coordination Sequence:
#
# PCOD8058756 Si02
#       8
#     4   4   4   4   4   4   4   4
#     4  10  18  33  53  70  93 132 175 210 243 289
#     4   9  16  27  46  72 101 129 161 207 255 298
#     4   8  14  24  43  68  96 127 162 203 247 300
#     4  12  24  34  49  75 106 132 162 209 261 306
#     4   8  13  23  39  67 101 129 156 197 256 305
#     4  10  18  32  51  72  97 130 170 207 245 294
#     4  10  20  35  55  75  97 131 176 214 247 299
#     4   9  17  29  47  71  96 126 167 210 246 288
#
# _framework density 19.186094000000001
#
# number of rings (size 3 to 8) (size 9 to 14) (size 15 to 20)
#    0.000    2.500    1.250    3.375    0.000    4.500 
#    0.000    0.625    0.000    4.500    0.000    7.000 
#    0.000    1.000    0.000    0.000    0.000    0.000 
#
# Total GULP energy -396668.486363 kJ/mol
# GULP energy per Si atom -12395.890199 kJ/mol
# Density = 1.914243 g / cm^3
# Si number density = 19.186094 Si / 1000 Ang^3
#
#
#
# Elastic Constant Matrix: (Units=GPa)
#
#
# Indices 1 2 3 4 5 6 
#
# 1 141.4115 -1.3252 78.4750 0.0000 -4.1515 0.0000
# 2 -1.3252 10.5995 7.4190 0.0000 0.9892 0.0000
# 3 78.4750 7.4190 168.4218 0.0000 -2.1059 0.0000
# 4 0.0000 0.0000 0.0000 1.4218 0.0000 4.4609
# 5 -4.1515 0.9892 -2.1059 0.0000 32.3636 0.0000
# 6 0.0000 0.0000 0.0000 4.4609 0.0000 0.3542
#
#
#
# Elastic Compliance Matrix: (Units=1/GPa)
#
#
# Indices 1 2 3 4 5 6 
#
# 1 0.009766 0.004461 -0.004737 0.000000 0.000808 0.000000
# 2 0.004461 0.099727 -0.006508 0.000000 -0.002899 0.000000
# 3 -0.004737 -0.006508 0.008433 0.000000 0.000140 0.000000
# 4 0.000000 0.000000 0.000000 -0.018259 0.000000 0.229991
# 5 0.000808 -0.002899 0.000140 0.000000 0.031100 0.000000
# 6 0.000000 0.000000 0.000000 0.229991 0.000000 -0.073306
#
#
# Mechanical properties :
#
#
# Convention : Reuss Voigt Hill
#
# Bulk Modulus (GPa) = 9.58231 54.39671 31.98951
# Shear Modulus (GPa) = 47.25261 22.55219 34.90240
#
# Velocity S-wave (km/s) = 4.96810 3.43219 4.26978
# Velocity P-wave (km/s) = 6.15749 6.64231 6.40449
#
# Compressibility (1/GPa) = 0.10435892
#
# Stress axis : x y z
#
# Youngs Moduli (GPa) = 102.39984 10.02733 118.58319
#
# Poissons Ratio (x) = -0.04473 0.56169
# Poissons Ratio (y) = -0.45680 0.77172
# Poissons Ratio (z) = 0.48503 0.06526
#
# Static dielectric constant tensor:
#      x y z
#    x 3.757900 0.000000 -0.066790 
#    y 0.000000 2.848210 0.000000 
#    z -0.066790 0.000000 4.022850 
# 
# 
# High freq. dielectric constant tensor:
#      x y z
#    x 1.745650 0.000000 0.001700 
#    y 0.000000 1.678630 0.000000 
#    z 0.001700 0.000000 1.757520 
# 
# From -- ./inp_files/55252.got.cif
#   From: 2010.06.25/outbox.cif.g09.slc.cpg/sg10_28_cif.got.tgz:55252.got - 2010.06.27 22:07:45.
