data_PCOD8058036
_publ_section_title
;
Structure prediction by ZEFSAII (Michael W. Deem and Ramdas Pophale) SiO2 
 PCOD8058036
Probable space group: P 2/M
;
_chemical_formula_sum "Si O2"
_cell_formula_units_Z 32
_cell_length_a 17.388996
_cell_length_b 8.889261
_cell_length_c 29.921560
_cell_angle_alpha 90.000000
_cell_angle_beta 20.885451
_cell_angle_gamma 90.000000
_cell_volume 1648.864116
_symmetry_space_group_name_H-M "P 2/M"
_symmetry_group_IT_number 10
_symmetry_cell_setting 'monoclinic'
loop_
_space_group_symop_operation_xyz
x,y,z
-x,y,-z
-x,-y,-z
x,-y,z
loop_
_atom_site_type_symbol
_atom_site_label
_atom_site_fract_x
_atom_site_fract_y
_atom_site_fract_z
Si Si1 0.561405 0.821974 0.314941
Si Si2 0.384552 0.161149 0.018432
Si Si3 0.152477 0.321024 0.580266
Si Si4 0.250334 0.674622 0.871519
Si Si5 0.091961 0.175105 0.705395
Si Si6 0.918243 0.823489 0.190268
Si Si7 0.662054 0.677906 0.076044
Si Si8 0.296830 0.673737 0.213057
O O1 0.341638 0.741257 0.447135
O O2 0.613721 0.776120 0.236040
O O3 0.752537 0.761049 0.243284
O O4 0.533048 0.000000 0.334491
O O5 0.518838 0.292153 0.922644
O O6 0.364118 0.000000 0.002284
O O7 0.500000 0.114089 0.000000
O O8 0.153580 0.226277 0.156462
O O9 0.153799 0.500000 0.579123
O O10 0.191497 0.268374 0.610322
O O11 0.931742 0.251959 0.677435
O O12 0.309854 0.500000 0.832121
O O13 0.310061 0.732291 0.888436
O O14 0.000000 0.704239 0.000000
O O15 0.186968 0.211614 0.703467
O O16 0.121524 0.000000 0.677468
O O17 0.949148 0.000000 0.167601
O O18 0.156038 0.751484 0.054860
O O19 0.695735 0.500000 0.053880
O O20 0.416034 0.724318 0.194687
O O21 0.246506 0.500000 0.241920
#
# Coordination Sequence:
#
# PCOD8058036 Si02
#       8
#     4   4   4   4   4   4   4   4
#     4  11  24  41  61  84 113 150 192 236 284 340
#     4  10  18  29  50  79 110 147 188 231 277 326
#     4  11  24  40  57  79 113 158 201 235 275 331
#     4  10  20  37  63  92 117 144 180 229 288 345
#     4  10  20  35  55  82 116 152 191 233 283 334
#     4  10  21  36  57  86 117 148 185 233 285 338
#     4  10  20  35  58  89 120 146 179 230 289 340
#     4  10  21  35  54  82 115 151 190 233 279 330
#
# _framework density 19.407298999999998
#
# number of rings (size 3 to 8) (size 9 to 14) (size 15 to 20)
#    0.000    1.750    3.750    0.750    0.000    3.500 
#    0.000    3.125    0.000    3.750    0.000    0.000 
#    0.000    0.000    0.000    0.000    0.000    0.000 
#
# Total GULP energy -396504.929227 kJ/mol
# GULP energy per Si atom -12390.779038 kJ/mol
# Density = 1.936313 g / cm^3
# Si number density = 19.407299 Si / 1000 Ang^3
#
#
#
# Elastic Constant Matrix: (Units=GPa)
#
#
# Indices 1 2 3 4 5 6 
#
# 1 114.8438 32.1269 35.6647 0.0000 11.4729 0.0000
# 2 32.1269 39.7519 27.5519 0.0000 3.9418 0.0000
# 3 35.6647 27.5519 83.3990 0.0000 8.7434 0.0000
# 4 0.0000 0.0000 0.0000 28.2566 0.0000 5.8206
# 5 11.4729 3.9418 8.7434 0.0000 27.4016 0.0000
# 6 0.0000 0.0000 0.0000 5.8206 0.0000 25.5786
#
#
#
# Elastic Compliance Matrix: (Units=1/GPa)
#
#
# Indices 1 2 3 4 5 6 
#
# 1 0.011874 -0.007773 -0.002179 0.000000 -0.003158 0.000000
# 2 -0.007773 0.037760 -0.009231 0.000000 0.000768 0.000000
# 3 -0.002179 -0.009231 0.016282 0.000000 -0.002955 0.000000
# 4 0.000000 0.000000 0.000000 0.037131 0.000000 -0.008449
# 5 -0.003158 0.000768 -0.002955 0.000000 0.038649 0.000000
# 6 0.000000 0.000000 0.000000 -0.008449 0.000000 0.041018
#
#
# Mechanical properties :
#
#
# Convention : Reuss Voigt Hill
#
# Bulk Modulus (GPa) = 36.29767 47.63130 41.96448
# Shear Modulus (GPa) = 21.71441 25.75745 23.73593
#
# Velocity S-wave (km/s) = 3.34859 3.64703 3.50099
# Velocity P-wave (km/s) = 5.80469 6.50621 6.16544
#
# Compressibility (1/GPa) = 0.02754998
#
# Stress axis : x y z
#
# Youngs Moduli (GPa) = 84.21678 26.48313 61.41905
#
# Poissons Ratio (x) = 0.20586 0.13382
# Poissons Ratio (y) = 0.65464 0.56695
# Poissons Ratio (z) = 0.18349 0.24446
#
# Static dielectric constant tensor:
#      x y z
#    x 4.029490 0.000000 -0.197760 
#    y 0.000000 3.365320 0.000000 
#    z -0.197760 0.000000 3.387760 
# 
# 
# High freq. dielectric constant tensor:
#      x y z
#    x 1.771270 0.000000 -0.009920 
#    y 0.000000 1.744230 0.000000 
#    z -0.009920 0.000000 1.737190 
# 
# From -- ./inp_files/95478.got.cif
#   From: 2010.06.25/outbox.cif.g09.slc.cpg/sg10_48_cif.got.tgz:95478.got - 2010.06.27 22:07:45.
