data_PCOD8058841
_publ_section_title
;
Structure prediction by ZEFSAII (Michael W. Deem and Ramdas Pophale) SiO2 
 PCOD8058841
Probable space group: P 2/M
;
_chemical_formula_sum "Si O2"
_cell_formula_units_Z 26
_cell_length_a 13.483001
_cell_length_b 9.506402
_cell_length_c 19.866184
_cell_angle_alpha 90.000000
_cell_angle_beta 147.127413
_cell_angle_gamma 90.000000
_cell_volume 1382.086328
_symmetry_space_group_name_H-M "P 2/M"
_symmetry_group_IT_number 10
_symmetry_cell_setting 'monoclinic'
loop_
_space_group_symop_operation_xyz
x,y,z
-x,y,-z
-x,-y,-z
x,-y,z
loop_
_atom_site_type_symbol
_atom_site_label
_atom_site_fract_x
_atom_site_fract_y
_atom_site_fract_z
Si Si1 0.128262 0.155994 0.936661
Si Si2 0.568566 0.832836 0.465835
Si Si3 0.030516 0.162759 0.291549
Si Si4 0.000000 0.747598 0.000000
Si Si5 0.394250 0.344592 0.252458
Si Si6 0.475349 0.335234 0.150033
Si Si7 0.341527 0.166037 0.855891
O O1 0.979318 0.187904 0.794343
O O2 0.214935 0.000000 0.973843
O O3 0.280750 0.274319 0.016538
O O4 0.028678 0.154146 0.951576
O O5 0.500000 0.784497 0.500000
O O6 0.775804 0.774327 0.573297
O O7 0.441764 0.768049 0.336058
O O8 0.556770 0.000000 0.452252
O O9 0.851702 0.225445 0.226250
O O10 0.033424 0.000000 0.310406
O O11 0.821977 0.652440 0.886518
O O12 0.449019 0.500000 0.308821
O O13 0.503289 0.308451 0.245695
O O14 0.481552 0.500000 0.135921
O O15 0.629454 0.251209 0.196771
O O16 0.336966 0.000000 0.838096
O O17 0.500000 0.201408 0.000000
#
# Coordination Sequence:
#
# PCOD8058841 Si02
#       7
#     4   4   4   2   4   4   4
#     4  10  18  32  53  80 111 143 181 225 275 332
#     4  10  21  38  59  83 112 145 184 231 274 323
#     4   9  18  33  54  80 111 142 179 227 278 327
#     4  10  20  32  56  84 108 140 184 232 276 322
#     4  10  22  39  56  77 111 150 185 225 278 333
#     4  10  21  35  52  79 114 146 179 229 282 327
#     4  10  18  33  57  82 109 146 185 228 280 331
#
# _framework density 18.812138999999998
#
# number of rings (size 3 to 8) (size 9 to 14) (size 15 to 20)
#    0.000    2.154    1.538    1.846    0.000    6.154 
#    0.000    2.308    0.000    4.615    0.000    0.000 
#    0.000    0.000    0.000    0.000    0.000    0.000 
#
# Total GULP energy -322293.359866 kJ/mol
# GULP energy per Si atom -12395.898456 kJ/mol
# Density = 1.876932 g / cm^3
# Si number density = 18.812139 Si / 1000 Ang^3
#
#
#
# Elastic Constant Matrix: (Units=GPa)
#
#
# Indices 1 2 3 4 5 6 
#
# 1 138.5032 43.7145 57.5560 0.0000 2.2671 0.0000
# 2 43.7145 69.8483 30.7445 0.0000 -7.9778 0.0000
# 3 57.5560 30.7445 94.5163 0.0000 2.8737 0.0000
# 4 0.0000 0.0000 0.0000 17.8051 0.0000 -4.8236
# 5 2.2671 -7.9778 2.8737 0.0000 30.0774 0.0000
# 6 0.0000 0.0000 0.0000 -4.8236 0.0000 21.3762
#
#
#
# Elastic Compliance Matrix: (Units=1/GPa)
#
#
# Indices 1 2 3 4 5 6 
#
# 1 0.010824 -0.004758 -0.004995 0.000000 -0.001601 0.000000
# 2 -0.004758 0.019575 -0.003649 0.000000 0.005899 0.000000
# 3 -0.004995 -0.003649 0.014870 0.000000 -0.002012 0.000000
# 4 0.000000 0.000000 0.000000 0.059821 0.000000 0.013499
# 5 -0.001601 0.005899 -0.002012 0.000000 0.035125 0.000000
# 6 0.000000 0.000000 0.000000 0.013499 0.000000 0.049827
#
#
# Mechanical properties :
#
#
# Convention : Reuss Voigt Hill
#
# Bulk Modulus (GPa) = 54.15907 62.98864 58.57386
# Shear Modulus (GPa) = 22.42156 25.24194 23.83175
#
# Velocity S-wave (km/s) = 3.45609 3.66702 3.56311
# Velocity P-wave (km/s) = 6.69164 7.17531 6.93769
#
# Compressibility (1/GPa) = 0.01846413
#
# Stress axis : x y z
#
# Youngs Moduli (GPa) = 92.39044 51.08618 67.25036
#
# Poissons Ratio (x) = 0.24309 0.33589
# Poissons Ratio (y) = 0.43963 0.24540
# Poissons Ratio (z) = 0.46145 0.18642
#
# Static dielectric constant tensor:
#      x y z
#    x 3.770450 0.000000 0.100390 
#    y 0.000000 3.203380 0.000000 
#    z 0.100390 0.000000 3.357800 
# 
# 
# High freq. dielectric constant tensor:
#      x y z
#    x 1.743560 0.000000 -0.000430 
#    y 0.000000 1.709270 0.000000 
#    z -0.000430 0.000000 1.712310 
# 
# From -- ./inp_files/84783.got.cif
#   From: 2010.06.25/outbox.cif.g09.slc.cpg/sg10_43_cif.got.tgz:84783.got - 2010.06.27 22:07:45.
