data_PCOD8058483
_publ_section_title
;
Structure prediction by ZEFSAII (Michael W. Deem and Ramdas Pophale) SiO2 
 PCOD8058483
Probable space group: P 2/M
;
_chemical_formula_sum "Si O2"
_cell_formula_units_Z 32
_cell_length_a 12.605869
_cell_length_b 8.956598
_cell_length_c 23.522033
_cell_angle_alpha 90.000000
_cell_angle_beta 46.369667
_cell_angle_gamma 90.000000
_cell_volume 1922.265212
_symmetry_space_group_name_H-M "P 2/M"
_symmetry_group_IT_number 10
_symmetry_cell_setting 'monoclinic'
loop_
_space_group_symop_operation_xyz
x,y,z
-x,y,-z
-x,-y,-z
x,-y,z
loop_
_atom_site_type_symbol
_atom_site_label
_atom_site_fract_x
_atom_site_fract_y
_atom_site_fract_z
Si Si1 0.615987 0.822745 0.688774
Si Si2 0.828368 0.173825 0.412268
Si Si3 0.939844 0.822292 0.581769
Si Si4 0.326434 0.827240 0.853708
Si Si5 0.540346 0.826219 0.591694
Si Si6 0.885497 0.668054 0.991362
Si Si7 0.897819 0.826769 0.164627
Si Si8 0.761207 0.323376 0.322671
O O1 0.773455 0.763912 0.652229
O O2 0.490715 0.770296 0.779163
O O3 0.582377 0.761790 0.638081
O O4 0.617391 0.000000 0.684110
O O5 0.674618 0.200224 0.500057
O O6 0.837562 0.271081 0.352334
O O7 0.959097 0.233737 0.404128
O O8 0.848758 0.000000 0.389617
O O9 0.000000 0.757490 0.500000
O O10 0.945487 0.000000 0.577101
O O11 0.230837 0.798989 0.832919
O O12 0.322624 0.000000 0.872211
O O13 0.267350 0.735755 0.929605
O O14 0.403391 0.737413 0.617885
O O15 0.496407 0.000000 0.611491
O O16 0.858191 0.500000 0.980304
O O17 0.947847 0.765389 0.916336
O O18 0.000000 0.673481 0.000000
O O19 0.858740 0.738134 0.235466
O O20 0.916366 0.000000 0.172188
O O21 0.758088 0.500000 0.320538
#
# Coordination Sequence:
#
# PCOD8058483 Si02
#       8
#     4   4   4   4   4   4   4   4
#     4   9  15  26  47  75 101 125 158 204 251 288
#     4  10  20  33  52  73  95 127 169 210 248 290
#     4   9  15  27  50  77  98 119 159 213 256 286
#     4   9  16  27  45  69  98 129 160 195 238 288
#     4  10  18  32  51  71  96 128 166 206 246 290
#     4   9  17  28  43  67 100 131 159 191 233 287
#     4  10  18  31  50  70  95 127 164 199 240 290
#     4  12  24  34  46  67 100 135 168 203 244 293
#
# _framework density 16.647026
#
# number of rings (size 3 to 8) (size 9 to 14) (size 15 to 20)
#    0.000    2.250    2.500    2.250    0.000    4.000 
#    0.000    0.000    0.000    1.875    0.000    0.875 
#    0.000    7.000    0.000    0.000    0.000    0.000 
#
# Total GULP energy -396789.865974 kJ/mol
# GULP energy per Si atom -12399.683312 kJ/mol
# Density = 1.660914 g / cm^3
# Si number density = 16.647026 Si / 1000 Ang^3
#
#
#
# Elastic Constant Matrix: (Units=GPa)
#
#
# Indices 1 2 3 4 5 6 
#
# 1 98.5996 38.9665 59.1885 0.0000 -2.4888 0.0000
# 2 38.9665 76.0978 52.0754 0.0000 0.6334 0.0000
# 3 59.1885 52.0754 123.8875 0.0000 -15.0851 0.0000
# 4 0.0000 0.0000 0.0000 15.2625 0.0000 3.7131
# 5 -2.4888 0.6334 -15.0851 0.0000 17.1579 0.0000
# 6 0.0000 0.0000 0.0000 3.7131 0.0000 5.6077
#
#
#
# Elastic Compliance Matrix: (Units=1/GPa)
#
#
# Indices 1 2 3 4 5 6 
#
# 1 0.015134 -0.003541 -0.006113 0.000000 -0.003049 0.000000
# 2 -0.003541 0.020423 -0.007893 0.000000 -0.008207 0.000000
# 3 -0.006113 -0.007893 0.015945 0.000000 0.013423 0.000000
# 4 0.000000 0.000000 0.000000 0.078101 0.000000 -0.051714
# 5 -0.003049 -0.008207 0.013423 0.000000 0.069944 0.000000
# 6 0.000000 0.000000 0.000000 -0.051714 0.000000 0.212568
#
#
# Mechanical properties :
#
#
# Convention : Reuss Voigt Hill
#
# Bulk Modulus (GPa) = 60.94260 66.56064 63.75162
# Shear Modulus (GPa) = 11.04538 17.49594 14.27066
#
# Velocity S-wave (km/s) = 2.57865 3.24542 2.93106
# Velocity P-wave (km/s) = 6.74938 7.35622 7.05932
#
# Compressibility (1/GPa) = 0.01640888
#
# Stress axis : x y z
#
# Youngs Moduli (GPa) = 66.07551 48.96368 62.71700
#
# Poissons Ratio (x) = 0.17336 0.38342
# Poissons Ratio (y) = 0.23395 0.49499
# Poissons Ratio (z) = 0.40395 0.38645
#
# Static dielectric constant tensor:
#      x y z
#    x 3.035720 0.000000 -0.128250 
#    y 0.000000 2.922780 0.000000 
#    z -0.128250 0.000000 3.286590 
# 
# 
# High freq. dielectric constant tensor:
#      x y z
#    x 1.608180 0.000000 -0.007520 
#    y 0.000000 1.618220 0.000000 
#    z -0.007520 0.000000 1.650240 
# 
# From -- ./inp_files/52791.got.cif
#   From: 2010.06.25/outbox.cif.g09.slc.cpg/sg10_27_cif.got.tgz:52791.got - 2010.06.27 22:07:45.
