data_PCOD8058680
_publ_section_title
;
Structure prediction by ZEFSAII (Michael W. Deem and Ramdas Pophale) SiO2 
 PCOD8058680
Probable space group: P 2/M
;
_chemical_formula_sum "Si O2"
_cell_formula_units_Z 28
_cell_length_a 14.436172
_cell_length_b 9.290191
_cell_length_c 12.559272
_cell_angle_alpha 90.000000
_cell_angle_beta 60.384208
_cell_angle_gamma 90.000000
_cell_volume 1464.334144
_symmetry_space_group_name_H-M "P 2/M"
_symmetry_group_IT_number 10
_symmetry_cell_setting 'monoclinic'
loop_
_space_group_symop_operation_xyz
x,y,z
-x,y,-z
-x,-y,-z
x,-y,z
loop_
_atom_site_type_symbol
_atom_site_label
_atom_site_fract_x
_atom_site_fract_y
_atom_site_fract_z
Si Si1 0.380086 0.664713 0.029851
Si Si2 0.209581 0.671539 0.539240
Si Si3 0.221415 0.332934 0.297451
Si Si4 0.326514 0.166197 0.850827
Si Si5 0.617503 0.334587 0.388216
Si Si6 0.975798 0.666826 0.727486
Si Si7 0.085982 0.165080 0.033840
O O1 0.346392 0.500000 0.023132
O O2 0.303445 0.733495 0.164590
O O3 0.500000 0.672270 0.000000
O O4 0.371632 0.759053 0.929694
O O5 0.205312 0.500000 0.534657
O O6 0.237433 0.735006 0.406089
O O7 0.298233 0.724201 0.572434
O O8 0.093446 0.730559 0.639873
O O9 0.249741 0.500000 0.287968
O O10 0.098550 0.308430 0.333372
O O11 0.377721 0.239593 0.719352
O O12 0.360522 0.000000 0.833980
O O13 0.199986 0.184483 0.914725
O O14 0.500000 0.318855 0.500000
O O15 0.643592 0.500000 0.344758
O O16 0.982833 0.500000 0.753476
O O17 0.918007 0.745231 0.856731
O O18 0.061332 0.000000 0.076191
O O19 0.000000 0.226891 0.000000
#
# Coordination Sequence:
#
# PCOD8058680 Si02
#       7
#     4   4   4   4   4   4   4
#     4  10  21  36  60  88 112 144 189 237 282 335
#     4   9  18  32  53  83 114 144 181 229 284 332
#     4   9  17  31  53  83 113 140 175 225 282 333
#     4  11  23  39  59  82 115 151 186 233 283 335
#     4  10  22  38  59  83 110 146 189 233 275 330
#     4  10  18  31  54  83 110 139 180 231 279 330
#     4  10  21  36  54  77 110 152 189 225 274 330
#
# _framework density 19.121319
#
# number of rings (size 3 to 8) (size 9 to 14) (size 15 to 20)
#    0.000    2.143    1.429    1.714    2.000    3.143 
#    0.000    0.000    0.000    3.429    0.000    0.000 
#    0.000    0.000    0.000    0.000    0.000    0.000 
#
# Total GULP energy -347231.701915 kJ/mol
# GULP energy per Si atom -12401.132211 kJ/mol
# Density = 1.907780 g / cm^3
# Si number density = 19.121319 Si / 1000 Ang^3
#
#
#
# Elastic Constant Matrix: (Units=GPa)
#
#
# Indices 1 2 3 4 5 6 
#
# 1 88.4265 29.2302 39.6139 0.0000 -3.6267 0.0000
# 2 29.2302 60.5998 46.9250 0.0000 7.4356 0.0000
# 3 39.6139 46.9250 127.1318 0.0000 9.9081 0.0000
# 4 0.0000 0.0000 0.0000 -2.6280 0.0000 -0.7771
# 5 -3.6267 7.4356 9.9081 0.0000 32.3069 0.0000
# 6 0.0000 0.0000 0.0000 -0.7771 0.0000 9.9289
#
#
#
# Elastic Compliance Matrix: (Units=1/GPa)
#
#
# Indices 1 2 3 4 5 6 
#
# 1 0.014470 -0.005208 -0.002875 0.000000 0.003705 0.000000
# 2 -0.005208 0.025224 -0.007366 0.000000 -0.004131 0.000000
# 3 -0.002875 -0.007366 0.011652 0.000000 -0.002201 0.000000
# 4 0.000000 0.000000 0.000000 -0.371908 0.000000 -0.029108
# 5 0.003705 -0.004131 -0.002201 0.000000 0.032995 0.000000
# 6 0.000000 0.000000 0.000000 -0.029108 0.000000 0.098438
#
#
# Mechanical properties :
#
#
# Convention : Reuss Voigt Hill
#
# Bulk Modulus (GPa) = 48.90259 56.41069 52.65664
# Shear Modulus (GPa) = -33.02183 18.61416 -7.20384
#
# Velocity S-wave (km/s) = -4.16018 3.12344 -1.94309
# Velocity P-wave (km/s) = 1.59820 6.52483 4.75014
#
# Compressibility (1/GPa) = 0.02044881
#
# Stress axis : x y z
#
# Youngs Moduli (GPa) = 69.10643 39.64466 85.82161
#
# Poissons Ratio (x) = 0.20646 0.24678
# Poissons Ratio (y) = 0.35989 0.63213
# Poissons Ratio (z) = 0.19871 0.29201
#
# Static dielectric constant tensor:
#      x y z
#    x 3.631990 0.000000 -0.004600 
#    y 0.000000 3.195110 0.000000 
#    z -0.004600 0.000000 3.611540 
# 
# 
# High freq. dielectric constant tensor:
#      x y z
#    x 1.757140 0.000000 -0.000620 
#    y 0.000000 1.701040 0.000000 
#    z -0.000620 0.000000 1.754070 
# 
# From -- ./inp_files/49626.got.cif
#   From: 2010.06.25/outbox.cif.g09.slc.cpg/sg10_25_cif.got.tgz:49626.got - 2010.06.27 22:07:45.
