data_PCOD8058319
_publ_section_title
;
Structure prediction by ZEFSAII (Michael W. Deem and Ramdas Pophale) SiO2 
 PCOD8058319
Probable space group: P 2/M
;
_chemical_formula_sum "Si O2"
_cell_formula_units_Z 32
_cell_length_a 22.962561
_cell_length_b 8.968155
_cell_length_c 28.141156
_cell_angle_alpha 90.000000
_cell_angle_beta 162.004152
_cell_angle_gamma 90.000000
_cell_volume 1790.403239
_symmetry_space_group_name_H-M "P 2/M"
_symmetry_group_IT_number 10
_symmetry_cell_setting 'monoclinic'
loop_
_space_group_symop_operation_xyz
x,y,z
-x,y,-z
-x,-y,-z
x,-y,z
loop_
_atom_site_type_symbol
_atom_site_label
_atom_site_fract_x
_atom_site_fract_y
_atom_site_fract_z
Si Si1 0.073411 0.825157 0.451471
Si Si2 0.287058 0.176367 0.522009
Si Si3 0.759190 0.676264 0.610806
Si Si4 0.063858 0.823193 0.167053
Si Si5 0.295483 0.827092 0.165202
Si Si6 0.211498 0.664130 0.645984
Si Si7 0.683292 0.323227 0.171258
Si Si8 0.626499 0.172615 0.669222
O O1 0.868905 0.750301 0.293169
O O2 0.170136 0.778489 0.477442
O O3 0.214677 0.774085 0.603440
O O4 0.045482 0.000000 0.434731
O O5 0.195421 0.256797 0.405674
O O6 0.501777 0.235910 0.694267
O O7 0.285660 0.000000 0.511454
O O8 0.768944 0.500000 0.615697
O O9 0.919135 0.739165 0.769863
O O10 0.558583 0.726883 0.475971
O O11 0.240267 0.781943 0.270583
O O12 0.053531 0.000000 0.166948
O O13 0.875490 0.754824 0.996838
O O14 0.262620 0.798170 0.195604
O O15 0.289658 0.000000 0.149176
O O16 0.281423 0.500000 0.684070
O O17 0.336777 0.721624 0.788225
O O18 0.000000 0.652721 0.500000
O O19 0.708133 0.500000 0.186106
O O20 0.500000 0.267095 0.000000
O O21 0.562736 0.000000 0.616407
#
# Coordination Sequence:
#
# PCOD8058319 Si02
#       8
#     4   4   4   4   4   4   4   4
#     4  10  19  31  52  78 100 126 162 205 246 283
#     4   9  19  37  55  70  92 126 167 204 242 290
#     4  11  22  33  47  69  98 131 164 200 242 290
#     4  10  18  30  51  74  95 123 158 200 251 299
#     4   8  15  30  52  73  92 119 160 204 240 285
#     4   8  15  29  49  72  98 130 164 193 227 277
#     4   9  18  33  52  75 106 140 167 193 231 280
#     4   9  17  31  51  73  95 122 159 200 245 299
#
# _framework density 17.873069000000001
#
# number of rings (size 3 to 8) (size 9 to 14) (size 15 to 20)
#    0.000    2.750    0.000    3.750    0.000    7.000 
#    0.000    3.750    0.000    8.250    0.000    0.000 
#    0.000    0.000    0.000    0.000    0.000    0.000 
#
# Total GULP energy -396668.762954 kJ/mol
# GULP energy per Si atom -12395.898842 kJ/mol
# Density = 1.783239 g / cm^3
# Si number density = 17.873069 Si / 1000 Ang^3
#
#
#
# Elastic Constant Matrix: (Units=GPa)
#
#
# Indices 1 2 3 4 5 6 
#
# 1 135.5948 49.8036 61.2818 0.0000 -16.5340 0.0000
# 2 49.8036 55.3773 27.2390 0.0000 -5.2039 0.0000
# 3 61.2818 27.2390 74.4867 0.0000 -28.9551 0.0000
# 4 0.0000 0.0000 0.0000 10.4951 0.0000 -3.9120
# 5 -16.5340 -5.2039 -28.9551 0.0000 29.9752 0.0000
# 6 0.0000 0.0000 0.0000 -3.9120 0.0000 18.6245
#
#
#
# Elastic Compliance Matrix: (Units=1/GPa)
#
#
# Indices 1 2 3 4 5 6 
#
# 1 0.014760 -0.008512 -0.010313 0.000000 -0.003298 0.000000
# 2 -0.008512 0.027704 -0.004938 0.000000 -0.004655 0.000000
# 3 -0.010313 -0.004938 0.033901 0.000000 0.026201 0.000000
# 4 0.000000 0.000000 0.000000 0.103376 0.000000 0.021714
# 5 -0.003298 -0.004655 0.026201 0.000000 0.056043 0.000000
# 6 0.000000 0.000000 0.000000 0.021714 0.000000 0.058254
#
#
# Mechanical properties :
#
#
# Convention : Reuss Voigt Hill
#
# Bulk Modulus (GPa) = 34.67404 60.23417 47.45410
# Shear Modulus (GPa) = 14.23786 20.29458 17.26622
#
# Velocity S-wave (km/s) = 2.82549 3.37335 3.11150
# Velocity P-wave (km/s) = 5.48514 6.99621 6.28624
#
# Compressibility (1/GPa) = 0.02884002
#
# Stress axis : x y z
#
# Youngs Moduli (GPa) = 67.75143 36.09546 29.49789
#
# Poissons Ratio (x) = 0.30723 0.30420
# Poissons Ratio (y) = 0.57667 0.14567
# Poissons Ratio (z) = 0.69870 0.17825
#
# Static dielectric constant tensor:
#      x y z
#    x 3.412650 0.000000 -0.309870 
#    y 0.000000 3.082560 0.000000 
#    z -0.309870 0.000000 3.475860 
# 
# 
# High freq. dielectric constant tensor:
#      x y z
#    x 1.689580 0.000000 -0.022150 
#    y 0.000000 1.669690 0.000000 
#    z -0.022150 0.000000 1.681840 
# 
# From -- ./inp_files/93765.got.cif
#   From: 2010.06.25/outbox.cif.g09.slc.cpg/sg10_47_cif.got.tgz:93765.got - 2010.06.27 22:07:45.
