data_PCOD8058214
_publ_section_title
;
Structure prediction by ZEFSAII (Michael W. Deem and Ramdas Pophale) SiO2 
 PCOD8058214
Probable space group: P 2/M
;
_chemical_formula_sum "Si O2"
_cell_formula_units_Z 32
_cell_length_a 14.244313
_cell_length_b 9.130981
_cell_length_c 15.901781
_cell_angle_alpha 90.000000
_cell_angle_beta 62.937382
_cell_angle_gamma 90.000000
_cell_volume 1841.804091
_symmetry_space_group_name_H-M "P 2/M"
_symmetry_group_IT_number 10
_symmetry_cell_setting 'monoclinic'
loop_
_space_group_symop_operation_xyz
x,y,z
-x,y,-z
-x,-y,-z
x,-y,z
loop_
_atom_site_type_symbol
_atom_site_label
_atom_site_fract_x
_atom_site_fract_y
_atom_site_fract_z
Si Si1 0.115369 0.833478 0.046733
Si Si2 0.215858 0.671374 0.857255
Si Si3 0.655991 0.669233 0.770281
Si Si4 0.675073 0.168085 0.937046
Si Si5 0.047608 0.826952 0.607197
Si Si6 0.581020 0.332427 0.125195
Si Si7 0.096461 0.172381 0.771373
Si Si8 0.162774 0.173155 0.394081
O O1 0.206891 0.815454 0.077451
O O2 0.008332 0.786363 0.135130
O O3 0.110077 0.000000 0.015395
O O4 0.132967 0.730025 0.959780
O O5 0.199182 0.500000 0.853351
O O6 0.334526 0.711914 0.837794
O O7 0.194960 0.748914 0.776316
O O8 0.687043 0.500000 0.764588
O O9 0.670464 0.741305 0.854403
O O10 0.535210 0.689281 0.789252
O O11 0.729168 0.745927 0.671598
O O12 0.645373 0.000000 0.931507
O O13 0.592619 0.231641 0.038202
O O14 0.084387 0.763188 0.681915
O O15 0.132265 0.782641 0.501745
O O16 0.930612 0.771213 0.629827
O O17 0.039340 0.000000 0.616276
O O18 0.600127 0.500000 0.088926
O O19 0.117646 0.000000 0.760935
O O20 0.179882 0.000000 0.378175
#
# Coordination Sequence:
#
# PCOD8058214 Si02
#       8
#     4   4   4   4   4   4   4   4
#     4   9  18  31  47  69  98 128 155 187 231 282
#     4  10  20  33  47  65  92 127 165 200 231 268
#     4  11  21  32  48  70  97 129 160 193 239 286
#     4  10  19  31  49  73  98 125 161 199 232 277
#     4   8  16  32  54  76  99 125 150 186 239 289
#     4   9  20  36  48  62  94 134 164 195 239 282
#     4  10  18  30  49  71  95 124 156 189 233 285
#     4   9  17  33  55  76  97 123 156 190 229 283
#
# _framework density 17.374271
#
# number of rings (size 3 to 8) (size 9 to 14) (size 15 to 20)
#    0.000    2.500    0.000    3.375    0.000    7.500 
#    0.000    3.750    0.000    0.750    0.000    5.250 
#    0.000    0.000    0.000    0.000    0.000    0.000 
#
# Total GULP energy -396811.710614 kJ/mol
# GULP energy per Si atom -12400.365957 kJ/mol
# Density = 1.733473 g / cm^3
# Si number density = 17.374271 Si / 1000 Ang^3
#
#
#
# Elastic Constant Matrix: (Units=GPa)
#
#
# Indices 1 2 3 4 5 6 
#
# 1 88.5345 43.0135 74.9130 0.0000 5.6994 0.0000
# 2 43.0135 70.6496 49.3669 0.0000 -0.5649 0.0000
# 3 74.9130 49.3669 105.2313 0.0000 4.8062 0.0000
# 4 0.0000 0.0000 0.0000 12.8387 0.0000 -1.2925
# 5 5.6994 -0.5649 4.8062 0.0000 31.4935 0.0000
# 6 0.0000 0.0000 0.0000 -1.2925 0.0000 27.2783
#
#
#
# Elastic Compliance Matrix: (Units=1/GPa)
#
#
# Indices 1 2 3 4 5 6 
#
# 1 0.029710 -0.005079 -0.018648 0.000000 -0.002622 0.000000
# 2 -0.005079 0.022039 -0.006831 0.000000 0.002357 0.000000
# 3 -0.018648 -0.006831 0.026015 0.000000 -0.000718 0.000000
# 4 0.000000 0.000000 0.000000 0.078263 0.000000 0.003708
# 5 -0.002622 0.002357 -0.000718 0.000000 0.032379 0.000000
# 6 0.000000 0.000000 0.000000 0.003708 0.000000 0.036835
#
#
# Mechanical properties :
#
#
# Convention : Reuss Voigt Hill
#
# Bulk Modulus (GPa) = 60.06489 66.55583 63.31036
# Shear Modulus (GPa) = 17.12877 20.79688 18.96282
#
# Velocity S-wave (km/s) = 3.14326 3.46351 3.30727
# Velocity P-wave (km/s) = 6.91518 7.37461 7.14858
#
# Compressibility (1/GPa) = 0.01664866
#
# Stress axis : x y z
#
# Youngs Moduli (GPa) = 33.65835 45.37491 38.43863
#
# Poissons Ratio (x) = 0.23046 0.71680
# Poissons Ratio (y) = 0.17095 0.26257
# Poissons Ratio (z) = 0.62766 0.30995
#
# Static dielectric constant tensor:
#      x y z
#    x 3.417080 0.000000 0.076310 
#    y 0.000000 3.162160 0.000000 
#    z 0.076310 0.000000 3.242990 
# 
# 
# High freq. dielectric constant tensor:
#      x y z
#    x 1.674430 0.000000 0.002650 
#    y 0.000000 1.661810 0.000000 
#    z 0.002650 0.000000 1.652180 
# 
# From -- ./inp_files/66462.got.cif
#   From: 2010.06.25/outbox.cif.g09.slc.cpg/sg10_34_cif.got.tgz:66462.got - 2010.06.27 22:07:45.
