data_PCOD8058773
_publ_section_title
;
Structure prediction by ZEFSAII (Michael W. Deem and Ramdas Pophale) SiO2 
 PCOD8058773
Probable space group: P 2/M
;
_chemical_formula_sum "Si O2"
_cell_formula_units_Z 32
_cell_length_a 19.972566
_cell_length_b 8.826647
_cell_length_c 24.373548
_cell_angle_alpha 90.000000
_cell_angle_beta 23.985286
_cell_angle_gamma 90.000000
_cell_volume 1746.670916
_symmetry_space_group_name_H-M "P 2/M"
_symmetry_group_IT_number 10
_symmetry_cell_setting 'monoclinic'
loop_
_space_group_symop_operation_xyz
x,y,z
-x,y,-z
-x,-y,-z
x,-y,z
loop_
_atom_site_type_symbol
_atom_site_label
_atom_site_fract_x
_atom_site_fract_y
_atom_site_fract_z
Si Si1 0.643797 0.325570 0.772123
Si Si2 0.732363 0.323661 0.932949
Si Si3 0.459010 0.330858 0.615238
Si Si4 0.231049 0.671255 0.696423
Si Si5 0.963474 0.177563 0.246635
Si Si6 0.304317 0.318964 0.475066
Si Si7 0.848366 0.326006 0.725684
Si Si8 0.806705 0.823129 0.548911
O O1 0.668459 0.500000 0.736411
O O2 0.711370 0.296914 0.782347
O O3 0.743908 0.220650 0.655814
O O4 0.453468 0.278899 0.913483
O O5 0.766196 0.500000 0.918573
O O6 0.765526 0.281990 0.845020
O O7 0.847566 0.224928 0.886513
O O8 0.398834 0.500000 0.672622
O O9 0.617269 0.334043 0.458230
O O10 0.302356 0.255114 0.700597
O O11 0.526718 0.257147 0.621445
O O12 0.164385 0.500000 0.755395
O O13 0.088974 0.773743 0.775901
O O14 0.858258 0.259397 0.372624
O O15 0.939772 0.000000 0.270861
O O16 0.299285 0.500000 0.481206
O O17 0.305444 0.262207 0.412083
O O18 0.909274 0.500000 0.679827
O O19 0.003299 0.219979 0.598741
O O20 0.786917 0.000000 0.554143
#
# Coordination Sequence:
#
# PCOD8058773 Si02
#       8
#     4   4   4   4   4   4   4   4
#     4  10  22  39  58  80 103 134 179 222 262 311
#     4  10  20  36  58  80 103 136 177 221 264 308
#     4   7  12  23  43  68  93 126 170 215 256 295
#     4   8  13  25  43  65  96 133 170 208 252 303
#     4  11  20  29  45  74 108 139 171 209 257 313
#     4  10  18  32  52  72  98 136 179 220 257 301
#     4  10  20  37  61  82 102 132 174 222 265 311
#     4  12  24  36  52  79 111 143 174 211 263 319
#
# _framework density 18.320567
#
# number of rings (size 3 to 8) (size 9 to 14) (size 15 to 20)
#    0.000    2.250    1.250    4.875    0.000    4.000 
#    0.000    5.625    0.000    2.250    0.000    0.875 
#    0.000    7.000    0.000    0.000    0.000    0.000 
#
# Total GULP energy -396598.217509 kJ/mol
# GULP energy per Si atom -12393.694297 kJ/mol
# Density = 1.827887 g / cm^3
# Si number density = 18.320567 Si / 1000 Ang^3
#
#
#
# Elastic Constant Matrix: (Units=GPa)
#
#
# Indices 1 2 3 4 5 6 
#
# 1 89.1537 29.6871 24.5539 0.0000 -34.8424 0.0000
# 2 29.6871 79.9398 25.4203 0.0000 -10.2102 0.0000
# 3 24.5539 25.4203 40.8993 0.0000 -3.2004 0.0000
# 4 0.0000 0.0000 0.0000 1.4786 0.0000 1.2237
# 5 -34.8424 -10.2102 -3.2004 0.0000 23.6118 0.0000
# 6 0.0000 0.0000 0.0000 1.2237 0.0000 12.3012
#
#
#
# Elastic Compliance Matrix: (Units=1/GPa)
#
#
# Indices 1 2 3 4 5 6 
#
# 1 0.035857 -0.001663 -0.016585 0.000000 0.049945 0.000000
# 2 -0.001663 0.016404 -0.008929 0.000000 0.003429 0.000000
# 3 -0.016585 -0.008929 0.038144 0.000000 -0.023164 0.000000
# 4 0.000000 0.000000 0.000000 0.736978 0.000000 -0.073316
# 5 0.049945 0.003429 -0.023164 0.000000 0.114396 0.000000
# 6 0.000000 0.000000 0.000000 -0.073316 0.000000 0.088586
#
#
# Mechanical properties :
#
#
# Convention : Reuss Voigt Hill
#
# Bulk Modulus (GPa) = 27.73813 41.03504 34.38659
# Shear Modulus (GPa) = 4.55897 16.16709 10.36303
#
# Velocity S-wave (km/s) = 1.57919 2.97384 2.38092
# Velocity P-wave (km/s) = 4.30098 5.85138 5.13503
#
# Compressibility (1/GPa) = 0.03605146
#
# Stress axis : x y z
#
# Youngs Moduli (GPa) = 27.88827 60.95916 26.21633
#
# Poissons Ratio (x) = 0.10139 0.43480
# Poissons Ratio (y) = 0.04638 0.23409
# Poissons Ratio (z) = 0.46253 0.54431
#
# Static dielectric constant tensor:
#      x y z
#    x 3.946170 0.000000 -0.344730 
#    y 0.000000 3.184920 0.000000 
#    z -0.344730 0.000000 3.054760 
# 
# 
# High freq. dielectric constant tensor:
#      x y z
#    x 1.729220 0.000000 -0.028860 
#    y 0.000000 1.688340 0.000000 
#    z -0.028860 0.000000 1.668110 
# 
# From -- ./inp_files/93648.got.cif
#   From: 2010.06.25/outbox.cif.g09.slc.cpg/sg10_47_cif.got.tgz:93648.got - 2010.06.27 22:07:45.
