data_PCOD8058931
_publ_section_title
;
Structure prediction by ZEFSAII (Michael W. Deem and Ramdas Pophale) SiO2 
 PCOD8058931
Probable space group: P 2/M
;
_chemical_formula_sum "Si O2"
_cell_formula_units_Z 32
_cell_length_a 26.134623
_cell_length_b 9.033743
_cell_length_c 15.501609
_cell_angle_alpha 90.000000
_cell_angle_beta 27.141391
_cell_angle_gamma 90.000000
_cell_volume 1669.569483
_symmetry_space_group_name_H-M "P 2/M"
_symmetry_group_IT_number 10
_symmetry_cell_setting 'monoclinic'
loop_
_space_group_symop_operation_xyz
x,y,z
-x,y,-z
-x,-y,-z
x,-y,z
loop_
_atom_site_type_symbol
_atom_site_label
_atom_site_fract_x
_atom_site_fract_y
_atom_site_fract_z
Si Si1 0.272362 0.324362 0.934764
Si Si2 0.874170 0.676226 0.688519
Si Si3 0.743331 0.330256 0.232282
Si Si4 0.260686 0.171212 0.443561
Si Si5 0.872060 0.824930 0.190182
Si Si6 0.272338 0.675521 0.253253
Si Si7 0.497367 0.669572 0.330862
Si Si8 0.506861 0.171089 0.138811
O O1 0.268286 0.500000 0.938312
O O2 0.236703 0.265575 0.893931
O O3 0.397943 0.273628 0.769986
O O4 0.187441 0.260940 0.134016
O O5 0.875435 0.500000 0.688593
O O6 0.808181 0.731156 0.702916
O O7 0.000000 0.740419 0.500000
O O8 0.782159 0.500000 0.182128
O O9 0.815796 0.235414 0.188731
O O10 0.611572 0.315531 0.447227
O O11 0.193071 0.234654 0.627552
O O12 0.221750 0.262456 0.418278
O O13 0.393187 0.193885 0.256135
O O14 0.230616 0.000000 0.474218
O O15 0.863293 0.000000 0.199797
O O16 0.000000 0.769845 0.000000
O O17 0.277390 0.500000 0.250188
O O18 0.396874 0.736040 0.051822
O O19 0.516132 0.500000 0.271484
O O20 0.484309 0.774203 0.268711
O O21 0.542603 0.000000 0.086923
#
# Coordination Sequence:
#
# PCOD8058931 Si02
#       8
#     4   4   4   4   4   4   4   4
#     4   9  17  32  53  80 114 145 175 218 279 335
#     4   9  18  33  53  78 109 144 180 219 269 326
#     4  10  20  33  57  86 111 141 181 233 280 325
#     4  10  22  39  57  80 111 149 186 226 280 335
#     4  10  22  41  60  77 108 154 194 229 276 332
#     4  11  22  36  58  87 113 144 184 231 278 328
#     4  10  18  32  55  83 112 143 180 223 277 333
#     4  11  21  35  57  82 112 150 184 221 276 336
#
# _framework density 19.166616999999999
#
# number of rings (size 3 to 8) (size 9 to 14) (size 15 to 20)
#    0.000    2.000    2.500    1.500    0.000    5.750 
#    0.000    1.875    0.000    3.000    0.000    0.000 
#    0.000    0.000    0.000    0.000    0.000    0.000 
#
# Total GULP energy -396852.966153 kJ/mol
# GULP energy per Si atom -12401.655192 kJ/mol
# Density = 1.912299 g / cm^3
# Si number density = 19.166617 Si / 1000 Ang^3
#
#
#
# Elastic Constant Matrix: (Units=GPa)
#
#
# Indices 1 2 3 4 5 6 
#
# 1 145.2833 35.7522 77.8167 0.0000 25.9489 0.0000
# 2 35.7522 37.4529 28.8140 0.0000 4.3085 0.0000
# 3 77.8167 28.8140 113.5756 0.0000 -5.1238 0.0000
# 4 0.0000 0.0000 0.0000 19.8726 0.0000 9.0270
# 5 25.9489 4.3085 -5.1238 0.0000 30.7388 0.0000
# 6 0.0000 0.0000 0.0000 9.0270 0.0000 -1.4065
#
#
#
# Elastic Compliance Matrix: (Units=1/GPa)
#
#
# Indices 1 2 3 4 5 6 
#
# 1 0.016761 -0.006100 -0.010616 0.000000 -0.015063 0.000000
# 2 -0.006100 0.036570 -0.005136 0.000000 -0.000833 0.000000
# 3 -0.010616 -0.005136 0.017953 0.000000 0.012674 0.000000
# 4 0.000000 0.000000 0.000000 0.012852 0.000000 0.082485
# 5 -0.015063 -0.000833 0.012674 0.000000 0.047478 0.000000
# 6 0.000000 0.000000 0.000000 0.082485 0.000000 -0.181587
#
#
# Mechanical properties :
#
#
# Convention : Reuss Voigt Hill
#
# Bulk Modulus (GPa) = 36.25735 64.56419 50.41077
# Shear Modulus (GPa) = 1710.91788 20.10290 865.51039
#
# Velocity S-wave (km/s) = 29.90975 3.24211 21.27327
# Velocity P-wave (km/s) = 34.81018 6.91187 25.09505
#
# Compressibility (1/GPa) = 0.02758061
#
# Stress axis : x y z
#
# Youngs Moduli (GPa) = 59.66395 27.34475 55.70133
#
# Poissons Ratio (x) = 0.16679 0.59131
# Poissons Ratio (y) = 0.36392 0.28610
# Poissons Ratio (z) = 0.63337 0.14045
#
# Static dielectric constant tensor:
#      x y z
#    x 3.658420 0.000000 0.089020 
#    y 0.000000 3.228030 0.000000 
#    z 0.089020 0.000000 3.720660 
# 
# 
# High freq. dielectric constant tensor:
#      x y z
#    x 1.756930 0.000000 0.007600 
#    y 0.000000 1.712200 0.000000 
#    z 0.007600 0.000000 1.750650 
# 
# From -- ./inp_files/71439.got.cif
#   From: 2010.06.25/outbox.cif.g09.slc.cpg/sg10_36_cif.got.tgz:71439.got - 2010.06.27 22:07:45.
