data_PCOD8058438
_publ_section_title
;
Structure prediction by ZEFSAII (Michael W. Deem and Ramdas Pophale) SiO2 
 PCOD8058438
Probable space group: P 2/M
;
_chemical_formula_sum "Si O2"
_cell_formula_units_Z 24
_cell_length_a 20.754090
_cell_length_b 9.004312
_cell_length_c 11.968158
_cell_angle_alpha 90.000000
_cell_angle_beta 38.403295
_cell_angle_gamma 90.000000
_cell_volume 1389.338248
_symmetry_space_group_name_H-M "P 2/M"
_symmetry_group_IT_number 10
_symmetry_cell_setting 'monoclinic'
loop_
_space_group_symop_operation_xyz
x,y,z
-x,y,-z
-x,-y,-z
x,-y,z
loop_
_atom_site_type_symbol
_atom_site_label
_atom_site_fract_x
_atom_site_fract_y
_atom_site_fract_z
Si Si1 0.150543 0.832627 0.083767
Si Si2 0.385600 0.324737 0.147717
Si Si3 0.773188 0.675516 0.819870
Si Si4 0.208579 0.676147 0.553433
Si Si5 0.917819 0.169485 0.457316
Si Si6 0.884964 0.176074 0.119394
O O1 0.231451 0.734103 0.046105
O O2 0.041250 0.827039 0.295801
O O3 0.193434 0.000000 0.022059
O O4 0.138759 0.770900 0.974303
O O5 0.396674 0.500000 0.130863
O O6 0.329217 0.273598 0.109658
O O7 0.317661 0.277286 0.347817
O O8 0.500000 0.250928 0.000000
O O9 0.785442 0.500000 0.802319
O O10 0.873327 0.745514 0.624463
O O11 0.194660 0.500000 0.573681
O O12 0.115255 0.748856 0.611128
O O13 0.201555 0.742411 0.687387
O O14 0.877151 0.000000 0.511012
O O15 0.874191 0.000000 0.146922
O O16 0.000000 0.227254 0.000000
#
# Coordination Sequence:
#
# PCOD8058438 Si02
#       6
#     4   4   4   4   4   4
#     4  10  20  32  47  66  95 138 171 190 228 293
#     4   8  16  33  54  73  96 125 156 198 254 306
#     4  10  20  31  47  74  99 121 159 209 253 285
#     4  10  19  30  49  78 101 123 163 212 251 276
#     4  10  18  31  48  66  96 137 170 192 230 295
#     4  10  19  34  50  67  97 140 177 194 225 291
#
# _framework density 17.274412000000002
#
# number of rings (size 3 to 8) (size 9 to 14) (size 15 to 20)
#    0.000    2.333    1.667    3.000    0.000    4.333 
#    0.000    0.000    0.000   19.000    0.000    7.000 
#    0.000    0.000    0.000    0.000    0.000    0.000 
#
# Total GULP energy -297518.299386 kJ/mol
# GULP energy per Si atom -12396.595808 kJ/mol
# Density = 1.723509 g / cm^3
# Si number density = 17.274412 Si / 1000 Ang^3
#
#
#
# Elastic Constant Matrix: (Units=GPa)
#
#
# Indices 1 2 3 4 5 6 
#
# 1 129.5225 44.1270 71.6491 0.0000 21.3307 0.0000
# 2 44.1270 64.7042 33.1986 0.0000 9.0361 0.0000
# 3 71.6491 33.1986 78.0580 0.0000 7.5671 0.0000
# 4 0.0000 0.0000 0.0000 10.3748 0.0000 13.2469
# 5 21.3307 9.0361 7.5671 0.0000 27.6524 0.0000
# 6 0.0000 0.0000 0.0000 13.2469 0.0000 25.3704
#
#
#
# Elastic Compliance Matrix: (Units=1/GPa)
#
#
# Indices 1 2 3 4 5 6 
#
# 1 0.018582 -0.003973 -0.014488 0.000000 -0.009071 0.000000
# 2 -0.003973 0.021122 -0.005100 0.000000 -0.002442 0.000000
# 3 -0.014488 -0.005100 0.027770 0.000000 0.005243 0.000000
# 4 0.000000 0.000000 0.000000 0.289183 0.000000 -0.150994
# 5 -0.009071 -0.002442 0.005243 0.000000 0.042524 0.000000
# 6 0.000000 0.000000 0.000000 -0.150994 0.000000 0.118256
#
#
# Mechanical properties :
#
#
# Convention : Reuss Voigt Hill
#
# Bulk Modulus (GPa) = 49.13154 63.35934 56.24544
# Shear Modulus (GPa) = 8.75131 20.90019 14.82575
#
# Velocity S-wave (km/s) = 2.25323 3.48212 2.93277
# Velocity P-wave (km/s) = 5.93910 7.27494 6.64069
#
# Compressibility (1/GPa) = 0.02035353
#
# Stress axis : x y z
#
# Youngs Moduli (GPa) = 53.81482 47.34394 36.01009
#
# Poissons Ratio (x) = 0.18808 0.52170
# Poissons Ratio (y) = 0.21378 0.18366
# Poissons Ratio (z) = 0.77965 0.24147
#
# Static dielectric constant tensor:
#      x y z
#    x 3.367940 0.000000 0.102830 
#    y 0.000000 3.131070 0.000000 
#    z 0.102830 0.000000 3.198460 
# 
# 
# High freq. dielectric constant tensor:
#      x y z
#    x 1.661420 0.000000 0.021930 
#    y 0.000000 1.659600 0.000000 
#    z 0.021930 0.000000 1.641810 
# 
# From -- ./inp_files/45184.got.cif
#   From: 2010.06.25/outbox.cif.g09.slc.cpg/sg10_23_cif.got.tgz:45184.got - 2010.06.27 22:07:45.
