data_PCOD8058123
_publ_section_title
;
Structure prediction by ZEFSAII (Michael W. Deem and Ramdas Pophale) SiO2 
 PCOD8058123
Probable space group: P 2/M
;
_chemical_formula_sum "Si O2"
_cell_formula_units_Z 16
_cell_length_a 5.319116
_cell_length_b 13.207319
_cell_length_c 13.123169
_cell_angle_alpha 90.000000
_cell_angle_beta 78.299266
_cell_angle_gamma 90.000000
_cell_volume 902.761897
_symmetry_space_group_name_H-M "P 2/M"
_symmetry_group_IT_number 10
_symmetry_cell_setting 'monoclinic'
loop_
_space_group_symop_operation_xyz
x,y,z
-x,y,-z
-x,-y,-z
x,-y,z
loop_
_atom_site_type_symbol
_atom_site_label
_atom_site_fract_x
_atom_site_fract_y
_atom_site_fract_z
Si Si1 0.302559 0.883044 0.394939
Si Si2 0.119332 0.618940 0.761633
Si Si3 0.442152 0.619390 0.115657
Si Si4 0.188831 0.799872 0.622271
O O1 0.251019 0.812903 0.497960
O O2 0.586077 0.855059 0.330423
O O3 0.083633 0.855030 0.330414
O O4 0.285901 0.000000 0.428141
O O5 0.133128 0.500000 0.734319
O O6 0.334649 0.652829 0.825123
O O7 0.173132 0.681567 0.653722
O O8 0.840481 0.652687 0.825219
O O9 0.447806 0.500000 0.105183
O O10 0.500000 0.667912 0.000000
#
# Coordination Sequence:
#
# PCOD8058123 Si02
#       4
#     4   4   4   4
#     4  10  19  33  50  68  93 118 154 203 237 264
#     4  10  19  30  45  69 100 126 153 187 220 271
#     4   9  17  30  47  65  90 126 159 189 226 262
#     4  10  18  30  47  69  94 123 152 189 234 272
#
# _framework density 17.723389999999998
#
# number of rings (size 3 to 8) (size 9 to 14) (size 15 to 20)
#    0.000    2.250    0.000    6.000    0.000    3.000 
#    0.000    5.000    0.000    0.000    0.000    0.000 
#    0.000  116.000    0.000    0.000    0.000    0.000 
#
# Total GULP energy -198233.923681 kJ/mol
# GULP energy per Si atom -12389.620230 kJ/mol
# Density = 1.768305 g / cm^3
# Si number density = 17.723390 Si / 1000 Ang^3
#
#
#
# Elastic Constant Matrix: (Units=GPa)
#
#
# Indices 1 2 3 4 5 6 
#
# 1 204.3773 48.6917 30.7591 0.0000 5.6385 0.0000
# 2 48.6917 96.6432 56.6658 0.0000 -0.2575 0.0000
# 3 30.7591 56.6658 61.5698 0.0000 -0.3942 0.0000
# 4 0.0000 0.0000 0.0000 4.8197 0.0000 0.4359
# 5 5.6385 -0.2575 -0.3942 0.0000 8.5754 0.0000
# 6 0.0000 0.0000 0.0000 0.4359 0.0000 16.9105
#
#
#
# Elastic Compliance Matrix: (Units=1/GPa)
#
#
# Indices 1 2 3 4 5 6 
#
# 1 0.005689 -0.002597 -0.000476 0.000000 -0.003841 0.000000
# 2 -0.002597 0.023663 -0.020471 0.000000 0.001477 0.000000
# 3 -0.000476 -0.020471 0.035329 0.000000 0.001323 0.000000
# 4 0.000000 0.000000 0.000000 0.207968 0.000000 -0.005361
# 5 -0.003841 0.001477 0.001323 0.000000 0.119243 0.000000
# 6 0.000000 0.000000 0.000000 -0.005361 0.000000 0.059273
#
#
# Mechanical properties :
#
#
# Convention : Reuss Voigt Hill
#
# Bulk Modulus (GPa) = 56.84629 70.53596 63.69112
# Shear Modulus (GPa) = 9.91830 21.15937 15.53883
#
# Velocity S-wave (km/s) = 2.36819 3.45899 2.96419
# Velocity P-wave (km/s) = 6.29456 7.47244 6.90865
#
# Compressibility (1/GPa) = 0.01759130
#
# Stress axis : x y z
#
# Youngs Moduli (GPa) = 175.76593 42.26016 28.30554
#
# Poissons Ratio (x) = 0.10977 0.01348
# Poissons Ratio (y) = 0.45653 0.57945
# Poissons Ratio (z) = 0.08373 0.86511
#
# Static dielectric constant tensor:
#      x y z
#    x 4.957250 0.000000 0.071590 
#    y 0.000000 3.005200 0.000000 
#    z 0.071590 0.000000 2.933740 
# 
# 
# High freq. dielectric constant tensor:
#      x y z
#    x 1.732090 0.000000 0.003580 
#    y 0.000000 1.654250 0.000000 
#    z 0.003580 0.000000 1.630270 
# 
# From -- ./inp_files/6081.got.cif
#   From: 2010.06.25/outbox.cif.g09.slc.cpg/sg10_4_cif.got.tgz:6081.got - 2010.06.27 22:07:45.
