data_PCOD8058964
_publ_section_title
;
Structure prediction by ZEFSAII (Michael W. Deem and Ramdas Pophale) SiO2 
 PCOD8058964
Probable space group: P 2/M
;
_chemical_formula_sum "Si O2"
_cell_formula_units_Z 32
_cell_length_a 15.055237
_cell_length_b 13.309147
_cell_length_c 9.493491
_cell_angle_alpha 90.000000
_cell_angle_beta 118.222471
_cell_angle_gamma 90.000000
_cell_volume 1676.092030
_symmetry_space_group_name_H-M "P 2/M"
_symmetry_group_IT_number 10
_symmetry_cell_setting 'monoclinic'
loop_
_space_group_symop_operation_xyz
x,y,z
-x,y,-z
-x,-y,-z
x,-y,z
loop_
_atom_site_type_symbol
_atom_site_label
_atom_site_fract_x
_atom_site_fract_y
_atom_site_fract_z
Si Si1 0.201544 0.384038 0.298418
Si Si2 0.795927 0.888281 0.089489
Si Si3 0.039763 0.301586 0.379622
Si Si4 0.390659 0.243094 0.402604
Si Si5 0.846398 0.883193 0.433517
Si Si6 0.630104 0.883646 0.347514
Si Si7 0.586143 0.114998 0.848282
Si Si8 0.090895 0.728054 0.978468
O O1 0.230498 0.500000 0.318662
O O2 0.136061 0.361307 0.389984
O O3 0.304906 0.322546 0.376697
O O4 0.139506 0.359798 0.109225
O O5 0.862741 0.869935 0.278475
O O6 0.827591 0.814249 0.988180
O O7 0.815826 0.000000 0.047031
O O8 0.674805 0.877212 0.032779
O O9 0.072261 0.184373 0.423438
O O10 0.000000 0.345559 0.500000
O O11 0.948848 0.314150 0.200399
O O12 0.500000 0.297413 0.500000
O O13 0.389859 0.150044 0.508923
O O14 0.376437 0.194089 0.239903
O O15 0.734694 0.835912 0.372905
O O16 0.860665 0.000000 0.489760
O O17 0.527217 0.857054 0.181242
O O18 0.652539 0.000000 0.358952
O O19 0.580681 0.000000 0.785784
O O20 0.000000 0.776938 0.000000
#
# Coordination Sequence:
#
# PCOD8058964 Si02
#       8
#     4   4   4   4   4   4   4   4
#     4  11  24  42  61  83 109 139 185 243 294 332
#     4  10  19  32  52  81 115 149 185 218 261 328
#     4  11  22  39  62  82 110 145 190 234 277 335
#     4  10  18  32  57  84 110 141 177 221 277 335
#     4  10  20  33  54  83 117 152 182 218 270 329
#     4   9  17  30  50  80 114 148 181 217 266 326
#     4   9  17  29  50  80 115 148 182 219 258 325
#     4  10  22  38  56  78 109 145 183 230 279 328
#
# _framework density 19.092030000000001
#
# number of rings (size 3 to 8) (size 9 to 14) (size 15 to 20)
#    0.000    2.000    3.750    0.375    0.000    5.750 
#    0.000    4.375    0.000    0.000    0.000    0.000 
#    0.000    6.000    0.000    0.000    0.000    0.000 
#
# Total GULP energy -396434.382848 kJ/mol
# GULP energy per Si atom -12388.574464 kJ/mol
# Density = 1.904858 g / cm^3
# Si number density = 19.092030 Si / 1000 Ang^3
#
#
#
# Elastic Constant Matrix: (Units=GPa)
#
#
# Indices 1 2 3 4 5 6 
#
# 1 94.1033 4.9941 14.0784 0.0000 9.3450 0.0000
# 2 4.9941 30.4942 -1.2990 0.0000 2.5974 0.0000
# 3 14.0784 -1.2990 69.2480 0.0000 7.3034 0.0000
# 4 0.0000 0.0000 0.0000 16.6199 0.0000 -2.8265
# 5 9.3450 2.5974 7.3034 0.0000 27.9590 0.0000
# 6 0.0000 0.0000 0.0000 -2.8265 0.0000 15.4539
#
#
#
# Elastic Compliance Matrix: (Units=1/GPa)
#
#
# Indices 1 2 3 4 5 6 
#
# 1 0.011324 -0.001676 -0.002006 0.000000 -0.003105 0.000000
# 2 -0.001676 0.033366 0.001269 0.000000 -0.002871 0.000000
# 3 -0.002006 0.001269 0.015234 0.000000 -0.003427 0.000000
# 4 0.000000 0.000000 0.000000 0.062100 0.000000 0.011358
# 5 -0.003105 -0.002871 -0.003427 0.000000 0.037966 0.000000
# 6 0.000000 0.000000 0.000000 0.011358 0.000000 0.066786
#
#
# Mechanical properties :
#
#
# Convention : Reuss Voigt Hill
#
# Bulk Modulus (GPa) = 18.14899 25.48806 21.81853
# Shear Modulus (GPa) = 20.00257 23.74470 21.87363
#
# Velocity S-wave (km/s) = 3.24032 3.53043 3.38848
# Velocity P-wave (km/s) = 4.85039 5.47702 5.17320
#
# Compressibility (1/GPa) = 0.05509949
#
# Stress axis : x y z
#
# Youngs Moduli (GPa) = 88.30767 29.97049 65.64298
#
# Poissons Ratio (x) = 0.05022 0.13169
# Poissons Ratio (y) = 0.14796 -0.08332
# Poissons Ratio (z) = 0.17716 -0.03804
#
# Static dielectric constant tensor:
#      x y z
#    x 3.806160 0.000000 0.187780 
#    y 0.000000 3.057190 0.000000 
#    z 0.187780 0.000000 3.493010 
# 
# 
# High freq. dielectric constant tensor:
#      x y z
#    x 1.760920 0.000000 0.016680 
#    y 0.000000 1.693720 0.000000 
#    z 0.016680 0.000000 1.740970 
# 
# From -- ./inp_files/29554.got.cif
#   From: 2010.06.25/outbox.cif.g09.slc.cpg/sg10_15_cif.got.tgz:29554.got - 2010.06.27 22:07:45.
