data_PCOD8058433
_publ_section_title
;
Structure prediction by ZEFSAII (Michael W. Deem and Ramdas Pophale) SiO2 
 PCOD8058433
Probable space group: P 2/M
;
_chemical_formula_sum "Si O2"
_cell_formula_units_Z 32
_cell_length_a 16.151739
_cell_length_b 9.738857
_cell_length_c 21.998390
_cell_angle_alpha 90.000000
_cell_angle_beta 148.888431
_cell_angle_gamma 90.000000
_cell_volume 1787.976713
_symmetry_space_group_name_H-M "P 2/M"
_symmetry_group_IT_number 10
_symmetry_cell_setting 'monoclinic'
loop_
_space_group_symop_operation_xyz
x,y,z
-x,y,-z
-x,-y,-z
x,-y,z
loop_
_atom_site_type_symbol
_atom_site_label
_atom_site_fract_x
_atom_site_fract_y
_atom_site_fract_z
Si Si1 0.653380 0.843902 0.634442
Si Si2 0.554857 0.752002 0.701250
Si Si3 0.796936 0.656605 0.528618
Si Si4 0.144928 0.347621 0.058586
Si Si5 0.911525 0.660936 0.733028
Si Si6 0.754172 0.660932 0.005257
Si Si7 0.496066 0.154083 0.798233
Si Si8 0.143822 0.159840 0.546502
O O1 0.500000 0.791128 0.500000
O O2 0.604153 0.843628 0.674471
O O3 0.805838 0.747496 0.714714
O O4 0.697318 0.000000 0.643925
O O5 0.394098 0.668442 0.587929
O O6 0.698309 0.644100 0.800804
O O7 0.542401 0.839249 0.755678
O O8 0.843901 0.500000 0.543533
O O9 0.866155 0.704396 0.636644
O O10 0.873812 0.753477 0.526147
O O11 0.083369 0.500000 0.004675
O O12 0.177882 0.278306 0.015110
O O13 0.000000 0.265402 0.000000
O O14 0.878680 0.500000 0.725352
O O15 0.103419 0.691921 0.857773
O O16 0.707351 0.500000 0.974656
O O17 0.589184 0.748035 0.905650
O O18 0.308783 0.194594 0.685173
O O19 0.526341 0.000000 0.839919
O O20 0.000000 0.202381 0.500000
O O21 0.137401 0.000000 0.524139
#
# Coordination Sequence:
#
# PCOD8058433 Si02
#       8
#     4   4   4   4   4   4   4   4
#     4  11  22  33  46  68  99 137 179 220 260 303
#     4  10  18  31  47  68  98 133 166 214 259 301
#     4  10  20  33  52  78 103 131 169 210 253 303
#     4   9  16  26  42  63  88 122 164 209 253 294
#     4  10  21  36  51  71 101 139 178 216 256 300
#     4   9  18  32  49  69  97 132 171 210 252 300
#     4   9  18  32  53  76 100 129 164 207 253 302
#     4   9  19  36  58  83 109 134 159 196 251 310
#
# _framework density 17.897324999999999
#
# number of rings (size 3 to 8) (size 9 to 14) (size 15 to 20)
#    0.000    2.375    1.250    1.500    0.000    7.000 
#    0.000    0.000    0.000    4.875    0.000    5.250 
#    0.000    0.000    0.000    0.000    0.000    0.000 
#
# Total GULP energy -396523.577546 kJ/mol
# GULP energy per Si atom -12391.361798 kJ/mol
# Density = 1.785659 g / cm^3
# Si number density = 17.897325 Si / 1000 Ang^3
#
#
#
# Elastic Constant Matrix: (Units=GPa)
#
#
# Indices 1 2 3 4 5 6 
#
# 1 81.5603 31.9086 45.9742 0.0000 13.6678 0.0000
# 2 31.9086 64.8363 32.4270 0.0000 7.1794 0.0000
# 3 45.9742 32.4270 125.6011 0.0000 5.4073 0.0000
# 4 0.0000 0.0000 0.0000 26.3820 0.0000 1.5010
# 5 13.6678 7.1794 5.4073 0.0000 23.6073 0.0000
# 6 0.0000 0.0000 0.0000 1.5010 0.0000 18.8776
#
#
#
# Elastic Compliance Matrix: (Units=1/GPa)
#
#
# Indices 1 2 3 4 5 6 
#
# 1 0.018676 -0.005819 -0.004994 0.000000 -0.007899 0.000000
# 2 -0.005819 0.019984 -0.002942 0.000000 -0.002035 0.000000
# 3 -0.004994 -0.002942 0.010489 0.000000 0.001383 0.000000
# 4 0.000000 0.000000 0.000000 0.038077 0.000000 -0.003028
# 5 -0.007899 -0.002035 0.001383 0.000000 0.047235 0.000000
# 6 0.000000 0.000000 0.000000 -0.003028 0.000000 0.053214
#
#
# Mechanical properties :
#
#
# Convention : Reuss Voigt Hill
#
# Bulk Modulus (GPa) = 46.20973 54.73525 50.47249
# Shear Modulus (GPa) = 22.48228 24.55257 23.51743
#
# Velocity S-wave (km/s) = 3.54811 3.70788 3.62887
# Velocity P-wave (km/s) = 6.53153 6.99860 6.76909
#
# Compressibility (1/GPa) = 0.02164046
#
# Stress axis : x y z
#
# Youngs Moduli (GPa) = 53.54464 50.04047 95.33351
#
# Poissons Ratio (x) = 0.29119 0.47606
# Poissons Ratio (y) = 0.31158 0.28045
# Poissons Ratio (z) = 0.26738 0.14721
#
# Static dielectric constant tensor:
#      x y z
#    x 3.129640 0.000000 0.141810 
#    y 0.000000 3.146840 0.000000 
#    z 0.141810 0.000000 3.607970 
# 
# 
# High freq. dielectric constant tensor:
#      x y z
#    x 1.659380 0.000000 0.003860 
#    y 0.000000 1.680160 0.000000 
#    z 0.003860 0.000000 1.703670 
# 
# From -- ./inp_files/89959.got.cif
#   From: 2010.06.25/outbox.cif.g09.slc.cpg/sg10_45_cif.got.tgz:89959.got - 2010.06.27 22:07:45.
