data_PCOD8058881
_publ_section_title
;
Structure prediction by ZEFSAII (Michael W. Deem and Ramdas Pophale) SiO2 
 PCOD8058881
Probable space group: P 2/M
;
_chemical_formula_sum "Si O2"
_cell_formula_units_Z 24
_cell_length_a 7.517474
_cell_length_b 8.876859
_cell_length_c 20.472670
_cell_angle_alpha 90.000000
_cell_angle_beta 67.684889
_cell_angle_gamma 90.000000
_cell_volume 1263.859900
_symmetry_space_group_name_H-M "P 2/M"
_symmetry_group_IT_number 10
_symmetry_cell_setting 'monoclinic'
loop_
_space_group_symop_operation_xyz
x,y,z
-x,y,-z
-x,-y,-z
x,-y,z
loop_
_atom_site_type_symbol
_atom_site_label
_atom_site_fract_x
_atom_site_fract_y
_atom_site_fract_z
Si Si1 0.535271 0.676274 0.920519
Si Si2 0.410192 0.823206 0.578131
Si Si3 0.411219 0.821500 0.314258
Si Si4 0.995702 0.175858 0.680701
Si Si5 0.687756 0.821599 0.161186
Si Si6 0.037370 0.322645 0.176795
O O1 0.503941 0.500000 0.912645
O O2 0.381701 0.767202 0.899557
O O3 0.747572 0.728180 0.870288
O O4 0.500000 0.720552 0.000000
O O5 0.500000 0.749914 0.500000
O O6 0.513537 0.752558 0.627742
O O7 0.182334 0.790425 0.610643
O O8 0.451851 0.000000 0.572211
O O9 0.190817 0.771494 0.333907
O O10 0.541624 0.759016 0.236987
O O11 0.430233 0.000000 0.313367
O O12 0.016453 0.269350 0.743595
O O13 0.982906 0.000000 0.701468
O O14 0.898333 0.755112 0.143926
O O15 0.698885 0.000000 0.160905
O O16 0.011356 0.500000 0.175014
#
# Coordination Sequence:
#
# PCOD8058881 Si02
#       6
#     4   4   4   4   4   4
#     4  10  23  42  60  82 115 150 186 232 282 333
#     4   9  17  29  48  79 115 145 177 224 281 331
#     4   9  17  29  50  79 107 140 179 224 273 319
#     4  10  18  32  54  79 109 143 184 232 276 325
#     4  11  21  36  60  86 114 146 187 234 280 334
#     4  11  22  36  58  85 111 145 189 231 278 338
#
# _framework density 18.989446000000001
#
# number of rings (size 3 to 8) (size 9 to 14) (size 15 to 20)
#    0.000    2.000    3.333    1.000    0.000    2.333 
#    0.000    6.667    0.000    0.500    0.000    1.167 
#    0.000    0.000    0.000    0.000    0.000    0.000 
#
# Total GULP energy -297653.034628 kJ/mol
# GULP energy per Si atom -12402.209776 kJ/mol
# Density = 1.894622 g / cm^3
# Si number density = 18.989446 Si / 1000 Ang^3
#
#
#
# Elastic Constant Matrix: (Units=GPa)
#
#
# Indices 1 2 3 4 5 6 
#
# 1 116.6499 25.2981 15.6715 0.0000 15.5750 0.0000
# 2 25.2981 35.1866 15.8703 0.0000 4.3683 0.0000
# 3 15.6715 15.8703 83.3429 0.0000 10.6276 0.0000
# 4 0.0000 0.0000 0.0000 16.2763 0.0000 0.0443
# 5 15.5750 4.3683 10.6276 0.0000 29.1338 0.0000
# 6 0.0000 0.0000 0.0000 0.0443 0.0000 24.7243
#
#
#
# Elastic Compliance Matrix: (Units=1/GPa)
#
#
# Indices 1 2 3 4 5 6 
#
# 1 0.010747 -0.007116 -0.000072 0.000000 -0.004652 0.000000
# 2 -0.007116 0.035995 -0.005572 0.000000 0.000440 0.000000
# 3 -0.000072 -0.005572 0.013594 0.000000 -0.004085 0.000000
# 4 0.000000 0.000000 0.000000 0.061439 0.000000 -0.000110
# 5 -0.004652 0.000440 -0.004085 0.000000 0.038235 0.000000
# 6 0.000000 0.000000 0.000000 -0.000110 0.000000 0.040446
#
#
# Mechanical properties :
#
#
# Convention : Reuss Voigt Hill
#
# Bulk Modulus (GPa) = 28.72423 38.76212 33.74317
# Shear Modulus (GPa) = 21.04517 25.91616 23.48067
#
# Velocity S-wave (km/s) = 3.33266 3.69828 3.52022
# Velocity P-wave (km/s) = 5.47431 6.22038 5.85923
#
# Compressibility (1/GPa) = 0.03481381
#
# Stress axis : x y z
#
# Youngs Moduli (GPa) = 93.05040 27.78158 73.56082
#
# Poissons Ratio (x) = 0.19771 0.00533
# Poissons Ratio (y) = 0.66219 0.40990
# Poissons Ratio (z) = 0.00674 0.15480
#
# Static dielectric constant tensor:
#      x y z
#    x 3.767710 0.000000 0.034110 
#    y 0.000000 3.103200 0.000000 
#    z 0.034110 0.000000 3.600560 
# 
# 
# High freq. dielectric constant tensor:
#      x y z
#    x 1.756300 0.000000 0.000120 
#    y 0.000000 1.699750 0.000000 
#    z 0.000120 0.000000 1.735450 
# 
# From -- ./inp_files/81712.got.cif
#   From: 2010.06.25/outbox.cif.g09.slc.cpg/sg10_41_cif.got.tgz:81712.got - 2010.06.27 22:07:45.
