data_PCOD8058998
_publ_section_title
;
Structure prediction by ZEFSAII (Michael W. Deem and Ramdas Pophale) SiO2 
 PCOD8058998
Probable space group: P 2/M
;
_chemical_formula_sum "Si O2"
_cell_formula_units_Z 32
_cell_length_a 14.756777
_cell_length_b 13.904603
_cell_length_c 9.049438
_cell_angle_alpha 90.000000
_cell_angle_beta 96.403235
_cell_angle_gamma 90.000000
_cell_volume 1845.244580
_symmetry_space_group_name_H-M "P 2/M"
_symmetry_group_IT_number 10
_symmetry_cell_setting 'monoclinic'
loop_
_space_group_symop_operation_xyz
x,y,z
-x,y,-z
-x,-y,-z
x,-y,z
loop_
_atom_site_type_symbol
_atom_site_label
_atom_site_fract_x
_atom_site_fract_y
_atom_site_fract_z
Si Si1 0.695481 0.284142 0.100839
Si Si2 0.026910 0.388711 0.163964
Si Si3 0.585162 0.893338 0.105356
Si Si4 0.541289 0.107888 0.656591
Si Si5 0.641988 0.289791 0.762236
Si Si6 0.199396 0.613582 0.373557
Si Si7 0.470139 0.393589 0.825911
Si Si8 0.844986 0.610585 0.296796
O O1 0.676623 0.169697 0.108222
O O2 0.623420 0.335016 0.197166
O O3 0.792969 0.315621 0.179277
O O4 0.688476 0.313387 0.928102
O O5 0.044891 0.500000 0.136964
O O6 0.120449 0.346470 0.249391
O O7 0.950290 0.374178 0.275000
O O8 0.000000 0.340647 0.000000
O O9 0.550475 0.898217 0.264506
O O10 0.606494 0.000000 0.044670
O O11 0.500000 0.845229 0.000000
O O12 0.500000 0.151288 0.500000
O O13 0.621540 0.176156 0.735221
O O14 0.582724 0.000000 0.645584
O O15 0.707771 0.329788 0.646543
O O16 0.545072 0.343755 0.735701
O O17 0.215259 0.500000 0.355924
O O18 0.170569 0.637536 0.535803
O O19 0.452569 0.500000 0.759971
O O20 0.500000 0.397209 0.000000
O O21 0.815179 0.500000 0.259268
#
# Coordination Sequence:
#
# PCOD8058998 Si02
#       8
#     4   4   4   4   4   4   4   4
#     4  11  19  31  47  73  98 131 169 207 251 293
#     4   9  17  33  55  75  95 126 167 210 250 290
#     4  10  18  33  53  72  96 128 170 216 255 292
#     4  10  21  35  51  71  98 132 168 211 259 300
#     4  11  20  31  49  72  99 131 170 208 246 296
#     4  10  21  34  49  72 103 136 168 204 248 296
#     4   9  17  28  42  63  95 131 166 201 238 280
#     4  10  21  34  50  73 104 135 166 205 248 297
#
# _framework density 17.341874000000001
#
# number of rings (size 3 to 8) (size 9 to 14) (size 15 to 20)
#    0.000    2.000    2.500    2.250    1.750    4.000 
#    0.000    0.000    0.000    3.000    0.000    0.875 
#    0.000    5.000    0.000    0.000    0.000    0.000 
#
# Total GULP energy -396670.157443 kJ/mol
# GULP energy per Si atom -12395.942420 kJ/mol
# Density = 1.730240 g / cm^3
# Si number density = 17.341874 Si / 1000 Ang^3
#
#
#
# Elastic Constant Matrix: (Units=GPa)
#
#
# Indices 1 2 3 4 5 6 
#
# 1 62.2543 23.5748 18.6074 0.0000 -8.9510 0.0000
# 2 23.5748 76.4341 13.8950 0.0000 1.6719 0.0000
# 3 18.6074 13.8950 76.8946 0.0000 -6.0846 0.0000
# 4 0.0000 0.0000 0.0000 19.4737 0.0000 2.5885
# 5 -8.9510 1.6719 -6.0846 0.0000 30.5988 0.0000
# 6 0.0000 0.0000 0.0000 2.5885 0.0000 13.0631
#
#
#
# Elastic Compliance Matrix: (Units=1/GPa)
#
#
# Indices 1 2 3 4 5 6 
#
# 1 0.020014 -0.005678 -0.003382 0.000000 0.005492 0.000000
# 2 -0.005678 0.015185 -0.001592 0.000000 -0.002807 0.000000
# 3 -0.003382 -0.001592 0.014264 0.000000 0.001934 0.000000
# 4 0.000000 0.000000 0.000000 0.052740 0.000000 -0.010451
# 5 0.005492 -0.002807 0.001934 0.000000 0.034826 0.000000
# 6 0.000000 0.000000 0.000000 -0.010451 0.000000 0.078622
#
#
# Mechanical properties :
#
#
# Convention : Reuss Voigt Hill
#
# Bulk Modulus (GPa) = 35.51401 36.41526 35.96463
# Shear Modulus (GPa) = 20.29686 23.26083 21.77885
#
# Velocity S-wave (km/s) = 3.42482 3.66636 3.54765
# Velocity P-wave (km/s) = 6.01352 6.24236 6.12900
#
# Compressibility (1/GPa) = 0.02815790
#
# Stress axis : x y z
#
# Youngs Moduli (GPa) = 49.96473 65.85286 70.10630
#
# Poissons Ratio (x) = 0.37393 0.23713
# Poissons Ratio (y) = 0.28371 0.11162
# Poissons Ratio (z) = 0.16900 0.10485
#
# Static dielectric constant tensor:
#      x y z
#    x 3.081100 0.000000 -0.055240 
#    y 0.000000 3.152360 0.000000 
#    z -0.055240 0.000000 3.286690 
# 
# 
# High freq. dielectric constant tensor:
#      x y z
#    x 1.646600 0.000000 -0.010440 
#    y 0.000000 1.643180 0.000000 
#    z -0.010440 0.000000 1.676180 
# 
# From -- ./inp_files/29139.got.cif
#   From: 2010.06.25/outbox.cif.g09.slc.cpg/sg10_15_cif.got.tgz:29139.got - 2010.06.27 22:07:45.
