data_PCOD8058469
_publ_section_title
;
Structure prediction by ZEFSAII (Michael W. Deem and Ramdas Pophale) SiO2 
 PCOD8058469
Probable space group: P 2/M
;
_chemical_formula_sum "Si O2"
_cell_formula_units_Z 32
_cell_length_a 11.447149
_cell_length_b 8.863021
_cell_length_c 21.135261
_cell_angle_alpha 90.000000
_cell_angle_beta 115.856448
_cell_angle_gamma 90.000000
_cell_volume 1929.638408
_symmetry_space_group_name_H-M "P 2/M"
_symmetry_group_IT_number 10
_symmetry_cell_setting 'monoclinic'
loop_
_space_group_symop_operation_xyz
x,y,z
-x,y,-z
-x,-y,-z
x,-y,z
loop_
_atom_site_type_symbol
_atom_site_label
_atom_site_fract_x
_atom_site_fract_y
_atom_site_fract_z
Si Si1 0.193713 0.178037 0.703957
Si Si2 0.531885 0.179846 0.600565
Si Si3 0.687200 0.676970 0.532985
Si Si4 0.529836 0.825757 0.277197
Si Si5 0.981209 0.324897 0.567626
Si Si6 0.276499 0.323040 0.842614
Si Si7 0.644752 0.329550 0.007215
Si Si8 0.456881 0.826254 0.126700
O O1 0.328418 0.243499 0.706385
O O2 0.176284 0.239808 0.771887
O O3 0.074609 0.228672 0.633544
O O4 0.197060 0.000000 0.709203
O O5 0.396723 0.228618 0.536860
O O6 0.651787 0.263668 0.594764
O O7 0.529491 0.241656 0.672310
O O8 0.549547 0.000000 0.599267
O O9 0.655029 0.500000 0.519168
O O10 0.836264 0.711193 0.555036
O O11 0.427562 0.803007 0.194839
O O12 0.554956 0.000000 0.296712
O O13 0.016451 0.500000 0.583663
O O14 0.000000 0.272446 0.500000
O O15 0.259686 0.500000 0.829363
O O16 0.256623 0.280302 0.912668
O O17 0.421362 0.277951 0.858553
O O18 0.674148 0.500000 0.993448
O O19 0.500000 0.313043 0.000000
O O20 0.660221 0.225977 0.947666
O O21 0.491610 0.000000 0.121318
#
# Coordination Sequence:
#
# PCOD8058469 Si02
#       8
#     4   4   4   4   4   4   4   4
#     4  10  19  30  45  65  88 113 147 186 218 253
#     4  10  18  31  50  66  85 114 146 176 214 261
#     4  10  20  33  47  66  89 109 140 182 217 253
#     4   8  16  28  41  62  89 115 143 178 217 254
#     4  10  21  35  49  65  88 118 146 174 215 263
#     4   9  16  26  38  53  80 115 147 177 212 256
#     4   8  14  23  34  51  77 111 146 176 209 252
#     4   9  15  23  36  56  82 110 143 181 216 250
#
# _framework density 16.583418000000002
#
# number of rings (size 3 to 8) (size 9 to 14) (size 15 to 20)
#    0.000    2.750    0.000    4.875    0.000    4.000 
#    0.000    6.875    0.000    0.000    0.000    0.000 
#    0.000    1.000    0.000   11.250    0.000    7.125 
#
# Total GULP energy -396478.847420 kJ/mol
# GULP energy per Si atom -12389.963982 kJ/mol
# Density = 1.654567 g / cm^3
# Si number density = 16.583418 Si / 1000 Ang^3
#
#
#
# Elastic Constant Matrix: (Units=GPa)
#
#
# Indices 1 2 3 4 5 6 
#
# 1 65.0545 25.9450 51.1766 0.0000 -11.0464 0.0000
# 2 25.9450 54.8532 46.8768 0.0000 -3.6192 0.0000
# 3 51.1766 46.8768 149.9222 0.0000 -19.7461 0.0000
# 4 0.0000 0.0000 0.0000 27.9543 0.0000 1.8643
# 5 -11.0464 -3.6192 -19.7461 0.0000 17.6818 0.0000
# 6 0.0000 0.0000 0.0000 1.8643 0.0000 14.8751
#
#
#
# Elastic Compliance Matrix: (Units=1/GPa)
#
#
# Indices 1 2 3 4 5 6 
#
# 1 0.022993 -0.006172 -0.004917 0.000000 0.007611 0.000000
# 2 -0.006172 0.026805 -0.007105 0.000000 -0.006303 0.000000
# 3 -0.004917 -0.007105 0.011694 0.000000 0.008533 0.000000
# 4 0.000000 0.000000 0.000000 0.036074 0.000000 -0.004521
# 5 0.007611 -0.006303 0.008533 0.000000 0.069549 0.000000
# 6 0.000000 0.000000 0.000000 -0.004521 0.000000 0.067793
#
#
# Mechanical properties :
#
#
# Convention : Reuss Voigt Hill
#
# Bulk Modulus (GPa) = 39.83101 57.53631 48.68366
# Shear Modulus (GPa) = 17.87859 21.82433 19.85146
#
# Velocity S-wave (km/s) = 3.28701 3.63165 3.46362
# Velocity P-wave (km/s) = 6.20295 7.23572 6.73915
#
# Compressibility (1/GPa) = 0.02510607
#
# Stress axis : x y z
#
# Youngs Moduli (GPa) = 43.49100 37.30589 85.51471
#
# Poissons Ratio (x) = 0.23024 0.42046
# Poissons Ratio (y) = 0.26841 0.60757
# Poissons Ratio (z) = 0.21383 0.26505
#
# Static dielectric constant tensor:
#      x y z
#    x 2.788250 0.000000 -0.308030 
#    y 0.000000 3.117800 0.000000 
#    z -0.308030 0.000000 3.736280 
# 
# 
# High freq. dielectric constant tensor:
#      x y z
#    x 1.574250 0.000000 -0.020840 
#    y 0.000000 1.640820 0.000000 
#    z -0.020840 0.000000 1.657350 
# 
# From -- ./inp_files/83378.got.cif
#   From: 2010.06.25/outbox.cif.g09.slc.cpg/sg10_42_cif.got.tgz:83378.got - 2010.06.27 22:07:45.
