data_PCOD8058834
_publ_section_title
;
Structure prediction by ZEFSAII (Michael W. Deem and Ramdas Pophale) SiO2 
 PCOD8058834
Probable space group: P 2/M
;
_chemical_formula_sum "Si O2"
_cell_formula_units_Z 28
_cell_length_a 18.946344
_cell_length_b 8.568356
_cell_length_c 14.363398
_cell_angle_alpha 90.000000
_cell_angle_beta 41.861472
_cell_angle_gamma 90.000000
_cell_volume 1556.044456
_symmetry_space_group_name_H-M "P 2/M"
_symmetry_group_IT_number 10
_symmetry_cell_setting 'monoclinic'
loop_
_space_group_symop_operation_xyz
x,y,z
-x,y,-z
-x,-y,-z
x,-y,z
loop_
_atom_site_type_symbol
_atom_site_label
_atom_site_fract_x
_atom_site_fract_y
_atom_site_fract_z
Si Si1 0.594814 0.181250 0.295401
Si Si2 0.219052 0.317216 0.997960
Si Si3 0.190846 0.819328 0.602105
Si Si4 0.624829 0.318802 0.461509
Si Si5 0.121517 0.315338 0.486029
Si Si6 0.005385 0.681477 0.102249
Si Si7 0.117335 0.683998 0.284419
O O1 0.678634 0.222579 0.133794
O O2 0.642683 0.224015 0.348847
O O3 0.486862 0.274932 0.381998
O O4 0.567812 0.000000 0.318575
O O5 0.245506 0.500000 0.971149
O O6 0.122062 0.280103 0.024473
O O7 0.192349 0.254564 0.128113
O O8 0.281135 0.717599 0.561020
O O9 0.191702 0.775427 0.492204
O O10 0.077775 0.781877 0.758140
O O11 0.217597 0.000000 0.588386
O O12 0.626173 0.500000 0.434591
O O13 0.129314 0.500000 0.496534
O O14 0.163060 0.271057 0.341311
O O15 0.001418 0.252707 0.612895
O O16 0.977433 0.500000 0.144038
O O17 0.000000 0.730160 0.000000
O O18 0.107521 0.500000 0.286072
#
# Coordination Sequence:
#
# PCOD8058834 Si02
#       7
#     4   4   4   4   4   4   4
#     4  11  22  37  56  82 112 139 172 221 272 317
#     4  10  18  32  53  79 109 144 183 219 258 312
#     4  12  23  34  51  79 112 141 171 218 277 325
#     4  11  22  39  60  78 100 140 188 225 257 310
#     4   9  16  32  54  77 103 140 184 223 261 309
#     4  10  20  33  51  75 105 143 182 216 256 313
#     4   8  15  29  54  79 103 138 185 227 256 302
#
# _framework density 17.994344999999999
#
# number of rings (size 3 to 8) (size 9 to 14) (size 15 to 20)
#    0.000    1.857    1.429    6.429    0.000    2.000 
#    0.000    2.143    0.000    0.857    0.000    6.000 
#    0.000    0.000    0.000    0.000    0.000    0.000 
#
# Total GULP energy -347232.361298 kJ/mol
# GULP energy per Si atom -12401.155761 kJ/mol
# Density = 1.795339 g / cm^3
# Si number density = 17.994345 Si / 1000 Ang^3
#
#
#
# Elastic Constant Matrix: (Units=GPa)
#
#
# Indices 1 2 3 4 5 6 
#
# 1 48.5901 7.0003 29.7066 0.0000 11.1750 0.0000
# 2 7.0003 57.2607 16.2443 0.0000 0.8268 0.0000
# 3 29.7066 16.2443 107.8597 0.0000 14.9184 0.0000
# 4 0.0000 0.0000 0.0000 19.9201 0.0000 -0.2909
# 5 11.1750 0.8268 14.9184 0.0000 27.7043 0.0000
# 6 0.0000 0.0000 0.0000 -0.2909 0.0000 16.6255
#
#
#
# Elastic Compliance Matrix: (Units=1/GPa)
#
#
# Indices 1 2 3 4 5 6 
#
# 1 0.026106 -0.001392 -0.005975 0.000000 -0.007271 0.000000
# 2 -0.001392 0.018344 -0.002573 0.000000 0.001399 0.000000
# 3 -0.005975 -0.002573 0.011842 0.000000 -0.003890 0.000000
# 4 0.000000 0.000000 0.000000 0.050213 0.000000 0.000879
# 5 -0.007271 0.001399 -0.003890 0.000000 0.041082 0.000000
# 6 0.000000 0.000000 0.000000 0.000879 0.000000 0.060164
#
#
# Mechanical properties :
#
#
# Convention : Reuss Voigt Hill
#
# Bulk Modulus (GPa) = 27.46226 35.51255 31.48740
# Shear Modulus (GPa) = 20.85355 23.56728 22.21042
#
# Velocity S-wave (km/s) = 3.40795 3.62291 3.51707
# Velocity P-wave (km/s) = 5.54799 6.10564 5.83348
#
# Compressibility (1/GPa) = 0.03641361
#
# Stress axis : x y z
#
# Youngs Moduli (GPa) = 38.30548 54.51427 84.44207
#
# Poissons Ratio (x) = 0.07586 0.50452
# Poissons Ratio (y) = 0.05330 0.21727
# Poissons Ratio (z) = 0.22887 0.14026
#
# Static dielectric constant tensor:
#      x y z
#    x 3.383030 0.000000 0.237450 
#    y 0.000000 3.160080 0.000000 
#    z 0.237450 0.000000 3.451350 
# 
# 
# High freq. dielectric constant tensor:
#      x y z
#    x 1.690280 0.000000 0.012330 
#    y 0.000000 1.683840 0.000000 
#    z 0.012330 0.000000 1.689120 
# 
# From -- ./inp_files/54705.got.cif
#   From: 2010.06.25/outbox.cif.g09.slc.cpg/sg10_28_cif.got.tgz:54705.got - 2010.06.27 22:07:45.
