data_PCOD8058052
_publ_section_title
;
Structure prediction by ZEFSAII (Michael W. Deem and Ramdas Pophale) SiO2 
 PCOD8058052
Probable space group: P 2/M
;
_chemical_formula_sum "Si O2"
_cell_formula_units_Z 28
_cell_length_a 10.111944
_cell_length_b 8.927589
_cell_length_c 29.119766
_cell_angle_alpha 90.000000
_cell_angle_beta 145.611053
_cell_angle_gamma 90.000000
_cell_volume 1484.763988
_symmetry_space_group_name_H-M "P 2/M"
_symmetry_group_IT_number 10
_symmetry_cell_setting 'monoclinic'
loop_
_space_group_symop_operation_xyz
x,y,z
-x,y,-z
-x,-y,-z
x,-y,z
loop_
_atom_site_type_symbol
_atom_site_label
_atom_site_fract_x
_atom_site_fract_y
_atom_site_fract_z
Si Si1 0.063976 0.676716 0.916625
Si Si2 0.656362 0.827714 0.851238
Si Si3 0.897604 0.334013 0.521549
Si Si4 0.325083 0.827823 0.673368
Si Si5 0.440715 0.322944 0.345032
Si Si6 0.014188 0.175760 0.804792
Si Si7 0.522176 0.825416 0.915224
O O1 0.062244 0.500000 0.910454
O O2 0.996301 0.751089 0.849447
O O3 0.876151 0.725808 0.900931
O O4 0.320684 0.730110 0.005082
O O5 0.434505 0.802107 0.754742
O O6 0.576349 0.779424 0.878771
O O7 0.739635 0.000000 0.873795
O O8 0.908290 0.500000 0.546538
O O9 0.627414 0.280109 0.438705
O O10 0.000000 0.338664 0.500000
O O11 0.052117 0.222801 0.597065
O O12 0.469954 0.729581 0.679093
O O13 0.337758 0.000000 0.661634
O O14 0.405133 0.500000 0.332480
O O15 0.195935 0.242117 0.286473
O O16 0.254444 0.216531 0.848519
O O17 0.979474 0.000000 0.800878
O O18 0.570374 0.000000 0.938287
#
# Coordination Sequence:
#
# PCOD8058052 Si02
#       7
#     4   4   4   4   4   4   4
#     4  12  24  37  57  83 109 139 179 226 272 321
#     4  10  21  38  58  80 109 144 180 222 270 319
#     4   8  16  29  46  72 108 142 171 214 268 314
#     4  10  18  29  51  80 107 138 178 219 263 318
#     4  10  19  32  51  77 109 142 175 218 271 319
#     4  11  22  37  58  81 106 142 184 224 269 321
#     4  10  23  41  58  77 107 145 182 223 272 321
#
# _framework density 18.858217
#
# number of rings (size 3 to 8) (size 9 to 14) (size 15 to 20)
#    0.000    1.857    1.429    4.286    0.000    8.857 
#    0.000    0.000    0.000    0.857    0.000    6.000 
#    0.000    0.000    0.000    0.000    0.000    0.000 
#
# Total GULP energy -347238.058991 kJ/mol
# GULP energy per Si atom -12401.359250 kJ/mol
# Density = 1.881529 g / cm^3
# Si number density = 18.858217 Si / 1000 Ang^3
#
#
#
# Elastic Constant Matrix: (Units=GPa)
#
#
# Indices 1 2 3 4 5 6 
#
# 1 67.7198 28.3231 28.0575 0.0000 22.7316 0.0000
# 2 28.3231 89.8867 52.1433 0.0000 20.4448 0.0000
# 3 28.0575 52.1433 119.9729 0.0000 36.2956 0.0000
# 4 0.0000 0.0000 0.0000 30.1465 0.0000 11.4801
# 5 22.7316 20.4448 36.2956 0.0000 26.4398 0.0000
# 6 0.0000 0.0000 0.0000 11.4801 0.0000 6.7477
#
#
#
# Elastic Compliance Matrix: (Units=1/GPa)
#
#
# Indices 1 2 3 4 5 6 
#
# 1 0.021782 -0.003914 0.002321 0.000000 -0.018886 0.000000
# 2 -0.003914 0.015898 -0.005632 0.000000 -0.001196 0.000000
# 3 0.002321 -0.005632 0.016293 0.000000 -0.020007 0.000000
# 4 0.000000 0.000000 0.000000 0.094204 0.000000 -0.160271
# 5 -0.018886 -0.001196 -0.020007 0.000000 0.082448 0.000000
# 6 0.000000 0.000000 0.000000 -0.160271 0.000000 0.420870
#
#
# Mechanical properties :
#
#
# Convention : Reuss Voigt Hill
#
# Bulk Modulus (GPa) = 25.30275 54.95858 40.13067
# Shear Modulus (GPa) = 7.36247 23.93717 15.64982
#
# Velocity S-wave (km/s) = 1.97803 3.56662 2.88387
# Velocity P-wave (km/s) = 4.32010 6.79466 5.69345
#
# Compressibility (1/GPa) = 0.03952140
#
# Stress axis : x y z
#
# Youngs Moduli (GPa) = 45.91011 62.90168 61.37585
#
# Poissons Ratio (x) = 0.24620 -0.14244
# Poissons Ratio (y) = 0.17969 0.34569
# Poissons Ratio (z) = -0.10655 0.35429
#
# Static dielectric constant tensor:
#      x y z
#    x 3.181810 0.000000 0.232290 
#    y 0.000000 3.494810 0.000000 
#    z 0.232290 0.000000 3.987720 
# 
# 
# High freq. dielectric constant tensor:
#      x y z
#    x 1.693360 0.000000 0.017000 
#    y 0.000000 1.734940 0.000000 
#    z 0.017000 0.000000 1.751630 
# 
# From -- ./inp_files/92056.got.cif
#   From: 2010.06.25/outbox.cif.g09.slc.cpg/sg10_47_cif.got.tgz:92056.got - 2010.06.27 22:07:45.
