data_PCOD8058963
_publ_section_title
;
Structure prediction by ZEFSAII (Michael W. Deem and Ramdas Pophale) SiO2 
 PCOD8058963
Probable space group: P 2/M
;
_chemical_formula_sum "Si O2"
_cell_formula_units_Z 20
_cell_length_a 25.071850
_cell_length_b 7.790536
_cell_length_c 14.566953
_cell_angle_alpha 90.000000
_cell_angle_beta 20.555941
_cell_angle_gamma 90.000000
_cell_volume 999.033742
_symmetry_space_group_name_H-M "P 2/M"
_symmetry_group_IT_number 10
_symmetry_cell_setting 'monoclinic'
loop_
_space_group_symop_operation_xyz
x,y,z
-x,y,-z
-x,-y,-z
x,-y,z
loop_
_atom_site_type_symbol
_atom_site_label
_atom_site_fract_x
_atom_site_fract_y
_atom_site_fract_z
Si Si1 0.442446 0.190094 0.369183
Si Si2 0.924164 0.310329 0.376486
Si Si3 0.079792 0.500000 0.274347
Si Si4 0.439325 0.500000 0.700692
Si Si5 0.592929 0.297735 0.941169
Si Si6 0.106703 0.299982 0.914063
O O1 0.502637 0.329147 0.343705
O O2 0.516328 0.208443 0.150640
O O3 0.262369 0.202108 0.646716
O O4 0.482142 0.000000 0.342795
O O5 0.882630 0.500000 0.403441
O O6 0.024463 0.329836 0.307934
O O7 0.763305 0.219194 0.656077
O O8 0.023356 0.217940 0.137938
O O9 0.000000 0.500000 0.500000
O O10 0.258764 0.500000 0.995626
O O11 0.500000 0.500000 0.500000
O O12 0.596905 0.500000 0.954893
O O13 0.500000 0.251926 0.000000
O O14 0.144885 0.500000 0.868086
O O15 0.000000 0.268091 0.000000
#
# Coordination Sequence:
#
# PCOD8058963 Si02
#       6
#     4   4   2   2   4   4
#     4  12  25  40  61  94 127 161 206 251 307 372
#     4   8  17  31  54  90 109 150 205 242 294 359
#     4  10  18  32  57  84 107 148 200 252 308 346
#     4  12  24  44  67  82 117 164 210 266 318 348
#     4  10  18  35  63  94 127 162 199 241 299 371
#     4  10  18  35  61  88 121 160 199 240 298 364
#
# _framework density 20.019342000000002
#
# number of rings (size 3 to 8) (size 9 to 14) (size 15 to 20)
#    0.600    1.200    2.000    3.600    0.000    4.400 
#    0.000    1.000    0.000    5.400    0.000    0.000 
#    0.000    0.000    0.000    0.000    0.000    0.000 
#
# Total GULP energy -247928.563831 kJ/mol
# GULP energy per Si atom -12396.428192 kJ/mol
# Density = 1.997378 g / cm^3
# Si number density = 20.019342 Si / 1000 Ang^3
#
#
#
# Elastic Constant Matrix: (Units=GPa)
#
#
# Indices 1 2 3 4 5 6 
#
# 1 133.0070 46.7426 71.5217 0.0000 10.6178 0.0000
# 2 46.7426 91.3594 36.0772 0.0000 -0.4955 0.0000
# 3 71.5217 36.0772 194.6793 0.0000 8.9022 0.0000
# 4 0.0000 0.0000 0.0000 -0.4648 0.0000 0.9221
# 5 10.6178 -0.4955 8.9022 0.0000 48.1118 0.0000
# 6 0.0000 0.0000 0.0000 0.9221 0.0000 1.7998
#
#
#
# Elastic Compliance Matrix: (Units=1/GPa)
#
#
# Indices 1 2 3 4 5 6 
#
# 1 0.010860 -0.004343 -0.003100 0.000000 -0.001868 0.000000
# 2 -0.004343 0.013560 -0.000976 0.000000 0.001279 0.000000
# 3 -0.003100 -0.000976 0.006480 0.000000 -0.000525 0.000000
# 4 0.000000 0.000000 0.000000 -1.067034 0.000000 0.546645
# 5 -0.001868 0.001279 -0.000525 0.000000 0.021307 0.000000
# 6 0.000000 0.000000 0.000000 0.546645 0.000000 0.275565
#
#
# Mechanical properties :
#
#
# Convention : Reuss Voigt Hill
#
# Bulk Modulus (GPa) = 71.10325 80.85873 75.98099
# Shear Modulus (GPa) = -6.96635 27.53631 10.28498
#
# Velocity S-wave (km/s) = -1.86745 3.71278 2.26907
# Velocity P-wave (km/s) = 5.56278 7.67187 6.70083
#
# Compressibility (1/GPa) = 0.01406405
#
# Stress axis : x y z
#
# Youngs Moduli (GPa) = 92.07689 73.74660 154.31338
#
# Poissons Ratio (x) = 0.32026 0.47834
# Poissons Ratio (y) = 0.39986 0.15060
# Poissons Ratio (z) = 0.28542 0.07197
#
# Static dielectric constant tensor:
#      x y z
#    x 3.509100 0.000000 0.011280 
#    y 0.000000 3.250190 0.000000 
#    z 0.011280 0.000000 3.913860 
# 
# 
# High freq. dielectric constant tensor:
#      x y z
#    x 1.778390 0.000000 0.005420 
#    y 0.000000 1.737110 0.000000 
#    z 0.005420 0.000000 1.809980 
# 
# From -- ./inp_files/72084.got.cif
#   From: 2010.06.25/outbox.cif.g09.slc.cpg/sg10_37_cif.got.tgz:72084.got - 2010.06.27 22:07:45.
