data_PCOD8058574
_publ_section_title
;
Structure prediction by ZEFSAII (Michael W. Deem and Ramdas Pophale) SiO2 
 PCOD8058574
Probable space group: P 2/M
;
_chemical_formula_sum "Si O2"
_cell_formula_units_Z 24
_cell_length_a 11.779580
_cell_length_b 9.031875
_cell_length_c 20.757849
_cell_angle_alpha 90.000000
_cell_angle_beta 39.077701
_cell_angle_gamma 90.000000
_cell_volume 1392.156882
_symmetry_space_group_name_H-M "P 2/M"
_symmetry_group_IT_number 10
_symmetry_cell_setting 'monoclinic'
loop_
_space_group_symop_operation_xyz
x,y,z
-x,y,-z
-x,-y,-z
x,-y,z
loop_
_atom_site_type_symbol
_atom_site_label
_atom_site_fract_x
_atom_site_fract_y
_atom_site_fract_z
Si Si1 0.431406 0.169021 0.431091
Si Si2 0.152225 0.166599 0.741728
Si Si3 0.115928 0.675459 0.634059
Si Si4 0.161710 0.174687 0.882352
Si Si5 0.525151 0.672870 0.720704
Si Si6 0.098484 0.672417 0.393803
O O1 0.635407 0.172678 0.365200
O O2 0.311944 0.255937 0.535227
O O3 0.410197 0.250858 0.372850
O O4 0.364465 0.000000 0.453789
O O5 0.051424 0.267268 0.732912
O O6 0.112579 0.226378 0.831438
O O7 0.078706 0.000000 0.767244
O O8 0.127217 0.500000 0.630953
O O9 0.980482 0.736387 0.638371
O O10 0.341585 0.255395 0.828417
O O11 0.200543 0.000000 0.865932
O O12 0.000000 0.221174 0.000000
O O13 0.493448 0.500000 0.721695
O O14 0.686525 0.700104 0.700462
O O15 0.052298 0.500000 0.415211
O O16 0.000000 0.744382 0.500000
#
# Coordination Sequence:
#
# PCOD8058574 Si02
#       6
#     4   4   4   4   4   4
#     4  10  19  31  46  67 100 136 166 200 244 290
#     4   9  19  33  47  68  98 127 158 200 249 296
#     4  11  20  30  47  69  97 135 171 200 238 290
#     4   9  19  37  58  76  98 127 157 200 259 307
#     4  10  18  31  52  75 100 129 167 209 244 285
#     4   9  17  31  47  67 101 139 168 199 241 281
#
# _framework density 17.239436999999999
#
# number of rings (size 3 to 8) (size 9 to 14) (size 15 to 20)
#    0.000    2.333    1.667    3.000    0.000    5.667 
#    0.000    4.167    0.000    1.000    0.000    7.000 
#    0.000    0.000    0.000    0.000    0.000    0.000 
#
# Total GULP energy -297523.264479 kJ/mol
# GULP energy per Si atom -12396.802687 kJ/mol
# Density = 1.720020 g / cm^3
# Si number density = 17.239437 Si / 1000 Ang^3
#
#
#
# Elastic Constant Matrix: (Units=GPa)
#
#
# Indices 1 2 3 4 5 6 
#
# 1 116.1804 40.6806 56.6387 0.0000 14.2089 0.0000
# 2 40.6806 70.5448 34.8341 0.0000 2.9362 0.0000
# 3 56.6387 34.8341 94.0686 0.0000 7.3530 0.0000
# 4 0.0000 0.0000 0.0000 16.5502 0.0000 8.2103
# 5 14.2089 2.9362 7.3530 0.0000 15.4270 0.0000
# 6 0.0000 0.0000 0.0000 8.2103 0.0000 17.6636
#
#
#
# Elastic Compliance Matrix: (Units=1/GPa)
#
#
# Indices 1 2 3 4 5 6 
#
# 1 0.014494 -0.004920 -0.006164 0.000000 -0.009475 0.000000
# 2 -0.004920 0.019018 -0.004312 0.000000 0.002967 0.000000
# 3 -0.006164 -0.004312 0.016028 0.000000 -0.001141 0.000000
# 4 0.000000 0.000000 0.000000 0.078531 0.000000 -0.036502
# 5 -0.009475 0.002967 -0.001141 0.000000 0.073528 0.000000
# 6 0.000000 0.000000 0.000000 -0.036502 0.000000 0.073580
#
#
# Mechanical properties :
#
#
# Convention : Reuss Voigt Hill
#
# Bulk Modulus (GPa) = 53.34045 60.56673 56.95359
# Shear Modulus (GPa) = 16.01429 19.83751 17.92590
#
# Velocity S-wave (km/s) = 3.05115 3.39589 3.22812
# Velocity P-wave (km/s) = 6.58945 7.11231 6.85586
#
# Compressibility (1/GPa) = 0.01874750
#
# Stress axis : x y z
#
# Youngs Moduli (GPa) = 68.99437 52.58081 62.39036
#
# Poissons Ratio (x) = 0.25869 0.38459
# Poissons Ratio (y) = 0.33945 0.26904
# Poissons Ratio (z) = 0.42530 0.22674
#
# Static dielectric constant tensor:
#      x y z
#    x 3.350340 0.000000 0.100110 
#    y 0.000000 3.156870 0.000000 
#    z 0.100110 0.000000 3.040530 
# 
# 
# High freq. dielectric constant tensor:
#      x y z
#    x 1.665890 0.000000 0.008980 
#    y 0.000000 1.659240 0.000000 
#    z 0.008980 0.000000 1.633040 
# 
# From -- ./inp_files/48653.got.cif
#   From: 2010.06.25/outbox.cif.g09.slc.cpg/sg10_25_cif.got.tgz:48653.got - 2010.06.27 22:07:45.
