data_PCOD8058900
_publ_section_title
;
Structure prediction by ZEFSAII (Michael W. Deem and Ramdas Pophale) SiO2 
 PCOD8058900
Probable space group: P 2/M
;
_chemical_formula_sum "Si O2"
_cell_formula_units_Z 20
_cell_length_a 11.217369
_cell_length_b 10.488812
_cell_length_c 8.880590
_cell_angle_alpha 90.000000
_cell_angle_beta 84.739869
_cell_angle_gamma 90.000000
_cell_volume 1040.462269
_symmetry_space_group_name_H-M "P 2/M"
_symmetry_group_IT_number 10
_symmetry_cell_setting 'monoclinic'
loop_
_space_group_symop_operation_xyz
x,y,z
-x,y,-z
-x,-y,-z
x,-y,z
loop_
_atom_site_type_symbol
_atom_site_label
_atom_site_fract_x
_atom_site_fract_y
_atom_site_fract_z
Si Si1 0.150366 0.146629 0.215459
Si Si2 0.164339 0.638894 0.723987
Si Si3 0.615031 0.850574 0.668457
Si Si4 0.000000 0.291754 0.000000
Si Si5 0.351548 0.150546 0.676688
Si Si6 0.000000 0.749078 0.500000
O O1 0.282419 0.207664 0.234848
O O2 0.099663 0.207676 0.071106
O O3 0.064402 0.162156 0.369701
O O4 0.164485 0.000000 0.176190
O O5 0.229109 0.500000 0.704655
O O6 0.252598 0.755526 0.758757
O O7 0.066572 0.624255 0.867552
O O8 0.098115 0.662768 0.572930
O O9 0.635968 0.803221 0.496439
O O10 0.480098 0.821184 0.741406
O O11 0.633744 0.000000 0.658447
O O12 0.316016 0.000000 0.698168
#
# Coordination Sequence:
#
# PCOD8058900 Si02
#       6
#     4   4   4   2   4   2
#     4  10  18  32  54  84 113 141 177 226 272 319
#     4  11  22  38  56  77 109 148 185 225 271 322
#     4   8  15  30  54  82 113 140 169 218 279 325
#     4  10  24  36  50  74 113 154 185 216 267 326
#     4   9  17  32  57  84 108 137 177 225 274 321
#     4  10  20  32  54  80 107 140 185 224 273 326
#
# _framework density 19.222225000000002
#
# number of rings (size 3 to 8) (size 9 to 14) (size 15 to 20)
#    0.000    2.400    2.000    2.400    0.000    4.000 
#    0.000    3.000    0.000    4.800    0.000    0.000 
#    0.000    0.000    0.000    0.000    0.000    0.000 
#
# Total GULP energy -247801.648973 kJ/mol
# GULP energy per Si atom -12390.082449 kJ/mol
# Density = 1.917847 g / cm^3
# Si number density = 19.222225 Si / 1000 Ang^3
#
#
#
# Elastic Constant Matrix: (Units=GPa)
#
#
# Indices 1 2 3 4 5 6 
#
# 1 137.5539 46.1928 21.2620 0.0000 17.7195 0.0000
# 2 46.1928 91.2734 10.0455 0.0000 -0.9784 0.0000
# 3 21.2620 10.0455 51.9597 0.0000 10.9020 0.0000
# 4 0.0000 0.0000 0.0000 3.5671 0.0000 -3.6793
# 5 17.7195 -0.9784 10.9020 0.0000 31.6963 0.0000
# 6 0.0000 0.0000 0.0000 -3.6793 0.0000 11.9321
#
#
#
# Elastic Compliance Matrix: (Units=1/GPa)
#
#
# Indices 1 2 3 4 5 6 
#
# 1 0.009838 -0.004805 -0.002060 0.000000 -0.004940 0.000000
# 2 -0.004805 0.013582 -0.001413 0.000000 0.003592 0.000000
# 3 -0.002060 -0.001413 0.021695 0.000000 -0.006354 0.000000
# 4 0.000000 0.000000 0.000000 0.411088 0.000000 0.126760
# 5 -0.004940 0.003592 -0.006354 0.000000 0.036607 0.000000
# 6 0.000000 0.000000 0.000000 0.126760 0.000000 0.122894
#
#
# Mechanical properties :
#
#
# Convention : Reuss Voigt Hill
#
# Bulk Modulus (GPa) = 35.01656 48.42085 41.71871
# Shear Modulus (GPa) = 7.79081 22.99156 15.39118
#
# Velocity S-wave (km/s) = 2.01540 3.46221 2.83273
# Velocity P-wave (km/s) = 4.86539 6.42084 5.69646
#
# Compressibility (1/GPa) = 0.02855792
#
# Stress axis : x y z
#
# Youngs Moduli (GPa) = 101.64271 73.62660 46.09319
#
# Poissons Ratio (x) = 0.35380 0.09497
# Poissons Ratio (y) = 0.48842 0.06513
# Poissons Ratio (z) = 0.20943 0.10404
#
# Static dielectric constant tensor:
#      x y z
#    x 4.061220 0.000000 0.231730 
#    y 0.000000 3.136440 0.000000 
#    z 0.231730 0.000000 3.325740 
# 
# 
# High freq. dielectric constant tensor:
#      x y z
#    x 1.759000 0.000000 0.006760 
#    y 0.000000 1.713700 0.000000 
#    z 0.006760 0.000000 1.728030 
# 
# From -- ./inp_files/23501.got.cif
#   From: 2010.06.25/outbox.cif.g09.slc.cpg/sg10_12_cif.got.tgz:23501.got - 2010.06.27 22:07:45.
