data_PCOD8058365
_publ_section_title
;
Structure prediction by ZEFSAII (Michael W. Deem and Ramdas Pophale) SiO2 
 PCOD8058365
Probable space group: P 2/M
;
_chemical_formula_sum "Si O2"
_cell_formula_units_Z 32
_cell_length_a 10.943081
_cell_length_b 9.421907
_cell_length_c 21.640953
_cell_angle_alpha 90.000000
_cell_angle_beta 130.353416
_cell_angle_gamma 90.000000
_cell_volume 1700.383289
_symmetry_space_group_name_H-M "P 2/M"
_symmetry_group_IT_number 10
_symmetry_cell_setting 'monoclinic'
loop_
_space_group_symop_operation_xyz
x,y,z
-x,y,-z
-x,-y,-z
x,-y,z
loop_
_atom_site_type_symbol
_atom_site_label
_atom_site_fract_x
_atom_site_fract_y
_atom_site_fract_z
Si Si1 0.903658 0.838857 0.158764
Si Si2 0.125117 0.166383 0.395120
Si Si3 0.830039 0.335397 0.473241
Si Si4 0.480174 0.341051 0.164620
Si Si5 0.843519 0.340012 0.253761
Si Si6 0.502337 0.664624 0.693355
Si Si7 0.745601 0.161452 0.697034
Si Si8 0.385643 0.162056 0.017506
O O1 0.825889 0.729224 0.180758
O O2 0.091571 0.804158 0.210912
O O3 0.889101 0.000000 0.180662
O O4 0.801810 0.824438 0.062542
O O5 0.213496 0.238708 0.481782
O O6 0.226764 0.193134 0.366284
O O7 0.954129 0.243532 0.333219
O O8 0.099223 0.000000 0.398739
O O9 0.838407 0.500000 0.496217
O O10 0.687686 0.308263 0.377723
O O11 0.000000 0.287488 0.500000
O O12 0.413026 0.500000 0.132577
O O13 0.670762 0.343999 0.227068
O O14 0.438493 0.283002 0.219552
O O15 0.404141 0.244182 0.087287
O O16 0.913644 0.500000 0.271391
O O17 0.540705 0.500000 0.698762
O O18 0.601719 0.742846 0.673140
O O19 0.693488 0.000000 0.690140
O O20 0.435504 0.000000 0.046301
O O21 0.500000 0.222478 0.000000
#
# Coordination Sequence:
#
# PCOD8058365 Si02
#       8
#     4   4   4   4   4   4   4   4
#     4   9  18  34  53  78 112 143 177 224 274 322
#     4  10  21  36  56  83 113 144 183 228 272 320
#     4  10  21  39  61  84 114 145 177 221 276 330
#     4  10  21  35  52  78 112 145 181 225 278 330
#     4  10  18  30  52  80 110 144 180 219 272 331
#     4  10  22  39  57  78 107 145 186 229 270 322
#     4   9  20  38  57  77 107 147 187 227 268 318
#     4  10  19  32  54  83 113 143 179 225 275 328
#
# _framework density 18.819286999999999
#
# number of rings (size 3 to 8) (size 9 to 14) (size 15 to 20)
#    0.000    2.250    1.250    2.250    0.000    7.500 
#    0.000    4.375    0.000    3.750    0.000    0.000 
#    0.000    0.000    0.000    0.000    0.000    0.000 
#
# Total GULP energy -396741.319251 kJ/mol
# GULP energy per Si atom -12398.166227 kJ/mol
# Density = 1.877645 g / cm^3
# Si number density = 18.819287 Si / 1000 Ang^3
#
#
#
# Elastic Constant Matrix: (Units=GPa)
#
#
# Indices 1 2 3 4 5 6 
#
# 1 80.6352 39.1902 39.4852 0.0000 -2.4828 0.0000
# 2 39.1902 87.9583 53.4149 0.0000 -11.1369 0.0000
# 3 39.4852 53.4149 111.1738 0.0000 -13.8030 0.0000
# 4 0.0000 0.0000 0.0000 33.6146 0.0000 -3.6587
# 5 -2.4828 -11.1369 -13.8030 0.0000 23.6994 0.0000
# 6 0.0000 0.0000 0.0000 -3.6587 0.0000 24.4314
#
#
#
# Elastic Compliance Matrix: (Units=1/GPa)
#
#
# Indices 1 2 3 4 5 6 
#
# 1 0.016848 -0.005687 -0.003627 0.000000 -0.003019 0.000000
# 2 -0.005687 0.018214 -0.006190 0.000000 0.004358 0.000000
# 3 -0.003627 -0.006190 0.013850 0.000000 0.004778 0.000000
# 4 0.000000 0.000000 0.000000 0.030242 0.000000 0.004529
# 5 -0.003019 0.004358 0.004778 0.000000 0.046710 0.000000
# 6 0.000000 0.000000 0.000000 0.004529 0.000000 0.041609
#
#
# Mechanical properties :
#
#
# Convention : Reuss Voigt Hill
#
# Bulk Modulus (GPa) = 55.84952 60.43865 58.14408
# Shear Modulus (GPa) = 24.45604 26.19421 25.32513
#
# Velocity S-wave (km/s) = 3.60880 3.73484 3.67236
# Velocity P-wave (km/s) = 6.86336 7.12627 6.99605
#
# Compressibility (1/GPa) = 0.01790526
#
# Stress axis : x y z
#
# Youngs Moduli (GPa) = 59.35318 54.90354 72.20064
#
# Poissons Ratio (x) = 0.31223 0.26184
# Poissons Ratio (y) = 0.33753 0.44694
# Poissons Ratio (z) = 0.21525 0.33986
#
# Static dielectric constant tensor:
#      x y z
#    x 3.201760 0.000000 0.012100 
#    y 0.000000 3.502670 0.000000 
#    z 0.012100 0.000000 3.511680 
# 
# 
# High freq. dielectric constant tensor:
#      x y z
#    x 1.707720 0.000000 0.001750 
#    y 0.000000 1.731320 0.000000 
#    z 0.001750 0.000000 1.736010 
# 
# From -- ./inp_files/83621.got.cif
#   From: 2010.06.25/outbox.cif.g09.slc.cpg/sg10_42_cif.got.tgz:83621.got - 2010.06.27 22:07:45.
