data_PCOD8058648
_publ_section_title
;
Structure prediction by ZEFSAII (Michael W. Deem and Ramdas Pophale) SiO2 
 PCOD8058648
Probable space group: P 2/M
;
_chemical_formula_sum "Si O2"
_cell_formula_units_Z 32
_cell_length_a 19.900858
_cell_length_b 8.580330
_cell_length_c 12.009523
_cell_angle_alpha 90.000000
_cell_angle_beta 122.911392
_cell_angle_gamma 90.000000
_cell_volume 1721.584646
_symmetry_space_group_name_H-M "P 2/M"
_symmetry_group_IT_number 10
_symmetry_cell_setting 'monoclinic'
loop_
_space_group_symop_operation_xyz
x,y,z
-x,y,-z
-x,-y,-z
x,-y,z
loop_
_atom_site_type_symbol
_atom_site_label
_atom_site_fract_x
_atom_site_fract_y
_atom_site_fract_z
Si Si1 0.946686 0.820861 0.595350
Si Si2 0.101769 0.680273 0.678147
Si Si3 0.361852 0.680685 0.176087
Si Si4 0.454842 0.681974 0.669716
Si Si5 0.668615 0.320572 0.258126
Si Si6 0.217653 0.820456 0.466388
Si Si7 0.735211 0.179777 0.106142
Si Si8 0.339483 0.820235 0.390310
O O1 0.908139 0.784257 0.440578
O O2 0.877645 0.786515 0.625140
O O3 0.025662 0.717331 0.690090
O O4 0.972884 0.000000 0.622347
O O5 0.101013 0.500000 0.644272
O O6 0.183945 0.720026 0.813562
O O7 0.349110 0.500000 0.136582
O O8 0.453322 0.730938 0.237585
O O9 0.337875 0.711721 0.281429
O O10 0.306223 0.783917 0.047863
O O11 0.444285 0.500000 0.631446
O O12 0.412483 0.723177 0.748892
O O13 0.415725 0.780079 0.535149
O O14 0.669330 0.500000 0.223181
O O15 0.744592 0.288693 0.405064
O O16 0.673897 0.220367 0.150603
O O17 0.257403 0.784391 0.383082
O O18 0.233900 0.000000 0.515237
O O19 0.758444 0.000000 0.132126
O O20 0.345294 0.000000 0.359775
#
# Coordination Sequence:
#
# PCOD8058648 Si02
#       8
#     4   4   4   4   4   4   4   4
#     4  10  18  31  53  81 112 144 176 214 262 313
#     4  11  21  33  51  79 111 143 177 217 261 315
#     4  11  23  39  56  76 104 143 186 224 268 321
#     4   9  20  37  57  80 107 139 177 224 273 319
#     4  10  19  33  54  79 107 140 177 218 267 320
#     4   9  18  32  53  80 112 143 174 216 266 315
#     4  12  24  38  54  75 108 145 180 220 269 326
#     4  10  20  35  56  83 110 139 179 226 269 311
#
# _framework density 18.587526
#
# number of rings (size 3 to 8) (size 9 to 14) (size 15 to 20)
#    0.000    1.750    1.250    4.875    0.000    4.500 
#    0.000    2.500    0.000    0.750    0.000    5.250 
#    0.000    0.000    0.000    0.000    0.000    0.000 
#
# Total GULP energy -396878.406308 kJ/mol
# GULP energy per Si atom -12402.450197 kJ/mol
# Density = 1.854522 g / cm^3
# Si number density = 18.587526 Si / 1000 Ang^3
#
#
#
# Elastic Constant Matrix: (Units=GPa)
#
#
# Indices 1 2 3 4 5 6 
#
# 1 115.8622 21.4969 45.6970 0.0000 11.3463 0.0000
# 2 21.4969 56.9917 16.4470 0.0000 -0.1072 0.0000
# 3 45.6970 16.4470 70.1386 0.0000 4.8112 0.0000
# 4 0.0000 0.0000 0.0000 28.4572 0.0000 0.3096
# 5 11.3463 -0.1072 4.8112 0.0000 10.3582 0.0000
# 6 0.0000 0.0000 0.0000 0.3096 0.0000 28.5883
#
#
#
# Elastic Compliance Matrix: (Units=1/GPa)
#
#
# Indices 1 2 3 4 5 6 
#
# 1 0.013031 -0.002900 -0.007053 0.000000 -0.011028 0.000000
# 2 -0.002900 0.019520 -0.003015 0.000000 0.004780 0.000000
# 3 -0.007053 -0.003015 0.019659 0.000000 -0.001436 0.000000
# 4 0.000000 0.000000 0.000000 0.035145 0.000000 -0.000381
# 5 -0.011028 0.004780 -0.001436 0.000000 0.109338 0.000000
# 6 0.000000 0.000000 0.000000 -0.000381 0.000000 0.034983
#
#
# Mechanical properties :
#
#
# Convention : Reuss Voigt Hill
#
# Bulk Modulus (GPa) = 38.06525 45.58606 41.82565
# Shear Modulus (GPa) = 18.77087 24.10418 21.43752
#
# Velocity S-wave (km/s) = 3.18128 3.60501 3.39975
# Velocity P-wave (km/s) = 5.83245 6.47352 6.16133
#
# Compressibility (1/GPa) = 0.02627068
#
# Stress axis : x y z
#
# Youngs Moduli (GPa) = 76.74037 51.23052 50.86846
#
# Poissons Ratio (x) = 0.14859 0.35880
# Poissons Ratio (y) = 0.22258 0.15339
# Poissons Ratio (z) = 0.54128 0.15448
#
# Static dielectric constant tensor:
#      x y z
#    x 3.812010 0.000000 0.032130 
#    y 0.000000 3.437490 0.000000 
#    z 0.032130 0.000000 3.019630 
# 
# 
# High freq. dielectric constant tensor:
#      x y z
#    x 1.736780 0.000000 0.003640 
#    y 0.000000 1.730380 0.000000 
#    z 0.003640 0.000000 1.679350 
# 
# From -- ./inp_files/54928.got.cif
#   From: 2010.06.25/outbox.cif.g09.slc.cpg/sg10_28_cif.got.tgz:54928.got - 2010.06.27 22:07:45.
