data_PCOD8058906
_publ_section_title
;
Structure prediction by ZEFSAII (Michael W. Deem and Ramdas Pophale) SiO2 
 PCOD8058906
Probable space group: P 2/M
;
_chemical_formula_sum "Si O2"
_cell_formula_units_Z 28
_cell_length_a 20.070932
_cell_length_b 9.212167
_cell_length_c 23.076550
_cell_angle_alpha 90.000000
_cell_angle_beta 159.700716
_cell_angle_gamma 90.000000
_cell_volume 1480.247997
_symmetry_space_group_name_H-M "P 2/M"
_symmetry_group_IT_number 10
_symmetry_cell_setting 'monoclinic'
loop_
_space_group_symop_operation_xyz
x,y,z
-x,y,-z
-x,-y,-z
x,-y,z
loop_
_atom_site_type_symbol
_atom_site_label
_atom_site_fract_x
_atom_site_fract_y
_atom_site_fract_z
Si Si1 0.056132 0.326847 0.399816
Si Si2 0.761525 0.670626 0.960910
Si Si3 0.815187 0.170285 0.884927
Si Si4 0.419831 0.328785 0.762779
Si Si5 0.619338 0.672912 0.042027
Si Si6 0.490702 0.336099 0.560808
Si Si7 0.882786 0.328888 0.677194
O O1 0.053016 0.500000 0.398837
O O2 0.203432 0.271236 0.570653
O O3 0.139796 0.269053 0.406609
O O4 0.837751 0.267716 0.228235
O O5 0.780671 0.500000 0.964644
O O6 0.803684 0.751088 0.936320
O O7 0.553440 0.710579 0.816829
O O8 0.916651 0.727544 0.133707
O O9 0.637040 0.216745 0.701346
O O10 0.814214 0.000000 0.895001
O O11 0.000000 0.221731 0.000000
O O12 0.412353 0.500000 0.765270
O O13 0.510901 0.262913 0.896340
O O14 0.626541 0.500000 0.043476
O O15 0.500000 0.726364 0.000000
O O16 0.500000 0.336369 0.500000
O O17 0.534763 0.500000 0.619903
O O18 0.287237 0.279787 0.419003
O O19 0.891150 0.500000 0.680748
#
# Coordination Sequence:
#
# PCOD8058906 Si02
#       7
#     4   4   4   4   4   4   4
#     4   9  15  24  38  59  91 128 168 208 248 303
#     4  10  18  32  55  76  96 127 171 218 260 304
#     4  11  24  38  50  70 103 138 169 206 260 317
#     4   9  16  26  43  67  92 126 169 212 259 300
#     4   9  16  25  36  57  95 137 171 203 248 311
#     4  10  20  34  53  77  99 126 171 218 259 306
#     4   9  16  28  48  73  97 122 161 218 266 299
#
# _framework density 18.915749000000002
#
# number of rings (size 3 to 8) (size 9 to 14) (size 15 to 20)
#    0.000    2.429    1.429    2.143    0.000    5.429 
#    0.000    3.571    0.000    0.000    0.000    0.000 
#    0.000    0.571    0.000    4.000    0.000    4.286 
#
# Total GULP energy -346993.114404 kJ/mol
# GULP energy per Si atom -12392.611229 kJ/mol
# Density = 1.887270 g / cm^3
# Si number density = 18.915749 Si / 1000 Ang^3
#
#
#
# Elastic Constant Matrix: (Units=GPa)
#
#
# Indices 1 2 3 4 5 6 
#
# 1 134.1321 22.6823 75.1183 0.0000 2.8968 0.0000
# 2 22.6823 15.6009 14.9379 0.0000 -1.9338 0.0000
# 3 75.1183 14.9379 172.5659 0.0000 -0.1012 0.0000
# 4 0.0000 0.0000 0.0000 8.7111 0.0000 5.3015
# 5 2.8968 -1.9338 -0.1012 0.0000 32.5448 0.0000
# 6 0.0000 0.0000 0.0000 5.3015 0.0000 2.1286
#
#
#
# Elastic Compliance Matrix: (Units=1/GPa)
#
#
# Indices 1 2 3 4 5 6 
#
# 1 0.012147 -0.013995 -0.004077 0.000000 -0.001925 0.000000
# 2 -0.013995 0.086577 -0.001399 0.000000 0.006386 0.000000
# 3 -0.004077 -0.001399 0.007691 0.000000 0.000304 0.000000
# 4 0.000000 0.000000 0.000000 -0.222589 0.000000 0.554372
# 5 -0.001925 0.006386 0.000304 0.000000 0.031279 0.000000
# 6 0.000000 0.000000 0.000000 0.554372 0.000000 -0.910913
#
#
# Mechanical properties :
#
#
# Convention : Reuss Voigt Hill
#
# Bulk Modulus (GPa) = 14.82074 60.86400 37.84237
# Shear Modulus (GPa) = -5.35117 22.64762 8.64822
#
# Velocity S-wave (km/s) = -1.68377 3.46394 2.14054
# Velocity P-wave (km/s) = 2.01792 6.94584 5.11453
#
# Compressibility (1/GPa) = 0.06747302
#
# Stress axis : x y z
#
# Youngs Moduli (GPa) = 82.32511 11.55039 130.02272
#
# Poissons Ratio (x) = 0.16165 0.53013
# Poissons Ratio (y) = 1.15216 0.18184
# Poissons Ratio (z) = 0.33566 0.01615
#
# Static dielectric constant tensor:
#      x y z
#    x 3.450260 0.000000 0.102780 
#    y 0.000000 2.805550 0.000000 
#    z 0.102780 0.000000 3.882360 
# 
# 
# High freq. dielectric constant tensor:
#      x y z
#    x 1.745120 0.000000 -0.000530 
#    y 0.000000 1.652490 0.000000 
#    z -0.000530 0.000000 1.754510 
# 
# From -- ./inp_files/37906.got.cif
#   From: 2010.06.25/outbox.cif.g09.slc.cpg/sg10_19_cif.got.tgz:37906.got - 2010.06.27 22:07:45.
