data_PCOD8058477
_publ_section_title
;
Structure prediction by ZEFSAII (Michael W. Deem and Ramdas Pophale) SiO2 
 PCOD8058477
Probable space group: P 2/M
;
_chemical_formula_sum "Si O2"
_cell_formula_units_Z 32
_cell_length_a 26.628527
_cell_length_b 14.722052
_cell_length_c 13.880420
_cell_angle_alpha 90.000000
_cell_angle_beta 159.311329
_cell_angle_gamma 90.000000
_cell_volume 1922.424475
_symmetry_space_group_name_H-M "P 2/M"
_symmetry_group_IT_number 10
_symmetry_cell_setting 'monoclinic'
loop_
_space_group_symop_operation_xyz
x,y,z
-x,y,-z
-x,-y,-z
x,-y,z
loop_
_atom_site_type_symbol
_atom_site_label
_atom_site_fract_x
_atom_site_fract_y
_atom_site_fract_z
Si Si1 0.458247 0.398242 0.816396
Si Si2 0.396203 0.896989 0.173218
Si Si3 0.405533 0.224837 0.007351
Si Si4 0.177702 0.182825 0.450415
Si Si5 0.712416 0.102343 0.818734
Si Si6 0.655416 0.900163 0.402366
Si Si7 0.863412 0.814820 0.924916
Si Si8 0.149808 0.663281 0.241329
O O1 0.513801 0.500000 0.894288
O O2 0.286848 0.400815 0.495080
O O3 0.500000 0.369151 0.000000
O O4 0.534390 0.328432 0.878938
O O5 0.293245 0.873277 0.078075
O O6 0.557207 0.891521 0.495253
O O7 0.363706 0.000000 0.077328
O O8 0.371991 0.819738 0.049993
O O9 0.258119 0.225344 0.685583
O O10 0.525362 0.169315 0.165574
O O11 0.265701 0.100860 0.559684
O O12 0.165319 0.255508 0.343741
O O13 0.023876 0.148130 0.206544
O O14 0.813813 0.175044 0.946919
O O15 0.771974 0.000000 0.912881
O O16 0.762252 0.879246 0.681011
O O17 0.592669 0.000000 0.307344
O O18 0.855914 0.709650 0.875608
O O19 0.000000 0.612282 0.000000
#
# Coordination Sequence:
#
# PCOD8058477 Si02
#       8
#     4   4   4   4   4   4   4   4
#     4  11  20  32  52  75 100 131 160 197 253 300
#     4   9  18  30  50  73  93 125 169 207 243 287
#     4  12  19  34  49  69  99 129 162 208 241 287
#     4  10  21  31  44  67 102 132 163 196 242 284
#     4   9  16  30  48  70  95 123 167 213 243 278
#     4  11  20  30  47  68  95 134 171 195 231 285
#     4  10  18  31  50  68  95 134 164 200 240 284
#     4   9  17  32  49  71  98 129 164 198 236 292
#
# _framework density 16.645647
#
# number of rings (size 3 to 8) (size 9 to 14) (size 15 to 20)
#    0.000    1.875    5.000    3.000    0.000    3.250 
#    0.000    0.625    0.000    1.500    0.000    7.000 
#    0.000    1.000    0.000    0.000    0.000    0.000 
#
# Total GULP energy -396605.130108 kJ/mol
# GULP energy per Si atom -12393.910316 kJ/mol
# Density = 1.660776 g / cm^3
# Si number density = 16.645647 Si / 1000 Ang^3
#
#
#
# Elastic Constant Matrix: (Units=GPa)
#
#
# Indices 1 2 3 4 5 6 
#
# 1 108.4825 32.9782 23.5085 0.0000 3.6644 0.0000
# 2 32.9782 75.5228 12.3383 0.0000 -2.5197 0.0000
# 3 23.5085 12.3383 66.3034 0.0000 2.6401 0.0000
# 4 0.0000 0.0000 0.0000 6.4789 0.0000 -5.4722
# 5 3.6644 -2.5197 2.6401 0.0000 15.8113 0.0000
# 6 0.0000 0.0000 0.0000 -5.4722 0.0000 7.7062
#
#
#
# Elastic Compliance Matrix: (Units=1/GPa)
#
#
# Indices 1 2 3 4 5 6 
#
# 1 0.011364 -0.004556 -0.003068 0.000000 -0.002848 0.000000
# 2 -0.004556 0.015591 -0.001436 0.000000 0.003780 0.000000
# 3 -0.003068 -0.001436 0.016528 0.000000 -0.002278 0.000000
# 4 0.000000 0.000000 0.000000 0.385649 0.000000 0.273853
# 5 -0.002848 0.003780 -0.002278 0.000000 0.064889 0.000000
# 6 0.000000 0.000000 0.000000 0.273853 0.000000 0.324231
#
#
# Mechanical properties :
#
#
# Convention : Reuss Voigt Hill
#
# Bulk Modulus (GPa) = 39.42875 43.10652 41.26763
# Shear Modulus (GPa) = 5.91836 18.09818 12.00827
#
# Velocity S-wave (km/s) = 1.88765 3.30094 2.68881
# Velocity P-wave (km/s) = 5.33756 6.36247 5.87242
#
# Compressibility (1/GPa) = 0.02536221
#
# Stress axis : x y z
#
# Youngs Moduli (GPa) = 87.99598 64.13821 60.50341
#
# Poissons Ratio (x) = 0.29222 0.18563
# Poissons Ratio (y) = 0.40092 0.08691
# Poissons Ratio (z) = 0.26998 0.09213
#
# Static dielectric constant tensor:
#      x y z
#    x 3.375060 0.000000 0.020460 
#    y 0.000000 2.873580 0.000000 
#    z 0.020460 0.000000 3.295600 
# 
# 
# High freq. dielectric constant tensor:
#      x y z
#    x 1.623440 0.000000 0.006040 
#    y 0.000000 1.609380 0.000000 
#    z 0.006040 0.000000 1.639040 
# 
# From -- ./inp_files/72705.got.cif
#   From: 2010.06.25/outbox.cif.g09.slc.cpg/sg10_37_cif.got.tgz:72705.got - 2010.06.27 22:07:45.
