data_PCOD8058342
_publ_section_title
;
Structure prediction by ZEFSAII (Michael W. Deem and Ramdas Pophale) SiO2 
 PCOD8058342
Probable space group: P 2/M
;
_chemical_formula_sum "Si O2"
_cell_formula_units_Z 32
_cell_length_a 14.020897
_cell_length_b 9.527480
_cell_length_c 14.187755
_cell_angle_alpha 90.000000
_cell_angle_beta 62.117908
_cell_angle_gamma 90.000000
_cell_volume 1675.237848
_symmetry_space_group_name_H-M "P 2/M"
_symmetry_group_IT_number 10
_symmetry_cell_setting 'monoclinic'
loop_
_space_group_symop_operation_xyz
x,y,z
-x,y,-z
-x,-y,-z
x,-y,z
loop_
_atom_site_type_symbol
_atom_site_label
_atom_site_fract_x
_atom_site_fract_y
_atom_site_fract_z
Si Si1 0.844531 0.668264 0.829930
Si Si2 0.703555 0.664538 0.545882
Si Si3 0.897839 0.163942 0.983325
Si Si4 0.623344 0.836188 0.421189
Si Si5 0.483582 0.655283 0.236867
Si Si6 0.890407 0.666549 0.597357
Si Si7 0.391368 0.341864 0.085476
Si Si8 0.324608 0.162954 0.816659
O O1 0.854054 0.500000 0.836187
O O2 0.885665 0.718377 0.708094
O O3 0.720831 0.723994 0.897599
O O4 0.910288 0.746017 0.881784
O O5 0.722278 0.500000 0.517161
O O6 0.707829 0.750770 0.446934
O O7 0.582903 0.695523 0.639605
O O8 0.792273 0.723288 0.578311
O O9 0.792240 0.208896 0.091498
O O10 0.894989 0.000000 0.957883
O O11 0.000000 0.200556 0.000000
O O12 0.500000 0.792649 0.500000
O O13 0.659206 0.794968 0.299436
O O14 0.640299 0.000000 0.433006
O O15 0.533432 0.500000 0.223012
O O16 0.392603 0.659141 0.197807
O O17 0.582512 0.757776 0.167733
O O18 0.885942 0.500000 0.599865
O O19 0.000000 0.723543 0.500000
O O20 0.394776 0.500000 0.043164
O O21 0.500000 0.261562 0.000000
O O22 0.344299 0.000000 0.823487
#
# Coordination Sequence:
#
# PCOD8058342 Si02
#       8
#     4   4   4   4   4   4   4   4
#     4  10  19  35  59  84 108 139 181 222 261 314
#     4  10  19  32  52  79 109 142 178 217 264 316
#     4  10  23  42  59  76 105 144 182 224 271 316
#     4  10  20  34  52  75 106 145 182 219 269 324
#     4  10  18  30  51  79 109 138 173 218 266 317
#     4   9  18  34  56  83 115 146 175 215 269 321
#     4   9  16  27  47  76 107 137 169 210 261 311
#     4  10  21  37  55  76 105 143 183 221 270 325
#
# _framework density 19.101765
#
# number of rings (size 3 to 8) (size 9 to 14) (size 15 to 20)
#    0.000    2.250    2.500    0.750    0.000    3.500 
#    0.000    1.250    0.000    3.000    0.000    0.000 
#    0.000    0.000    0.000    0.000    0.000    0.000 
#
# Total GULP energy -396652.634191 kJ/mol
# GULP energy per Si atom -12395.394818 kJ/mol
# Density = 1.905829 g / cm^3
# Si number density = 19.101765 Si / 1000 Ang^3
#
#
#
# Elastic Constant Matrix: (Units=GPa)
#
#
# Indices 1 2 3 4 5 6 
#
# 1 122.8049 41.3846 50.7052 0.0000 4.4699 0.0000
# 2 41.3846 35.2920 27.1144 0.0000 3.0670 0.0000
# 3 50.7052 27.1144 99.9922 0.0000 1.9304 0.0000
# 4 0.0000 0.0000 0.0000 15.7388 0.0000 -1.7087
# 5 4.4699 3.0670 1.9304 0.0000 27.5036 0.0000
# 6 0.0000 0.0000 0.0000 -1.7087 0.0000 16.7950
#
#
#
# Elastic Compliance Matrix: (Units=1/GPa)
#
#
# Indices 1 2 3 4 5 6 
#
# 1 0.014342 -0.014139 -0.003429 0.000000 -0.000514 0.000000
# 2 -0.014139 0.050035 -0.006343 0.000000 -0.002836 0.000000
# 3 -0.003429 -0.006343 0.013453 0.000000 0.000320 0.000000
# 4 0.000000 0.000000 0.000000 0.064247 0.000000 0.006536
# 5 -0.000514 -0.002836 0.000320 0.000000 0.036736 0.000000
# 6 0.000000 0.000000 0.000000 0.006536 0.000000 0.060207
#
#
# Mechanical properties :
#
#
# Convention : Reuss Voigt Hill
#
# Bulk Modulus (GPa) = 33.32418 55.16637 44.24528
# Shear Modulus (GPa) = 16.84378 21.26648 19.05513
#
# Velocity S-wave (km/s) = 2.97272 3.34027 3.16184
# Velocity P-wave (km/s) = 5.40983 6.61963 6.04507
#
# Compressibility (1/GPa) = 0.03000824
#
# Stress axis : x y z
#
# Youngs Moduli (GPa) = 69.72366 19.98599 74.33087
#
# Poissons Ratio (x) = 0.28259 0.25487
# Poissons Ratio (y) = 0.98585 0.47148
# Poissons Ratio (z) = 0.23907 0.12677
#
# Static dielectric constant tensor:
#      x y z
#    x 3.457680 0.000000 -0.044730 
#    y 0.000000 3.099140 0.000000 
#    z -0.044730 0.000000 3.652860 
# 
# 
# High freq. dielectric constant tensor:
#      x y z
#    x 1.742250 0.000000 0.004730 
#    y 0.000000 1.701530 0.000000 
#    z 0.004730 0.000000 1.752720 
# 
# From -- ./inp_files/66518.got.cif
#   From: 2010.06.25/outbox.cif.g09.slc.cpg/sg10_34_cif.got.tgz:66518.got - 2010.06.27 22:07:45.
