data_PCOD8058252
_publ_section_title
;
Structure prediction by ZEFSAII (Michael W. Deem and Ramdas Pophale) SiO2 
 PCOD8058252
Probable space group: P 2/M
;
_chemical_formula_sum "Si O2"
_cell_formula_units_Z 32
_cell_length_a 11.674825
_cell_length_b 9.142033
_cell_length_c 21.274665
_cell_angle_alpha 90.000000
_cell_angle_beta 127.806309
_cell_angle_gamma 90.000000
_cell_volume 1794.035760
_symmetry_space_group_name_H-M "P 2/M"
_symmetry_group_IT_number 10
_symmetry_cell_setting 'monoclinic'
loop_
_space_group_symop_operation_xyz
x,y,z
-x,y,-z
-x,-y,-z
x,-y,z
loop_
_atom_site_type_symbol
_atom_site_label
_atom_site_fract_x
_atom_site_fract_y
_atom_site_fract_z
Si Si1 0.337461 0.832610 0.199172
Si Si2 0.041789 0.171744 0.583028
Si Si3 0.264789 0.665416 0.825821
Si Si4 0.168082 0.828166 0.909536
Si Si5 0.855419 0.831897 0.751136
Si Si6 0.349572 0.832643 0.738724
Si Si7 0.941566 0.335375 0.664904
Si Si8 0.837476 0.671918 0.963872
O O1 0.280453 0.796160 0.249783
O O2 0.510367 0.810015 0.257938
O O3 0.267917 0.721501 0.126869
O O4 0.295528 0.000000 0.167239
O O5 0.209206 0.214997 0.651438
O O6 0.000000 0.228587 0.500000
O O7 0.935559 0.249728 0.597051
O O8 0.015324 0.000000 0.580717
O O9 0.315951 0.500000 0.856033
O O10 0.273851 0.757973 0.892914
O O11 0.368331 0.736845 0.808111
O O12 0.102832 0.671135 0.745580
O O13 0.001216 0.790868 0.837990
O O14 0.197624 0.000000 0.922498
O O15 0.209262 0.756615 0.989378
O O16 0.836956 0.738400 0.681414
O O17 0.860676 0.000000 0.732153
O O18 0.332815 0.000000 0.755038
O O19 0.888218 0.500000 0.635624
O O20 0.820979 0.500000 0.969858
O O21 0.000000 0.715362 0.000000
#
# Coordination Sequence:
#
# PCOD8058252 Si02
#       8
#     4   4   4   4   4   4   4   4
#     4  10  20  34  51  71  97 131 168 205 245 293
#     4   9  17  31  53  79 104 129 158 196 242 289
#     4   9  17  30  48  70  98 128 161 203 251 295
#     4  10  18  30  50  71  94 125 166 211 251 290
#     4   9  17  29  47  70  95 126 163 203 244 285
#     4   9  18  33  52  74 100 129 164 201 241 293
#     4   9  17  28  46  73 101 127 159 200 240 284
#     4  11  22  33  47  70 100 130 164 207 251 294
#
# _framework density 17.836879
#
# number of rings (size 3 to 8) (size 9 to 14) (size 15 to 20)
#    0.000    2.500    1.250    1.500    0.000    5.250 
#    0.000    0.625    0.000    4.500    0.000    5.250 
#    0.000    0.000    0.000    0.000    0.000    0.000 
#
# Total GULP energy -396845.762665 kJ/mol
# GULP energy per Si atom -12401.430083 kJ/mol
# Density = 1.779628 g / cm^3
# Si number density = 17.836879 Si / 1000 Ang^3
#
#
#
# Elastic Constant Matrix: (Units=GPa)
#
#
# Indices 1 2 3 4 5 6 
#
# 1 122.8392 51.3936 47.3758 0.0000 -25.1166 0.0000
# 2 51.3936 89.2049 41.6097 0.0000 -19.6734 0.0000
# 3 47.3758 41.6097 71.5684 0.0000 -24.1786 0.0000
# 4 0.0000 0.0000 0.0000 18.4314 0.0000 -5.2796
# 5 -25.1166 -19.6734 -24.1786 0.0000 30.0329 0.0000
# 6 0.0000 0.0000 0.0000 -5.2796 0.0000 18.2693
#
#
#
# Elastic Compliance Matrix: (Units=1/GPa)
#
#
# Indices 1 2 3 4 5 6 
#
# 1 0.012437 -0.004208 -0.004401 0.000000 0.004102 0.000000
# 2 -0.004208 0.017154 -0.006292 0.000000 0.002653 0.000000
# 3 -0.004401 -0.006292 0.024598 0.000000 0.012002 0.000000
# 4 0.000000 0.000000 0.000000 0.059152 0.000000 0.017094
# 5 0.004102 0.002653 0.012002 0.000000 0.048127 0.000000
# 6 0.000000 0.000000 0.000000 0.017094 0.000000 0.059677
#
#
# Mechanical properties :
#
#
# Convention : Reuss Voigt Hill
#
# Bulk Modulus (GPa) = 41.00216 62.70786 51.85501
# Shear Modulus (GPa) = 19.29936 22.89561 21.09748
#
# Velocity S-wave (km/s) = 3.29293 3.58664 3.44292
# Velocity P-wave (km/s) = 6.12332 7.23772 6.70372
#
# Compressibility (1/GPa) = 0.02438896
#
# Stress axis : x y z
#
# Youngs Moduli (GPa) = 80.40368 58.29416 40.65312
#
# Poissons Ratio (x) = 0.24531 0.17890
# Poissons Ratio (y) = 0.33835 0.25578
# Poissons Ratio (z) = 0.35383 0.36677
#
# Static dielectric constant tensor:
#      x y z
#    x 3.361260 0.000000 -0.204680 
#    y 0.000000 3.366250 0.000000 
#    z -0.204680 0.000000 2.998440 
# 
# 
# High freq. dielectric constant tensor:
#      x y z
#    x 1.689310 0.000000 -0.024480 
#    y 0.000000 1.695200 0.000000 
#    z -0.024480 0.000000 1.651360 
# 
# From -- ./inp_files/52680.got.cif
#   From: 2010.06.25/outbox.cif.g09.slc.cpg/sg10_27_cif.got.tgz:52680.got - 2010.06.27 22:07:45.
