data_PCOD8058855
_publ_section_title
;
Structure prediction by ZEFSAII (Michael W. Deem and Ramdas Pophale) SiO2 
 PCOD8058855
Probable space group: P 2/M
;
_chemical_formula_sum "Si O2"
_cell_formula_units_Z 28
_cell_length_a 21.069983
_cell_length_b 9.184893
_cell_length_c 18.055818
_cell_angle_alpha 90.000000
_cell_angle_beta 26.986964
_cell_angle_gamma 90.000000
_cell_volume 1585.653306
_symmetry_space_group_name_H-M "P 2/M"
_symmetry_group_IT_number 10
_symmetry_cell_setting 'monoclinic'
loop_
_space_group_symop_operation_xyz
x,y,z
-x,y,-z
-x,-y,-z
x,-y,z
loop_
_atom_site_type_symbol
_atom_site_label
_atom_site_fract_x
_atom_site_fract_y
_atom_site_fract_z
Si Si1 0.990905 0.831987 0.424746
Si Si2 0.907579 0.839972 0.168951
Si Si3 0.337931 0.171948 0.675940
Si Si4 0.595212 0.828570 0.012316
Si Si5 0.315584 0.166947 0.238045
Si Si6 0.202408 0.669702 0.102102
Si Si7 0.855862 0.329743 0.006902
O O1 0.829555 0.810238 0.568841
O O2 0.000000 0.780714 0.500000
O O3 0.076128 0.731774 0.281598
O O4 0.040376 0.000000 0.366008
O O5 0.750494 0.789895 0.307345
O O6 0.899727 0.000000 0.214990
O O7 0.000000 0.851027 0.000000
O O8 0.986188 0.728201 0.141644
O O9 0.500000 0.222123 0.500000
O O10 0.266100 0.253872 0.819080
O O11 0.328672 0.000000 0.701300
O O12 0.689728 0.781863 0.842498
O O13 0.653414 0.745530 0.023411
O O14 0.600263 0.000000 0.024378
O O15 0.439850 0.764334 0.157867
O O16 0.359130 0.000000 0.186188
O O17 0.213351 0.500000 0.105679
O O18 0.176586 0.705969 0.043903
O O19 0.854033 0.500000 0.026821
#
# Coordination Sequence:
#
# PCOD8058855 Si02
#       7
#     4   4   4   4   4   4   4
#     4  10  18  32  54  76  95 124 169 216 259 304
#     4   8  15  30  53  78 102 129 164 205 246 291
#     4   9  18  34  57  84 108 129 161 209 255 296
#     4   9  16  31  53  72  94 127 164 209 259 305
#     4   8  15  29  51  76  95 115 160 218 260 301
#     4  11  23  35  47  71 106 139 172 210 253 301
#     4  10  21  35  50  72 105 142 175 205 243 299
#
# _framework density 17.658337
#
# number of rings (size 3 to 8) (size 9 to 14) (size 15 to 20)
#    0.000    2.714    1.429    2.571    0.000    5.429 
#    0.000    3.571    0.000    8.571    0.000    0.000 
#    0.000    0.000    0.000    0.000    0.000    0.000 
#
# Total GULP energy -346975.674232 kJ/mol
# GULP energy per Si atom -12391.988365 kJ/mol
# Density = 1.761815 g / cm^3
# Si number density = 17.658337 Si / 1000 Ang^3
#
#
#
# Elastic Constant Matrix: (Units=GPa)
#
#
# Indices 1 2 3 4 5 6 
#
# 1 131.8159 69.8683 56.6097 0.0000 -13.6172 0.0000
# 2 69.8683 75.2425 39.0282 0.0000 0.2720 0.0000
# 3 56.6097 39.0282 81.6218 0.0000 -14.8960 0.0000
# 4 0.0000 0.0000 0.0000 2.4977 0.0000 10.0777
# 5 -13.6172 0.2720 -14.8960 0.0000 26.1118 0.0000
# 6 0.0000 0.0000 0.0000 10.0777 0.0000 25.0789
#
#
#
# Elastic Compliance Matrix: (Units=1/GPa)
#
#
# Indices 1 2 3 4 5 6 
#
# 1 0.017648 -0.014263 -0.004145 0.000000 0.006987 0.000000
# 2 -0.014263 0.029963 -0.006529 0.000000 -0.011475 0.000000
# 3 -0.004145 -0.006529 0.019942 0.000000 0.009283 0.000000
# 4 0.000000 0.000000 0.000000 -0.644380 0.000000 0.258937
# 5 0.006987 -0.011475 0.009283 0.000000 0.047356 0.000000
# 6 0.000000 0.000000 0.000000 0.258937 0.000000 -0.064177
#
#
# Mechanical properties :
#
#
# Convention : Reuss Voigt Hill
#
# Bulk Modulus (GPa) = 56.56183 68.85474 62.70829
# Shear Modulus (GPa) = -9.29574 18.94929 4.82678
#
# Velocity S-wave (km/s) = -2.29688 3.27939 1.65510
# Velocity P-wave (km/s) = 5.00665 7.30866 6.26431
#
# Compressibility (1/GPa) = 0.01767977
#
# Stress axis : x y z
#
# Youngs Moduli (GPa) = 56.66257 33.37499 50.14460
#
# Poissons Ratio (x) = 0.47603 0.20785
# Poissons Ratio (y) = 0.80818 0.32738
# Poissons Ratio (z) = 0.23487 0.21790
#
# Static dielectric constant tensor:
#      x y z
#    x 3.466090 0.000000 -0.399520 
#    y 0.000000 3.107930 0.000000 
#    z -0.399520 0.000000 3.254220 
# 
# 
# High freq. dielectric constant tensor:
#      x y z
#    x 1.684450 0.000000 -0.028810 
#    y 0.000000 1.661990 0.000000 
#    z -0.028810 0.000000 1.667880 
# 
# From -- ./inp_files/79235.got.cif
#   From: 2010.06.25/outbox.cif.g09.slc.cpg/sg10_40_cif.got.tgz:79235.got - 2010.06.27 22:07:45.
