data_PCOD8058983
_publ_section_title
;
Structure prediction by ZEFSAII (Michael W. Deem and Ramdas Pophale) SiO2 
 PCOD8058983
Probable space group: P 2/M
;
_chemical_formula_sum "Si O2"
_cell_formula_units_Z 22
_cell_length_a 29.977618
_cell_length_b 7.714202
_cell_length_c 17.882151
_cell_angle_alpha 90.000000
_cell_angle_beta 164.029485
_cell_angle_gamma 90.000000
_cell_volume 1137.799641
_symmetry_space_group_name_H-M "P 2/M"
_symmetry_group_IT_number 10
_symmetry_cell_setting 'monoclinic'
loop_
_space_group_symop_operation_xyz
x,y,z
-x,y,-z
-x,-y,-z
x,-y,z
loop_
_atom_site_type_symbol
_atom_site_label
_atom_site_fract_x
_atom_site_fract_y
_atom_site_fract_z
Si Si1 0.909489 0.693000 0.627515
Si Si2 0.625506 0.000000 0.926571
Si Si3 0.188050 0.000000 0.915375
Si Si4 0.404109 0.305978 0.516597
Si Si5 0.939725 0.797346 0.984363
Si Si6 0.732141 0.307965 0.858818
Si Si7 0.827300 0.000000 0.396189
O O1 0.835287 0.500000 0.497877
O O2 0.804130 0.830227 0.410606
O O3 0.917446 0.743637 0.727764
O O4 0.090893 0.701873 0.890452
O O5 0.783577 0.000000 0.127752
O O6 0.520579 0.171356 0.744717
O O7 0.683264 0.000000 0.104792
O O8 0.281352 0.168467 0.097355
O O9 0.998871 0.000000 0.629675
O O10 0.472783 0.500000 0.639394
O O11 0.225916 0.302084 0.265511
O O12 0.394324 0.264892 0.411637
O O13 0.903943 0.000000 0.933779
O O14 0.000000 0.742955 0.000000
O O15 0.698213 0.500000 0.837161
#
# Coordination Sequence:
#
# PCOD8058983 Si02
#       7
#     4   2   2   4   4   4   2
#     4   9  17  32  55  80 106 137 172 214 264 311
#     4  12  24  36  51  74 104 145 187 224 262 306
#     4  10  20  34  55  75  98 134 183 231 273 304
#     4  10  21  36  53  78 113 145 171 207 266 328
#     4  10  18  32  60  92 114 132 162 211 265 317
#     4   8  16  31  52  77 104 132 166 214 269 324
#     4  10  21  38  54  71 102 143 190 230 255 298
#
# _framework density 19.335564999999999
#
# number of rings (size 3 to 8) (size 9 to 14) (size 15 to 20)
#    0.000    2.364    1.818    2.455    2.545    4.364 
#    0.000    1.818    0.000    7.636    0.000    2.545 
#    0.000    0.000    0.000    0.000    0.000    0.000 
#
# Total GULP energy -272769.138025 kJ/mol
# GULP energy per Si atom -12398.597183 kJ/mol
# Density = 1.929156 g / cm^3
# Si number density = 19.335565 Si / 1000 Ang^3
#
#
#
# Elastic Constant Matrix: (Units=GPa)
#
#
# Indices 1 2 3 4 5 6 
#
# 1 62.8654 29.5399 20.0553 0.0000 -29.3048 0.0000
# 2 29.5399 138.8988 50.6678 0.0000 -31.0108 0.0000
# 3 20.0553 50.6678 82.0388 0.0000 -34.5661 0.0000
# 4 0.0000 0.0000 0.0000 9.1002 0.0000 -10.0570
# 5 -29.3048 -31.0108 -34.5661 0.0000 32.3320 0.0000
# 6 0.0000 0.0000 0.0000 -10.0570 0.0000 -7.6626
#
#
#
# Elastic Compliance Matrix: (Units=1/GPa)
#
#
# Indices 1 2 3 4 5 6 
#
# 1 0.030161 -0.001713 0.008208 0.000000 0.034470 0.000000
# 2 -0.001713 0.009868 -0.004262 0.000000 0.003356 0.000000
# 3 0.008208 -0.004262 0.025889 0.000000 0.031030 0.000000
# 4 0.000000 0.000000 0.000000 0.044843 0.000000 -0.058856
# 5 0.034470 0.003356 0.031030 0.000000 0.098564 0.000000
# 6 0.000000 0.000000 0.000000 -0.058856 0.000000 -0.053257
#
#
# Mechanical properties :
#
#
# Convention : Reuss Voigt Hill
#
# Bulk Modulus (GPa) = 14.20759 53.81432 34.01096
# Shear Modulus (GPa) = 28.56112 18.98993 23.77553
#
# Velocity S-wave (km/s) = 3.84751 3.13729 3.51041
# Velocity P-wave (km/s) = 5.20593 6.40434 5.83598
#
# Compressibility (1/GPa) = 0.07038492
#
# Stress axis : x y z
#
# Youngs Moduli (GPa) = 33.15487 101.34242 38.62660
#
# Poissons Ratio (x) = 0.17359 -0.31705
# Poissons Ratio (y) = 0.05679 0.16461
# Poissons Ratio (z) = -0.27214 0.43189
#
# Static dielectric constant tensor:
#      x y z
#    x 3.434050 0.000000 -0.187470 
#    y 0.000000 3.849400 0.000000 
#    z -0.187470 0.000000 3.131490 
# 
# 
# High freq. dielectric constant tensor:
#      x y z
#    x 1.741680 0.000000 -0.010530 
#    y 0.000000 1.771790 0.000000 
#    z -0.010530 0.000000 1.712020 
# 
# From -- ./inp_files/68537.got.cif
#   From: 2010.06.25/outbox.cif.g09.slc.cpg/sg10_35_cif.got.tgz:68537.got - 2010.06.27 22:07:45.
