data_PCOD8058594
_publ_section_title
;
Structure prediction by ZEFSAII (Michael W. Deem and Ramdas Pophale) SiO2 
 PCOD8058594
Probable space group: P 2/M
;
_chemical_formula_sum "Si O2"
_cell_formula_units_Z 32
_cell_length_a 20.523469
_cell_length_b 9.323370
_cell_length_c 25.232163
_cell_angle_alpha 90.000000
_cell_angle_beta 157.637798
_cell_angle_gamma 90.000000
_cell_volume 1836.908813
_symmetry_space_group_name_H-M "P 2/M"
_symmetry_group_IT_number 10
_symmetry_cell_setting 'monoclinic'
loop_
_space_group_symop_operation_xyz
x,y,z
-x,y,-z
-x,-y,-z
x,-y,z
loop_
_atom_site_type_symbol
_atom_site_label
_atom_site_fract_x
_atom_site_fract_y
_atom_site_fract_z
Si Si1 0.875303 0.832051 0.953996
Si Si2 0.490198 0.165552 0.653560
Si Si3 0.194007 0.335081 0.386405
Si Si4 0.923372 0.668803 0.096534
Si Si5 0.414313 0.669876 0.093443
Si Si6 0.355424 0.329842 0.930159
Si Si7 0.325439 0.167734 0.642296
Si Si8 0.025741 0.666291 0.371950
O O1 0.685143 0.781168 0.794535
O O2 0.875239 0.000000 0.967361
O O3 0.941957 0.749618 0.055361
O O4 0.000000 0.792646 0.000000
O O5 0.371734 0.248862 0.522614
O O6 0.432238 0.198635 0.669590
O O7 0.471704 0.000000 0.625402
O O8 0.244725 0.500000 0.419600
O O9 0.078444 0.307469 0.350945
O O10 0.084674 0.284211 0.253674
O O11 0.924637 0.500000 0.087117
O O12 0.749229 0.714503 0.994792
O O13 0.447275 0.500000 0.120885
O O14 0.580403 0.753048 0.238987
O O15 0.384607 0.725855 0.011566
O O16 0.363953 0.500000 0.937636
O O17 0.169961 0.282244 0.769102
O O18 0.500000 0.265268 0.000000
O O19 0.137105 0.235962 0.495032
O O20 0.308633 0.000000 0.642018
O O21 0.050242 0.500000 0.406000
#
# Coordination Sequence:
#
# PCOD8058594 Si02
#       8
#     4   4   4   4   4   4   4   4
#     4  10  21  37  54  73 102 137 170 207 252 301
#     4   9  18  32  49  73 100 128 166 207 247 295
#     4   9  17  30  50  76 102 129 162 206 254 296
#     4  10  19  32  52  78 104 129 166 211 253 300
#     4  10  18  31  52  78 103 130 167 211 255 297
#     4   9  17  31  53  79 105 133 169 213 256 300
#     4  10  19  31  49  75 103 131 168 213 252 294
#     4   9  16  30  51  75 102 132 167 208 255 300
#
# _framework density 17.420572
#
# number of rings (size 3 to 8) (size 9 to 14) (size 15 to 20)
#    0.000    2.500    2.500    0.375    0.000    1.750 
#    0.000    1.875    0.000    9.000    0.000    0.000 
#    0.000    0.000    0.000    0.000    0.000    0.000 
#
# Total GULP energy -396835.506187 kJ/mol
# GULP energy per Si atom -12401.109568 kJ/mol
# Density = 1.738092 g / cm^3
# Si number density = 17.420572 Si / 1000 Ang^3
#
#
#
# Elastic Constant Matrix: (Units=GPa)
#
#
# Indices 1 2 3 4 5 6 
#
# 1 70.0293 27.1702 48.7219 0.0000 -3.4988 0.0000
# 2 27.1702 47.3453 48.4320 0.0000 -7.6463 0.0000
# 3 48.7219 48.4320 152.3340 0.0000 -6.1691 0.0000
# 4 0.0000 0.0000 0.0000 22.1200 0.0000 0.0250
# 5 -3.4988 -7.6463 -6.1691 0.0000 27.1721 0.0000
# 6 0.0000 0.0000 0.0000 0.0250 0.0000 12.7506
#
#
#
# Elastic Compliance Matrix: (Units=1/GPa)
#
#
# Indices 1 2 3 4 5 6 
#
# 1 0.019935 -0.007364 -0.004052 0.000000 -0.000425 0.000000
# 2 -0.007364 0.035244 -0.008566 0.000000 0.007025 0.000000
# 3 -0.004052 -0.008566 0.010562 0.000000 -0.000534 0.000000
# 4 0.000000 0.000000 0.000000 0.045208 0.000000 -0.000089
# 5 -0.000425 0.007025 -0.000534 0.000000 0.038603 0.000000
# 6 0.000000 0.000000 0.000000 -0.000089 0.000000 0.078428
#
#
# Mechanical properties :
#
#
# Convention : Reuss Voigt Hill
#
# Bulk Modulus (GPa) = 38.79228 57.59522 48.19375
# Shear Modulus (GPa) = 18.08090 22.10082 20.09086
#
# Velocity S-wave (km/s) = 3.22515 3.56569 3.39969
# Velocity P-wave (km/s) = 6.01541 7.07712 6.56775
#
# Compressibility (1/GPa) = 0.02577833
#
# Stress axis : x y z
#
# Youngs Moduli (GPa) = 50.16426 28.37368 94.67829
#
# Poissons Ratio (x) = 0.20894 0.38362
# Poissons Ratio (y) = 0.36940 0.81097
# Poissons Ratio (z) = 0.20326 0.24304
#
# Static dielectric constant tensor:
#      x y z
#    x 3.078490 0.000000 0.002300 
#    y 0.000000 3.050780 0.000000 
#    z 0.002300 0.000000 3.433250 
# 
# 
# High freq. dielectric constant tensor:
#      x y z
#    x 1.648060 0.000000 -0.006950 
#    y 0.000000 1.654930 0.000000 
#    z -0.006950 0.000000 1.687920 
# 
# From -- ./inp_files/86885.got.cif
#   From: 2010.06.25/outbox.cif.g09.slc.cpg/sg10_44_cif.got.tgz:86885.got - 2010.06.27 22:07:45.
