data_PCOD8058309
_publ_section_title
;
Structure prediction by ZEFSAII (Michael W. Deem and Ramdas Pophale) SiO2 
 PCOD8058309
Probable space group: P 2/M
;
_chemical_formula_sum "Si O2"
_cell_formula_units_Z 24
_cell_length_a 21.628225
_cell_length_b 7.904394
_cell_length_c 12.607788
_cell_angle_alpha 90.000000
_cell_angle_beta 38.421227
_cell_angle_gamma 90.000000
_cell_volume 1339.449114
_symmetry_space_group_name_H-M "P 2/M"
_symmetry_group_IT_number 10
_symmetry_cell_setting 'monoclinic'
loop_
_space_group_symop_operation_xyz
x,y,z
-x,y,-z
-x,-y,-z
x,-y,z
loop_
_atom_site_type_symbol
_atom_site_label
_atom_site_fract_x
_atom_site_fract_y
_atom_site_fract_z
Si Si1 0.882698 0.000000 0.037819
Si Si2 0.389727 0.299978 0.872333
Si Si3 0.604209 0.301650 0.901061
Si Si4 0.247901 0.701188 0.484789
Si Si5 0.293130 0.815807 0.800586
Si Si6 0.605046 0.690506 0.533926
Si Si7 0.108944 0.000000 0.721471
O O1 0.993463 0.000000 0.843616
O O2 0.824241 0.832009 0.072802
O O3 0.879593 0.000000 0.168216
O O4 0.389721 0.500000 0.871462
O O5 0.303080 0.241004 0.909000
O O6 0.496081 0.225123 0.688916
O O7 0.368987 0.228403 0.018381
O O8 0.587411 0.500000 0.934041
O O9 0.694374 0.260774 0.701527
O O10 0.500000 0.221100 0.000000
O O11 0.218827 0.500000 0.533821
O O12 0.316408 0.769691 0.489370
O O13 0.153057 0.825548 0.613592
O O14 0.352644 0.692102 0.642217
O O15 0.343289 0.000000 0.717697
O O16 0.591556 0.500000 0.591085
#
# Coordination Sequence:
#
# PCOD8058309 Si02
#       7
#     2   4   4   4   4   4   2
#     4   9  22  38  57  72 106 140 168 239 285 315
#     4  10  19  31  51  76 111 150 177 210 257 320
#     4   9  16  31  52  77 111 147 178 215 259 306
#     4  10  19  34  58  83 111 143 177 219 271 322
#     4  10  20  35  48  72 104 142 178 216 270 316
#     4  10  18  30  50  79 110 144 178 208 258 324
#     4  11  20  42  59  79 108 135 184 231 288 323
#
# _framework density 17.917812999999999
#
# number of rings (size 3 to 8) (size 9 to 14) (size 15 to 20)
#    0.500    1.667    3.333    1.000    0.000    2.667 
#    1.500    3.750    0.000    2.000    0.000    3.500 
#    0.000    0.000    0.000    0.000    0.000    0.000 
#
# Total GULP energy -297378.391994 kJ/mol
# GULP energy per Si atom -12390.766333 kJ/mol
# Density = 1.787703 g / cm^3
# Si number density = 17.917813 Si / 1000 Ang^3
#
#
#
# Elastic Constant Matrix: (Units=GPa)
#
#
# Indices 1 2 3 4 5 6 
#
# 1 121.1873 18.7615 72.1698 0.0000 12.5909 0.0000
# 2 18.7615 51.8096 34.3828 0.0000 -8.7183 0.0000
# 3 72.1698 34.3828 112.9514 0.0000 0.2541 0.0000
# 4 0.0000 0.0000 0.0000 17.1300 0.0000 -5.5310
# 5 12.5909 -8.7183 0.2541 0.0000 32.3195 0.0000
# 6 0.0000 0.0000 0.0000 -5.5310 0.0000 13.9090
#
#
#
# Elastic Compliance Matrix: (Units=1/GPa)
#
#
# Indices 1 2 3 4 5 6 
#
# 1 0.014226 -0.000064 -0.009058 0.000000 -0.005488 0.000000
# 2 -0.000064 0.025675 -0.007790 0.000000 0.007012 0.000000
# 3 -0.009058 -0.007790 0.017009 0.000000 0.001293 0.000000
# 4 0.000000 0.000000 0.000000 0.066977 0.000000 0.026634
# 5 -0.005488 0.007012 0.001293 0.000000 0.034960 0.000000
# 6 0.000000 0.000000 0.000000 0.026634 0.000000 0.082487
#
#
# Mechanical properties :
#
#
# Convention : Reuss Voigt Hill
#
# Bulk Modulus (GPa) = 43.31704 59.61960 51.46832
# Shear Modulus (GPa) = 17.67701 23.38064 20.52882
#
# Velocity S-wave (km/s) = 3.14436 3.61623 3.38852
# Velocity P-wave (km/s) = 6.11642 7.12617 6.64052
#
# Compressibility (1/GPa) = 0.02308560
#
# Stress axis : x y z
#
# Youngs Moduli (GPa) = 70.29436 38.94910 58.79145
#
# Poissons Ratio (x) = 0.00249 0.53252
# Poissons Ratio (y) = 0.00450 0.45800
# Poissons Ratio (z) = 0.63671 0.30343
#
# Static dielectric constant tensor:
#      x y z
#    x 3.445940 0.000000 0.115710 
#    y 0.000000 3.081120 0.000000 
#    z 0.115710 0.000000 3.205420 
# 
# 
# High freq. dielectric constant tensor:
#      x y z
#    x 1.686760 0.000000 0.018230 
#    y 0.000000 1.674690 0.000000 
#    z 0.018230 0.000000 1.674190 
# 
# From -- ./inp_files/54603.got.cif
#   From: 2010.06.25/outbox.cif.g09.slc.cpg/sg10_28_cif.got.tgz:54603.got - 2010.06.27 22:07:45.
