data_PCOD8058575
_publ_section_title
;
Structure prediction by ZEFSAII (Michael W. Deem and Ramdas Pophale) SiO2 
 PCOD8058575
Probable space group: P 2/M
;
_chemical_formula_sum "Si O2"
_cell_formula_units_Z 32
_cell_length_a 25.856897
_cell_length_b 8.867577
_cell_length_c 21.477331
_cell_angle_alpha 90.000000
_cell_angle_beta 20.477806
_cell_angle_gamma 90.000000
_cell_volume 1722.807558
_symmetry_space_group_name_H-M "P 2/M"
_symmetry_group_IT_number 10
_symmetry_cell_setting 'monoclinic'
loop_
_space_group_symop_operation_xyz
x,y,z
-x,y,-z
-x,-y,-z
x,-y,z
loop_
_atom_site_type_symbol
_atom_site_label
_atom_site_fract_x
_atom_site_fract_y
_atom_site_fract_z
Si Si1 0.645703 0.320679 0.371119
Si Si2 0.295341 0.822264 0.022072
Si Si3 0.034133 0.322607 0.392723
Si Si4 0.146685 0.678316 0.081190
Si Si5 0.750776 0.321178 0.384993
Si Si6 0.601525 0.320613 0.681731
Si Si7 0.139290 0.675838 0.527580
Si Si8 0.083936 0.321404 0.014151
O O1 0.500000 0.254671 0.500000
O O2 0.641520 0.500000 0.370023
O O3 0.652741 0.270411 0.435711
O O4 0.798174 0.258742 0.168748
O O5 0.276221 0.759192 0.973492
O O6 0.176357 0.759097 0.204842
O O7 0.285515 0.000000 0.033118
O O8 0.453935 0.766577 0.865203
O O9 0.068694 0.500000 0.354575
O O10 0.889780 0.287606 0.512489
O O11 0.000000 0.260697 0.500000
O O12 0.165304 0.500000 0.069534
O O13 0.994164 0.742667 0.281183
O O14 0.152593 0.725719 0.002962
O O15 0.763787 0.500000 0.372514
O O16 0.670588 0.264909 0.538112
O O17 0.918532 0.254173 0.191172
O O18 0.574876 0.500000 0.711332
O O19 0.706632 0.263358 0.619687
O O20 0.138373 0.500000 0.541832
O O21 0.071691 0.500000 0.022874
#
# Coordination Sequence:
#
# PCOD8058575 Si02
#       8
#     4   4   4   4   4   4   4   4
#     4   9  17  24  33  61 103 136 164 204 260 318
#     4  11  23  35  49  75 110 141 169 206 256 303
#     4   9  18  36  62  86 106 133 169 206 245 296
#     4   9  16  30  52  75  96 129 175 218 258 304
#     4   9  16  26  42  66  96 133 169 208 261 311
#     4  10  18  31  52  75 101 135 174 216 257 298
#     4   8  14  28  51  79 103 124 164 212 248 289
#     4   9  15  25  43  66  96 130 165 211 265 315
#
# _framework density 18.574332999999999
#
# number of rings (size 3 to 8) (size 9 to 14) (size 15 to 20)
#    0.000    2.750    1.250    2.250    1.750    1.750 
#    0.000    3.125    0.000    3.750    0.000    1.750 
#    0.000    2.000    0.000    0.000    0.000    0.000 
#
# Total GULP energy -396564.219514 kJ/mol
# GULP energy per Si atom -12392.631860 kJ/mol
# Density = 1.853206 g / cm^3
# Si number density = 18.574333 Si / 1000 Ang^3
#
#
#
# Elastic Constant Matrix: (Units=GPa)
#
#
# Indices 1 2 3 4 5 6 
#
# 1 149.4591 31.0585 69.3219 0.0000 -3.4788 0.0000
# 2 31.0585 34.3873 26.3198 0.0000 -0.6594 0.0000
# 3 69.3219 26.3198 93.7506 0.0000 -10.3540 0.0000
# 4 0.0000 0.0000 0.0000 2.6550 0.0000 2.8690
# 5 -3.4788 -0.6594 -10.3540 0.0000 34.0585 0.0000
# 6 0.0000 0.0000 0.0000 2.8690 0.0000 1.2034
#
#
#
# Elastic Compliance Matrix: (Units=1/GPa)
#
#
# Indices 1 2 3 4 5 6 
#
# 1 0.010764 -0.004536 -0.006802 0.000000 -0.001056 0.000000
# 2 -0.004536 0.039162 -0.007873 0.000000 -0.002098 0.000000
# 3 -0.006802 -0.007873 0.018432 0.000000 0.004756 0.000000
# 4 0.000000 0.000000 0.000000 -0.238958 0.000000 0.569682
# 5 -0.001056 -0.002098 0.004756 0.000000 0.030659 0.000000
# 6 0.000000 0.000000 0.000000 0.569682 0.000000 -0.527184
#
#
# Mechanical properties :
#
#
# Convention : Reuss Voigt Hill
#
# Bulk Modulus (GPa) = 33.40342 58.99971 46.20157
# Shear Modulus (GPa) = -8.08114 17.64317 4.78102
#
# Velocity S-wave (km/s) = -2.08810 3.08534 1.60611
# Velocity P-wave (km/s) = 3.49416 6.67274 5.32610
#
# Compressibility (1/GPa) = 0.02993705
#
# Stress axis : x y z
#
# Youngs Moduli (GPa) = 92.90397 25.53468 54.25362
#
# Poissons Ratio (x) = 0.11581 0.36905
# Poissons Ratio (y) = 0.42137 0.42712
# Poissons Ratio (z) = 0.63197 0.20102
#
# Static dielectric constant tensor:
#      x y z
#    x 3.770990 0.000000 -0.111240 
#    y 0.000000 2.768450 0.000000 
#    z -0.111240 0.000000 3.426710 
# 
# 
# High freq. dielectric constant tensor:
#      x y z
#    x 1.736000 0.000000 -0.008490 
#    y 0.000000 1.650620 0.000000 
#    z -0.008490 0.000000 1.714230 
# 
# From -- ./inp_files/86803.got.cif
#   From: 2010.06.25/outbox.cif.g09.slc.cpg/sg10_44_cif.got.tgz:86803.got - 2010.06.27 22:07:45.
