data_PCOD8058801
_publ_section_title
;
Structure prediction by ZEFSAII (Michael W. Deem and Ramdas Pophale) SiO2 
 PCOD8058801
Probable space group: P 2/M
;
_chemical_formula_sum "Si O2"
_cell_formula_units_Z 28
_cell_length_a 24.302632
_cell_length_b 9.186958
_cell_length_c 19.317551
_cell_angle_alpha 90.000000
_cell_angle_beta 21.609645
_cell_angle_gamma 90.000000
_cell_volume 1588.387634
_symmetry_space_group_name_H-M "P 2/M"
_symmetry_group_IT_number 10
_symmetry_cell_setting 'monoclinic'
loop_
_space_group_symop_operation_xyz
x,y,z
-x,y,-z
-x,-y,-z
x,-y,z
loop_
_atom_site_type_symbol
_atom_site_label
_atom_site_fract_x
_atom_site_fract_y
_atom_site_fract_z
Si Si1 0.645048 0.334545 0.782955
Si Si2 0.140670 0.665927 0.911665
Si Si3 0.834607 0.828601 0.668384
Si Si4 0.549324 0.832546 0.090400
Si Si5 0.540120 0.831624 0.653568
Si Si6 0.422498 0.667713 0.660598
Si Si7 0.184710 0.328934 0.708188
O O1 0.693918 0.500000 0.710092
O O2 0.785425 0.253391 0.655195
O O3 0.592059 0.256503 0.774459
O O4 0.500000 0.327759 0.000000
O O5 0.098975 0.500000 0.945575
O O6 0.245451 0.685499 0.855253
O O7 0.221036 0.715274 0.745982
O O8 0.979961 0.737334 0.115268
O O9 0.000000 0.777104 0.500000
O O10 0.836416 0.000000 0.650701
O O11 0.711953 0.787068 0.870424
O O12 0.555703 0.805261 0.165092
O O13 0.517357 0.000000 0.109512
O O14 0.453309 0.762095 0.691243
O O15 0.700920 0.756326 0.474483
O O16 0.563550 0.000000 0.610721
O O17 0.500000 0.725888 0.500000
O O18 0.470165 0.500000 0.618189
O O19 0.203343 0.500000 0.671182
#
# Coordination Sequence:
#
# PCOD8058801 Si02
#       7
#     4   4   4   4   4   4   4
#     4   9  17  30  51  78 103 127 161 205 247 286
#     4   8  15  29  51  73  90 116 161 210 249 291
#     4   9  17  32  56  80 101 134 173 202 238 295
#     4   9  19  35  51  70 101 137 170 203 244 300
#     4  11  22  33  47  72 104 134 165 206 255 301
#     4  10  18  32  53  73  93 126 171 212 252 302
#     4   9  16  31  52  70  91 123 162 204 247 296
#
# _framework density 17.627938
#
# number of rings (size 3 to 8) (size 9 to 14) (size 15 to 20)
#    0.000    2.714    1.429    1.714    0.000    3.429 
#    0.000    3.571    0.000    5.143    0.000    0.000 
#    0.000    0.000    0.000    0.000    0.000    0.000 
#
# Total GULP energy -347000.512610 kJ/mol
# GULP energy per Si atom -12392.875450 kJ/mol
# Density = 1.758782 g / cm^3
# Si number density = 17.627938 Si / 1000 Ang^3
#
#
#
# Elastic Constant Matrix: (Units=GPa)
#
#
# Indices 1 2 3 4 5 6 
#
# 1 110.2476 52.8893 48.1566 0.0000 -10.0658 0.0000
# 2 52.8893 75.5220 35.8907 0.0000 -4.1105 0.0000
# 3 48.1566 35.8907 80.1409 0.0000 -8.0663 0.0000
# 4 0.0000 0.0000 0.0000 19.1559 0.0000 0.1545
# 5 -10.0658 -4.1105 -8.0663 0.0000 26.5612 0.0000
# 6 0.0000 0.0000 0.0000 0.1545 0.0000 23.4802
#
#
#
# Elastic Compliance Matrix: (Units=1/GPa)
#
#
# Indices 1 2 3 4 5 6 
#
# 1 0.015661 -0.008226 -0.005423 0.000000 0.003015 0.000000
# 2 -0.008226 0.021145 -0.004653 0.000000 -0.001258 0.000000
# 3 -0.005423 -0.004653 0.018094 0.000000 0.002720 0.000000
# 4 0.000000 0.000000 0.000000 0.052206 0.000000 -0.000344
# 5 0.003015 -0.001258 0.002720 0.000000 0.039423 0.000000
# 6 0.000000 0.000000 0.000000 -0.000344 0.000000 0.042591
#
#
# Mechanical properties :
#
#
# Convention : Reuss Voigt Hill
#
# Bulk Modulus (GPa) = 54.65886 59.97599 57.31742
# Shear Modulus (GPa) = 21.56805 22.43770 22.00287
#
# Velocity S-wave (km/s) = 3.50167 3.57157 3.53679
# Velocity P-wave (km/s) = 6.88645 7.14880 7.01885
#
# Compressibility (1/GPa) = 0.01829529
#
# Stress axis : x y z
#
# Youngs Moduli (GPa) = 63.85269 47.29229 55.26557
#
# Poissons Ratio (x) = 0.38904 0.29971
# Poissons Ratio (y) = 0.52527 0.25716
# Poissons Ratio (z) = 0.34628 0.22006
#
# Static dielectric constant tensor:
#      x y z
#    x 3.211080 0.000000 -0.163550 
#    y 0.000000 3.130850 0.000000 
#    z -0.163550 0.000000 3.273540 
# 
# 
# High freq. dielectric constant tensor:
#      x y z
#    x 1.675490 0.000000 -0.017080 
#    y 0.000000 1.662130 0.000000 
#    z -0.017080 0.000000 1.670330 
# 
# From -- ./inp_files/86666.got.cif
#   From: 2010.06.25/outbox.cif.g09.slc.cpg/sg10_44_cif.got.tgz:86666.got - 2010.06.27 22:07:45.
