data_PCOD8058312
_publ_section_title
;
Structure prediction by ZEFSAII (Michael W. Deem and Ramdas Pophale) SiO2 
 PCOD8058312
Probable space group: P 2/M
;
_chemical_formula_sum "Si O2"
_cell_formula_units_Z 32
_cell_length_a 5.310080
_cell_length_b 23.105113
_cell_length_c 16.093660
_cell_angle_alpha 90.000000
_cell_angle_beta 108.765821
_cell_angle_gamma 90.000000
_cell_volume 1869.567681
_symmetry_space_group_name_H-M "P 2/M"
_symmetry_group_IT_number 10
_symmetry_cell_setting 'monoclinic'
loop_
_space_group_symop_operation_xyz
x,y,z
-x,y,-z
-x,-y,-z
x,-y,z
loop_
_atom_site_type_symbol
_atom_site_label
_atom_site_fract_x
_atom_site_fract_y
_atom_site_fract_z
Si Si1 0.883766 0.627839 0.401248
Si Si2 0.767773 0.736852 0.274641
Si Si3 0.601815 0.935041 0.104171
Si Si4 0.592920 0.330600 0.097758
Si Si5 0.898426 0.131021 0.896128
Si Si6 0.158953 0.364780 0.165723
Si Si7 0.323839 0.432002 0.340339
Si Si8 0.225435 0.766258 0.231530
O O1 0.831653 0.680658 0.334256
O O2 0.608813 0.595634 0.391588
O O3 0.000000 0.651886 0.500000
O O4 0.100043 0.585735 0.383041
O O5 0.662751 0.720189 0.170403
O O6 0.534030 0.775796 0.291018
O O7 0.030147 0.776727 0.289838
O O8 0.381354 0.903052 0.136964
O O9 0.885419 0.902698 0.136980
O O10 0.640381 0.000000 0.142833
O O11 0.500000 0.937508 0.000000
O O12 0.354545 0.370928 0.107595
O O13 0.849618 0.371361 0.108293
O O14 0.500000 0.302834 0.000000
O O15 0.856332 0.194563 0.854709
O O16 0.000000 0.139137 0.000000
O O17 0.232941 0.414035 0.238989
O O18 0.199894 0.301542 0.209199
O O19 0.359001 0.500000 0.347884
#
# Coordination Sequence:
#
# PCOD8058312 Si02
#       8
#     4   4   4   4   4   4   4   4
#     4  12  23  40  60  82 106 132 169 209 259 329
#     4  10  19  35  50  73 103 133 163 200 264 326
#     4   9  17  30  44  60  97 142 176 216 259 298
#     4  10  18  30  54  73  92 124 166 201 239 303
#     4  10  19  28  43  74  97 125 184 226 253 294
#     4  10  19  36  50  72 103 133 164 200 269 319
#     4  12  23  40  61  80 106 134 165 214 265 323
#     4  10  18  30  51  64 100 131 160 214 258 296
#
# _framework density 17.116256
#
# number of rings (size 3 to 8) (size 9 to 14) (size 15 to 20)
#    0.000    1.625    5.000    2.250    0.000    7.000 
#    0.000    1.250    0.000    2.250    0.000    0.000 
#    0.000    0.000    0.000    0.000    0.000   43.750 
#
# Total GULP energy -396591.373407 kJ/mol
# GULP energy per Si atom -12393.480419 kJ/mol
# Density = 1.707730 g / cm^3
# Si number density = 17.116256 Si / 1000 Ang^3
#
#
#
# Elastic Constant Matrix: (Units=GPa)
#
#
# Indices 1 2 3 4 5 6 
#
# 1 175.7404 25.4024 11.5222 0.0000 4.8778 0.0000
# 2 25.4024 60.4674 14.8507 0.0000 3.8480 0.0000
# 3 11.5222 14.8507 40.1470 0.0000 2.1438 0.0000
# 4 0.0000 0.0000 0.0000 6.7083 0.0000 -0.7508
# 5 4.8778 3.8480 2.1438 0.0000 15.6918 0.0000
# 6 0.0000 0.0000 0.0000 -0.7508 0.0000 22.4934
#
#
#
# Elastic Compliance Matrix: (Units=1/GPa)
#
#
# Indices 1 2 3 4 5 6 
#
# 1 0.006109 -0.002281 -0.000844 0.000000 -0.001224 0.000000
# 2 -0.002281 0.019243 -0.006295 0.000000 -0.003150 0.000000
# 3 -0.000844 -0.006295 0.027584 0.000000 -0.001963 0.000000
# 4 0.000000 0.000000 0.000000 0.149629 0.000000 0.004994
# 5 -0.001224 -0.003150 -0.001963 0.000000 0.065149 0.000000
# 6 0.000000 0.000000 0.000000 0.004994 0.000000 0.044624
#
#
# Mechanical properties :
#
#
# Convention : Reuss Voigt Hill
#
# Bulk Modulus (GPa) = 29.32974 42.21170 35.77072
# Shear Modulus (GPa) = 14.59666 23.95065 19.27366
#
# Velocity S-wave (km/s) = 2.92343 3.74477 3.35930
# Velocity P-wave (km/s) = 5.34491 6.58886 5.99921
#
# Compressibility (1/GPa) = 0.03409508
#
# Stress axis : x y z
#
# Youngs Moduli (GPa) = 163.68533 51.96773 36.25276
#
# Poissons Ratio (x) = 0.11855 0.03060
# Poissons Ratio (y) = 0.37341 0.22821
# Poissons Ratio (z) = 0.13817 0.32714
#
# Static dielectric constant tensor:
#      x y z
#    x 5.051360 0.000000 -0.028360 
#    y 0.000000 2.911610 0.000000 
#    z -0.028360 0.000000 2.886690 
# 
# 
# High freq. dielectric constant tensor:
#      x y z
#    x 1.707150 0.000000 -0.001520 
#    y 0.000000 1.620440 0.000000 
#    z -0.001520 0.000000 1.612330 
# 
# From -- ./inp_files/11762.got.cif
#   From: 2010.06.25/outbox.cif.g09.slc.cpg/sg10_6_cif.got.tgz:11762.got - 2010.06.27 22:07:45.
