data_PCOD8058343
_publ_section_title
;
Structure prediction by ZEFSAII (Michael W. Deem and Ramdas Pophale) SiO2 
 PCOD8058343
Probable space group: P 2/M
;
_chemical_formula_sum "Si O2"
_cell_formula_units_Z 32
_cell_length_a 14.155456
_cell_length_b 9.636784
_cell_length_c 14.241194
_cell_angle_alpha 90.000000
_cell_angle_beta 119.198109
_cell_angle_gamma 90.000000
_cell_volume 1695.843923
_symmetry_space_group_name_H-M "P 2/M"
_symmetry_group_IT_number 10
_symmetry_cell_setting 'monoclinic'
loop_
_space_group_symop_operation_xyz
x,y,z
-x,y,-z
-x,-y,-z
x,-y,z
loop_
_atom_site_type_symbol
_atom_site_label
_atom_site_fract_x
_atom_site_fract_y
_atom_site_fract_z
Si Si1 0.311550 0.152238 0.279180
Si Si2 0.888880 0.339512 0.499396
Si Si3 0.729131 0.846011 0.945231
Si Si4 0.499106 0.341106 0.393936
Si Si5 0.500985 0.161705 0.111107
Si Si6 0.339895 0.340372 0.688602
Si Si7 0.040543 0.166054 0.919660
Si Si8 0.877718 0.164066 0.681160
O O1 0.240141 0.145697 0.150309
O O2 0.406447 0.256145 0.297449
O O3 0.238755 0.201581 0.330957
O O4 0.360164 0.000000 0.324698
O O5 0.879983 0.500000 0.525932
O O6 0.787123 0.301473 0.382452
O O7 0.889372 0.244464 0.590615
O O8 0.000000 0.308868 0.500000
O O9 0.613697 0.772235 0.909067
O O10 0.714056 0.000000 0.980554
O O11 0.836775 0.777489 0.042715
O O12 0.500000 0.281486 0.500000
O O13 0.463434 0.500000 0.378156
O O14 0.610251 0.317819 0.391651
O O15 0.601169 0.244190 0.206204
O O16 0.514306 0.000000 0.146222
O O17 0.500000 0.183076 0.000000
O O18 0.354930 0.500000 0.727607
O O19 0.967757 0.217874 0.798040
O O20 0.041955 0.000000 0.925352
O O21 0.000000 0.226723 0.000000
O O22 0.888564 0.000000 0.668379
#
# Coordination Sequence:
#
# PCOD8058343 Si02
#       8
#     4   4   4   4   4   4   4   4
#     4  10  18  30  51  79 110 143 178 219 270 326
#     4  10  23  43  62  78 105 149 190 227 279 335
#     4   9  16  29  49  74 108 145 177 214 263 321
#     4  10  20  33  51  77 108 143 182 223 271 325
#     4  10  21  36  56  83 113 146 183 225 276 327
#     4  10  21  38  59  81 106 143 188 229 274 327
#     4   9  15  27  49  77 110 145 179 218 268 327
#     4  10  20  33  56  89 114 141 187 234 275 321
#
# _framework density 18.869661000000001
#
# number of rings (size 3 to 8) (size 9 to 14) (size 15 to 20)
#    0.000    2.250    2.500    0.750    0.000    3.750 
#    0.000    1.250    0.000    1.875    0.000    0.000 
#    0.000    0.000    0.000    0.000    0.000    0.000 
#
# Total GULP energy -396577.024152 kJ/mol
# GULP energy per Si atom -12393.032005 kJ/mol
# Density = 1.882671 g / cm^3
# Si number density = 18.869661 Si / 1000 Ang^3
#
#
#
# Elastic Constant Matrix: (Units=GPa)
#
#
# Indices 1 2 3 4 5 6 
#
# 1 122.7915 41.2215 56.0003 0.0000 15.8921 0.0000
# 2 41.2215 48.1428 41.5931 0.0000 5.6147 0.0000
# 3 56.0003 41.5931 104.1427 0.0000 10.7939 0.0000
# 4 0.0000 0.0000 0.0000 12.7971 0.0000 6.0913
# 5 15.8921 5.6147 10.7939 0.0000 35.9624 0.0000
# 6 0.0000 0.0000 0.0000 6.0913 0.0000 19.8435
#
#
#
# Elastic Compliance Matrix: (Units=1/GPa)
#
#
# Indices 1 2 3 4 5 6 
#
# 1 0.012672 -0.007438 -0.003492 0.000000 -0.003391 0.000000
# 2 -0.007438 0.036130 -0.010513 0.000000 0.000802 0.000000
# 3 -0.003492 -0.010513 0.015842 0.000000 -0.001570 0.000000
# 4 0.000000 0.000000 0.000000 0.091514 0.000000 -0.028092
# 5 -0.003391 0.000802 -0.001570 0.000000 0.029651 0.000000
# 6 0.000000 0.000000 0.000000 -0.028092 0.000000 0.059017
#
#
# Mechanical properties :
#
#
# Convention : Reuss Voigt Hill
#
# Bulk Modulus (GPa) = 45.96246 61.41187 53.68717
# Shear Modulus (GPa) = 16.95117 22.80473 19.87795
#
# Velocity S-wave (km/s) = 3.00047 3.48018 3.24919
# Velocity P-wave (km/s) = 6.03444 6.98318 6.52607
#
# Compressibility (1/GPa) = 0.02175688
#
# Stress axis : x y z
#
# Youngs Moduli (GPa) = 78.91213 27.67821 63.12501
#
# Poissons Ratio (x) = 0.20587 0.22045
# Poissons Ratio (y) = 0.58694 0.66364
# Poissons Ratio (z) = 0.27558 0.29098
#
# Static dielectric constant tensor:
#      x y z
#    x 3.572940 0.000000 0.139310 
#    y 0.000000 3.130980 0.000000 
#    z 0.139310 0.000000 3.425460 
# 
# 
# High freq. dielectric constant tensor:
#      x y z
#    x 1.742040 0.000000 0.008430 
#    y 0.000000 1.694890 0.000000 
#    z 0.008430 0.000000 1.732150 
# 
# From -- ./inp_files/66621.got.cif
#   From: 2010.06.25/outbox.cif.g09.slc.cpg/sg10_34_cif.got.tgz:66621.got - 2010.06.27 22:07:45.
