data_PCOD8058242
_publ_section_title
;
Structure prediction by ZEFSAII (Michael W. Deem and Ramdas Pophale) SiO2 
 PCOD8058242
Probable space group: P 2/M
;
_chemical_formula_sum "Si O2"
_cell_formula_units_Z 32
_cell_length_a 23.984380
_cell_length_b 13.243043
_cell_length_c 11.118839
_cell_angle_alpha 90.000000
_cell_angle_beta 30.234841
_cell_angle_gamma 90.000000
_cell_volume 1778.338248
_symmetry_space_group_name_H-M "P 2/M"
_symmetry_group_IT_number 10
_symmetry_cell_setting 'monoclinic'
loop_
_space_group_symop_operation_xyz
x,y,z
-x,y,-z
-x,-y,-z
x,-y,z
loop_
_atom_site_type_symbol
_atom_site_label
_atom_site_fract_x
_atom_site_fract_y
_atom_site_fract_z
Si Si1 0.855315 0.797189 0.472057
Si Si2 0.074865 0.884657 0.150952
Si Si3 0.344648 0.883022 0.012513
Si Si4 0.940605 0.384182 0.434273
Si Si5 0.377477 0.238425 0.711600
Si Si6 0.409288 0.885665 0.417603
Si Si7 0.146619 0.304759 0.152435
Si Si8 0.199905 0.884471 0.673046
O O1 0.892093 0.679531 0.413578
O O2 0.846241 0.815824 0.347309
O O3 0.944981 0.868312 0.369685
O O4 0.739320 0.816985 0.753425
O O5 0.119098 0.813147 0.175989
O O6 0.096439 0.000000 0.149845
O O7 0.137509 0.856148 0.911552
O O8 0.353728 0.842963 0.859915
O O9 0.463456 0.868586 0.856156
O O10 0.308818 0.000000 0.077457
O O11 0.905412 0.500000 0.486302
O O12 0.887794 0.332179 0.649296
O O13 0.074884 0.374182 0.194038
O O14 0.500000 0.288102 0.500000
O O15 0.370265 0.184028 0.598368
O O16 0.279396 0.322614 0.893669
O O17 0.331111 0.864270 0.448055
O O18 0.390571 0.000000 0.497418
O O19 0.177306 0.000000 0.678107
#
# Coordination Sequence:
#
# PCOD8058242 Si02
#       8
#     4   4   4   4   4   4   4   4
#     4  11  21  34  50  76  99 138 185 218 260 306
#     4  10  20  32  49  76 114 146 169 204 253 309
#     4  10  19  30  47  75 113 143 176 216 245 297
#     4  10  22  40  58  75 100 129 169 228 287 326
#     4  10  18  30  49  77 111 139 172 207 249 306
#     4   9  18  31  47  72 107 156 183 197 243 297
#     4  10  18  34  56  81  99 134 175 204 259 325
#     4  10  19  32  50  74 111 150 181 206 242 300
#
# _framework density 17.994326999999998
#
# number of rings (size 3 to 8) (size 9 to 14) (size 15 to 20)
#    0.000    2.000    2.500    2.625    0.000    3.500 
#    0.000    3.750    0.000    8.250    0.000    1.750 
#    0.000    0.000    0.000    0.000    0.000    0.000 
#
# Total GULP energy -396674.443567 kJ/mol
# GULP energy per Si atom -12396.076361 kJ/mol
# Density = 1.795337 g / cm^3
# Si number density = 17.994327 Si / 1000 Ang^3
#
#
#
# Elastic Constant Matrix: (Units=GPa)
#
#
# Indices 1 2 3 4 5 6 
#
# 1 74.8763 47.5505 29.8421 0.0000 -12.1262 0.0000
# 2 47.5505 95.4997 36.6622 0.0000 0.4760 0.0000
# 3 29.8421 36.6622 97.4179 0.0000 -25.4955 0.0000
# 4 0.0000 0.0000 0.0000 10.6499 0.0000 -2.1463
# 5 -12.1262 0.4760 -25.4955 0.0000 24.9951 0.0000
# 6 0.0000 0.0000 0.0000 -2.1463 0.0000 17.7529
#
#
#
# Elastic Compliance Matrix: (Units=1/GPa)
#
#
# Indices 1 2 3 4 5 6 
#
# 1 0.022191 -0.011273 0.000434 0.000000 0.011424 0.000000
# 2 -0.011273 0.018856 -0.007050 0.000000 -0.013019 0.000000
# 3 0.000434 -0.007050 0.017564 0.000000 0.018261 0.000000
# 4 0.000000 0.000000 0.000000 0.096243 0.000000 0.011636
# 5 0.011424 -0.013019 0.018261 0.000000 0.064424 0.000000
# 6 0.000000 0.000000 0.000000 0.011636 0.000000 0.057736
#
#
# Mechanical properties :
#
#
# Convention : Reuss Voigt Hill
#
# Bulk Modulus (GPa) = 43.79521 55.10040 49.44780
# Shear Modulus (GPa) = 15.60535 20.92885 18.26710
#
# Velocity S-wave (km/s) = 2.94808 3.41410 3.18961
# Velocity P-wave (km/s) = 5.99829 6.79918 6.41125
#
# Compressibility (1/GPa) = 0.02283355
#
# Stress axis : x y z
#
# Youngs Moduli (GPa) = 45.06279 53.03454 56.93321
#
# Poissons Ratio (x) = 0.59786 -0.02473
# Poissons Ratio (y) = 0.50799 0.40139
# Poissons Ratio (z) = -0.01957 0.37390
#
# Static dielectric constant tensor:
#      x y z
#    x 3.372810 0.000000 -0.342190 
#    y 0.000000 2.979660 0.000000 
#    z -0.342190 0.000000 3.628390 
# 
# 
# High freq. dielectric constant tensor:
#      x y z
#    x 1.694720 0.000000 -0.018930 
#    y 0.000000 1.649170 0.000000 
#    z -0.018930 0.000000 1.707100 
# 
# From -- ./inp_files/56952.got.cif
#   From: 2010.06.25/outbox.cif.g09.slc.cpg/sg10_29_cif.got.tgz:56952.got - 2010.06.27 22:07:45.
