data_PCOD8058918
_publ_section_title
;
Structure prediction by ZEFSAII (Michael W. Deem and Ramdas Pophale) SiO2 
 PCOD8058918
Probable space group: P 2/M
;
_chemical_formula_sum "Si O2"
_cell_formula_units_Z 32
_cell_length_a 22.175722
_cell_length_b 8.934710
_cell_length_c 11.316830
_cell_angle_alpha 90.000000
_cell_angle_beta 48.708085
_cell_angle_gamma 90.000000
_cell_volume 1684.726891
_symmetry_space_group_name_H-M "P 2/M"
_symmetry_group_IT_number 10
_symmetry_cell_setting 'monoclinic'
loop_
_space_group_symop_operation_xyz
x,y,z
-x,y,-z
-x,-y,-z
x,-y,z
loop_
_atom_site_type_symbol
_atom_site_label
_atom_site_fract_x
_atom_site_fract_y
_atom_site_fract_z
Si Si1 0.200537 0.176634 0.010402
Si Si2 0.902310 0.831567 0.332696
Si Si3 0.749215 0.168864 0.685229
Si Si4 0.033439 0.821541 0.332035
Si Si5 0.516755 0.823117 0.113575
Si Si6 0.201856 0.178473 0.742364
Si Si7 0.679666 0.324514 0.985674
Si Si8 0.651299 0.822951 0.590434
O O1 0.125736 0.224544 0.190176
O O2 0.282410 0.258149 0.943303
O O3 0.215219 0.000000 0.996502
O O4 0.181962 0.228958 0.900344
O O5 0.838563 0.829628 0.521031
O O6 0.865433 0.754000 0.261862
O O7 0.981274 0.755267 0.288520
O O8 0.924810 0.000000 0.267499
O O9 0.743179 0.280217 0.802717
O O10 0.687140 0.230479 0.668799
O O11 0.726359 0.000000 0.755754
O O12 0.000000 0.756898 0.500000
O O13 0.024138 0.000000 0.344543
O O14 0.441430 0.771012 0.293645
O O15 0.530522 0.000000 0.101551
O O16 0.500000 0.773881 0.000000
O O17 0.593174 0.743326 0.069836
O O18 0.291336 0.238060 0.589280
O O19 0.201058 0.000000 0.728865
O O20 0.670919 0.500000 0.009616
O O21 0.654987 0.000000 0.584186
#
# Coordination Sequence:
#
# PCOD8058918 Si02
#       8
#     4   4   4   4   4   4   4   4
#     4  10  20  34  52  71  98 138 179 211 247 302
#     4   8  14  25  48  80 108 129 160 214 262 293
#     4   9  15  29  52  75 100 132 165 200 250 310
#     4   9  16  26  44  76 110 136 165 205 255 302
#     4  10  18  32  55  80 102 128 163 201 251 313
#     4   8  15  28  48  76 103 130 168 213 254 291
#     4  12  24  34  47  71 105 137 169 210 257 300
#     4   8  14  27  50  78 103 123 155 205 251 296
#
# _framework density 18.994177000000001
#
# number of rings (size 3 to 8) (size 9 to 14) (size 15 to 20)
#    0.000    2.750    1.250    3.375    0.000    2.750 
#    0.000    3.125    0.000   10.875    0.000    0.875 
#    0.000    0.000    0.000    0.000    0.000    0.000 
#
# Total GULP energy -396462.132292 kJ/mol
# GULP energy per Si atom -12389.441634 kJ/mol
# Density = 1.895094 g / cm^3
# Si number density = 18.994177 Si / 1000 Ang^3
#
#
#
# Elastic Constant Matrix: (Units=GPa)
#
#
# Indices 1 2 3 4 5 6 
#
# 1 147.1388 32.3221 56.4593 0.0000 -6.8429 0.0000
# 2 32.3221 34.9478 19.3827 0.0000 -4.0101 0.0000
# 3 56.4593 19.3827 87.0849 0.0000 4.2079 0.0000
# 4 0.0000 0.0000 0.0000 2.1837 0.0000 -0.6740
# 5 -6.8429 -4.0101 4.2079 0.0000 25.7655 0.0000
# 6 0.0000 0.0000 0.0000 -0.6740 0.0000 2.9225
#
#
#
# Elastic Compliance Matrix: (Units=1/GPa)
#
#
# Indices 1 2 3 4 5 6 
#
# 1 0.010400 -0.006275 -0.005476 0.000000 0.002680 0.000000
# 2 -0.006275 0.037482 -0.004512 0.000000 0.004904 0.000000
# 3 -0.005476 -0.004512 0.016270 0.000000 -0.004814 0.000000
# 4 0.000000 0.000000 0.000000 0.493035 0.000000 0.113714
# 5 0.002680 0.004904 -0.004814 0.000000 0.041073 0.000000
# 6 0.000000 0.000000 0.000000 0.113714 0.000000 0.368404
#
#
# Mechanical properties :
#
#
# Convention : Reuss Voigt Hill
#
# Bulk Modulus (GPa) = 31.61686 53.94442 42.78064
# Shear Modulus (GPa) = 4.95182 16.90817 10.92999
#
# Velocity S-wave (km/s) = 1.61638 2.98682 2.40143
# Velocity P-wave (km/s) = 4.49057 6.35271 5.50101
#
# Compressibility (1/GPa) = 0.03162869
#
# Stress axis : x y z
#
# Youngs Moduli (GPa) = 96.15013 26.67939 61.46331
#
# Poissons Ratio (x) = 0.16740 0.33656
# Poissons Ratio (y) = 0.60330 0.27729
# Poissons Ratio (z) = 0.52650 0.12037
#
# Static dielectric constant tensor:
#      x y z
#    x 3.734460 0.000000 -0.136790 
#    y 0.000000 2.810610 0.000000 
#    z -0.136790 0.000000 3.677880 
# 
# 
# High freq. dielectric constant tensor:
#      x y z
#    x 1.748130 0.000000 -0.009560 
#    y 0.000000 1.659820 0.000000 
#    z -0.009560 0.000000 1.735180 
# 
# From -- ./inp_files/55218.got.cif
#   From: 2010.06.25/outbox.cif.g09.slc.cpg/sg10_28_cif.got.tgz:55218.got - 2010.06.27 22:07:45.
