data_PCOD8058130
_publ_section_title
;
Structure prediction by ZEFSAII (Michael W. Deem and Ramdas Pophale) SiO2 
 PCOD8058130
Probable space group: P 2/M
;
_chemical_formula_sum "Si O2"
_cell_formula_units_Z 32
_cell_length_a 28.318098
_cell_length_b 9.211992
_cell_length_c 14.348366
_cell_angle_alpha 90.000000
_cell_angle_beta 29.090944
_cell_angle_gamma 90.000000
_cell_volume 1819.837430
_symmetry_space_group_name_H-M "P 2/M"
_symmetry_group_IT_number 10
_symmetry_cell_setting 'monoclinic'
loop_
_space_group_symop_operation_xyz
x,y,z
-x,y,-z
-x,-y,-z
x,-y,z
loop_
_atom_site_type_symbol
_atom_site_label
_atom_site_fract_x
_atom_site_fract_y
_atom_site_fract_z
Si Si1 0.497208 0.164074 0.894542
Si Si2 0.190181 0.329538 0.480099
Si Si3 0.404802 0.170504 0.782124
Si Si4 0.680815 0.662478 0.577502
Si Si5 0.622823 0.170050 0.381777
Si Si6 0.670993 0.329114 0.916115
Si Si7 0.787536 0.661816 0.206333
Si Si8 0.006370 0.673439 0.095198
O O1 0.596974 0.231668 0.684873
O O2 0.486206 0.000000 0.874870
O O3 0.500000 0.167846 0.000000
O O4 0.410707 0.263047 0.008749
O O5 0.185517 0.500000 0.506383
O O6 0.270127 0.268536 0.414811
O O7 0.225365 0.295420 0.313520
O O8 0.083895 0.265395 0.687305
O O9 0.517895 0.212244 0.607195
O O10 0.376361 0.218373 0.727387
O O11 0.389323 0.000000 0.822937
O O12 0.333375 0.255765 0.975020
O O13 0.639119 0.500000 0.668847
O O14 0.762040 0.655541 0.358810
O O15 0.712359 0.243719 0.278081
O O16 0.637907 0.000000 0.363536
O O17 0.654038 0.500000 0.955908
O O18 0.785240 0.500000 0.167160
O O19 0.896612 0.728183 0.018064
O O20 0.008946 0.500000 0.087671
O O21 0.000000 0.733583 0.000000
#
# Coordination Sequence:
#
# PCOD8058130 Si02
#       8
#     4   4   4   4   4   4   4   4
#     4  11  22  32  43  64  97 137 172 200 234 288
#     4   9  17  29  46  69 100 134 166 200 245 295
#     4   9  19  37  57  75  98 133 170 202 247 310
#     4  10  18  30  47  70  99 131 166 205 246 289
#     4   9  19  36  56  75 100 133 165 203 256 307
#     4  11  21  32  50  74 100 133 167 207 253 293
#     4  10  19  29  51  81 102 126 167 213 253 294
#     4   9  15  28  49  73 101 134 170 207 248 295
#
# _framework density 17.583988000000002
#
# number of rings (size 3 to 8) (size 9 to 14) (size 15 to 20)
#    0.000    2.250    2.500    2.250    0.000    4.000 
#    0.000    1.250    0.000    3.375    0.000    5.250 
#    0.000    0.000    0.000    0.000    0.000    0.000 
#
# Total GULP energy -396639.590107 kJ/mol
# GULP energy per Si atom -12394.987191 kJ/mol
# Density = 1.754397 g / cm^3
# Si number density = 17.583988 Si / 1000 Ang^3
#
#
#
# Elastic Constant Matrix: (Units=GPa)
#
#
# Indices 1 2 3 4 5 6 
#
# 1 76.5513 27.6977 44.6007 0.0000 -1.1506 0.0000
# 2 27.6977 47.8687 36.7369 0.0000 4.0355 0.0000
# 3 44.6007 36.7369 127.4280 0.0000 1.1836 0.0000
# 4 0.0000 0.0000 0.0000 10.2750 0.0000 6.1950
# 5 -1.1506 4.0355 1.1836 0.0000 27.5869 0.0000
# 6 0.0000 0.0000 0.0000 6.1950 0.0000 24.9082
#
#
#
# Elastic Compliance Matrix: (Units=1/GPa)
#
#
# Indices 1 2 3 4 5 6 
#
# 1 0.018283 -0.007480 -0.004262 0.000000 0.002040 0.000000
# 2 -0.007480 0.030247 -0.006060 0.000000 -0.004477 0.000000
# 3 -0.004262 -0.006060 0.011084 0.000000 0.000233 0.000000
# 4 0.000000 0.000000 0.000000 0.114492 0.000000 -0.028475
# 5 0.002040 -0.004477 0.000233 0.000000 0.036979 0.000000
# 6 0.000000 0.000000 0.000000 -0.028475 0.000000 0.047230
#
#
# Mechanical properties :
#
#
# Convention : Reuss Voigt Hill
#
# Bulk Modulus (GPa) = 41.64951 52.21317 46.93134
# Shear Modulus (GPa) = 16.56050 22.07486 19.31768
#
# Velocity S-wave (km/s) = 3.07220 3.54700 3.31810
# Velocity P-wave (km/s) = 6.02677 6.82151 6.43642
#
# Compressibility (1/GPa) = 0.02400988
#
# Stress axis : x y z
#
# Youngs Moduli (GPa) = 54.69475 33.06089 90.21854
#
# Poissons Ratio (x) = 0.24731 0.38448
# Poissons Ratio (y) = 0.40914 0.54676
# Poissons Ratio (z) = 0.23309 0.20036
#
# Static dielectric constant tensor:
#      x y z
#    x 3.138820 0.000000 0.067880 
#    y 0.000000 3.043240 0.000000 
#    z 0.067880 0.000000 3.483580 
# 
# 
# High freq. dielectric constant tensor:
#      x y z
#    x 1.664530 0.000000 0.007570 
#    y 0.000000 1.652770 0.000000 
#    z 0.007570 0.000000 1.680730 
# 
# From -- ./inp_files/66021.got.cif
#   From: 2010.06.25/outbox.cif.g09.slc.cpg/sg10_34_cif.got.tgz:66021.got - 2010.06.27 22:07:45.
