data_PCOD8058118
_publ_section_title
;
Structure prediction by ZEFSAII (Michael W. Deem and Ramdas Pophale) SiO2 
 PCOD8058118
Probable space group: P 2/M
;
_chemical_formula_sum "Si O2"
_cell_formula_units_Z 32
_cell_length_a 26.786642
_cell_length_b 9.114609
_cell_length_c 21.752849
_cell_angle_alpha 90.000000
_cell_angle_beta 160.708773
_cell_angle_gamma 90.000000
_cell_volume 1754.578899
_symmetry_space_group_name_H-M "P 2/M"
_symmetry_group_IT_number 10
_symmetry_cell_setting 'monoclinic'
loop_
_space_group_symop_operation_xyz
x,y,z
-x,y,-z
-x,-y,-z
x,-y,z
loop_
_atom_site_type_symbol
_atom_site_label
_atom_site_fract_x
_atom_site_fract_y
_atom_site_fract_z
Si Si1 0.840480 0.832854 0.936982
Si Si2 0.025089 0.671985 0.598874
Si Si3 0.330843 0.668105 0.018443
Si Si4 0.666718 0.671648 0.380228
Si Si5 0.198423 0.831525 0.346805
Si Si6 0.197866 0.171997 0.971620
Si Si7 0.113977 0.173528 0.453048
Si Si8 0.820302 0.334698 0.794956
O O1 0.768955 0.732687 0.800561
O O2 0.793175 0.000000 0.868585
O O3 0.776243 0.777880 0.927906
O O4 0.020239 0.820256 0.148589
O O5 0.993078 0.500000 0.570616
O O6 0.000000 0.721620 0.500000
O O7 0.906979 0.762423 0.503004
O O8 0.196171 0.715030 0.816157
O O9 0.315179 0.500000 0.019003
O O10 0.487656 0.699515 0.166436
O O11 0.323062 0.755190 0.073692
O O12 0.707595 0.500000 0.426387
O O13 0.722829 0.739058 0.508949
O O14 0.739751 0.752428 0.407015
O O15 0.248484 0.763077 0.339725
O O16 0.252628 0.000000 0.412669
O O17 0.030093 0.218776 0.755530
O O18 0.216649 0.000000 0.987222
O O19 0.138060 0.000000 0.483945
O O20 0.757973 0.500000 0.717326
O O21 0.000000 0.331854 0.000000
#
# Coordination Sequence:
#
# PCOD8058118 Si02
#       8
#     4   4   4   4   4   4   4   4
#     4   9  16  28  45  68  97 128 166 211 258 304
#     4   9  18  36  60  82 105 136 172 208 249 298
#     4   9  20  35  51  76 105 134 168 208 254 304
#     4  11  21  33  50  74 106 137 169 210 256 304
#     4  10  18  30  47  68  98 134 170 209 258 306
#     4   9  17  31  50  73  99 130 169 213 256 302
#     4  10  19  33  53  79 106 134 172 211 250 298
#     4   9  17  27  40  66  98 129 168 210 256 306
#
# _framework density 18.237995000000002
#
# number of rings (size 3 to 8) (size 9 to 14) (size 15 to 20)
#    0.000    2.500    1.250    1.500    0.000    4.250 
#    0.000    0.625    0.000    4.500    0.000    5.250 
#    0.000    0.000    0.000    0.000    0.000    0.000 
#
# Total GULP energy -396822.858777 kJ/mol
# GULP energy per Si atom -12400.714337 kJ/mol
# Density = 1.819648 g / cm^3
# Si number density = 18.237995 Si / 1000 Ang^3
#
#
#
# Elastic Constant Matrix: (Units=GPa)
#
#
# Indices 1 2 3 4 5 6 
#
# 1 158.1444 70.7021 54.9940 0.0000 -13.2809 0.0000
# 2 70.7021 93.1913 32.9143 0.0000 -2.7682 0.0000
# 3 54.9940 32.9143 44.0780 0.0000 -2.0320 0.0000
# 4 0.0000 0.0000 0.0000 18.5883 0.0000 -2.6466
# 5 -13.2809 -2.7682 -2.0320 0.0000 24.9178 0.0000
# 6 0.0000 0.0000 0.0000 -2.6466 0.0000 36.1708
#
#
#
# Elastic Compliance Matrix: (Units=1/GPa)
#
#
# Indices 1 2 3 4 5 6 
#
# 1 0.013787 -0.005852 -0.012571 0.000000 0.005673 0.000000
# 2 -0.005852 0.017072 -0.005524 0.000000 -0.001673 0.000000
# 3 -0.012571 -0.005524 0.042317 0.000000 -0.003863 0.000000
# 4 0.000000 0.000000 0.000000 0.054364 0.000000 0.003978
# 5 0.005673 -0.001673 -0.003863 0.000000 0.042655 0.000000
# 6 0.000000 0.000000 0.000000 0.003978 0.000000 0.027938
#
#
# Mechanical properties :
#
#
# Convention : Reuss Voigt Hill
#
# Bulk Modulus (GPa) = 39.55092 68.07050 53.81071
# Shear Modulus (GPa) = 19.65001 25.05561 22.35281
#
# Velocity S-wave (km/s) = 3.28597 3.71052 3.50468
# Velocity P-wave (km/s) = 6.01081 7.46738 6.77834
#
# Compressibility (1/GPa) = 0.02528386
#
# Stress axis : x y z
#
# Youngs Moduli (GPa) = 72.53053 58.57705 23.63091
#
# Poissons Ratio (x) = 0.34278 0.29705
# Poissons Ratio (y) = 0.42443 0.13053
# Poissons Ratio (z) = 0.91175 0.32357
#
# Static dielectric constant tensor:
#      x y z
#    x 3.467940 0.000000 -0.078580 
#    y 0.000000 3.442840 0.000000 
#    z -0.078580 0.000000 3.141340 
# 
# 
# High freq. dielectric constant tensor:
#      x y z
#    x 1.710340 0.000000 -0.008410 
#    y 0.000000 1.712750 0.000000 
#    z -0.008410 0.000000 1.669590 
# 
# From -- ./inp_files/87028.got.cif
#   From: 2010.06.25/outbox.cif.g09.slc.cpg/sg10_44_cif.got.tgz:87028.got - 2010.06.27 22:07:45.
