data_PCOD8058930
_publ_section_title
;
Structure prediction by ZEFSAII (Michael W. Deem and Ramdas Pophale) SiO2 
 PCOD8058930
Probable space group: P 2/M
;
_chemical_formula_sum "Si O2"
_cell_formula_units_Z 32
_cell_length_a 23.372908
_cell_length_b 9.331920
_cell_length_c 24.115712
_cell_angle_alpha 90.000000
_cell_angle_beta 18.532681
_cell_angle_gamma 90.000000
_cell_volume 1671.860126
_symmetry_space_group_name_H-M "P 2/M"
_symmetry_group_IT_number 10
_symmetry_cell_setting 'monoclinic'
loop_
_space_group_symop_operation_xyz
x,y,z
-x,y,-z
-x,-y,-z
x,-y,z
loop_
_atom_site_type_symbol
_atom_site_label
_atom_site_fract_x
_atom_site_fract_y
_atom_site_fract_z
Si Si1 0.329681 0.670098 0.511467
Si Si2 0.683663 0.649946 0.351701
Si Si3 0.962785 0.669476 0.798682
Si Si4 0.504331 0.834255 0.061094
Si Si5 0.182838 0.154905 0.862890
Si Si6 0.724730 0.669882 0.119414
Si Si7 0.899791 0.834293 0.534763
Si Si8 0.854553 0.671363 0.776322
O O1 0.328692 0.500000 0.511060
O O2 0.314024 0.721726 0.589399
O O3 0.517367 0.724254 0.312100
O O4 0.159699 0.732978 0.633489
O O5 0.500000 0.583231 0.500000
O O6 0.805614 0.500000 0.239187
O O7 0.703174 0.771814 0.288745
O O8 0.975169 0.500000 0.787828
O O9 0.906831 0.723662 0.789689
O O10 0.811355 0.719597 0.981733
O O11 0.311172 0.794937 0.265410
O O12 0.553149 0.000000 0.027515
O O13 0.500000 0.804027 0.000000
O O14 0.656779 0.733510 0.946666
O O15 0.161322 0.255409 0.936489
O O16 0.264259 0.000000 0.805600
O O17 0.000000 0.130250 0.000000
O O18 0.738289 0.500000 0.115572
O O19 0.000000 0.804419 0.500000
O O20 0.991470 0.733221 0.405154
O O21 0.924174 0.000000 0.495020
O O22 0.848808 0.500000 0.775462
#
# Coordination Sequence:
#
# PCOD8058930 Si02
#       8
#     4   4   4   4   4   4   4   4
#     4   9  17  32  55  81 107 137 183 235 277 330
#     4  10  18  32  55  83 104 128 180 234 276 330
#     4   9  20  36  55  81 112 150 188 227 284 341
#     4  10  20  38  63  87 116 159 202 237 278 336
#     4  11  23  35  49  76 113 146 175 220 290 352
#     4  10  19  36  60  78 100 143 193 238 276 323
#     4  10  20  38  63  87 115 157 204 238 278 341
#     4  11  23  37  57  91 128 155 189 241 299 351
#
# _framework density 19.140357000000002
#
# number of rings (size 3 to 8) (size 9 to 14) (size 15 to 20)
#    0.000    2.000    2.500    1.500    0.000    4.250 
#    0.000    3.750    0.000    3.000    0.000    0.000 
#    0.000    0.000    0.000    0.000    0.000    0.000 
#
# Total GULP energy -396422.228265 kJ/mol
# GULP energy per Si atom -12388.194633 kJ/mol
# Density = 1.909679 g / cm^3
# Si number density = 19.140357 Si / 1000 Ang^3
#
#
#
# Elastic Constant Matrix: (Units=GPa)
#
#
# Indices 1 2 3 4 5 6 
#
# 1 148.4028 52.1644 73.7809 0.0000 5.8834 0.0000
# 2 52.1644 78.3407 52.3132 0.0000 5.3378 0.0000
# 3 73.7809 52.3132 121.0201 0.0000 9.9885 0.0000
# 4 0.0000 0.0000 0.0000 17.1780 0.0000 -10.5677
# 5 5.8834 5.3378 9.9885 0.0000 28.7770 0.0000
# 6 0.0000 0.0000 0.0000 -10.5677 0.0000 3.7924
#
#
#
# Elastic Compliance Matrix: (Units=1/GPa)
#
#
# Indices 1 2 3 4 5 6 
#
# 1 0.010413 -0.003792 -0.004727 0.000000 0.000215 0.000000
# 2 -0.003792 0.019337 -0.005987 0.000000 -0.000734 0.000000
# 3 -0.004727 -0.005987 0.013961 0.000000 -0.002769 0.000000
# 4 0.000000 0.000000 0.000000 -0.081505 0.000000 -0.227117
# 5 0.000215 -0.000734 -0.002769 0.000000 0.035803 0.000000
# 6 0.000000 0.000000 0.000000 -0.227117 0.000000 -0.369183
#
#
# Mechanical properties :
#
#
# Convention : Reuss Voigt Hill
#
# Bulk Modulus (GPa) = 68.02426 78.25341 73.13883
# Shear Modulus (GPa) = -14.82523 21.24982 3.21229
#
# Velocity S-wave (km/s) = -2.78610 3.33560 1.29689
# Velocity P-wave (km/s) = 5.02663 7.47045 6.36690
#
# Compressibility (1/GPa) = 0.01470064
#
# Stress axis : x y z
#
# Youngs Moduli (GPa) = 96.03592 51.71384 71.62631
#
# Poissons Ratio (x) = 0.19608 0.33858
# Poissons Ratio (y) = 0.36413 0.42881
# Poissons Ratio (z) = 0.45396 0.30960
#
# Static dielectric constant tensor:
#      x y z
#    x 3.639170 0.000000 -0.048500 
#    y 0.000000 3.788510 0.000000 
#    z -0.048500 0.000000 3.644880 
# 
# 
# High freq. dielectric constant tensor:
#      x y z
#    x 1.740150 0.000000 -0.003030 
#    y 0.000000 1.722610 0.000000 
#    z -0.003030 0.000000 1.752070 
# 
# From -- ./inp_files/90627.got.cif
#   From: 2010.06.25/outbox.cif.g09.slc.cpg/sg10_46_cif.got.tgz:90627.got - 2010.06.27 22:07:45.
