data_PCOD8058017
_publ_section_title
;
Structure prediction by ZEFSAII (Michael W. Deem and Ramdas Pophale) SiO2 
 PCOD8058017
Probable space group: P 2/M
;
_chemical_formula_sum "Si O2"
_cell_formula_units_Z 32
_cell_length_a 12.299724
_cell_length_b 19.519782
_cell_length_c 6.724040
_cell_angle_alpha 90.000000
_cell_angle_beta 128.103767
_cell_angle_gamma 90.000000
_cell_volume 1270.331599
_symmetry_space_group_name_H-M "P 2/M"
_symmetry_group_IT_number 10
_symmetry_cell_setting 'monoclinic'
loop_
_space_group_symop_operation_xyz
x,y,z
-x,y,-z
-x,-y,-z
x,-y,z
loop_
_atom_site_type_symbol
_atom_site_label
_atom_site_fract_x
_atom_site_fract_y
_atom_site_fract_z
Si Si1 0.351413 0.577096 0.754921
Si Si2 0.253891 0.713799 0.476733
Si Si3 0.043443 0.713277 0.783754
Si Si4 0.111084 0.078179 0.849265
Si Si5 0.804056 0.921867 0.602724
Si Si6 0.265468 0.801015 0.884247
Si Si7 0.440509 0.172965 0.628406
Si Si8 0.117668 0.427625 0.797266
O O1 0.351593 0.500000 0.658998
O O2 0.294147 0.633318 0.532526
O O3 0.263298 0.577902 0.854260
O O4 0.500000 0.599938 0.000000
O O5 0.092817 0.725547 0.229110
O O6 0.258595 0.748826 0.697246
O O7 0.363287 0.756672 0.467960
O O8 0.000000 0.712943 0.500000
O O9 0.169812 0.767393 0.954548
O O10 0.100561 0.638649 0.917091
O O11 0.195921 0.123334 0.783389
O O12 0.949033 0.099447 0.663046
O O13 0.125075 0.000000 0.794288
O O14 0.177839 0.087766 0.140742
O O15 0.674579 0.873796 0.387799
O O16 0.766305 0.000000 0.510724
O O17 0.428773 0.809278 0.091301
O O18 0.500000 0.134973 0.500000
O O19 0.110807 0.500000 0.910797
O O20 0.000000 0.428016 0.500000
#
# Coordination Sequence:
#
# PCOD8058017 Si02
#       8
#     4   4   4   4   4   4   4   4
#     4  10  18  29  49  79 113 148 185 225 274 329
#     4  11  22  37  55  80 116 151 181 231 285 331
#     4   9  17  31  50  77 107 146 173 219 281 324
#     4   9  18  35  61  85 109 142 184 229 271 324
#     4   9  19  38  60  83 109 144 188 229 267 324
#     4  11  20  35  56  82 115 142 181 225 282 330
#     4  12  24  37  54  83 111 149 187 228 277 335
#     4   9  14  25  46  75 108 136 178 225 268 320
#
# _framework density 25.190275
#
# number of rings (size 3 to 8) (size 9 to 14) (size 15 to 20)
#    0.000    2.000    5.000    2.625    0.000    0.750 
#    0.000    0.625    0.000    6.750    0.000    0.000 
#    0.000    2.000    0.000    0.000    0.000    0.000 
#
# Total GULP energy -396435.591184 kJ/mol
# GULP energy per Si atom -12388.612224 kJ/mol
# Density = 2.513294 g / cm^3
# Si number density = 25.190275 Si / 1000 Ang^3
#
#
#
# Elastic Constant Matrix: (Units=GPa)
#
#
# Indices 1 2 3 4 5 6 
#
# 1 120.9683 41.3949 29.0351 0.0000 49.6822 0.0000
# 2 41.3949 129.7657 35.1109 0.0000 34.0959 0.0000
# 3 29.0351 35.1109 101.8705 0.0000 56.0012 0.0000
# 4 0.0000 0.0000 0.0000 25.1982 0.0000 16.3788
# 5 49.6822 34.0959 56.0012 0.0000 45.8464 0.0000
# 6 0.0000 0.0000 0.0000 16.3788 0.0000 32.6304
#
#
#
# Elastic Compliance Matrix: (Units=1/GPa)
#
#
# Indices 1 2 3 4 5 6 
#
# 1 0.026908 0.000453 0.025538 0.000000 -0.060691 0.000000
# 2 0.000453 0.009704 0.002324 0.000000 -0.010547 0.000000
# 3 0.025538 0.002324 0.054490 0.000000 -0.095963 0.000000
# 4 0.000000 0.000000 0.000000 0.058904 0.000000 -0.029567
# 5 -0.060691 -0.010547 -0.095963 0.000000 0.212643 0.000000
# 6 0.000000 0.000000 0.000000 -0.029567 0.000000 0.045487
#
#
# Mechanical properties :
#
#
# Convention : Reuss Voigt Hill
#
# Bulk Modulus (GPa) = 6.76897 62.63181 34.70039
# Shear Modulus (GPa) = 12.47662 37.20588 24.84125
#
# Velocity S-wave (km/s) = 2.22794 3.84734 3.14370
# Velocity P-wave (km/s) = 3.05143 6.68233 5.19445
#
# Compressibility (1/GPa) = 0.14773306
#
# Stress axis : x y z
#
# Youngs Moduli (GPa) = 37.16373 103.05056 18.35194
#
# Poissons Ratio (x) = -0.04669 -0.46868
# Poissons Ratio (y) = -0.01684 -0.04265
# Poissons Ratio (z) = -0.94910 -0.23950
#
# Static dielectric constant tensor:
#      x y z
#    x 5.077630 0.000000 0.697080 
#    y 0.000000 5.215230 0.000000 
#    z 0.697080 0.000000 4.491820 
# 
# 
# High freq. dielectric constant tensor:
#      x y z
#    x 2.011960 0.000000 0.024870 
#    y 0.000000 2.014750 0.000000 
#    z 0.024870 0.000000 1.990490 
# 
# From -- ./inp_files/26097.got.cif
#   From: 2010.06.25/outbox.cif.g09.slc.cpg/sg10_14_cif.got.tgz:26097.got - 2010.06.27 22:07:45.
