data_PCOD8058281
_publ_section_title
;
Structure prediction by ZEFSAII (Michael W. Deem and Ramdas Pophale) SiO2 
 PCOD8058281
Probable space group: P 2/M
;
_chemical_formula_sum "Si O2"
_cell_formula_units_Z 32
_cell_length_a 23.809098
_cell_length_b 9.145735
_cell_length_c 20.804328
_cell_angle_alpha 90.000000
_cell_angle_beta 156.418963
_cell_angle_gamma 90.000000
_cell_volume 1812.278266
_symmetry_space_group_name_H-M "P 2/M"
_symmetry_group_IT_number 10
_symmetry_cell_setting 'monoclinic'
loop_
_space_group_symop_operation_xyz
x,y,z
-x,y,-z
-x,-y,-z
x,-y,z
loop_
_atom_site_type_symbol
_atom_site_label
_atom_site_fract_x
_atom_site_fract_y
_atom_site_fract_z
Si Si1 0.920769 0.171213 0.649973
Si Si2 0.650783 0.672395 0.132218
Si Si3 0.459126 0.673206 0.110541
Si Si4 0.763198 0.673165 0.378875
Si Si5 0.273591 0.828149 0.434995
Si Si6 0.047167 0.670031 0.119502
Si Si7 0.857980 0.667717 0.039706
Si Si8 0.448046 0.329041 0.242276
O O1 0.886784 0.244777 0.545991
O O2 0.799639 0.212031 0.574207
O O3 0.068719 0.232486 0.829868
O O4 0.935203 0.000000 0.655205
O O5 0.664275 0.500000 0.144721
O O6 0.765205 0.726107 0.305363
O O7 0.500000 0.719135 0.000000
O O8 0.655220 0.733029 0.062916
O O9 0.450707 0.500000 0.100668
O O10 0.615996 0.721571 0.256208
O O11 0.422938 0.731771 0.143444
O O12 0.786862 0.500000 0.409664
O O13 0.183555 0.761559 0.282434
O O14 0.427452 0.758669 0.593429
O O15 0.285314 0.000000 0.436990
O O16 0.088745 0.500000 0.163123
O O17 0.918338 0.702301 0.032550
O O18 0.000000 0.723342 0.000000
O O19 0.885901 0.500000 0.088534
O O20 0.692412 0.701516 0.864533
O O21 0.488043 0.500000 0.283089
#
# Coordination Sequence:
#
# PCOD8058281 Si02
#       8
#     4   4   4   4   4   4   4   4
#     4  10  19  30  45  67  95 126 160 197 236 278
#     4   7  11  19  34  61  90 115 148 191 237 280
#     4   8  13  22  40  66  93 119 149 190 241 282
#     4   9  14  23  43  66  89 118 155 198 239 278
#     4  10  20  32  49  74 101 128 158 191 229 278
#     4   9  18  35  57  76  96 125 159 194 230 269
#     4   9  19  33  50  73  97 121 156 196 235 279
#     4  10  18  30  50  74  98 124 155 196 239 279
#
# _framework density 17.657333000000001
#
# number of rings (size 3 to 8) (size 9 to 14) (size 15 to 20)
#    0.000    3.000    1.250    2.250    0.000    1.750 
#    0.000    0.625    0.000    8.625    0.000    5.250 
#    0.000    0.000    0.000    0.000    0.000    0.000 
#
# Total GULP energy -396523.595347 kJ/mol
# GULP energy per Si atom -12391.362355 kJ/mol
# Density = 1.761714 g / cm^3
# Si number density = 17.657333 Si / 1000 Ang^3
#
#
#
# Elastic Constant Matrix: (Units=GPa)
#
#
# Indices 1 2 3 4 5 6 
#
# 1 83.0063 28.9174 65.0715 0.0000 -22.9245 0.0000
# 2 28.9174 56.4856 54.0972 0.0000 -10.3020 0.0000
# 3 65.0715 54.0972 126.6982 0.0000 -21.8195 0.0000
# 4 0.0000 0.0000 0.0000 7.7560 0.0000 6.1131
# 5 -22.9245 -10.3020 -21.8195 0.0000 33.8375 0.0000
# 6 0.0000 0.0000 0.0000 6.1131 0.0000 8.5920
#
#
#
# Elastic Compliance Matrix: (Units=1/GPa)
#
#
# Indices 1 2 3 4 5 6 
#
# 1 0.022220 -0.000499 -0.009711 0.000000 0.008640 0.000000
# 2 -0.000499 0.029992 -0.012414 0.000000 0.000788 0.000000
# 3 -0.009711 -0.012414 0.018445 0.000000 0.001535 0.000000
# 4 0.000000 0.000000 0.000000 0.293553 0.000000 -0.208861
# 5 0.008640 0.000788 0.001535 0.000000 0.036636 0.000000
# 6 0.000000 0.000000 0.000000 -0.208861 0.000000 0.264991
#
#
# Mechanical properties :
#
#
# Convention : Reuss Voigt Hill
#
# Bulk Modulus (GPa) = 39.35596 62.48471 50.92033
# Shear Modulus (GPa) = 6.94874 17.91069 12.42971
#
# Velocity S-wave (km/s) = 1.98592 3.18834 2.65607
# Velocity P-wave (km/s) = 5.25315 7.00130 6.18926
#
# Compressibility (1/GPa) = 0.02540911
#
# Stress axis : x y z
#
# Youngs Moduli (GPa) = 45.00414 33.34252 54.21498
#
# Poissons Ratio (x) = 0.01665 0.52649
# Poissons Ratio (y) = 0.02247 0.67300
# Poissons Ratio (z) = 0.43704 0.41390
#
# Static dielectric constant tensor:
#      x y z
#    x 3.400310 0.000000 -0.302360 
#    y 0.000000 2.947480 0.000000 
#    z -0.302360 0.000000 3.219480 
# 
# 
# High freq. dielectric constant tensor:
#      x y z
#    x 1.665490 0.000000 -0.024710 
#    y 0.000000 1.650910 0.000000 
#    z -0.024710 0.000000 1.674490 
# 
# From -- ./inp_files/91224.got.cif
#   From: 2010.06.25/outbox.cif.g09.slc.cpg/sg10_46_cif.got.tgz:91224.got - 2010.06.27 22:07:45.
