data_PCOD8058358
_publ_section_title
;
Structure prediction by ZEFSAII (Michael W. Deem and Ramdas Pophale) SiO2 
 PCOD8058358
Probable space group: P 2/M
;
_chemical_formula_sum "Si O2"
_cell_formula_units_Z 26
_cell_length_a 19.900722
_cell_length_b 9.301305
_cell_length_c 13.966508
_cell_angle_alpha 90.000000
_cell_angle_beta 32.392855
_cell_angle_gamma 90.000000
_cell_volume 1384.967649
_symmetry_space_group_name_H-M "P 2/M"
_symmetry_group_IT_number 10
_symmetry_cell_setting 'monoclinic'
loop_
_space_group_symop_operation_xyz
x,y,z
-x,y,-z
-x,-y,-z
x,-y,z
loop_
_atom_site_type_symbol
_atom_site_label
_atom_site_fract_x
_atom_site_fract_y
_atom_site_fract_z
Si Si1 0.753047 0.341729 0.200210
Si Si2 0.184970 0.830797 0.215585
Si Si3 0.919708 0.830619 0.460297
Si Si4 0.600945 0.171751 0.526874
Si Si5 0.000000 0.251743 0.000000
Si Si6 0.170318 0.838564 0.628986
Si Si7 0.347855 0.333759 0.878370
O O1 0.695813 0.500000 0.290377
O O2 0.662592 0.219690 0.352305
O O3 0.893815 0.343714 0.073500
O O4 0.754081 0.315949 0.084402
O O5 0.179625 0.796810 0.335696
O O6 0.056790 0.771978 0.322392
O O7 0.206111 0.000000 0.171753
O O8 0.298341 0.741443 0.034011
O O9 0.874536 0.758155 0.414355
O O10 0.935671 0.000000 0.430146
O O11 0.698637 0.226318 0.490996
O O12 0.472860 0.252983 0.696742
O O13 0.582457 0.000000 0.547548
O O14 0.934235 0.158218 0.161720
O O15 0.198731 0.000000 0.564507
O O16 0.376914 0.500000 0.865339
#
# Coordination Sequence:
#
# PCOD8058358 Si02
#       7
#     4   4   4   4   2   4   4
#     4  10  21  35  51  73 103 136 164 198 249 302
#     4   9  17  31  54  79 100 127 166 206 246 297
#     4   8  15  30  52  77 104 131 159 201 255 299
#     4  10  21  35  52  74  99 132 173 210 244 288
#     4  10  18  30  52  78 103 132 165 198 239 302
#     4   9  17  30  49  76 107 132 161 206 253 292
#     4  11  22  35  51  72 101 135 168 205 250 295
#
# _framework density 18.773002000000002
#
# number of rings (size 3 to 8) (size 9 to 14) (size 15 to 20)
#    0.000    2.462    0.000    3.692    0.000    3.692 
#    0.000    2.308    0.000   11.077    0.000    0.000 
#    0.000    0.000    0.000    0.000    0.000    0.000 
#
# Total GULP energy -322195.083600 kJ/mol
# GULP energy per Si atom -12392.118600 kJ/mol
# Density = 1.873027 g / cm^3
# Si number density = 18.773002 Si / 1000 Ang^3
#
#
#
# Elastic Constant Matrix: (Units=GPa)
#
#
# Indices 1 2 3 4 5 6 
#
# 1 107.9645 22.8433 43.3838 0.0000 13.4353 0.0000
# 2 22.8433 74.1356 35.2968 0.0000 0.8686 0.0000
# 3 43.3838 35.2968 96.7453 0.0000 1.7435 0.0000
# 4 0.0000 0.0000 0.0000 14.2719 0.0000 -2.3369
# 5 13.4353 0.8686 1.7435 0.0000 25.7159 0.0000
# 6 0.0000 0.0000 0.0000 -2.3369 0.0000 16.7835
#
#
#
# Elastic Compliance Matrix: (Units=1/GPa)
#
#
# Indices 1 2 3 4 5 6 
#
# 1 0.012270 -0.001382 -0.004889 0.000000 -0.006032 0.000000
# 2 -0.001382 0.016481 -0.005403 0.000000 0.000532 0.000000
# 3 -0.004889 -0.005403 0.014468 0.000000 0.001756 0.000000
# 4 0.000000 0.000000 0.000000 0.071702 0.000000 0.009984
# 5 -0.006032 0.000532 0.001756 0.000000 0.041901 0.000000
# 6 0.000000 0.000000 0.000000 0.009984 0.000000 0.060972
#
#
# Mechanical properties :
#
#
# Convention : Reuss Voigt Hill
#
# Bulk Modulus (GPa) = 50.32480 53.54369 51.93424
# Shear Modulus (GPa) = 20.18026 23.17571 21.67799
#
# Velocity S-wave (km/s) = 3.28222 3.51739 3.40184
# Velocity P-wave (km/s) = 6.42099 6.71413 6.56920
#
# Compressibility (1/GPa) = 0.01987092
#
# Stress axis : x y z
#
# Youngs Moduli (GPa) = 81.49879 60.67702 69.11614
#
# Poissons Ratio (x) = 0.08387 0.33793
# Poissons Ratio (y) = 0.11265 0.37341
# Poissons Ratio (z) = 0.39847 0.32781
#
# Static dielectric constant tensor:
#      x y z
#    x 3.949350 0.000000 0.044900 
#    y 0.000000 3.154460 0.000000 
#    z 0.044900 0.000000 3.301430 
# 
# 
# High freq. dielectric constant tensor:
#      x y z
#    x 1.734960 0.000000 0.002680 
#    y 0.000000 1.701660 0.000000 
#    z 0.002680 0.000000 1.720100 
# 
# From -- ./inp_files/66863.got.cif
#   From: 2010.06.25/outbox.cif.g09.slc.cpg/sg10_34_cif.got.tgz:66863.got - 2010.06.27 22:07:45.
