data_PCOD8058138
_publ_section_title
;
Structure prediction by ZEFSAII (Michael W. Deem and Ramdas Pophale) SiO2 
 PCOD8058138
Probable space group: P 2/M
;
_chemical_formula_sum "Si O2"
_cell_formula_units_Z 28
_cell_length_a 19.623869
_cell_length_b 8.263848
_cell_length_c 11.861775
_cell_angle_alpha 90.000000
_cell_angle_beta 53.204691
_cell_angle_gamma 90.000000
_cell_volume 1540.387834
_symmetry_space_group_name_H-M "P 2/M"
_symmetry_group_IT_number 10
_symmetry_cell_setting 'monoclinic'
loop_
_space_group_symop_operation_xyz
x,y,z
-x,y,-z
-x,-y,-z
x,-y,z
loop_
_atom_site_type_symbol
_atom_site_label
_atom_site_fract_x
_atom_site_fract_y
_atom_site_fract_z
Si Si1 0.595630 0.191773 0.402574
Si Si2 0.817026 0.805501 0.809152
Si Si3 0.506451 0.687192 0.121758
Si Si4 0.000098 0.822925 0.366150
Si Si5 0.818196 0.806973 0.554627
Si Si6 0.338469 0.812015 0.895396
Si Si7 0.346913 0.808762 0.410836
O O1 0.500000 0.263932 0.500000
O O2 0.645011 0.264822 0.244931
O O3 0.645922 0.241323 0.465395
O O4 0.589518 0.000000 0.395711
O O5 0.910289 0.736523 0.756583
O O6 0.796068 0.745760 0.702792
O O7 0.818790 0.000000 0.809069
O O8 0.744720 0.732790 0.963511
O O9 0.531983 0.500000 0.102771
O O10 0.578899 0.791006 0.109686
O O11 0.416961 0.715059 0.270419
O O12 0.500000 0.747663 0.000000
O O13 0.000000 0.842189 0.500000
O O14 0.910573 0.734730 0.421690
O O15 0.000346 0.000000 0.308892
O O16 0.745130 0.749642 0.541359
O O17 0.825814 0.000000 0.548341
O O18 0.320068 0.000000 0.900168
O O19 0.360265 0.000000 0.380754
#
# Coordination Sequence:
#
# PCOD8058138 Si02
#       7
#     4   4   4   4   4   4   4
#     4   9  16  28  44  63  85 111 146 189 225 240
#     4   8  13  21  37  62  86 109 139 175 215 256
#     4  11  23  34  43  62  92 117 136 173 230 269
#     4   7  10  18  32  55  88 112 129 167 218 257
#     4   8  13  21  37  62  86 109 139 175 215 256
#     4  10  18  30  48  65  84 114 153 184 207 252
#     4  10  18  30  48  65  84 114 153 184 207 252
#
# _framework density 18.177240000000001
#
# number of rings (size 3 to 8) (size 9 to 14) (size 15 to 20)
#    0.000    3.000    1.429    3.000    0.000    2.286 
#    0.000    1.429    0.000    0.857    0.000    7.000 
#    0.000    5.714    0.000    2.571    0.000    4.000 
#
# Total GULP energy -346890.831425 kJ/mol
# GULP energy per Si atom -12388.958265 kJ/mol
# Density = 1.813587 g / cm^3
# Si number density = 18.177240 Si / 1000 Ang^3
#
#
#
# Elastic Constant Matrix: (Units=GPa)
#
#
# Indices 1 2 3 4 5 6 
#
# 1 141.7541 -0.7306 109.2527 0.0000 -21.9484 0.0000
# 2 -0.7306 6.3730 2.7006 0.0000 2.2395 0.0000
# 3 109.2527 2.7006 140.6375 0.0000 -3.0951 0.0000
# 4 0.0000 0.0000 0.0000 6.5808 0.0000 1.8912
# 5 -21.9484 2.2395 -3.0951 0.0000 34.5047 0.0000
# 6 0.0000 0.0000 0.0000 1.8912 0.0000 1.7843
#
#
#
# Elastic Compliance Matrix: (Units=1/GPa)
#
#
# Indices 1 2 3 4 5 6 
#
# 1 0.022020 0.005440 -0.016943 0.000000 0.012134 0.000000
# 2 0.005440 0.163481 -0.007538 0.000000 -0.007826 0.000000
# 3 -0.016943 -0.007538 0.020231 0.000000 -0.008474 0.000000
# 4 0.000000 0.000000 0.000000 0.218520 0.000000 -0.231615
# 5 0.012134 -0.007826 -0.008474 0.000000 0.036448 0.000000
# 6 0.000000 0.000000 0.000000 -0.231615 0.000000 0.805933
#
#
# Mechanical properties :
#
#
# Convention : Reuss Voigt Hill
#
# Bulk Modulus (GPa) = 5.96479 56.80110 31.38294
# Shear Modulus (GPa) = 3.67486 20.41009 12.04247
#
# Velocity S-wave (km/s) = 1.42340 3.35451 2.57671
# Velocity P-wave (km/s) = 2.44745 6.80588 5.11420
#
# Compressibility (1/GPa) = 0.16765043
#
# Stress axis : x y z
#
# Youngs Moduli (GPa) = 45.41389 6.11692 49.42940
#
# Poissons Ratio (x) = -0.03328 0.83749
# Poissons Ratio (y) = -0.24706 0.37258
# Poissons Ratio (z) = 0.76946 0.04611
#
# Static dielectric constant tensor:
#      x y z
#    x 3.625250 0.000000 -0.266980 
#    y 0.000000 2.711550 0.000000 
#    z -0.266980 0.000000 3.707850 
# 
# 
# High freq. dielectric constant tensor:
#      x y z
#    x 1.702810 0.000000 -0.018830 
#    y 0.000000 1.643890 0.000000 
#    z -0.018830 0.000000 1.697830 
# 
# From -- ./inp_files/54727.got.cif
#   From: 2010.06.25/outbox.cif.g09.slc.cpg/sg10_28_cif.got.tgz:54727.got - 2010.06.27 22:07:45.
