data_PCOD8058544
_publ_section_title
;
Structure prediction by ZEFSAII (Michael W. Deem and Ramdas Pophale) SiO2 
 PCOD8058544
Probable space group: P 2/M
;
_chemical_formula_sum "Si O2"
_cell_formula_units_Z 32
_cell_length_a 12.932270
_cell_length_b 13.686072
_cell_length_c 14.837255
_cell_angle_alpha 90.000000
_cell_angle_beta 42.396757
_cell_angle_gamma 90.000000
_cell_volume 1770.658955
_symmetry_space_group_name_H-M "P 2/M"
_symmetry_group_IT_number 10
_symmetry_cell_setting 'monoclinic'
loop_
_space_group_symop_operation_xyz
x,y,z
-x,y,-z
-x,-y,-z
x,-y,z
loop_
_atom_site_type_symbol
_atom_site_label
_atom_site_fract_x
_atom_site_fract_y
_atom_site_fract_z
Si Si1 0.632567 0.108632 0.592849
Si Si2 0.486950 0.113362 0.134649
Si Si3 0.734875 0.202761 0.863929
Si Si4 0.153903 0.386552 0.736543
Si Si5 0.590983 0.299949 0.529256
Si Si6 0.799462 0.614238 0.931832
Si Si7 0.013864 0.112018 0.591490
Si Si8 0.332004 0.385527 0.795968
O O1 0.537746 0.131235 0.744269
O O2 0.579695 0.183813 0.550876
O O3 0.812094 0.122921 0.491363
O O4 0.595495 0.000000 0.581994
O O5 0.371147 0.184697 0.155273
O O6 0.452156 0.000000 0.132738
O O7 0.661055 0.141243 0.994650
O O8 0.743982 0.317924 0.884372
O O9 0.906986 0.167851 0.731719
O O10 0.193950 0.500000 0.704910
O O11 0.234704 0.334643 0.598400
O O12 0.218090 0.343775 0.790844
O O13 0.975641 0.366362 0.842120
O O14 0.500000 0.332309 0.500000
O O15 0.508823 0.354970 0.665240
O O16 0.769017 0.500000 0.927399
O O17 0.710593 0.652291 0.077497
O O18 0.000000 0.157019 0.500000
O O19 0.958665 0.000000 0.624757
O O20 0.312064 0.500000 0.810015
#
# Coordination Sequence:
#
# PCOD8058544 Si02
#       8
#     4   4   4   4   4   4   4   4
#     4  10  20  33  49  71 100 131 162 197 242 291
#     4  10  20  34  52  74  95 121 163 209 247 286
#     4  11  19  31  51  72  96 126 155 201 251 285
#     4   9  17  31  51  73  97 126 161 204 244 280
#     4  10  19  31  49  75 102 128 161 198 241 294
#     4  10  20  32  48  72 101 130 163 196 237 293
#     4  10  18  31  51  75  95 117 158 209 250 282
#     4   9  17  31  51  73  97 126 163 205 243 277
#
# _framework density 18.072367
#
# number of rings (size 3 to 8) (size 9 to 14) (size 15 to 20)
#    0.000    2.125    1.250    3.750    0.000    3.250 
#    0.000    1.250    0.000    1.875    0.000    0.000 
#    0.000   23.000    0.000    0.000    0.000    0.000 
#
# Total GULP energy -396658.264651 kJ/mol
# GULP energy per Si atom -12395.570770 kJ/mol
# Density = 1.803123 g / cm^3
# Si number density = 18.072367 Si / 1000 Ang^3
#
#
#
# Elastic Constant Matrix: (Units=GPa)
#
#
# Indices 1 2 3 4 5 6 
#
# 1 21.4696 19.4782 8.5456 0.0000 6.4923 0.0000
# 2 19.4782 61.0574 32.3110 0.0000 14.4509 0.0000
# 3 8.5456 32.3110 131.7006 0.0000 6.0846 0.0000
# 4 0.0000 0.0000 0.0000 26.7279 0.0000 3.9488
# 5 6.4923 14.4509 6.0846 0.0000 13.1280 0.0000
# 6 0.0000 0.0000 0.0000 3.9488 0.0000 29.8381
#
#
#
# Elastic Compliance Matrix: (Units=1/GPa)
#
#
# Indices 1 2 3 4 5 6 
#
# 1 0.067240 -0.018852 0.000858 0.000000 -0.012899 0.000000
# 2 -0.018852 0.030248 -0.005202 0.000000 -0.021562 0.000000
# 3 0.000858 -0.005202 0.008756 0.000000 0.001243 0.000000
# 4 0.000000 0.000000 0.000000 0.038160 0.000000 -0.005050
# 5 -0.012899 -0.021562 0.001243 0.000000 0.105711 0.000000
# 6 0.000000 0.000000 0.000000 -0.005050 0.000000 0.034182
#
#
# Mechanical properties :
#
#
# Convention : Reuss Voigt Hill
#
# Bulk Modulus (GPa) = 16.70754 37.21079 26.95916
# Shear Modulus (GPa) = 14.25968 24.19832 19.22900
#
# Velocity S-wave (km/s) = 2.81202 3.66316 3.26544
# Velocity P-wave (km/s) = 4.45063 6.20695 5.40067
#
# Compressibility (1/GPa) = 0.05985323
#
# Stress axis : x y z
#
# Youngs Moduli (GPa) = 14.87217 33.06012 114.20738
#
# Poissons Ratio (x) = 0.62324 -0.09799
# Poissons Ratio (y) = 0.28037 0.59405
# Poissons Ratio (z) = -0.01276 0.17196
#
# Static dielectric constant tensor:
#      x y z
#    x 3.011620 0.000000 0.055830 
#    y 0.000000 3.274930 0.000000 
#    z 0.055830 0.000000 3.738150 
# 
# 
# High freq. dielectric constant tensor:
#      x y z
#    x 1.663500 0.000000 -0.000340 
#    y 0.000000 1.687900 0.000000 
#    z -0.000340 0.000000 1.725060 
# 
# From -- ./inp_files/65078.got.cif
#   From: 2010.06.25/outbox.cif.g09.slc.cpg/sg10_33_cif.got.tgz:65078.got - 2010.06.27 22:07:45.
