data_PCOD8058043
_publ_section_title
;
Structure prediction by ZEFSAII (Michael W. Deem and Ramdas Pophale) SiO2 
 PCOD8058043
Probable space group: P 2/M
;
_chemical_formula_sum "Si O2"
_cell_formula_units_Z 32
_cell_length_a 10.152697
_cell_length_b 13.451558
_cell_length_c 13.234749
_cell_angle_alpha 90.000000
_cell_angle_beta 94.057166
_cell_angle_gamma 90.000000
_cell_volume 1802.934692
_symmetry_space_group_name_H-M "P 2/M"
_symmetry_group_IT_number 10
_symmetry_cell_setting 'monoclinic'
loop_
_space_group_symop_operation_xyz
x,y,z
-x,y,-z
-x,-y,-z
x,-y,z
loop_
_atom_site_type_symbol
_atom_site_label
_atom_site_fract_x
_atom_site_fract_y
_atom_site_fract_z
Si Si1 0.764848 0.616905 0.891829
Si Si2 0.309560 0.117785 0.412540
Si Si3 0.210690 0.699914 0.888878
Si Si4 0.011147 0.613058 0.252084
Si Si5 0.814950 0.886074 0.232388
Si Si6 0.477997 0.608484 0.880660
Si Si7 0.590209 0.883635 0.369164
Si Si8 0.029803 0.202030 0.383987
O O1 0.770865 0.500000 0.920907
O O2 0.863913 0.644690 0.808507
O O3 0.618258 0.646169 0.843488
O O4 0.803083 0.680324 0.992927
O O5 0.341208 0.160003 0.526396
O O6 0.436298 0.148721 0.349802
O O7 0.179433 0.172374 0.365120
O O8 0.283491 0.000000 0.409019
O O9 0.168552 0.813893 0.863368
O O10 0.358951 0.684091 0.854025
O O11 0.118062 0.623855 0.823696
O O12 0.022573 0.500000 0.291197
O O13 0.004953 0.684265 0.348994
O O14 0.675850 0.854935 0.276381
O O15 0.933403 0.871584 0.317974
O O16 0.813947 0.000000 0.195076
O O17 0.441670 0.500000 0.833053
O O18 0.500000 0.596773 0.000000
O O19 0.591574 0.000000 0.387482
O O20 0.000000 0.189812 0.500000
#
# Coordination Sequence:
#
# PCOD8058043 Si02
#       8
#     4   4   4   4   4   4   4   4
#     4   9  17  32  54  76  97 123 157 202 245 283
#     4   9  16  28  49  72  93 120 156 201 242 275
#     4  10  18  29  51  75  97 126 160 196 239 285
#     4  10  21  34  49  72  98 126 161 199 244 293
#     4  10  20  32  47  72 102 131 164 198 236 283
#     4   8  14  26  47  74  97 118 150 195 241 280
#     4   8  15  28  46  69  94 120 155 200 241 273
#     4  11  21  32  50  72  95 129 165 201 245 287
#
# _framework density 17.748840000000001
#
# number of rings (size 3 to 8) (size 9 to 14) (size 15 to 20)
#    0.000    2.625    1.250    3.375    0.000    2.750 
#    0.000    0.000    0.000   10.125    0.000    1.750 
#    0.000    0.000    0.000    0.000    0.000    0.000 
#
# Total GULP energy -396607.324539 kJ/mol
# GULP energy per Si atom -12393.978892 kJ/mol
# Density = 1.770844 g / cm^3
# Si number density = 17.748840 Si / 1000 Ang^3
#
#
#
# Elastic Constant Matrix: (Units=GPa)
#
#
# Indices 1 2 3 4 5 6 
#
# 1 106.6620 15.7649 8.2518 0.0000 8.9164 0.0000
# 2 15.7649 67.2941 16.1661 0.0000 1.4480 0.0000
# 3 8.2518 16.1661 20.2768 0.0000 -1.4852 0.0000
# 4 0.0000 0.0000 0.0000 16.8966 0.0000 -1.9018
# 5 8.9164 1.4480 -1.4852 0.0000 16.7609 0.0000
# 6 0.0000 0.0000 0.0000 -1.9018 0.0000 20.8313
#
#
#
# Elastic Compliance Matrix: (Units=1/GPa)
#
#
# Indices 1 2 3 4 5 6 
#
# 1 0.010334 -0.001470 -0.003449 0.000000 -0.005676 0.000000
# 2 -0.001470 0.018731 -0.014491 0.000000 -0.002120 0.000000
# 3 -0.003449 -0.014491 0.062909 0.000000 0.008661 0.000000
# 4 0.000000 0.000000 0.000000 0.059798 0.000000 0.005459
# 5 -0.005676 -0.002120 0.008661 0.000000 0.063633 0.000000
# 6 0.000000 0.000000 0.000000 0.005459 0.000000 0.048503
#
#
# Mechanical properties :
#
#
# Convention : Reuss Voigt Hill
#
# Bulk Modulus (GPa) = 18.81341 30.51094 24.66217
# Shear Modulus (GPa) = 15.60325 21.16778 18.38551
#
# Velocity S-wave (km/s) = 2.96820 3.45719 3.22199
# Velocity P-wave (km/s) = 4.72967 5.75881 5.26943
#
# Compressibility (1/GPa) = 0.05315357
#
# Stress axis : x y z
#
# Youngs Moduli (GPa) = 96.76750 53.38649 15.89605
#
# Poissons Ratio (x) = 0.07849 0.05483
# Poissons Ratio (y) = 0.14227 0.23035
# Poissons Ratio (z) = 0.33376 0.77362
#
# Static dielectric constant tensor:
#      x y z
#    x 3.963290 0.000000 -0.035880 
#    y 0.000000 3.014440 0.000000 
#    z -0.035880 0.000000 2.949330 
# 
# 
# High freq. dielectric constant tensor:
#      x y z
#    x 1.710530 0.000000 0.004030 
#    y 0.000000 1.663730 0.000000 
#    z 0.004030 0.000000 1.648510 
# 
# From -- ./inp_files/61565.got.cif
#   From: 2010.06.25/outbox.cif.g09.slc.cpg/sg10_31_cif.got.tgz:61565.got - 2010.06.27 22:07:45.
