data_PCOD8058596
_publ_section_title
;
Structure prediction by ZEFSAII (Michael W. Deem and Ramdas Pophale) SiO2 
 PCOD8058596
Probable space group: P 2/M
;
_chemical_formula_sum "Si O2"
_cell_formula_units_Z 28
_cell_length_a 14.309786
_cell_length_b 8.560243
_cell_length_c 19.210604
_cell_angle_alpha 90.000000
_cell_angle_beta 41.755786
_cell_angle_gamma 90.000000
_cell_volume 1567.135115
_symmetry_space_group_name_H-M "P 2/M"
_symmetry_group_IT_number 10
_symmetry_cell_setting 'monoclinic'
loop_
_space_group_symop_operation_xyz
x,y,z
-x,y,-z
-x,-y,-z
x,-y,z
loop_
_atom_site_type_symbol
_atom_site_label
_atom_site_fract_x
_atom_site_fract_y
_atom_site_fract_z
Si Si1 0.020789 0.681323 0.201541
Si Si2 0.293059 0.818000 0.106866
Si Si3 0.475362 0.815875 0.621919
Si Si4 0.474720 0.317489 0.118714
Si Si5 0.909486 0.816748 0.983668
Si Si6 0.410210 0.815200 0.810466
Si Si7 0.725437 0.815422 0.387399
O O1 0.052024 0.500000 0.193736
O O2 0.868758 0.722027 0.316092
O O3 0.130810 0.777540 0.187000
O O4 0.029391 0.725674 0.115897
O O5 0.343770 0.771418 0.155921
O O6 0.318930 0.000000 0.079427
O O7 0.381277 0.723555 0.000577
O O8 0.453217 0.746584 0.711203
O O9 0.629270 0.772767 0.507513
O O10 0.354172 0.754239 0.637587
O O11 0.458026 0.000000 0.634156
O O12 0.446051 0.500000 0.129799
O O13 0.486051 0.264903 0.192174
O O14 0.923663 0.000000 0.960615
O O15 0.749487 0.767405 0.085356
O O16 0.000000 0.767271 0.000000
O O17 0.430164 0.000000 0.803444
O O18 0.755243 0.000000 0.366681
#
# Coordination Sequence:
#
# PCOD8058596 Si02
#       7
#     4   4   4   4   4   4   4
#     4  12  23  34  50  77 111 142 173 216 269 319
#     4  11  21  36  56  76 100 137 180 220 259 312
#     4   8  16  32  57  82 103 135 185 230 258 299
#     4  11  21  34  52  78 109 138 169 214 267 321
#     4  10  20  33  51  75 105 142 179 213 255 311
#     4  10  18  31  52  78 107 140 177 216 260 313
#     4   9  17  34  57  79 103 139 185 227 262 303
#
# _framework density 17.866997999999999
#
# number of rings (size 3 to 8) (size 9 to 14) (size 15 to 20)
#    0.000    1.857    1.429    6.429    0.000    2.571 
#    0.000    4.286    0.000    0.857    0.000    6.000 
#    0.000    0.000    0.000    0.000    0.000    0.000 
#
# Total GULP energy -347259.581122 kJ/mol
# GULP energy per Si atom -12402.127897 kJ/mol
# Density = 1.782633 g / cm^3
# Si number density = 17.866998 Si / 1000 Ang^3
#
#
#
# Elastic Constant Matrix: (Units=GPa)
#
#
# Indices 1 2 3 4 5 6 
#
# 1 116.4125 17.4134 39.8044 0.0000 -5.0244 0.0000
# 2 17.4134 50.8211 10.4634 0.0000 -3.7436 0.0000
# 3 39.8044 10.4634 79.6219 0.0000 -5.5198 0.0000
# 4 0.0000 0.0000 0.0000 13.8878 0.0000 -3.9967
# 5 -5.0244 -3.7436 -5.5198 0.0000 26.7737 0.0000
# 6 0.0000 0.0000 0.0000 -3.9967 0.0000 12.9384
#
#
#
# Elastic Compliance Matrix: (Units=1/GPa)
#
#
# Indices 1 2 3 4 5 6 
#
# 1 0.010704 -0.002599 -0.004966 0.000000 0.000621 0.000000
# 2 -0.002599 0.020997 -0.001309 0.000000 0.002178 0.000000
# 3 -0.004966 -0.001309 0.015356 0.000000 0.002051 0.000000
# 4 0.000000 0.000000 0.000000 0.079031 0.000000 0.024413
# 5 0.000621 0.002178 0.002051 0.000000 0.038194 0.000000
# 6 0.000000 0.000000 0.000000 0.024413 0.000000 0.084831
#
#
# Mechanical properties :
#
#
# Convention : Reuss Voigt Hill
#
# Bulk Modulus (GPa) = 34.11984 42.46864 38.29424
# Shear Modulus (GPa) = 18.07454 22.66495 20.36975
#
# Velocity S-wave (km/s) = 3.18404 3.56552 3.38017
# Velocity P-wave (km/s) = 5.71450 6.38525 6.05917
#
# Compressibility (1/GPa) = 0.02930846
#
# Stress axis : x y z
#
# Youngs Moduli (GPa) = 93.42374 47.62487 65.11968
#
# Poissons Ratio (x) = 0.12379 0.32341
# Poissons Ratio (y) = 0.24284 0.08523
# Poissons Ratio (z) = 0.46398 0.06234
#
# Static dielectric constant tensor:
#      x y z
#    x 3.523730 0.000000 0.104270 
#    y 0.000000 3.129940 0.000000 
#    z 0.104270 0.000000 3.294010 
# 
# 
# High freq. dielectric constant tensor:
#      x y z
#    x 1.697770 0.000000 -0.001480 
#    y 0.000000 1.679000 0.000000 
#    z -0.001480 0.000000 1.672020 
# 
# From -- ./inp_files/84383.got.cif
#   From: 2010.06.25/outbox.cif.g09.slc.cpg/sg10_43_cif.got.tgz:84383.got - 2010.06.27 22:07:45.
