data_PCOD8058781
_publ_section_title
;
Structure prediction by ZEFSAII (Michael W. Deem and Ramdas Pophale) SiO2 
 PCOD8058781
Probable space group: P 2/M
;
_chemical_formula_sum "Si O2"
_cell_formula_units_Z 28
_cell_length_a 28.497447
_cell_length_b 9.160594
_cell_length_c 9.589910
_cell_angle_alpha 90.000000
_cell_angle_beta 38.937306
_cell_angle_gamma 90.000000
_cell_volume 1573.361178
_symmetry_space_group_name_H-M "P 2/M"
_symmetry_group_IT_number 10
_symmetry_cell_setting 'monoclinic'
loop_
_space_group_symop_operation_xyz
x,y,z
-x,y,-z
-x,-y,-z
x,-y,z
loop_
_atom_site_type_symbol
_atom_site_label
_atom_site_fract_x
_atom_site_fract_y
_atom_site_fract_z
Si Si1 0.687099 0.171480 0.334077
Si Si2 0.812695 0.170861 0.265057
Si Si3 0.416351 0.669764 0.222766
Si Si4 0.736989 0.670366 0.949363
Si Si5 0.901847 0.672061 0.617011
Si Si6 0.290857 0.332417 0.296779
Si Si7 0.058778 0.327298 0.167293
O O1 0.760600 0.211023 0.253369
O O2 0.614723 0.239260 0.575369
O O3 0.675263 0.000000 0.348139
O O4 0.693369 0.239349 0.166464
O O5 0.775333 0.232731 0.491151
O O6 0.823375 0.000000 0.258157
O O7 0.893502 0.244971 0.060509
O O8 0.413872 0.500000 0.269373
O O9 0.368497 0.702027 0.194413
O O10 0.500000 0.723070 0.000000
O O11 0.734362 0.500000 0.996207
O O12 0.822942 0.725573 0.738292
O O13 0.697400 0.701536 0.893521
O O14 0.906010 0.500000 0.616066
O O15 0.911413 0.729574 0.752188
O O16 0.971473 0.721399 0.358206
O O17 0.266641 0.500000 0.374959
O O18 0.069298 0.500000 0.122745
#
# Coordination Sequence:
#
# PCOD8058781 Si02
#       7
#     4   4   4   4   4   4   4
#     4  10  20  32  50  76 102 130 163 196 237 290
#     4  10  19  31  47  70  98 130 167 204 241 286
#     4   9  18  35  57  78  99 125 160 200 238 280
#     4  10  18  32  52  74  99 127 163 204 244 286
#     4   8  15  26  45  71  95 123 160 206 249 281
#     4   9  19  33  52  75  97 126 162 200 244 289
#     4   9  15  27  47  69  93 124 165 208 246 282
#
# _framework density 17.796295000000001
#
# number of rings (size 3 to 8) (size 9 to 14) (size 15 to 20)
#    0.000    2.714    1.429    1.714    0.000    2.000 
#    0.000    3.571    0.000    8.571    0.000    0.000 
#    0.000    0.000    0.000    0.000    0.000    0.000 
#
# Total GULP energy -347158.524773 kJ/mol
# GULP energy per Si atom -12398.518742 kJ/mol
# Density = 1.775579 g / cm^3
# Si number density = 17.796295 Si / 1000 Ang^3
#
#
#
# Elastic Constant Matrix: (Units=GPa)
#
#
# Indices 1 2 3 4 5 6 
#
# 1 72.8900 30.4607 60.1750 0.0000 0.3136 0.0000
# 2 30.4607 68.0270 63.7860 0.0000 1.5510 0.0000
# 3 60.1750 63.7860 148.8321 0.0000 -8.6987 0.0000
# 4 0.0000 0.0000 0.0000 5.9975 0.0000 3.8838
# 5 0.3136 1.5510 -8.6987 0.0000 28.5421 0.0000
# 6 0.0000 0.0000 0.0000 3.8838 0.0000 14.9051
#
#
#
# Elastic Compliance Matrix: (Units=1/GPa)
#
#
# Indices 1 2 3 4 5 6 
#
# 1 0.020989 -0.002088 -0.007736 0.000000 -0.002475 0.000000
# 2 -0.002088 0.025399 -0.010304 0.000000 -0.004498 0.000000
# 3 -0.007736 -0.010304 0.014560 0.000000 0.005082 0.000000
# 4 0.000000 0.000000 0.000000 0.200580 0.000000 -0.052264
# 5 -0.002475 -0.004498 0.005082 0.000000 0.036857 0.000000
# 6 0.000000 0.000000 0.000000 -0.052264 0.000000 0.080709
#
#
# Mechanical properties :
#
#
# Convention : Reuss Voigt Hill
#
# Bulk Modulus (GPa) = 48.32856 66.51027 57.41942
# Shear Modulus (GPa) = 11.73028 18.91078 15.32053
#
# Velocity S-wave (km/s) = 2.57016 3.26333 2.93726
# Velocity P-wave (km/s) = 6.00193 7.18702 6.62104
#
# Compressibility (1/GPa) = 0.02069170
#
# Stress axis : x y z
#
# Youngs Moduli (GPa) = 47.64400 39.37093 68.68218
#
# Poissons Ratio (x) = 0.08222 0.53131
# Poissons Ratio (y) = 0.09950 0.70771
# Poissons Ratio (z) = 0.36856 0.40568
#
# Static dielectric constant tensor:
#      x y z
#    x 3.211990 0.000000 -0.124820 
#    y 0.000000 3.070810 0.000000 
#    z -0.124820 0.000000 3.304730 
# 
# 
# High freq. dielectric constant tensor:
#      x y z
#    x 1.664040 0.000000 -0.004370 
#    y 0.000000 1.670060 0.000000 
#    z -0.004370 0.000000 1.690420 
# 
# From -- ./inp_files/37920.got.cif
#   From: 2010.06.25/outbox.cif.g09.slc.cpg/sg10_19_cif.got.tgz:37920.got - 2010.06.27 22:07:45.
