data_PCOD8058696
_publ_section_title
;
Structure prediction by ZEFSAII (Michael W. Deem and Ramdas Pophale) SiO2 
 PCOD8058696
Probable space group: P 2/M
;
_chemical_formula_sum "Si O2"
_cell_formula_units_Z 32
_cell_length_a 29.011576
_cell_length_b 8.940395
_cell_length_c 12.452995
_cell_angle_alpha 90.000000
_cell_angle_beta 30.178757
_cell_angle_gamma 90.000000
_cell_volume 1623.716757
_symmetry_space_group_name_H-M "P 2/M"
_symmetry_group_IT_number 10
_symmetry_cell_setting 'monoclinic'
loop_
_space_group_symop_operation_xyz
x,y,z
-x,y,-z
-x,-y,-z
x,-y,z
loop_
_atom_site_type_symbol
_atom_site_label
_atom_site_fract_x
_atom_site_fract_y
_atom_site_fract_z
Si Si1 0.205891 0.832331 0.132297
Si Si2 0.719248 0.822068 0.240674
Si Si3 0.963064 0.673832 0.459447
Si Si4 0.660439 0.167741 0.952380
Si Si5 0.202346 0.676641 0.483281
Si Si6 0.013957 0.172740 0.794513
Si Si7 0.479621 0.821765 0.421650
Si Si8 0.186503 0.174236 0.731874
O O1 0.143398 0.718988 0.326423
O O2 0.301307 0.836427 0.003173
O O3 0.162944 0.000000 0.215866
O O4 0.220866 0.768646 0.982183
O O5 0.616187 0.759322 0.433250
O O6 0.766510 0.761737 0.254304
O O7 0.717663 0.000000 0.244203
O O8 0.975523 0.500000 0.409429
O O9 0.015487 0.769717 0.264136
O O10 0.000000 0.722838 0.500000
O O11 0.718622 0.272907 0.757298
O O12 0.662105 0.000000 0.900003
O O13 0.556985 0.227735 0.178689
O O14 0.197801 0.500000 0.491973
O O15 0.101375 0.735750 0.657924
O O16 0.229373 0.735295 0.546794
O O17 0.042731 0.000000 0.732631
O O18 0.923941 0.196976 0.048352
O O19 0.500000 0.756039 0.500000
O O20 0.477374 0.000000 0.433700
O O21 0.209839 0.000000 0.671401
#
# Coordination Sequence:
#
# PCOD8058696 Si02
#       8
#     4   4   4   4   4   4   4   4
#     4  10  18  31  55  83 113 149 187 229 281 336
#     4   9  17  32  56  88 120 148 185 235 287 339
#     4  11  23  35  49  77 118 158 192 228 275 334
#     4  10  19  33  58  89 116 145 183 229 280 334
#     4  12  25  40  59  81 112 152 195 240 285 336
#     4  11  22  38  60  84 110 145 192 242 287 337
#     4   9  15  28  55  92 123 144 177 229 285 337
#     4  10  22  39  59  83 113 149 192 239 285 336
#
# _framework density 19.707871999999998
#
# number of rings (size 3 to 8) (size 9 to 14) (size 15 to 20)
#    0.000    1.750    2.500    3.000    0.000    4.500 
#    0.000    1.250    0.000    5.625    0.000    0.000 
#    0.000    0.000    0.000    0.000    0.000    0.000 
#
# Total GULP energy -396733.844684 kJ/mol
# GULP energy per Si atom -12397.932646 kJ/mol
# Density = 1.966302 g / cm^3
# Si number density = 19.707872 Si / 1000 Ang^3
#
#
#
# Elastic Constant Matrix: (Units=GPa)
#
#
# Indices 1 2 3 4 5 6 
#
# 1 77.3626 27.2357 37.8810 0.0000 15.5063 0.0000
# 2 27.2357 72.4193 38.6153 0.0000 10.8945 0.0000
# 3 37.8810 38.6153 96.9286 0.0000 10.4301 0.0000
# 4 0.0000 0.0000 0.0000 4.5239 0.0000 4.2313
# 5 15.5063 10.8945 10.4301 0.0000 34.3220 0.0000
# 6 0.0000 0.0000 0.0000 4.2313 0.0000 17.7127
#
#
#
# Elastic Compliance Matrix: (Units=1/GPa)
#
#
# Indices 1 2 3 4 5 6 
#
# 1 0.017578 -0.003102 -0.005050 0.000000 -0.005422 0.000000
# 2 -0.003102 0.018511 -0.005873 0.000000 -0.002690 0.000000
# 3 -0.005050 -0.005873 0.014664 0.000000 -0.000310 0.000000
# 4 0.000000 0.000000 0.000000 0.284652 0.000000 -0.068000
# 5 -0.005422 -0.002690 -0.000310 0.000000 0.032533 0.000000
# 6 0.000000 0.000000 0.000000 -0.068000 0.000000 0.072701
#
#
# Mechanical properties :
#
#
# Convention : Reuss Voigt Hill
#
# Bulk Modulus (GPa) = 44.04882 50.46383 47.25632
# Shear Modulus (GPa) = 10.49852 20.84362 15.67107
#
# Velocity S-wave (km/s) = 2.31055 3.25565 2.82293
# Velocity P-wave (km/s) = 5.43301 6.30824 5.88691
#
# Compressibility (1/GPa) = 0.02270208
#
# Stress axis : x y z
#
# Youngs Moduli (GPa) = 56.88923 54.02107 68.19548
#
# Poissons Ratio (x) = 0.16758 0.34441
# Poissons Ratio (y) = 0.17648 0.40051
# Poissons Ratio (z) = 0.28731 0.31726
#
# Static dielectric constant tensor:
#      x y z
#    x 3.788420 0.000000 0.029960 
#    y 0.000000 3.201680 0.000000 
#    z 0.029960 0.000000 3.645330 
# 
# 
# High freq. dielectric constant tensor:
#      x y z
#    x 1.766200 0.000000 0.006640 
#    y 0.000000 1.730050 0.000000 
#    z 0.006640 0.000000 1.772390 
# 
# From -- ./inp_files/58176.got.cif
#   From: 2010.06.25/outbox.cif.g09.slc.cpg/sg10_30_cif.got.tgz:58176.got - 2010.06.27 22:07:45.
