data_PCOD8058552
_publ_section_title
;
Structure prediction by ZEFSAII (Michael W. Deem and Ramdas Pophale) SiO2 
 PCOD8058552
Probable space group: P 2/M
;
_chemical_formula_sum "Si O2"
_cell_formula_units_Z 28
_cell_length_a 20.804705
_cell_length_b 9.204976
_cell_length_c 16.157978
_cell_angle_alpha 90.000000
_cell_angle_beta 152.425038
_cell_angle_gamma 90.000000
_cell_volume 1432.407547
_symmetry_space_group_name_H-M "P 2/M"
_symmetry_group_IT_number 10
_symmetry_cell_setting 'monoclinic'
loop_
_space_group_symop_operation_xyz
x,y,z
-x,y,-z
-x,-y,-z
x,-y,z
loop_
_atom_site_type_symbol
_atom_site_label
_atom_site_fract_x
_atom_site_fract_y
_atom_site_fract_z
Si Si1 0.462059 0.333135 0.717178
Si Si2 0.823471 0.334749 0.532898
Si Si3 0.267038 0.827499 0.990702
Si Si4 0.251914 0.163402 0.161204
Si Si5 0.976878 0.666929 0.381005
Si Si6 0.932396 0.164411 0.803492
Si Si7 0.703793 0.330864 0.635100
O O1 0.509236 0.500000 0.778411
O O2 0.339610 0.297268 0.643158
O O3 0.590322 0.230193 0.886696
O O4 0.411728 0.298294 0.566211
O O5 0.846339 0.500000 0.591493
O O6 0.916106 0.225881 0.692371
O O7 0.875336 0.318163 0.497849
O O8 0.263408 0.773072 0.081705
O O9 0.259007 0.000000 0.975620
O O10 0.138782 0.763017 0.794644
O O11 0.340038 0.259810 0.326958
O O12 0.310878 0.000000 0.230719
O O13 0.093159 0.166481 0.010368
O O14 0.926308 0.500000 0.323746
O O15 0.000000 0.724980 0.500000
O O16 0.849327 0.263589 0.772425
O O17 0.874263 0.000000 0.740497
O O18 0.725605 0.500000 0.674194
#
# Coordination Sequence:
#
# PCOD8058552 Si02
#       7
#     4   4   4   4   4   4   4
#     4   9  20  38  56  79 113 152 192 232 275 329
#     4   9  18  35  59  85 113 146 187 231 277 335
#     4  11  23  39  58  84 115 151 190 231 282 338
#     4  10  21  34  49  75 112 149 189 234 283 332
#     4  10  21  39  65  93 116 142 180 229 286 342
#     4  10  18  31  51  76 111 149 187 232 282 332
#     4  10  21  34  51  78 110 148 196 240 278 324
#
# _framework density 19.547509000000002
#
# number of rings (size 3 to 8) (size 9 to 14) (size 15 to 20)
#    0.000    2.143    1.429    2.571    0.000    7.714 
#    0.000    3.571    0.000    4.286    0.000    0.000 
#    0.000    0.000    0.000    0.000    0.000    0.000 
#
# Total GULP energy -347194.191029 kJ/mol
# GULP energy per Si atom -12399.792537 kJ/mol
# Density = 1.950302 g / cm^3
# Si number density = 19.547509 Si / 1000 Ang^3
#
#
#
# Elastic Constant Matrix: (Units=GPa)
#
#
# Indices 1 2 3 4 5 6 
#
# 1 106.1182 44.5005 65.8259 0.0000 -15.4843 0.0000
# 2 44.5005 86.3924 43.6860 0.0000 -2.5003 0.0000
# 3 65.8259 43.6860 72.5249 0.0000 3.4595 0.0000
# 4 0.0000 0.0000 0.0000 23.0536 0.0000 -3.9792
# 5 -15.4843 -2.5003 3.4595 0.0000 28.7316 0.0000
# 6 0.0000 0.0000 0.0000 -3.9792 0.0000 19.4068
#
#
#
# Elastic Compliance Matrix: (Units=1/GPa)
#
#
# Indices 1 2 3 4 5 6 
#
# 1 0.029264 -0.000918 -0.026911 0.000000 0.018931 0.000000
# 2 -0.000918 0.016880 -0.009436 0.000000 0.002110 0.000000
# 3 -0.026911 -0.009436 0.044886 0.000000 -0.020729 0.000000
# 4 0.000000 0.000000 0.000000 0.044969 0.000000 0.009221
# 5 0.018931 0.002110 -0.020729 0.000000 0.047687 0.000000
# 6 0.000000 0.000000 0.000000 0.009221 0.000000 0.053419
#
#
# Mechanical properties :
#
#
# Convention : Reuss Voigt Hill
#
# Bulk Modulus (GPa) = 60.60122 63.67339 62.13730
# Shear Modulus (GPa) = 15.76621 21.63993 18.70307
#
# Velocity S-wave (km/s) = 2.84308 3.33084 3.09658
# Velocity P-wave (km/s) = 6.46891 6.88745 6.68146
#
# Compressibility (1/GPa) = 0.01650132
#
# Stress axis : x y z
#
# Youngs Moduli (GPa) = 34.17197 59.24088 22.27865
#
# Poissons Ratio (x) = 0.05437 0.59954
# Poissons Ratio (y) = 0.03136 0.21021
# Poissons Ratio (z) = 0.91960 0.55898
#
# Static dielectric constant tensor:
#      x y z
#    x 3.630050 0.000000 -0.002810 
#    y 0.000000 3.588820 0.000000 
#    z -0.002810 0.000000 3.282630 
# 
# 
# High freq. dielectric constant tensor:
#      x y z
#    x 1.762200 0.000000 0.008160 
#    y 0.000000 1.761880 0.000000 
#    z 0.008160 0.000000 1.736370 
# 
# From -- ./inp_files/63375.got.cif
#   From: 2010.06.25/outbox.cif.g09.slc.cpg/sg10_32_cif.got.tgz:63375.got - 2010.06.27 22:07:45.
