data_PCOD8058549
_publ_section_title
;
Structure prediction by ZEFSAII (Michael W. Deem and Ramdas Pophale) SiO2 
 PCOD8058549
Probable space group: P 2/M
;
_chemical_formula_sum "Si O2"
_cell_formula_units_Z 28
_cell_length_a 10.076086
_cell_length_b 9.158945
_cell_length_c 30.218500
_cell_angle_alpha 90.000000
_cell_angle_beta 146.811940
_cell_angle_gamma 90.000000
_cell_volume 1526.532853
_symmetry_space_group_name_H-M "P 2/M"
_symmetry_group_IT_number 10
_symmetry_cell_setting 'monoclinic'
loop_
_space_group_symop_operation_xyz
x,y,z
-x,y,-z
-x,-y,-z
x,-y,z
loop_
_atom_site_type_symbol
_atom_site_label
_atom_site_fract_x
_atom_site_fract_y
_atom_site_fract_z
Si Si1 0.434967 0.830929 0.686534
Si Si2 0.455850 0.331250 0.842289
Si Si3 0.911561 0.672314 0.670683
Si Si4 0.160848 0.834965 0.001155
Si Si5 0.503432 0.168166 0.398160
Si Si6 0.232551 0.329901 0.156999
Si Si7 0.077080 0.828991 0.417114
O O1 0.414681 0.802460 0.628903
O O2 0.656679 0.737242 0.767547
O O3 0.184927 0.778013 0.638819
O O4 0.483804 0.000000 0.710900
O O5 0.485015 0.500000 0.863034
O O6 0.580431 0.238527 0.916126
O O7 0.579441 0.297970 0.829851
O O8 0.178145 0.282286 0.761493
O O9 0.887823 0.500000 0.658969
O O10 0.725409 0.730823 0.655079
O O11 0.850744 0.743504 0.606725
O O12 0.204111 0.000000 0.997172
O O13 0.000000 0.828919 0.000000
O O14 0.025133 0.746277 0.924661
O O15 0.728570 0.212534 0.491497
O O16 0.429751 0.000000 0.385009
O O17 0.184478 0.500000 0.150567
O O18 0.080485 0.000000 0.407471
#
# Coordination Sequence:
#
# PCOD8058549 Si02
#       7
#     4   4   4   4   4   4   4
#     4  10  20  35  56  79 106 139 180 226 267 314
#     4   9  18  32  49  73 106 140 173 212 261 314
#     4  11  22  36  54  79 110 143 179 220 265 317
#     4   9  17  28  47  77 107 134 171 216 260 308
#     4  10  22  38  54  77 107 142 181 222 271 320
#     4  10  18  31  51  76 108 141 173 212 264 318
#     4  10  20  36  58  79 103 138 181 227 272 316
#
# _framework density 18.342220000000001
#
# number of rings (size 3 to 8) (size 9 to 14) (size 15 to 20)
#    0.000    2.143    1.429    2.143    0.000    8.000 
#    0.000    0.000    0.000    3.429    0.000    6.000 
#    0.000    0.000    0.000    0.000    0.000    0.000 
#
# Total GULP energy -347313.236591 kJ/mol
# GULP energy per Si atom -12404.044164 kJ/mol
# Density = 1.830047 g / cm^3
# Si number density = 18.342220 Si / 1000 Ang^3
#
#
#
# Elastic Constant Matrix: (Units=GPa)
#
#
# Indices 1 2 3 4 5 6 
#
# 1 42.3046 17.6565 12.9244 0.0000 1.0890 0.0000
# 2 17.6565 78.7590 55.0591 0.0000 3.6339 0.0000
# 3 12.9244 55.0591 127.4082 0.0000 5.1578 0.0000
# 4 0.0000 0.0000 0.0000 30.3404 0.0000 5.9161
# 5 1.0890 3.6339 5.1578 0.0000 8.6869 0.0000
# 6 0.0000 0.0000 0.0000 5.9161 0.0000 19.2748
#
#
#
# Elastic Compliance Matrix: (Units=1/GPa)
#
#
# Indices 1 2 3 4 5 6 
#
# 1 0.026086 -0.005709 -0.000147 0.000000 -0.000795 0.000000
# 2 -0.005709 0.019520 -0.007741 0.000000 -0.002854 0.000000
# 3 -0.000147 -0.007741 0.011350 0.000000 -0.003482 0.000000
# 4 0.000000 0.000000 0.000000 0.035058 0.000000 -0.010760
# 5 -0.000795 -0.002854 -0.003482 0.000000 0.118477 0.000000
# 6 0.000000 0.000000 0.000000 -0.010760 0.000000 0.055184
#
#
# Mechanical properties :
#
#
# Convention : Reuss Voigt Hill
#
# Bulk Modulus (GPa) = 33.59902 46.63911 40.11906
# Shear Modulus (GPa) = 16.51320 22.51587 19.51454
#
# Velocity S-wave (km/s) = 3.00373 3.50743 3.26531
# Velocity P-wave (km/s) = 5.51248 6.47188 6.01135
#
# Compressibility (1/GPa) = 0.02976277
#
# Stress axis : x y z
#
# Youngs Moduli (GPa) = 38.33469 51.22975 88.10678
#
# Poissons Ratio (x) = 0.29245 0.01296
# Poissons Ratio (y) = 0.21884 0.68202
# Poissons Ratio (z) = 0.00564 0.39656
#
# Static dielectric constant tensor:
#      x y z
#    x 3.086280 0.000000 0.068170 
#    y 0.000000 3.381080 0.000000 
#    z 0.068170 0.000000 3.513510 
# 
# 
# High freq. dielectric constant tensor:
#      x y z
#    x 1.676300 0.000000 0.003110 
#    y 0.000000 1.712750 0.000000 
#    z 0.003110 0.000000 1.726330 
# 
# From -- ./inp_files/37038.got.cif
#   From: 2010.06.25/outbox.cif.g09.slc.cpg/sg10_19_cif.got.tgz:37038.got - 2010.06.27 22:07:45.
