data_PCOD8058907
_publ_section_title
;
Structure prediction by ZEFSAII (Michael W. Deem and Ramdas Pophale) SiO2 
 PCOD8058907
Probable space group: P 2/M
;
_chemical_formula_sum "Si O2"
_cell_formula_units_Z 24
_cell_length_a 9.650313
_cell_length_b 8.924532
_cell_length_c 22.169374
_cell_angle_alpha 90.000000
_cell_angle_beta 135.872728
_cell_angle_gamma 90.000000
_cell_volume 1329.377482
_symmetry_space_group_name_H-M "P 2/M"
_symmetry_group_IT_number 10
_symmetry_cell_setting 'monoclinic'
loop_
_space_group_symop_operation_xyz
x,y,z
-x,y,-z
-x,-y,-z
x,-y,z
loop_
_atom_site_type_symbol
_atom_site_label
_atom_site_fract_x
_atom_site_fract_y
_atom_site_fract_z
Si Si1 0.942699 0.823342 0.280309
Si Si2 0.286086 0.326574 0.462558
Si Si3 0.857724 0.677058 0.904449
Si Si4 0.439879 0.323174 0.635408
Si Si5 0.406596 0.677486 0.758615
Si Si6 0.885852 0.322900 0.778373
O O1 0.734748 0.763955 0.240254
O O2 0.122984 0.772108 0.378909
O O3 0.964308 0.760642 0.219479
O O4 0.938013 0.000000 0.276808
O O5 0.500000 0.300905 0.500000
O O6 0.221695 0.500000 0.437355
O O7 0.297186 0.272729 0.535995
O O8 0.856404 0.500000 0.910299
O O9 0.631252 0.731973 0.842450
O O10 0.941381 0.720246 0.864524
O O11 0.000000 0.749802 0.000000
O O12 0.464062 0.500000 0.642570
O O13 0.351107 0.274300 0.672372
O O14 0.663334 0.261612 0.695428
O O15 0.381195 0.500000 0.759461
O O16 0.902758 0.500000 0.772388
#
# Coordination Sequence:
#
# PCOD8058907 Si02
#       6
#     4   4   4   4   4   4
#     4  12  24  34  46  72 110 143 176 212 252 295
#     4  10  18  32  55  76  99 131 177 220 256 303
#     4   8  15  31  60  91 106 118 159 222 268 304
#     4   8  15  30  53  77  95 127 176 217 247 299
#     4   9  18  34  55  76 104 136 168 206 260 313
#     4   9  16  32  56  78 102 133 170 208 258 312
#
# _framework density 18.053563
#
# number of rings (size 3 to 8) (size 9 to 14) (size 15 to 20)
#    0.000    2.667    1.667    3.500    0.000    1.000 
#    0.000    8.333    0.000    7.000    0.000    0.000 
#    0.000    0.000    0.000    0.000    0.000    0.000 
#
# Total GULP energy -297487.281597 kJ/mol
# GULP energy per Si atom -12395.303400 kJ/mol
# Density = 1.801247 g / cm^3
# Si number density = 18.053563 Si / 1000 Ang^3
#
#
#
# Elastic Constant Matrix: (Units=GPa)
#
#
# Indices 1 2 3 4 5 6 
#
# 1 145.0952 52.5461 69.2685 0.0000 -18.3937 0.0000
# 2 52.5461 67.5707 38.0342 0.0000 -4.8817 0.0000
# 3 69.2685 38.0342 126.3589 0.0000 -17.3697 0.0000
# 4 0.0000 0.0000 0.0000 3.9560 0.0000 -3.1491
# 5 -18.3937 -4.8817 -17.3697 0.0000 20.1805 0.0000
# 6 0.0000 0.0000 0.0000 -3.1491 0.0000 -4.2093
#
#
#
# Elastic Compliance Matrix: (Units=1/GPa)
#
#
# Indices 1 2 3 4 5 6 
#
# 1 0.011820 -0.006713 -0.003631 0.000000 0.006025 0.000000
# 2 -0.006713 0.021633 -0.003350 0.000000 -0.003769 0.000000
# 3 -0.003631 -0.003350 0.011735 0.000000 0.005981 0.000000
# 4 0.000000 0.000000 0.000000 0.158428 0.000000 -0.118526
# 5 0.006025 -0.003769 0.005981 0.000000 0.059280 0.000000
# 6 0.000000 0.000000 0.000000 -0.118526 0.000000 -0.148895
#
#
# Mechanical properties :
#
#
# Convention : Reuss Voigt Hill
#
# Bulk Modulus (GPa) = 56.17723 73.19136 64.68430
# Shear Modulus (GPa) = 33.93966 15.93053 24.93510
#
# Velocity S-wave (km/s) = 4.34053 2.97375 3.72045
# Velocity P-wave (km/s) = 7.50366 7.24018 7.37309
#
# Compressibility (1/GPa) = 0.01780081
#
# Stress axis : x y z
#
# Youngs Moduli (GPa) = 84.60052 46.22630 85.21695
#
# Poissons Ratio (x) = 0.31031 0.30942
# Poissons Ratio (y) = 0.56792 0.28544
# Poissons Ratio (z) = 0.30718 0.15484
#
# Static dielectric constant tensor:
#      x y z
#    x 3.434000 0.000000 -0.263190 
#    y 0.000000 2.870030 0.000000 
#    z -0.263190 0.000000 3.881450 
# 
# 
# High freq. dielectric constant tensor:
#      x y z
#    x 1.703480 0.000000 -0.015210 
#    y 0.000000 1.651470 0.000000 
#    z -0.015210 0.000000 1.694250 
# 
# From -- ./inp_files/27196.got.cif
#   From: 2010.06.25/outbox.cif.g09.slc.cpg/sg10_14_cif.got.tgz:27196.got - 2010.06.27 22:07:45.
