data_PCOD8058755
_publ_section_title
;
Structure prediction by ZEFSAII (Michael W. Deem and Ramdas Pophale) SiO2 
 PCOD8058755
Probable space group: P 2/M
;
_chemical_formula_sum "Si O2"
_cell_formula_units_Z 32
_cell_length_a 12.364821
_cell_length_b 8.918006
_cell_length_c 23.639857
_cell_angle_alpha 90.000000
_cell_angle_beta 45.737065
_cell_angle_gamma 90.000000
_cell_volume 1866.813939
_symmetry_space_group_name_H-M "P 2/M"
_symmetry_group_IT_number 10
_symmetry_cell_setting 'monoclinic'
loop_
_space_group_symop_operation_xyz
x,y,z
-x,y,-z
-x,-y,-z
x,-y,z
loop_
_atom_site_type_symbol
_atom_site_label
_atom_site_fract_x
_atom_site_fract_y
_atom_site_fract_z
Si Si1 0.326472 0.326523 0.415060
Si Si2 0.588980 0.323847 0.839209
Si Si3 0.447911 0.825520 0.582187
Si Si4 0.140947 0.326065 0.678869
Si Si5 0.965432 0.327166 0.405478
Si Si6 0.721623 0.822965 0.683766
Si Si7 0.174257 0.672388 0.152325
Si Si8 0.375205 0.831142 0.997201
O O1 0.355581 0.500000 0.390705
O O2 0.450870 0.271634 0.413359
O O3 0.160183 0.303442 0.501136
O O4 0.342012 0.231034 0.352824
O O5 0.578319 0.500000 0.833522
O O6 0.612188 0.244432 0.771067
O O7 0.729951 0.278740 0.827614
O O8 0.431822 0.266045 0.923359
O O9 0.500000 0.788661 0.500000
O O10 0.275267 0.775737 0.653195
O O11 0.464903 0.000000 0.590634
O O12 0.189802 0.500000 0.660298
O O13 0.098785 0.273005 0.631191
O O14 0.000866 0.298238 0.771731
O O15 0.018434 0.500000 0.381926
O O16 0.106883 0.228106 0.370849
O O17 0.714256 0.000000 0.689703
O O18 0.209063 0.500000 0.126413
O O19 0.220630 0.765251 0.079655
O O20 0.345725 0.000000 0.987514
O O21 0.500000 0.822836 0.000000
#
# Coordination Sequence:
#
# PCOD8058755 Si02
#       8
#     4   4   4   4   4   4   4   4
#     4  11  23  39  58  74  98 139 185 223 259 310
#     4  10  18  32  51  72 102 140 179 211 251 308
#     4  11  23  37  54  78 106 134 171 222 276 317
#     4  10  19  34  55  78 103 138 182 219 257 309
#     4  10  20  36  55  76 102 138 181 218 256 311
#     4  12  24  35  51  77 110 140 173 218 269 316
#     4   9  17  30  49  73 102 136 175 215 253 304
#     4   9  17  28  44  71 105 137 169 207 258 312
#
# _framework density 17.141504000000001
#
# number of rings (size 3 to 8) (size 9 to 14) (size 15 to 20)
#    0.000    1.750    2.500    3.000    0.000    6.000 
#    0.000    0.000    0.000    0.000    0.000    0.875 
#    0.000    7.000    0.000    0.000    0.000    0.000 
#
# Total GULP energy -396932.563497 kJ/mol
# GULP energy per Si atom -12404.142609 kJ/mol
# Density = 1.710249 g / cm^3
# Si number density = 17.141504 Si / 1000 Ang^3
#
#
#
# Elastic Constant Matrix: (Units=GPa)
#
#
# Indices 1 2 3 4 5 6 
#
# 1 51.9347 34.8843 35.1518 0.0000 6.0023 0.0000
# 2 34.8843 97.2752 56.4513 0.0000 4.9824 0.0000
# 3 35.1518 56.4513 109.4084 0.0000 3.9291 0.0000
# 4 0.0000 0.0000 0.0000 26.8069 0.0000 3.2289
# 5 6.0023 4.9824 3.9291 0.0000 18.3160 0.0000
# 6 0.0000 0.0000 0.0000 3.2289 0.0000 23.1886
#
#
#
# Elastic Compliance Matrix: (Units=1/GPa)
#
#
# Indices 1 2 3 4 5 6 
#
# 1 0.028064 -0.006626 -0.005374 0.000000 -0.006242 0.000000
# 2 -0.006626 0.016342 -0.006270 0.000000 -0.000929 0.000000
# 3 -0.005374 -0.006270 0.014086 0.000000 0.000445 0.000000
# 4 0.000000 0.000000 0.000000 0.037940 0.000000 -0.005283
# 5 -0.006242 -0.000929 0.000445 0.000000 0.056800 0.000000
# 6 0.000000 0.000000 0.000000 -0.005283 0.000000 0.043860
#
#
# Mechanical properties :
#
#
# Convention : Reuss Voigt Hill
#
# Bulk Modulus (GPa) = 45.55204 56.84366 51.19785
# Shear Modulus (GPa) = 20.75121 22.47103 21.61112
#
# Velocity S-wave (km/s) = 3.48312 3.62458 3.55455
# Velocity P-wave (km/s) = 6.54278 7.12392 6.83952
#
# Compressibility (1/GPa) = 0.02195291
#
# Stress axis : x y z
#
# Youngs Moduli (GPa) = 35.63264 61.19017 70.99378
#
# Poissons Ratio (x) = 0.40544 0.38151
# Poissons Ratio (y) = 0.23610 0.44513
# Poissons Ratio (z) = 0.19148 0.38366
#
# Static dielectric constant tensor:
#      x y z
#    x 2.906570 0.000000 -0.005070 
#    y 0.000000 3.256860 0.000000 
#    z -0.005070 0.000000 3.321240 
# 
# 
# High freq. dielectric constant tensor:
#      x y z
#    x 1.623470 0.000000 -0.002370 
#    y 0.000000 1.670260 0.000000 
#    z -0.002370 0.000000 1.669180 
# 
# From -- ./inp_files/49967.got.cif
#   From: 2010.06.25/outbox.cif.g09.slc.cpg/sg10_25_cif.got.tgz:49967.got - 2010.06.27 22:07:45.
