data_PCOD8058108
_publ_section_title
;
Structure prediction by ZEFSAII (Michael W. Deem and Ramdas Pophale) SiO2 
 PCOD8058108
Probable space group: P 2/M
;
_chemical_formula_sum "Si O2"
_cell_formula_units_Z 24
_cell_length_a 11.852260
_cell_length_b 9.252600
_cell_length_c 21.061174
_cell_angle_alpha 90.000000
_cell_angle_beta 38.338505
_cell_angle_gamma 90.000000
_cell_volume 1432.694917
_symmetry_space_group_name_H-M "P 2/M"
_symmetry_group_IT_number 10
_symmetry_cell_setting 'monoclinic'
loop_
_space_group_symop_operation_xyz
x,y,z
-x,y,-z
-x,-y,-z
x,-y,z
loop_
_atom_site_type_symbol
_atom_site_label
_atom_site_fract_x
_atom_site_fract_y
_atom_site_fract_z
Si Si1 0.864931 0.169547 0.114102
Si Si2 0.444817 0.663249 0.415856
Si Si3 0.136125 0.665442 0.758811
Si Si4 0.450536 0.830332 0.289101
Si Si5 0.094857 0.331253 0.640526
Si Si6 0.878724 0.671347 0.614618
O O1 0.924642 0.242682 0.153751
O O2 0.660860 0.211586 0.182765
O O3 0.883350 0.000000 0.117033
O O4 0.000000 0.225485 0.000000
O O5 0.406337 0.500000 0.406854
O O6 0.649391 0.677582 0.349062
O O7 0.399366 0.778084 0.381674
O O8 0.307945 0.699546 0.533421
O O9 0.079543 0.500000 0.796729
O O10 0.046064 0.727815 0.733074
O O11 0.318470 0.747278 0.298937
O O12 0.417570 0.000000 0.297500
O O13 0.058623 0.500000 0.659099
O O14 0.972591 0.267380 0.637507
O O15 0.852008 0.500000 0.628208
O O16 0.000000 0.716037 0.500000
#
# Coordination Sequence:
#
# PCOD8058108 Si02
#       6
#     4   4   4   4   4   4
#     4   9  19  36  54  69  90 121 153 193 247 294
#     4   9  15  27  45  65  93 128 158 182 223 280
#     4   9  17  28  47  73  95 116 152 199 235 270
#     4  10  19  30  46  70  95 119 157 202 235 265
#     4   9  16  27  44  67  96 129 158 184 221 273
#     4  10  18  30  47  66  95 135 167 184 214 274
#
# _framework density 16.751646999999998
#
# number of rings (size 3 to 8) (size 9 to 14) (size 15 to 20)
#    0.000    2.667    1.667    1.000    0.000    3.333 
#    0.000    1.667    0.000    5.000    0.000    7.000 
#    0.000    0.000    0.000    0.000    0.000    0.000 
#
# Total GULP energy -297423.015569 kJ/mol
# GULP energy per Si atom -12392.625649 kJ/mol
# Density = 1.671352 g / cm^3
# Si number density = 16.751647 Si / 1000 Ang^3
#
#
#
# Elastic Constant Matrix: (Units=GPa)
#
#
# Indices 1 2 3 4 5 6 
#
# 1 119.7701 35.5996 64.9279 0.0000 22.0610 0.0000
# 2 35.5996 37.0001 31.6756 0.0000 4.5168 0.0000
# 3 64.9279 31.6756 98.0292 0.0000 19.1120 0.0000
# 4 0.0000 0.0000 0.0000 20.0481 0.0000 -3.5307
# 5 22.0610 4.5168 19.1120 0.0000 21.3842 0.0000
# 6 0.0000 0.0000 0.0000 -3.5307 0.0000 12.6863
#
#
#
# Elastic Compliance Matrix: (Units=1/GPa)
#
#
# Indices 1 2 3 4 5 6 
#
# 1 0.015942 -0.009288 -0.005733 0.000000 -0.009361 0.000000
# 2 -0.009288 0.042993 -0.009492 0.000000 0.008984 0.000000
# 3 -0.005733 -0.009492 0.018796 0.000000 -0.008880 0.000000
# 4 0.000000 0.000000 0.000000 0.052451 0.000000 0.014598
# 5 -0.009361 0.008984 -0.008880 0.000000 0.062460 0.000000
# 6 0.000000 0.000000 0.000000 0.014598 0.000000 0.082888
#
#
# Mechanical properties :
#
#
# Convention : Reuss Voigt Hill
#
# Bulk Modulus (GPa) = 34.83604 57.68952 46.26278
# Shear Modulus (GPa) = 14.96454 18.99680 16.98067
#
# Velocity S-wave (km/s) = 2.99208 3.37118 3.18728
# Velocity P-wave (km/s) = 5.72516 7.04741 6.42042
#
# Compressibility (1/GPa) = 0.02870590
#
# Stress axis : x y z
#
# Youngs Moduli (GPa) = 62.72732 23.25983 53.20216
#
# Poissons Ratio (x) = 0.21604 0.30499
# Poissons Ratio (y) = 0.58262 0.50498
# Poissons Ratio (z) = 0.35959 0.22078
#
# Static dielectric constant tensor:
#      x y z
#    x 3.440480 0.000000 0.041300 
#    y 0.000000 2.956640 0.000000 
#    z 0.041300 0.000000 2.996850 
# 
# 
# High freq. dielectric constant tensor:
#      x y z
#    x 1.649300 0.000000 0.005250 
#    y 0.000000 1.623580 0.000000 
#    z 0.005250 0.000000 1.616570 
# 
# From -- ./inp_files/48507.got.cif
#   From: 2010.06.25/outbox.cif.g09.slc.cpg/sg10_25_cif.got.tgz:48507.got - 2010.06.27 22:07:45.
