data_PCOD8058554
_publ_section_title
;
Structure prediction by ZEFSAII (Michael W. Deem and Ramdas Pophale) SiO2 
 PCOD8058554
Probable space group: P 2/M
;
_chemical_formula_sum "Si O2"
_cell_formula_units_Z 30
_cell_length_a 10.443421
_cell_length_b 18.731129
_cell_length_c 9.121023
_cell_angle_alpha 90.000000
_cell_angle_beta 66.913043
_cell_angle_gamma 90.000000
_cell_volume 1641.330360
_symmetry_space_group_name_H-M "P 2/M"
_symmetry_group_IT_number 10
_symmetry_cell_setting 'monoclinic'
loop_
_space_group_symop_operation_xyz
x,y,z
-x,y,-z
-x,-y,-z
x,-y,z
loop_
_atom_site_type_symbol
_atom_site_label
_atom_site_fract_x
_atom_site_fract_y
_atom_site_fract_z
Si Si1 0.943124 0.706657 0.274778
Si Si2 0.500000 0.281643 0.500000
Si Si3 0.906824 0.421650 0.683336
Si Si4 0.224010 0.789629 0.161867
Si Si5 0.878325 0.921343 0.156997
Si Si6 0.923408 0.079288 0.672644
Si Si7 0.721491 0.217545 0.191615
Si Si8 0.274048 0.686367 0.383162
O O1 0.843391 0.726177 0.182782
O O2 0.859648 0.712099 0.464880
O O3 0.011268 0.627018 0.233159
O O4 0.065417 0.763522 0.224708
O O5 0.584705 0.233243 0.347702
O O6 0.600334 0.329701 0.558790
O O7 0.873765 0.500000 0.766539
O O8 0.762701 0.384007 0.695729
O O9 0.000000 0.432456 0.500000
O O10 0.206002 0.873582 0.207971
O O11 0.310243 0.749503 0.251304
O O12 0.303103 0.775893 0.972199
O O13 0.754505 0.864532 0.213666
O O14 0.943656 0.928809 0.284796
O O15 0.826178 0.000000 0.124882
O O16 0.000000 0.890255 0.000000
O O17 0.000000 0.115103 0.500000
O O18 0.861948 0.000000 0.667496
#
# Coordination Sequence:
#
# PCOD8058554 Si02
#       8
#     4   2   4   4   4   4   4   4
#     4   9  16  29  50  80 105 129 157 203 257 307
#     4  10  24  38  48  68  96 138 184 216 244 290
#     4   8  14  27  51  82 109 132 159 199 256 308
#     4  11  18  29  53  76  99 129 165 214 267 302
#     4  10  18  31  51  77 105 131 163 210 266 311
#     4  10  19  28  45  79 110 128 155 200 264 320
#     4  11  20  33  50  72 104 137 175 210 249 299
#     4   9  19  33  51  72 104 135 169 208 245 298
#
# _framework density 18.277856
#
# number of rings (size 3 to 8) (size 9 to 14) (size 15 to 20)
#    0.000    2.267    2.667    2.400    1.867    0.533 
#    0.000    0.667    0.000    8.000    0.000    5.600 
#    0.000    0.000    0.000    0.000    0.000    0.000 
#
# Total GULP energy -371684.905684 kJ/mol
# GULP energy per Si atom -12389.496856 kJ/mol
# Density = 1.823625 g / cm^3
# Si number density = 18.277856 Si / 1000 Ang^3
#
#
#
# Elastic Constant Matrix: (Units=GPa)
#
#
# Indices 1 2 3 4 5 6 
#
# 1 71.7717 31.5456 26.5279 0.0000 5.5521 0.0000
# 2 31.5456 121.3463 27.9189 0.0000 4.5991 0.0000
# 3 26.5279 27.9189 96.1735 0.0000 6.8598 0.0000
# 4 0.0000 0.0000 0.0000 15.2027 0.0000 3.7650
# 5 5.5521 4.5991 6.8598 0.0000 26.0005 0.0000
# 6 0.0000 0.0000 0.0000 3.7650 0.0000 14.8246
#
#
#
# Elastic Compliance Matrix: (Units=1/GPa)
#
#
# Indices 1 2 3 4 5 6 
#
# 1 0.016934 -0.003518 -0.003502 0.000000 -0.002070 0.000000
# 2 -0.003518 0.009582 -0.001777 0.000000 -0.000475 0.000000
# 3 -0.003502 -0.001777 0.012030 0.000000 -0.002112 0.000000
# 4 0.000000 0.000000 0.000000 0.070193 0.000000 -0.017827
# 5 -0.002070 -0.000475 -0.002112 0.000000 0.039544 0.000000
# 6 0.000000 0.000000 0.000000 -0.017827 0.000000 0.071983
#
#
# Mechanical properties :
#
#
# Convention : Reuss Voigt Hill
#
# Bulk Modulus (GPa) = 47.72889 51.25293 49.49091
# Shear Modulus (GPa) = 20.42108 24.75884 22.58996
#
# Velocity S-wave (km/s) = 3.34617 3.68446 3.51938
# Velocity P-wave (km/s) = 6.41083 6.79722 6.60685
#
# Compressibility (1/GPa) = 0.02095167
#
# Stress axis : x y z
#
# Youngs Moduli (GPa) = 59.05327 104.35824 83.12220
#
# Poissons Ratio (x) = 0.36713 0.29110
# Poissons Ratio (y) = 0.20775 0.14775
# Poissons Ratio (z) = 0.20681 0.18549
#
# Static dielectric constant tensor:
#      x y z
#    x 3.023890 0.000000 0.121650 
#    y 0.000000 3.630230 0.000000 
#    z 0.121650 0.000000 3.350000 
# 
# 
# High freq. dielectric constant tensor:
#      x y z
#    x 1.668410 0.000000 0.019320 
#    y 0.000000 1.699160 0.000000 
#    z 0.019320 0.000000 1.706490 
# 
# From -- ./inp_files/25676.got.cif
#   From: 2010.06.25/outbox.cif.g09.slc.cpg/sg10_13_cif.got.tgz:25676.got - 2010.06.27 22:07:45.
