data_PCOD8058191
_publ_section_title
;
Structure prediction by ZEFSAII (Michael W. Deem and Ramdas Pophale) SiO2 
 PCOD8058191
Probable space group: P 2/M
;
_chemical_formula_sum "Si O2"
_cell_formula_units_Z 32
_cell_length_a 21.668563
_cell_length_b 9.292906
_cell_length_c 14.804771
_cell_angle_alpha 90.000000
_cell_angle_beta 145.523651
_cell_angle_gamma 90.000000
_cell_volume 1687.525792
_symmetry_space_group_name_H-M "P 2/M"
_symmetry_group_IT_number 10
_symmetry_cell_setting 'monoclinic'
loop_
_space_group_symop_operation_xyz
x,y,z
-x,y,-z
-x,-y,-z
x,-y,z
loop_
_atom_site_type_symbol
_atom_site_label
_atom_site_fract_x
_atom_site_fract_y
_atom_site_fract_z
Si Si1 0.333231 0.669456 0.135011
Si Si2 0.138857 0.668432 0.028160
Si Si3 0.544266 0.838097 0.394259
Si Si4 0.745597 0.662747 0.345972
Si Si5 0.449927 0.162932 0.811689
Si Si6 0.212979 0.829190 0.288423
Si Si7 0.658680 0.665178 0.058111
Si Si8 0.897648 0.664936 0.685630
O O1 0.346814 0.500000 0.157793
O O2 0.233358 0.723243 0.075337
O O3 0.445335 0.737788 0.308091
O O4 0.307264 0.720311 0.000604
O O5 0.151013 0.500000 0.065410
O O6 0.141818 0.757870 0.123935
O O7 0.024835 0.703622 0.842435
O O8 0.558565 0.826036 0.305313
O O9 0.659950 0.789673 0.576224
O O10 0.515437 0.000000 0.389351
O O11 0.705009 0.500000 0.315981
O O12 0.658623 0.772220 0.279163
O O13 0.756299 0.685064 0.249652
O O14 0.859653 0.689439 0.535682
O O15 0.461031 0.000000 0.858485
O O16 0.556139 0.247671 0.974070
O O17 0.173023 0.766735 0.335316
O O18 0.195596 0.000000 0.268994
O O19 0.622509 0.500000 0.006183
O O20 0.878429 0.500000 0.692894
#
# Coordination Sequence:
#
# PCOD8058191 Si02
#       8
#     4   4   4   4   4   4   4   4
#     4   9  19  36  56  76 105 142 179 216 255 308
#     4  10  22  39  56  77 104 139 181 221 262 311
#     4   9  19  34  52  77 109 138 168 214 265 314
#     4  10  19  31  50  76 105 138 174 212 258 310
#     4  10  18  30  48  74 108 141 171 209 260 312
#     4  11  22  37  57  82 108 135 172 219 270 319
#     4   9  18  32  50  75 105 138 176 213 253 307
#     4  10  21  37  56  78 108 141 174 217 266 313
#
# _framework density 18.962674
#
# number of rings (size 3 to 8) (size 9 to 14) (size 15 to 20)
#    0.000    2.250    1.250    1.500    0.000    6.500 
#    0.000    3.125    0.000    3.750    0.000    0.000 
#    0.000    7.000    0.000    0.000    0.000    0.000 
#
# Total GULP energy -396728.850678 kJ/mol
# GULP energy per Si atom -12397.776584 kJ/mol
# Density = 1.891951 g / cm^3
# Si number density = 18.962674 Si / 1000 Ang^3
#
#
#
# Elastic Constant Matrix: (Units=GPa)
#
#
# Indices 1 2 3 4 5 6 
#
# 1 47.6601 20.6994 20.5757 0.0000 11.4136 0.0000
# 2 20.6994 57.8472 28.9223 0.0000 2.3636 0.0000
# 3 20.5757 28.9223 113.8006 0.0000 -3.1827 0.0000
# 4 0.0000 0.0000 0.0000 17.2597 0.0000 -1.2699
# 5 11.4136 2.3636 -3.1827 0.0000 18.4428 0.0000
# 6 0.0000 0.0000 0.0000 -1.2699 0.0000 11.0767
#
#
#
# Elastic Compliance Matrix: (Units=1/GPa)
#
#
# Indices 1 2 3 4 5 6 
#
# 1 0.030755 -0.008250 -0.003986 0.000000 -0.018664 0.000000
# 2 -0.008250 0.022234 -0.004116 0.000000 0.001546 0.000000
# 3 -0.003986 -0.004116 0.010689 0.000000 0.004839 0.000000
# 4 0.000000 0.000000 0.000000 0.058431 0.000000 0.006699
# 5 -0.018664 0.001546 0.004839 0.000000 0.066409 0.000000
# 6 0.000000 0.000000 0.000000 0.006699 0.000000 0.091047
#
#
# Mechanical properties :
#
#
# Convention : Reuss Voigt Hill
#
# Bulk Modulus (GPa) = 32.28388 39.96698 36.12543
# Shear Modulus (GPa) = 15.49938 19.29656 17.39797
#
# Velocity S-wave (km/s) = 2.86206 3.19346 3.03229
# Velocity P-wave (km/s) = 5.28997 5.89237 5.59927
#
# Compressibility (1/GPa) = 0.03097521
#
# Stress axis : x y z
#
# Youngs Moduli (GPa) = 32.51477 44.97714 93.55095
#
# Poissons Ratio (x) = 0.37104 0.37290
# Poissons Ratio (y) = 0.26823 0.38504
# Poissons Ratio (z) = 0.12961 0.18512
#
# Static dielectric constant tensor:
#      x y z
#    x 3.369010 0.000000 -0.157460 
#    y 0.000000 3.482480 0.000000 
#    z -0.157460 0.000000 3.753290 
# 
# 
# High freq. dielectric constant tensor:
#      x y z
#    x 1.715020 0.000000 -0.014340 
#    y 0.000000 1.732680 0.000000 
#    z -0.014340 0.000000 1.745590 
# 
# From -- ./inp_files/71414.got.cif
#   From: 2010.06.25/outbox.cif.g09.slc.cpg/sg10_36_cif.got.tgz:71414.got - 2010.06.27 22:07:45.
