data_PCOD8058842
_publ_section_title
;
Structure prediction by ZEFSAII (Michael W. Deem and Ramdas Pophale) SiO2 
 PCOD8058842
Probable space group: P 2/M
;
_chemical_formula_sum "Si O2"
_cell_formula_units_Z 20
_cell_length_a 11.811435
_cell_length_b 12.926377
_cell_length_c 14.286885
_cell_angle_alpha 90.000000
_cell_angle_beta 150.344007
_cell_angle_gamma 90.000000
_cell_volume 1079.292439
_symmetry_space_group_name_H-M "P 2/M"
_symmetry_group_IT_number 10
_symmetry_cell_setting 'monoclinic'
loop_
_space_group_symop_operation_xyz
x,y,z
-x,y,-z
-x,-y,-z
x,-y,z
loop_
_atom_site_type_symbol
_atom_site_label
_atom_site_fract_x
_atom_site_fract_y
_atom_site_fract_z
Si Si1 0.413827 0.113180 0.833360
Si Si2 0.214563 0.675287 0.709110
Si Si3 0.718490 0.616596 0.036681
Si Si4 0.284602 0.879205 0.283360
Si Si5 0.799966 0.808004 0.979480
O O1 0.231071 0.204521 0.688311
O O2 0.631052 0.126331 0.922441
O O3 0.303419 0.000000 0.734709
O O4 0.500000 0.122439 0.000000
O O5 0.175132 0.663488 0.791627
O O6 0.000000 0.626274 0.500000
O O7 0.443314 0.615027 0.844412
O O8 0.806301 0.500000 0.083450
O O9 0.803672 0.687553 0.012402
O O10 0.500000 0.844201 0.500000
O O11 0.286440 0.813535 0.189348
O O12 0.297699 0.000000 0.267188
O O13 0.052476 0.855961 0.173211
#
# Coordination Sequence:
#
# PCOD8058842 Si02
#       5
#     4   4   4   4   4
#     4  10  18  32  53  81 117 150 174 209 268 330
#     4  10  19  34  53  78 111 148 186 222 262 321
#     4  10  21  37  54  77 106 143 186 228 275 320
#     4  10  21  37  59  83 107 141 182 221 266 321
#     4  10  19  37  57  78 109 144 180 229 265 316
#
# _framework density 18.530657999999999
#
# number of rings (size 3 to 8) (size 9 to 14) (size 15 to 20)
#    0.000    2.000    4.000    3.600    0.000    5.200 
#    0.000    2.000    0.000    1.200    0.000    0.000 
#    0.000    0.000    0.000    0.000    0.000    0.000 
#
# Total GULP energy -247962.321605 kJ/mol
# GULP energy per Si atom -12398.116080 kJ/mol
# Density = 1.848848 g / cm^3
# Si number density = 18.530658 Si / 1000 Ang^3
#
#
#
# Elastic Constant Matrix: (Units=GPa)
#
#
# Indices 1 2 3 4 5 6 
#
# 1 95.9658 32.3510 43.0818 0.0000 -12.8788 0.0000
# 2 32.3510 119.0997 21.0020 0.0000 -10.5713 0.0000
# 3 43.0818 21.0020 137.2496 0.0000 -11.7010 0.0000
# 4 0.0000 0.0000 0.0000 6.6059 0.0000 0.7959
# 5 -12.8788 -10.5713 -11.7010 0.0000 12.0016 0.0000
# 6 0.0000 0.0000 0.0000 0.7959 0.0000 18.8605
#
#
#
# Elastic Compliance Matrix: (Units=1/GPa)
#
#
# Indices 1 2 3 4 5 6 
#
# 1 0.013961 -0.002361 -0.003186 0.000000 0.009796 0.000000
# 2 -0.002361 0.009584 -0.000242 0.000000 0.005672 0.000000
# 3 -0.003186 -0.000242 0.008740 0.000000 0.004889 0.000000
# 4 0.000000 0.000000 0.000000 0.152152 0.000000 -0.006421
# 5 0.009796 0.005672 0.004889 0.000000 0.103597 0.000000
# 6 0.000000 0.000000 0.000000 -0.006421 0.000000 0.053292
#
#
# Mechanical properties :
#
#
# Convention : Reuss Voigt Hill
#
# Bulk Modulus (GPa) = 48.29210 60.57607 54.43408
# Shear Modulus (GPa) = 13.89638 24.55229 19.22434
#
# Velocity S-wave (km/s) = 2.74143 3.64394 3.22442
# Velocity P-wave (km/s) = 6.01147 7.10387 6.58038
#
# Compressibility (1/GPa) = 0.02070732
#
# Stress axis : x y z
#
# Youngs Moduli (GPa) = 71.62732 104.34325 114.41832
#
# Poissons Ratio (x) = 0.24635 0.36453
# Poissons Ratio (y) = 0.16911 0.02767
# Poissons Ratio (z) = 0.22820 0.02523
#
# Static dielectric constant tensor:
#      x y z
#    x 3.484580 0.000000 -0.000780 
#    y 0.000000 3.558550 0.000000 
#    z -0.000780 0.000000 3.249040 
# 
# 
# High freq. dielectric constant tensor:
#      x y z
#    x 1.709060 0.000000 -0.005320 
#    y 0.000000 1.719940 0.000000 
#    z -0.005320 0.000000 1.706300 
# 
# From -- ./inp_files/64702.got.cif
#   From: 2010.06.25/outbox.cif.g09.slc.cpg/sg10_33_cif.got.tgz:64702.got - 2010.06.27 22:07:45.
