data_PCOD8058532
_publ_section_title
;
Structure prediction by ZEFSAII (Michael W. Deem and Ramdas Pophale) SiO2 
 PCOD8058532
Probable space group: P 2/M
;
_chemical_formula_sum "Si O2"
_cell_formula_units_Z 32
_cell_length_a 19.998972
_cell_length_b 8.757686
_cell_length_c 27.893596
_cell_angle_alpha 90.000000
_cell_angle_beta 21.396404
_cell_angle_gamma 90.000000
_cell_volume 1782.289390
_symmetry_space_group_name_H-M "P 2/M"
_symmetry_group_IT_number 10
_symmetry_cell_setting 'monoclinic'
loop_
_space_group_symop_operation_xyz
x,y,z
-x,y,-z
-x,-y,-z
x,-y,z
loop_
_atom_site_type_symbol
_atom_site_label
_atom_site_fract_x
_atom_site_fract_y
_atom_site_fract_z
Si Si1 0.063024 0.820782 0.608579
Si Si2 0.692779 0.819260 0.891917
Si Si3 0.555636 0.180160 0.351325
Si Si4 0.570733 0.819518 0.669706
Si Si5 0.824920 0.323704 0.902012
Si Si6 0.746004 0.819413 0.052454
Si Si7 0.795762 0.675975 0.389981
Si Si8 0.057557 0.680623 0.908724
O O1 0.847671 0.776958 0.747506
O O2 0.215247 0.759660 0.468280
O O3 0.123049 0.764376 0.619762
O O4 0.084397 0.000000 0.594693
O O5 0.734826 0.732164 0.912797
O O6 0.691365 0.000000 0.903157
O O7 0.500000 0.761733 0.000000
O O8 0.509686 0.234070 0.327828
O O9 0.400993 0.248008 0.491077
O O10 0.750737 0.247668 0.235436
O O11 0.560405 0.000000 0.353832
O O12 0.443590 0.756880 0.797277
O O13 0.564960 0.000000 0.676010
O O14 0.771917 0.500000 0.944435
O O15 0.047387 0.304795 0.755383
O O16 0.738287 0.223494 0.002008
O O17 0.769787 0.000000 0.043072
O O18 0.911371 0.734045 0.967615
O O19 0.764463 0.500000 0.423564
O O20 0.074461 0.500000 0.896447
O O21 0.000000 0.739568 0.000000
#
# Coordination Sequence:
#
# PCOD8058532 Si02
#       8
#     4   4   4   4   4   4   4   4
#     4   8  14  27  47  73 102 129 161 202 249 298
#     4   9  17  31  55  84 108 131 164 206 249 299
#     4  10  18  31  51  73  98 128 169 216 258 300
#     4   8  15  27  46  71  96 127 165 208 250 291
#     4  10  21  36  52  74 105 137 169 206 253 310
#     4  11  21  34  52  72  99 135 175 214 254 303
#     4   9  17  30  48  70  97 128 164 208 256 303
#     4  11  22  34  49  73 104 135 170 213 260 305
#
# _framework density 17.954435
#
# number of rings (size 3 to 8) (size 9 to 14) (size 15 to 20)
#    0.000    2.500    1.250    2.625    0.000    2.250 
#    0.000    1.250    0.000    4.500    0.000    5.250 
#    0.000    0.000    0.000    0.000    0.000    0.000 
#
# Total GULP energy -396432.040098 kJ/mol
# GULP energy per Si atom -12388.501253 kJ/mol
# Density = 1.791357 g / cm^3
# Si number density = 17.954435 Si / 1000 Ang^3
#
#
#
# Elastic Constant Matrix: (Units=GPa)
#
#
# Indices 1 2 3 4 5 6 
#
# 1 49.3402 16.7947 47.4562 0.0000 1.6700 0.0000
# 2 16.7947 76.2745 35.8936 0.0000 1.0803 0.0000
# 3 47.4562 35.8936 175.8952 0.0000 -8.1778 0.0000
# 4 0.0000 0.0000 0.0000 21.7013 0.0000 0.8530
# 5 1.6700 1.0803 -8.1778 0.0000 24.3548 0.0000
# 6 0.0000 0.0000 0.0000 0.8530 0.0000 16.1085
#
#
#
# Elastic Compliance Matrix: (Units=1/GPa)
#
#
# Indices 1 2 3 4 5 6 
#
# 1 0.028359 -0.002754 -0.007288 0.000000 -0.004269 0.000000
# 2 -0.002754 0.014837 -0.002343 0.000000 -0.001256 0.000000
# 3 -0.007288 -0.002343 0.008287 0.000000 0.003386 0.000000
# 4 0.000000 0.000000 0.000000 0.046176 0.000000 -0.002445
# 5 -0.004269 -0.001256 0.003386 0.000000 0.042545 0.000000
# 6 0.000000 0.000000 0.000000 -0.002445 0.000000 0.062208
#
#
# Mechanical properties :
#
#
# Convention : Reuss Voigt Hill
#
# Bulk Modulus (GPa) = 37.43466 55.75542 46.59504
# Shear Modulus (GPa) = 21.17860 25.85730 23.51795
#
# Velocity S-wave (km/s) = 3.43822 3.79906 3.62314
# Velocity P-wave (km/s) = 6.05449 7.09684 6.59629
#
# Compressibility (1/GPa) = 0.02671321
#
# Stress axis : x y z
#
# Youngs Moduli (GPa) = 35.26238 67.39723 120.67183
#
# Poissons Ratio (x) = 0.18564 0.87941
# Poissons Ratio (y) = 0.09713 0.28274
# Poissons Ratio (z) = 0.25698 0.15791
#
# Static dielectric constant tensor:
#      x y z
#    x 2.860980 0.000000 0.095680 
#    y 0.000000 3.254530 0.000000 
#    z 0.095680 0.000000 4.265040 
# 
# 
# High freq. dielectric constant tensor:
#      x y z
#    x 1.637030 0.000000 0.003760 
#    y 0.000000 1.692240 0.000000 
#    z 0.003760 0.000000 1.723050 
# 
# From -- ./inp_files/54937.got.cif
#   From: 2010.06.25/outbox.cif.g09.slc.cpg/sg10_28_cif.got.tgz:54937.got - 2010.06.27 22:07:45.
