data_PCOD8058241
_publ_section_title
;
Structure prediction by ZEFSAII (Michael W. Deem and Ramdas Pophale) SiO2 
 PCOD8058241
Probable space group: P 2/M
;
_chemical_formula_sum "Si O2"
_cell_formula_units_Z 28
_cell_length_a 14.465864
_cell_length_b 11.531977
_cell_length_c 18.611086
_cell_angle_alpha 90.000000
_cell_angle_beta 148.117174
_cell_angle_gamma 90.000000
_cell_volume 1639.853190
_symmetry_space_group_name_H-M "P 2/M"
_symmetry_group_IT_number 10
_symmetry_cell_setting 'monoclinic'
loop_
_space_group_symop_operation_xyz
x,y,z
-x,y,-z
-x,-y,-z
x,-y,z
loop_
_atom_site_type_symbol
_atom_site_label
_atom_site_fract_x
_atom_site_fract_y
_atom_site_fract_z
Si Si1 0.567884 0.700073 0.853193
Si Si2 0.353851 0.500000 0.995578
Si Si3 0.413972 0.863634 0.868867
Si Si4 0.072750 0.732360 0.623801
Si Si5 0.513559 0.365675 0.586892
Si Si6 0.268718 0.364710 0.549932
Si Si7 0.803392 0.635784 0.885631
Si Si8 0.245722 0.500000 0.772668
O O1 0.671379 0.613672 0.973591
O O2 0.512857 0.811523 0.864174
O O3 0.390207 0.648940 0.700880
O O4 0.711037 0.719478 0.883990
O O5 0.548599 0.500000 0.095214
O O6 0.210724 0.500000 0.836147
O O7 0.209770 0.828484 0.740990
O O8 0.429300 0.000000 0.870521
O O9 0.500000 0.819549 0.000000
O O10 0.172426 0.610596 0.682728
O O11 0.000000 0.773800 0.500000
O O12 0.904660 0.714718 0.563874
O O13 0.500000 0.303857 0.500000
O O14 0.468688 0.500000 0.548640
O O15 0.370740 0.315888 0.548010
O O16 0.706708 0.346970 0.745848
O O17 0.215319 0.500000 0.509284
O O18 0.789722 0.500000 0.900861
O O19 0.000000 0.675774 0.000000
#
# Coordination Sequence:
#
# PCOD8058241 Si02
#       8
#     4   2   4   4   4   4   4   2
#     4  11  18  34  54  74 104 143 177 207 259 309
#     4  11  18  30  47  74 106 140 172 202 250 323
#     4  11  25  42  55  71 102 139 178 222 266 306
#     4  12  21  33  52  77 106 133 168 211 254 313
#     4   8  15  29  44  62 102 146 168 191 240 301
#     4  10  18  30  49  77 109 140 171 204 250 311
#     4   9  17  30  48  76 107 134 168 207 249 306
#     4  11  21  28  46  76 110 137 163 211 259 301
#
# _framework density 17.074698999999999
#
# number of rings (size 3 to 8) (size 9 to 14) (size 15 to 20)
#    0.000    1.714    5.000    1.929    0.000    0.286 
#    5.143    0.000    0.000    0.429    0.000    0.000 
#    0.000    3.429    0.000    0.000    0.000    0.000 
#
# Total GULP energy -346982.778237 kJ/mol
# GULP energy per Si atom -12392.242080 kJ/mol
# Density = 1.703584 g / cm^3
# Si number density = 17.074699 Si / 1000 Ang^3
#
#
#
# Elastic Constant Matrix: (Units=GPa)
#
#
# Indices 1 2 3 4 5 6 
#
# 1 116.6980 27.4497 60.9065 0.0000 4.1636 0.0000
# 2 27.4497 40.8354 21.9384 0.0000 -2.0426 0.0000
# 3 60.9065 21.9384 102.9832 0.0000 1.3809 0.0000
# 4 0.0000 0.0000 0.0000 18.1826 0.0000 -5.0722
# 5 4.1636 -2.0426 1.3809 0.0000 34.0127 0.0000
# 6 0.0000 0.0000 0.0000 -5.0722 0.0000 10.7381
#
#
#
# Elastic Compliance Matrix: (Units=1/GPa)
#
#
# Indices 1 2 3 4 5 6 
#
# 1 0.013452 -0.005494 -0.006762 0.000000 -0.001702 0.000000
# 2 -0.005494 0.030021 -0.003181 0.000000 0.002605 0.000000
# 3 -0.006762 -0.003181 0.014387 0.000000 0.000053 0.000000
# 4 0.000000 0.000000 0.000000 0.063345 0.000000 0.029921
# 5 -0.001702 0.002605 0.000053 0.000000 0.029763 0.000000
# 6 0.000000 0.000000 0.000000 0.029921 0.000000 0.107260
#
#
# Mechanical properties :
#
#
# Convention : Reuss Voigt Hill
#
# Bulk Modulus (GPa) = 37.05858 53.45621 45.25740
# Shear Modulus (GPa) = 16.77307 22.60147 19.68727
#
# Velocity S-wave (km/s) = 3.13762 3.64219 3.39928
# Velocity P-wave (km/s) = 5.90569 7.00447 6.47842
#
# Compressibility (1/GPa) = 0.02698430
#
# Stress axis : x y z
#
# Youngs Moduli (GPa) = 74.34073 33.31003 69.50932
#
# Poissons Ratio (x) = 0.18302 0.47004
# Poissons Ratio (y) = 0.40846 0.22109
# Poissons Ratio (z) = 0.50271 0.10595
#
# Static dielectric constant tensor:
#      x y z
#    x 3.459370 0.000000 -0.165330 
#    y 0.000000 2.690280 0.000000 
#    z -0.165330 0.000000 3.465940 
# 
# 
# High freq. dielectric constant tensor:
#      x y z
#    x 1.663520 0.000000 -0.005460 
#    y 0.000000 1.594000 0.000000 
#    z -0.005460 0.000000 1.670820 
# 
# From -- ./inp_files/78055.got.cif
#   From: 2010.06.25/outbox.cif.g09.slc.cpg/sg10_40_cif.got.tgz:78055.got - 2010.06.27 22:07:45.
