data_PCOD8058538
_publ_section_title
;
Structure prediction by ZEFSAII (Michael W. Deem and Ramdas Pophale) SiO2 
 PCOD8058538
Probable space group: P 2/M
;
_chemical_formula_sum "Si O2"
_cell_formula_units_Z 24
_cell_length_a 16.429283
_cell_length_b 9.213572
_cell_length_c 23.281091
_cell_angle_alpha 90.000000
_cell_angle_beta 156.980867
_cell_angle_gamma 90.000000
_cell_volume 1378.064309
_symmetry_space_group_name_H-M "P 2/M"
_symmetry_group_IT_number 10
_symmetry_cell_setting 'monoclinic'
loop_
_space_group_symop_operation_xyz
x,y,z
-x,y,-z
-x,-y,-z
x,-y,z
loop_
_atom_site_type_symbol
_atom_site_label
_atom_site_fract_x
_atom_site_fract_y
_atom_site_fract_z
Si Si1 0.727412 0.669119 0.165714
Si Si2 0.267552 0.170873 0.330797
Si Si3 0.095309 0.330892 0.320692
Si Si4 0.989972 0.830753 0.428450
Si Si5 0.797263 0.170121 0.839277
Si Si6 0.650859 0.167243 0.423050
O O1 0.722335 0.500000 0.178182
O O2 0.874095 0.701008 0.206602
O O3 0.809091 0.751032 0.275407
O O4 0.500000 0.726511 0.000000
O O5 0.500000 0.213126 0.500000
O O6 0.100755 0.251473 0.262968
O O7 0.231852 0.231759 0.243633
O O8 0.229230 0.000000 0.311033
O O9 0.135218 0.500000 0.337914
O O10 0.277201 0.267567 0.478336
O O11 0.217011 0.799994 0.548369
O O12 0.000000 0.770913 0.500000
O O13 0.934252 0.000000 0.391687
O O14 0.592993 0.202005 0.745717
O O15 0.834443 0.000000 0.857965
O O16 0.000000 0.243778 0.000000
O O17 0.679704 0.000000 0.461338
#
# Coordination Sequence:
#
# PCOD8058538 Si02
#       6
#     4   4   4   4   4   4
#     4   9  19  36  54  72  99 135 170 205 248 301
#     4  10  18  31  51  74  97 126 165 200 236 290
#     4  10  19  31  51  76  98 125 166 206 245 286
#     4   9  18  32  51  77 103 127 162 209 255 296
#     4   9  17  30  48  70  95 127 163 195 232 285
#     4   9  16  31  52  69  96 132 164 198 241 291
#
# _framework density 17.415731999999998
#
# number of rings (size 3 to 8) (size 9 to 14) (size 15 to 20)
#    0.000    2.667    1.667    0.500    0.000    1.667 
#    3.000    0.000    0.000    2.000    0.000    0.000 
#    0.000    0.000    0.000    0.000    0.000    0.000 
#
# Total GULP energy -297556.768212 kJ/mol
# GULP energy per Si atom -12398.198676 kJ/mol
# Density = 1.737609 g / cm^3
# Si number density = 17.415732 Si / 1000 Ang^3
#
#
#
# Elastic Constant Matrix: (Units=GPa)
#
#
# Indices 1 2 3 4 5 6 
#
# 1 133.3602 39.5160 78.5419 0.0000 -9.3607 0.0000
# 2 39.5160 42.0117 36.5932 0.0000 -0.9073 0.0000
# 3 78.5419 36.5932 151.8435 0.0000 0.8425 0.0000
# 4 0.0000 0.0000 0.0000 17.0304 0.0000 2.7100
# 5 -9.3607 -0.9073 0.8425 0.0000 25.4677 0.0000
# 6 0.0000 0.0000 0.0000 2.7100 0.0000 22.2878
#
#
#
# Elastic Compliance Matrix: (Units=1/GPa)
#
#
# Indices 1 2 3 4 5 6 
#
# 1 0.013038 -0.007930 -0.004858 0.000000 0.004670 0.000000
# 2 -0.007930 0.034995 -0.004323 0.000000 -0.001525 0.000000
# 3 -0.004858 -0.004323 0.010153 0.000000 -0.002276 0.000000
# 4 0.000000 0.000000 0.000000 0.059877 0.000000 -0.007281
# 5 0.004670 -0.001525 -0.002276 0.000000 0.041003 0.000000
# 6 0.000000 0.000000 0.000000 -0.007281 0.000000 0.045753
#
#
# Mechanical properties :
#
#
# Convention : Reuss Voigt Hill
#
# Bulk Modulus (GPa) = 41.73310 70.72416 56.22863
# Shear Modulus (GPa) = 20.24053 24.46146 22.35100
#
# Velocity S-wave (km/s) = 3.41280 3.75181 3.58632
# Velocity P-wave (km/s) = 6.28844 7.71140 7.03598
#
# Compressibility (1/GPa) = 0.02396180
#
# Stress axis : x y z
#
# Youngs Moduli (GPa) = 76.70179 28.57582 98.49068
#
# Poissons Ratio (x) = 0.22662 0.47852
# Poissons Ratio (y) = 0.60827 0.42577
# Poissons Ratio (z) = 0.37265 0.12353
#
# Static dielectric constant tensor:
#      x y z
#    x 3.418240 0.000000 0.038220 
#    y 0.000000 3.055320 0.000000 
#    z 0.038220 0.000000 3.304250 
# 
# 
# High freq. dielectric constant tensor:
#      x y z
#    x 1.680040 0.000000 0.008430 
#    y 0.000000 1.650740 0.000000 
#    z 0.008430 0.000000 1.660280 
# 
# From -- ./inp_files/52617.got.cif
#   From: 2010.06.25/outbox.cif.g09.slc.cpg/sg10_27_cif.got.tgz:52617.got - 2010.06.27 22:07:45.
