data_PCOD8058922
_publ_section_title
;
Structure prediction by ZEFSAII (Michael W. Deem and Ramdas Pophale) SiO2 
 PCOD8058922
Probable space group: P 2/M
;
_chemical_formula_sum "Si O2"
_cell_formula_units_Z 28
_cell_length_a 15.609078
_cell_length_b 8.586460
_cell_length_c 11.949136
_cell_angle_alpha 90.000000
_cell_angle_beta 117.620494
_cell_angle_gamma 90.000000
_cell_volume 1418.992695
_symmetry_space_group_name_H-M "P 2/M"
_symmetry_group_IT_number 10
_symmetry_cell_setting 'monoclinic'
loop_
_space_group_symop_operation_xyz
x,y,z
-x,y,-z
-x,-y,-z
x,-y,z
loop_
_atom_site_type_symbol
_atom_site_label
_atom_site_fract_x
_atom_site_fract_y
_atom_site_fract_z
Si Si1 0.236696 0.319551 0.433270
Si Si2 0.324721 0.182781 0.703088
Si Si3 0.121197 0.681000 0.982222
Si Si4 0.918533 0.181434 0.812564
Si Si5 0.541203 0.183497 0.817796
Si Si6 0.396209 0.175203 0.381743
Si Si7 0.283424 0.819170 0.929453
O O1 0.210754 0.500000 0.414778
O O2 0.258571 0.268614 0.572841
O O3 0.144585 0.223974 0.333620
O O4 0.328563 0.288686 0.410588
O O5 0.433690 0.253514 0.767368
O O6 0.277466 0.216364 0.794589
O O7 0.326280 0.000000 0.676325
O O8 0.121982 0.500000 0.011911
O O9 0.204149 0.717335 0.943749
O O10 0.018750 0.725916 0.866445
O O11 0.139204 0.773872 0.108899
O O12 0.942432 0.000000 0.827449
O O13 0.592916 0.245061 0.736380
O O14 0.528408 0.000000 0.799286
O O15 0.609048 0.228001 0.963454
O O16 0.500000 0.170064 0.500000
O O17 0.351508 0.000000 0.353674
O O18 0.263682 0.000000 0.943516
#
# Coordination Sequence:
#
# PCOD8058922 Si02
#       7
#     4   4   4   4   4   4   4
#     4  12  24  37  55  84 121 155 190 236 302 355
#     4  10  20  37  57  80 113 156 205 246 281 333
#     4  11  22  39  62  91 124 149 180 232 295 349
#     4  11  22  40  66  90 114 147 192 237 283 343
#     4   9  17  32  56  84 112 147 196 246 284 324
#     4  10  18  32  55  81 113 151 193 235 282 341
#     4  10  20  35  59  86 113 153 202 244 283 337
#
# _framework density 19.732308
#
# number of rings (size 3 to 8) (size 9 to 14) (size 15 to 20)
#    0.000    1.571    1.429    6.000    0.000    3.714 
#    0.000    1.429    0.000    6.000    0.000    0.000 
#    0.000    0.000    0.000    0.000    0.000    0.000 
#
# Total GULP energy -347291.439609 kJ/mol
# GULP energy per Si atom -12403.265700 kJ/mol
# Density = 1.968740 g / cm^3
# Si number density = 19.732308 Si / 1000 Ang^3
#
#
#
# Elastic Constant Matrix: (Units=GPa)
#
#
# Indices 1 2 3 4 5 6 
#
# 1 68.2561 18.0513 35.3925 0.0000 -1.2579 0.0000
# 2 18.0513 68.6911 25.4140 0.0000 -3.8079 0.0000
# 3 35.3925 25.4140 124.3290 0.0000 1.0585 0.0000
# 4 0.0000 0.0000 0.0000 16.0955 0.0000 -3.2169
# 5 -1.2579 -3.8079 1.0585 0.0000 23.3108 0.0000
# 6 0.0000 0.0000 0.0000 -3.2169 0.0000 13.1061
#
#
#
# Elastic Compliance Matrix: (Units=1/GPa)
#
#
# Indices 1 2 3 4 5 6 
#
# 1 0.017760 -0.002983 -0.004452 0.000000 0.000673 0.000000
# 2 -0.002983 0.016424 -0.002531 0.000000 0.002637 0.000000
# 3 -0.004452 -0.002531 0.009837 0.000000 -0.001100 0.000000
# 4 0.000000 0.000000 0.000000 0.065334 0.000000 0.016036
# 5 0.000673 0.002637 -0.001100 0.000000 0.043416 0.000000
# 6 0.000000 0.000000 0.000000 0.016036 0.000000 0.080237
#
#
# Mechanical properties :
#
#
# Convention : Reuss Voigt Hill
#
# Bulk Modulus (GPa) = 41.50901 46.55467 44.03184
# Shear Modulus (GPa) = 19.15937 22.66370 20.91153
#
# Velocity S-wave (km/s) = 3.11941 3.39272 3.25893
# Velocity P-wave (km/s) = 5.83575 6.24433 6.04350
#
# Compressibility (1/GPa) = 0.02409116
#
# Stress axis : x y z
#
# Youngs Moduli (GPa) = 56.30522 60.88564 101.65583
#
# Poissons Ratio (x) = 0.18161 0.45255
# Poissons Ratio (y) = 0.16795 0.25725
# Poissons Ratio (z) = 0.25066 0.15408
#
# Static dielectric constant tensor:
#      x y z
#    x 3.516480 0.000000 -0.001350 
#    y 0.000000 3.395480 0.000000 
#    z -0.001350 0.000000 3.723200 
# 
# 
# High freq. dielectric constant tensor:
#      x y z
#    x 1.759630 0.000000 0.003100 
#    y 0.000000 1.748610 0.000000 
#    z 0.003100 0.000000 1.780000 
# 
# From -- ./inp_files/50033.got.cif
#   From: 2010.06.25/outbox.cif.g09.slc.cpg/sg10_26_cif.got.tgz:50033.got - 2010.06.27 22:07:45.
