data_PCOD8058972
_publ_section_title
;
Structure prediction by ZEFSAII (Michael W. Deem and Ramdas Pophale) SiO2 
 PCOD8058972
Probable space group: P 2/M
;
_chemical_formula_sum "Si O2"
_cell_formula_units_Z 32
_cell_length_a 21.185561
_cell_length_b 8.944872
_cell_length_c 14.845510
_cell_angle_alpha 90.000000
_cell_angle_beta 36.566894
_cell_angle_gamma 90.000000
_cell_volume 1676.027801
_symmetry_space_group_name_H-M "P 2/M"
_symmetry_group_IT_number 10
_symmetry_cell_setting 'monoclinic'
loop_
_space_group_symop_operation_xyz
x,y,z
-x,y,-z
-x,-y,-z
x,-y,z
loop_
_atom_site_type_symbol
_atom_site_label
_atom_site_fract_x
_atom_site_fract_y
_atom_site_fract_z
Si Si1 0.879562 0.327546 0.771707
Si Si2 0.500291 0.821515 0.213628
Si Si3 0.760299 0.665589 0.092790
Si Si4 0.551041 0.175242 0.351720
Si Si5 0.702820 0.176389 0.869291
Si Si6 0.930970 0.177494 0.351738
Si Si7 0.301680 0.176412 0.330289
Si Si8 0.021120 0.671647 0.075425
O O1 0.902725 0.500000 0.723133
O O2 0.815179 0.252623 0.764068
O O3 0.991679 0.247440 0.661361
O O4 0.806336 0.306577 0.941917
O O5 0.500462 0.761498 0.316707
O O6 0.395768 0.755863 0.284455
O O7 0.500398 0.000000 0.210250
O O8 0.606549 0.763755 0.041742
O O9 0.709433 0.500000 0.157545
O O10 0.675083 0.791159 0.211928
O O11 0.853118 0.683973 0.058378
O O12 0.500000 0.248690 0.500000
O O13 0.533150 0.000000 0.374290
O O14 0.675057 0.221758 0.799118
O O15 0.718224 0.000000 0.862523
O O16 0.812531 0.236871 0.507230
O O17 0.960051 0.228115 0.217771
O O18 0.939782 0.000000 0.348626
O O19 0.302640 0.000000 0.339971
O O20 0.983440 0.500000 0.130909
O O21 0.000000 0.733474 0.000000
#
# Coordination Sequence:
#
# PCOD8058972 Si02
#       8
#     4   4   4   4   4   4   4   4
#     4  10  20  35  55  77 106 141 177 222 270 320
#     4   9  17  32  53  77 107 141 176 216 267 320
#     4   9  18  33  52  72  98 134 173 214 257 308
#     4  10  20  32  50  79 108 134 168 215 266 315
#     4  10  18  32  58  82 100 136 186 225 265 323
#     4  10  20  34  53  79 111 141 177 225 272 318
#     4   9  19  33  51  79 111 140 176 225 273 321
#     4   9  19  36  56  77 104 141 182 222 267 322
#
# _framework density 19.092759999999998
#
# number of rings (size 3 to 8) (size 9 to 14) (size 15 to 20)
#    0.000    2.500    1.250    1.875    0.000    5.500 
#    0.000    5.000    0.000    5.250    0.000    0.000 
#    0.000    0.000    0.000    0.000    0.000    0.000 
#
# Total GULP energy -396737.087915 kJ/mol
# GULP energy per Si atom -12398.033997 kJ/mol
# Density = 1.904930 g / cm^3
# Si number density = 19.092760 Si / 1000 Ang^3
#
#
#
# Elastic Constant Matrix: (Units=GPa)
#
#
# Indices 1 2 3 4 5 6 
#
# 1 145.4039 28.5924 71.8499 0.0000 0.7184 0.0000
# 2 28.5924 41.1700 25.6639 0.0000 -1.8841 0.0000
# 3 71.8499 25.6639 101.0132 0.0000 -5.4511 0.0000
# 4 0.0000 0.0000 0.0000 12.4971 0.0000 -0.8150
# 5 0.7184 -1.8841 -5.4511 0.0000 29.3437 0.0000
# 6 0.0000 0.0000 0.0000 -0.8150 0.0000 18.9374
#
#
#
# Elastic Compliance Matrix: (Units=1/GPa)
#
#
# Indices 1 2 3 4 5 6 
#
# 1 0.011057 -0.003325 -0.007118 0.000000 -0.001806 0.000000
# 2 -0.003325 0.029867 -0.005167 0.000000 0.001039 0.000000
# 3 -0.007118 -0.005167 0.016431 0.000000 0.002895 0.000000
# 4 0.000000 0.000000 0.000000 0.080244 0.000000 0.003453
# 5 -0.001806 0.001039 0.002895 0.000000 0.034728 0.000000
# 6 0.000000 0.000000 0.000000 0.003453 0.000000 0.052954
#
#
# Mechanical properties :
#
#
# Convention : Reuss Voigt Hill
#
# Bulk Modulus (GPa) = 38.26072 59.97772 49.11922
# Shear Modulus (GPa) = 18.85273 22.92103 20.88688
#
# Velocity S-wave (km/s) = 3.14575 3.46860 3.31111
# Velocity P-wave (km/s) = 5.76864 6.89374 6.35613
#
# Compressibility (1/GPa) = 0.02613647
#
# Stress axis : x y z
#
# Youngs Moduli (GPa) = 90.43823 33.48143 60.85897
#
# Poissons Ratio (x) = 0.11133 0.43317
# Poissons Ratio (y) = 0.30071 0.31447
# Poissons Ratio (z) = 0.64371 0.17300
#
# Static dielectric constant tensor:
#      x y z
#    x 3.785640 0.000000 -0.008850 
#    y 0.000000 3.171410 0.000000 
#    z -0.008850 0.000000 3.516110 
# 
# 
# High freq. dielectric constant tensor:
#      x y z
#    x 1.755960 0.000000 -0.000730 
#    y 0.000000 1.709230 0.000000 
#    z -0.000730 0.000000 1.737150 
# 
# From -- ./inp_files/69953.got.cif
#   From: 2010.06.25/outbox.cif.g09.slc.cpg/sg10_35_cif.got.tgz:69953.got - 2010.06.27 22:07:45.
