data_PCOD8058448
_publ_section_title
;
Structure prediction by ZEFSAII (Michael W. Deem and Ramdas Pophale) SiO2 
 PCOD8058448
Probable space group: P 2/M
;
_chemical_formula_sum "Si O2"
_cell_formula_units_Z 24
_cell_length_a 17.711351
_cell_length_b 13.079593
_cell_length_c 5.304434
_cell_angle_alpha 90.000000
_cell_angle_beta 98.612074
_cell_angle_gamma 90.000000
_cell_volume 1214.955632
_symmetry_space_group_name_H-M "P 2/M"
_symmetry_group_IT_number 10
_symmetry_cell_setting 'monoclinic'
loop_
_space_group_symop_operation_xyz
x,y,z
-x,y,-z
-x,-y,-z
x,-y,z
loop_
_atom_site_type_symbol
_atom_site_label
_atom_site_fract_x
_atom_site_fract_y
_atom_site_fract_z
Si Si1 0.731331 0.188848 0.865669
Si Si2 0.806398 0.885081 0.403202
Si Si3 0.430787 0.386266 0.715394
Si Si4 0.834035 0.616539 0.917018
Si Si5 0.405312 0.690343 0.202657
Si Si6 0.089961 0.306846 0.544981
O O1 0.755549 0.128922 0.627843
O O2 0.763565 0.304872 0.881783
O O3 0.638555 0.200637 0.819278
O O4 0.755546 0.128924 0.127717
O O5 0.877169 0.808156 0.438585
O O6 0.839210 0.000000 0.419603
O O7 0.465885 0.500000 0.732942
O O8 0.501997 0.305959 0.750998
O O9 0.378781 0.368872 0.443384
O O10 0.378781 0.368873 0.935400
O O11 0.803602 0.500000 0.901804
O O12 0.884587 0.633447 0.692494
O O13 0.884588 0.633448 0.192090
O O14 0.000000 0.296579 0.500000
#
# Coordination Sequence:
#
# PCOD8058448 Si02
#       6
#     4   4   4   4   4   4
#     4  10  21  36  54  80 106 137 176 214 260 313
#     4  10  21  39  59  79 102 128 170 225 273 315
#     4  10  19  30  47  76 106 141 185 213 245 299
#     4  10  21  34  50  76 110 145 177 207 243 301
#     4  10  18  31  48  71 105 139 167 214 258 293
#     4  10  21  36  54  78 105 134 174 215 256 311
#
# _framework density 19.753807999999999
#
# number of rings (size 3 to 8) (size 9 to 14) (size 15 to 20)
#    0.000    2.000    0.000    5.000    0.000    4.333 
#    0.000    0.000    0.000    6.000    0.000   46.667 
#    0.000    0.000    0.000    0.000    0.000    0.000 
#
# Total GULP energy -297374.431871 kJ/mol
# GULP energy per Si atom -12390.601328 kJ/mol
# Density = 1.970885 g / cm^3
# Si number density = 19.753808 Si / 1000 Ang^3
#
#
#
# Elastic Constant Matrix: (Units=GPa)
#
#
# Indices 1 2 3 4 5 6 
#
# 1 51.0644 17.0661 14.3076 0.0000 0.9644 0.0000
# 2 17.0661 110.4195 29.1557 0.0000 -0.9646 0.0000
# 3 14.3076 29.1557 199.8278 0.0000 -12.8395 0.0000
# 4 0.0000 0.0000 0.0000 27.9447 0.0000 -1.4892
# 5 0.9644 -0.9646 -12.8395 0.0000 13.4458 0.0000
# 6 0.0000 0.0000 0.0000 -1.4892 0.0000 9.2912
#
#
#
# Elastic Compliance Matrix: (Units=1/GPa)
#
#
# Indices 1 2 3 4 5 6 
#
# 1 0.020972 -0.002934 -0.001261 0.000000 -0.002919 0.000000
# 2 -0.002934 0.009835 -0.001242 0.000000 -0.000270 0.000000
# 3 -0.001261 -0.001242 0.005621 0.000000 0.005369 0.000000
# 4 0.000000 0.000000 0.000000 0.036093 0.000000 0.005785
# 5 -0.002919 -0.000270 0.005369 0.000000 0.079689 0.000000
# 6 0.000000 0.000000 0.000000 0.005785 0.000000 0.108556
#
#
# Mechanical properties :
#
#
# Convention : Reuss Voigt Hill
#
# Bulk Modulus (GPa) = 39.13314 53.59672 46.36493
# Shear Modulus (GPa) = 17.84702 30.18851 24.01777
#
# Velocity S-wave (km/s) = 3.00904 3.91351 3.49069
# Velocity P-wave (km/s) = 5.65030 6.90014 6.30626
#
# Compressibility (1/GPa) = 0.02555379
#
# Stress axis : x y z
#
# Youngs Moduli (GPa) = 47.68243 101.67257 177.91013
#
# Poissons Ratio (x) = 0.29830 0.22436
# Poissons Ratio (y) = 0.13990 0.22103
# Poissons Ratio (z) = 0.06013 0.12631
#
# Static dielectric constant tensor:
#      x y z
#    x 3.239700 0.000000 -0.101220 
#    y 0.000000 3.348910 0.000000 
#    z -0.101220 0.000000 4.507380 
# 
# 
# High freq. dielectric constant tensor:
#      x y z
#    x 1.744480 0.000000 -0.005520 
#    y 0.000000 1.737000 0.000000 
#    z -0.005520 0.000000 1.813650 
# 
# From -- ./inp_files/10962.got.cif
#   From: 2010.06.25/outbox.cif.g09.slc.cpg/sg10_6_cif.got.tgz:10962.got - 2010.06.27 22:07:45.
