data_PCOD8058102
_publ_section_title
;
Structure prediction by ZEFSAII (Michael W. Deem and Ramdas Pophale) SiO2 
 PCOD8058102
Probable space group: P 2/M
;
_chemical_formula_sum "Si O2"
_cell_formula_units_Z 24
_cell_length_a 13.904624
_cell_length_b 8.442542
_cell_length_c 13.944206
_cell_angle_alpha 90.000000
_cell_angle_beta 120.676121
_cell_angle_gamma 90.000000
_cell_volume 1407.853714
_symmetry_space_group_name_H-M "P 2/M"
_symmetry_group_IT_number 10
_symmetry_cell_setting 'monoclinic'
loop_
_space_group_symop_operation_xyz
x,y,z
-x,y,-z
-x,-y,-z
x,-y,z
loop_
_atom_site_type_symbol
_atom_site_label
_atom_site_fract_x
_atom_site_fract_y
_atom_site_fract_z
Si Si1 0.830100 0.188152 0.453649
Si Si2 0.622471 0.683171 0.659063
Si Si3 0.174738 0.187473 0.128562
Si Si4 0.950218 0.188573 0.330164
Si Si5 0.386913 0.814331 0.551374
Si Si6 0.047348 0.187831 0.880206
O O1 0.853604 0.243264 0.355767
O O2 0.711464 0.253715 0.430410
O O3 0.929782 0.252363 0.572217
O O4 0.829295 0.000000 0.459694
O O5 0.628001 0.500000 0.634347
O O6 0.711983 0.724067 0.786013
O O7 0.499792 0.723439 0.637607
O O8 0.646597 0.784975 0.576134
O O9 0.075850 0.243061 0.149547
O O10 0.193687 0.000000 0.143665
O O11 0.141507 0.243014 0.003963
O O12 0.925774 0.258393 0.211646
O O13 0.953623 0.000000 0.327771
O O14 0.405528 0.000000 0.576384
O O15 0.046986 0.000000 0.878306
#
# Coordination Sequence:
#
# PCOD8058102 Si02
#       6
#     4   4   4   4   4   4
#     4   8  14  22  39  66  93 114 136 168 214 260
#     4  11  21  31  43  63  88 116 144 178 220 260
#     4   9  16  28  45  67  89 115 147 178 211 254
#     4   8  12  21  37  65  97 116 131 167 217 259
#     4  10  18  30  47  66  86 113 145 179 213 256
#     4   8  14  24  43  67  92 116 142 176 215 253
#
# _framework density 17.047225999999998
#
# number of rings (size 3 to 8) (size 9 to 14) (size 15 to 20)
#    0.000    3.000    0.000    6.000    0.000    2.667 
#    0.000    1.667    0.000    1.000    0.000   31.500 
#    0.000    0.000    0.000    0.000    0.000    0.000 
#
# Total GULP energy -297449.249002 kJ/mol
# GULP energy per Si atom -12393.718708 kJ/mol
# Density = 1.700843 g / cm^3
# Si number density = 17.047226 Si / 1000 Ang^3
#
#
#
# Elastic Constant Matrix: (Units=GPa)
#
#
# Indices 1 2 3 4 5 6 
#
# 1 143.0661 10.6671 77.8774 0.0000 -5.7691 0.0000
# 2 10.6671 26.9680 9.6259 0.0000 4.0486 0.0000
# 3 77.8774 9.6259 135.7720 0.0000 -4.1092 0.0000
# 4 0.0000 0.0000 0.0000 4.2016 0.0000 -0.9138
# 5 -5.7691 4.0486 -4.1092 0.0000 30.6129 0.0000
# 6 0.0000 0.0000 0.0000 -0.9138 0.0000 -1.1621
#
#
#
# Elastic Compliance Matrix: (Units=1/GPa)
#
#
# Indices 1 2 3 4 5 6 
#
# 1 0.010333 -0.002267 -0.005721 0.000000 0.001479 0.000000
# 2 -0.002267 0.039457 -0.001675 0.000000 -0.005870 0.000000
# 3 -0.005721 -0.001675 0.010784 0.000000 0.000591 0.000000
# 4 0.000000 0.000000 0.000000 0.203245 0.000000 -0.159825
# 5 0.001479 -0.005870 0.000591 0.000000 0.033800 0.000000
# 6 0.000000 0.000000 0.000000 -0.159825 0.000000 -0.734846
#
#
# Mechanical properties :
#
#
# Convention : Reuss Voigt Hill
#
# Bulk Modulus (GPa) = 24.24412 55.79407 40.01909
# Shear Modulus (GPa) = -12.37159 20.57286 4.10063
#
# Velocity S-wave (km/s) = -2.69685 3.47769 1.55264
# Velocity P-wave (km/s) = 2.13431 6.99471 5.17113
#
# Compressibility (1/GPa) = 0.04124712
#
# Stress axis : x y z
#
# Youngs Moduli (GPa) = 96.77908 25.34420 92.73356
#
# Poissons Ratio (x) = 0.05746 0.53056
# Poissons Ratio (y) = 0.21940 0.15530
# Poissons Ratio (z) = 0.55370 0.04244
#
# Static dielectric constant tensor:
#      x y z
#    x 3.428460 0.000000 -0.155940 
#    y 0.000000 2.715500 0.000000 
#    z -0.155940 0.000000 3.387240 
# 
# 
# High freq. dielectric constant tensor:
#      x y z
#    x 1.651030 0.000000 -0.001490 
#    y 0.000000 1.617310 0.000000 
#    z -0.001490 0.000000 1.649230 
# 
# From -- ./inp_files/65834.got.cif
#   From: 2010.06.25/outbox.cif.g09.slc.cpg/sg10_33_cif.got.tgz:65834.got - 2010.06.27 22:07:45.
