data_PCOD8058981
_publ_section_title
;
Structure prediction by ZEFSAII (Michael W. Deem and Ramdas Pophale) SiO2 
 PCOD8058981
Probable space group: P 2/M
;
_chemical_formula_sum "Si O2"
_cell_formula_units_Z 16
_cell_length_a 7.329660
_cell_length_b 11.450388
_cell_length_c 9.367052
_cell_angle_alpha 90.000000
_cell_angle_beta 91.481738
_cell_angle_gamma 90.000000
_cell_volume 785.889921
_symmetry_space_group_name_H-M "P 2/M"
_symmetry_group_IT_number 10
_symmetry_cell_setting 'monoclinic'
loop_
_space_group_symop_operation_xyz
x,y,z
-x,y,-z
-x,-y,-z
x,-y,z
loop_
_atom_site_type_symbol
_atom_site_label
_atom_site_fract_x
_atom_site_fract_y
_atom_site_fract_z
Si Si1 0.218806 0.751855 0.619021
Si Si2 0.687386 0.500000 0.414533
Si Si3 0.850592 0.134346 0.669061
Si Si4 0.550068 0.500000 0.840359
Si Si5 0.442287 0.247140 0.162745
O O1 0.201316 0.619226 0.556272
O O2 0.249671 0.834137 0.481849
O O3 0.382633 0.769485 0.732825
O O4 0.031190 0.787179 0.693047
O O5 0.500000 0.500000 0.500000
O O6 0.641499 0.500000 0.246041
O O7 0.713045 0.155322 0.798050
O O8 0.909326 0.000000 0.669545
O O9 0.649518 0.376379 0.810174
O O10 0.500000 0.500000 0.000000
O O11 0.500000 0.227770 0.000000
#
# Coordination Sequence:
#
# PCOD8058981 Si02
#       5
#     4   2   4   2   4
#     4  10  21  38  59  85 116 146 185 234 285 341
#     4  10  18  32  59  91 114 140 181 233 288 337
#     4  11  24  39  57  81 112 156 199 232 277 335
#     4   8  16  33  55  81 112 141 174 219 280 347
#     4  10  21  38  61  86 114 149 187 235 289 337
#
# _framework density 20.359086999999999
#
# number of rings (size 3 to 8) (size 9 to 14) (size 15 to 20)
#    0.000    2.000    0.000    5.250    0.000    7.500 
#    0.000    1.250    0.000    9.000    0.000    0.000 
#    0.000    0.000    0.000    0.000    0.000    0.000 
#
# Total GULP energy -198230.251119 kJ/mol
# GULP energy per Si atom -12389.390695 kJ/mol
# Density = 2.031275 g / cm^3
# Si number density = 20.359087 Si / 1000 Ang^3
#
#
#
# Elastic Constant Matrix: (Units=GPa)
#
#
# Indices 1 2 3 4 5 6 
#
# 1 113.8620 67.0883 53.7211 0.0000 -18.5311 0.0000
# 2 67.0883 147.9429 26.4885 0.0000 -14.1997 0.0000
# 3 53.7211 26.4885 91.5633 0.0000 -13.8189 0.0000
# 4 0.0000 0.0000 0.0000 19.0142 0.0000 -7.9240
# 5 -18.5311 -14.1997 -13.8189 0.0000 26.7419 0.0000
# 6 0.0000 0.0000 0.0000 -7.9240 0.0000 30.7434
#
#
#
# Elastic Compliance Matrix: (Units=1/GPa)
#
#
# Indices 1 2 3 4 5 6 
#
# 1 0.016250 -0.005641 -0.007218 0.000000 0.004535 0.000000
# 2 -0.005641 0.009308 0.000838 0.000000 0.001467 0.000000
# 3 -0.007218 0.000838 0.015429 0.000000 0.003417 0.000000
# 4 0.000000 0.000000 0.000000 0.058921 0.000000 0.015187
# 5 0.004535 0.001467 0.003417 0.000000 0.043082 0.000000
# 6 0.000000 0.000000 0.000000 0.015187 0.000000 0.036442
#
#
# Mechanical properties :
#
#
# Convention : Reuss Voigt Hill
#
# Bulk Modulus (GPa) = 59.00985 71.99600 65.50293
# Shear Modulus (GPa) = 23.90954 29.03789 26.47372
#
# Velocity S-wave (km/s) = 3.43066 3.78072 3.60993
# Velocity P-wave (km/s) = 6.68880 7.38230 7.04409
#
# Compressibility (1/GPa) = 0.01694632
#
# Stress axis : x y z
#
# Youngs Moduli (GPa) = 61.53883 107.43177 64.81251
#
# Poissons Ratio (x) = 0.60606 0.46778
# Poissons Ratio (y) = 0.34716 -0.05434
# Poissons Ratio (z) = 0.44416 -0.09007
#
# Static dielectric constant tensor:
#      x y z
#    x 3.324440 0.000000 0.020760 
#    y 0.000000 4.903320 0.000000 
#    z 0.020760 0.000000 3.751910 
# 
# 
# High freq. dielectric constant tensor:
#      x y z
#    x 1.768170 0.000000 -0.001670 
#    y 0.000000 1.809350 0.000000 
#    z -0.001670 0.000000 1.797410 
# 
# From -- ./inp_files/16926.got.cif
#   From: 2010.06.25/outbox.cif.g09.slc.cpg/sg10_9_cif.got.tgz:16926.got - 2010.06.27 22:07:45.
