data_PCOD8058027
_publ_section_title
;
Structure prediction by ZEFSAII (Michael W. Deem and Ramdas Pophale) SiO2 
 PCOD8058027
Probable space group: P 2/M
;
_chemical_formula_sum "Si O2"
_cell_formula_units_Z 28
_cell_length_a 20.433323
_cell_length_b 7.924181
_cell_length_c 26.084423
_cell_angle_alpha 90.000000
_cell_angle_beta 21.127479
_cell_angle_gamma 90.000000
_cell_volume 1522.343564
_symmetry_space_group_name_H-M "P 2/M"
_symmetry_group_IT_number 10
_symmetry_cell_setting 'monoclinic'
loop_
_space_group_symop_operation_xyz
x,y,z
-x,y,-z
-x,-y,-z
x,-y,z
loop_
_atom_site_type_symbol
_atom_site_label
_atom_site_fract_x
_atom_site_fract_y
_atom_site_fract_z
Si Si1 0.802534 0.800015 0.658812
Si Si2 0.145495 0.694916 0.164502
Si Si3 0.119206 0.813934 0.719042
Si Si4 0.701801 0.800017 0.843971
Si Si5 0.969984 0.500000 0.961521
Si Si6 0.447662 0.695452 0.866211
Si Si7 0.196403 0.186998 0.968290
Si Si8 0.712154 0.500000 0.355056
O O1 0.764196 0.730537 0.743558
O O2 0.657879 0.730023 0.723881
O O3 0.000000 0.731115 0.500000
O O4 0.793249 0.000000 0.664157
O O5 0.116853 0.500000 0.173286
O O6 0.163854 0.726839 0.211380
O O7 0.964438 0.788661 0.276619
O O8 0.326448 0.762106 0.002838
O O9 0.259180 0.667530 0.631651
O O10 0.212154 0.000000 0.654125
O O11 0.952048 0.800039 0.879349
O O12 0.707719 0.000000 0.842614
O O13 0.500000 0.729758 0.000000
O O14 0.849219 0.332810 0.039190
O O15 0.000000 0.500000 0.000000
O O16 0.158718 0.500000 0.790387
O O17 0.411335 0.500000 0.884064
O O18 0.389914 0.785724 0.855205
O O19 0.195432 0.000000 0.942965
O O20 0.500000 0.500000 0.500000
#
# Coordination Sequence:
#
# PCOD8058027 Si02
#       8
#     4   4   4   4   2   4   4   2
#     4  10  21  35  49  68 101 141 180 220 265 316
#     4  10  18  29  50  77 105 131 172 227 271 303
#     4   9  17  31  53  81 110 142 179 216 259 313
#     4  10  19  31  48  73 101 132 175 222 268 311
#     4  10  20  36  58  86 114 138 172 216 262 312
#     4  10  18  30  51  76 102 133 176 225 263 309
#     4   9  17  31  54  82 109 139 178 220 263 308
#     4  10  20  36  58  84 114 143 172 212 258 315
#
# _framework density 18.392696000000001
#
# number of rings (size 3 to 8) (size 9 to 14) (size 15 to 20)
#    0.000    2.286    2.857    0.857    0.000    2.857 
#    0.000    0.000    3.143    0.000    0.000    0.000 
#    0.000    0.000    0.000    0.000    0.000    0.000 
#
# Total GULP energy -347094.247168 kJ/mol
# GULP energy per Si atom -12396.223113 kJ/mol
# Density = 1.835083 g / cm^3
# Si number density = 18.392696 Si / 1000 Ang^3
#
#
#
# Elastic Constant Matrix: (Units=GPa)
#
#
# Indices 1 2 3 4 5 6 
#
# 1 134.7912 56.9180 44.5812 0.0000 -18.4890 0.0000
# 2 56.9180 108.6454 32.7186 0.0000 -14.7995 0.0000
# 3 44.5812 32.7186 80.0015 0.0000 -14.9773 0.0000
# 4 0.0000 0.0000 0.0000 10.9879 0.0000 -6.3059
# 5 -18.4890 -14.7995 -14.9773 0.0000 29.1093 0.0000
# 6 0.0000 0.0000 0.0000 -6.3059 0.0000 25.5514
#
#
#
# Elastic Compliance Matrix: (Units=1/GPa)
#
#
# Indices 1 2 3 4 5 6 
#
# 1 0.010808 -0.004134 -0.003807 0.000000 0.002804 0.000000
# 2 -0.004134 0.012403 -0.002302 0.000000 0.002496 0.000000
# 3 -0.003807 -0.002302 0.016478 0.000000 0.004890 0.000000
# 4 0.000000 0.000000 0.000000 0.106026 0.000000 0.026166
# 5 0.002804 0.002496 0.004890 0.000000 0.039919 0.000000
# 6 0.000000 0.000000 0.000000 0.026166 0.000000 0.045594
#
#
# Mechanical properties :
#
#
# Convention : Reuss Voigt Hill
#
# Bulk Modulus (GPa) = 52.07264 65.76375 58.91820
# Shear Modulus (GPa) = 19.37113 25.74441 22.55777
#
# Velocity S-wave (km/s) = 3.24882 3.74533 3.50587
# Velocity P-wave (km/s) = 6.51507 7.38487 6.96356
#
# Compressibility (1/GPa) = 0.01920394
#
# Stress axis : x y z
#
# Youngs Moduli (GPa) = 92.52079 80.62536 60.68613
#
# Poissons Ratio (x) = 0.33329 0.23106
# Poissons Ratio (y) = 0.38246 0.13968
# Poissons Ratio (z) = 0.35226 0.18557
#
# Static dielectric constant tensor:
#      x y z
#    x 3.342330 0.000000 -0.107650 
#    y 0.000000 3.525310 0.000000 
#    z -0.107650 0.000000 3.096730 
# 
# 
# High freq. dielectric constant tensor:
#      x y z
#    x 1.708150 0.000000 -0.020830 
#    y 0.000000 1.724660 0.000000 
#    z -0.020830 0.000000 1.663590 
# 
# From -- ./inp_files/93540.got.cif
#   From: 2010.06.25/outbox.cif.g09.slc.cpg/sg10_47_cif.got.tgz:93540.got - 2010.06.27 22:07:45.
