data_PCOD8058871
_publ_section_title
;
Structure prediction by ZEFSAII (Michael W. Deem and Ramdas Pophale) SiO2 
 PCOD8058871
Probable space group: P 2/M
;
_chemical_formula_sum "Si O2"
_cell_formula_units_Z 28
_cell_length_a 10.269697
_cell_length_b 8.936933
_cell_length_c 26.576363
_cell_angle_alpha 90.000000
_cell_angle_beta 38.714208
_cell_angle_gamma 90.000000
_cell_volume 1525.543760
_symmetry_space_group_name_H-M "P 2/M"
_symmetry_group_IT_number 10
_symmetry_cell_setting 'monoclinic'
loop_
_space_group_symop_operation_xyz
x,y,z
-x,y,-z
-x,-y,-z
x,-y,z
loop_
_atom_site_type_symbol
_atom_site_label
_atom_site_fract_x
_atom_site_fract_y
_atom_site_fract_z
Si Si1 0.791478 0.175885 0.593632
Si Si2 0.306102 0.170340 0.594893
Si Si3 0.664033 0.331819 0.995283
Si Si4 0.382084 0.323419 0.675417
Si Si5 0.343356 0.174887 0.155390
Si Si6 0.119941 0.176702 0.322048
Si Si7 0.979585 0.824533 0.834085
O O1 0.605558 0.264344 0.624321
O O2 0.815757 0.240180 0.643016
O O3 0.000000 0.210453 0.500000
O O4 0.740039 0.000000 0.608249
O O5 0.500000 0.173231 0.500000
O O6 0.345953 0.278770 0.628971
O O7 0.108609 0.234713 0.624134
O O8 0.264734 0.000000 0.626917
O O9 0.734297 0.500000 0.986828
O O10 0.864605 0.236398 0.918584
O O11 0.500000 0.327940 0.000000
O O12 0.554565 0.260762 0.077193
O O13 0.373463 0.500000 0.683752
O O14 0.203911 0.252423 0.764077
O O15 0.284932 0.225374 0.229516
O O16 0.151003 0.216173 0.176726
O O17 0.390799 0.000000 0.137129
O O18 0.108555 0.000000 0.329673
O O19 0.010151 0.000000 0.831032
#
# Coordination Sequence:
#
# PCOD8058871 Si02
#       7
#     4   4   4   4   4   4   4
#     4  10  21  39  61  81 104 143 193 235 275 325
#     4  10  19  35  59  83 106 137 182 233 279 324
#     4   9  17  28  45  75 113 144 174 214 269 332
#     4  12  24  36  53  80 117 150 180 223 278 334
#     4   9  16  29  50  77 108 140 179 225 273 321
#     4   9  17  32  55  82 107 136 182 237 276 317
#     4  10  18  32  54  78 107 143 186 227 268 318
#
# _framework density 18.354111
#
# number of rings (size 3 to 8) (size 9 to 14) (size 15 to 20)
#    0.000    2.143    1.429    3.000    0.000    5.143 
#    0.000    1.429    0.000    0.857    0.000    6.000 
#    0.000    0.000    0.000    0.000    0.000    0.000 
#
# Total GULP energy -347226.010110 kJ/mol
# GULP energy per Si atom -12400.928933 kJ/mol
# Density = 1.831234 g / cm^3
# Si number density = 18.354111 Si / 1000 Ang^3
#
#
#
# Elastic Constant Matrix: (Units=GPa)
#
#
# Indices 1 2 3 4 5 6 
#
# 1 38.9363 17.3138 32.0567 0.0000 2.5471 0.0000
# 2 17.3138 88.3963 54.7385 0.0000 -7.6649 0.0000
# 3 32.0567 54.7385 124.3363 0.0000 4.2863 0.0000
# 4 0.0000 0.0000 0.0000 19.4757 0.0000 -2.9938
# 5 2.5471 -7.6649 4.2863 0.0000 28.0477 0.0000
# 6 0.0000 0.0000 0.0000 -2.9938 0.0000 9.9124
#
#
#
# Elastic Compliance Matrix: (Units=1/GPa)
#
#
# Indices 1 2 3 4 5 6 
#
# 1 0.032924 -0.001993 -0.007529 0.000000 -0.002384 0.000000
# 2 -0.001993 0.016507 -0.006951 0.000000 0.005754 0.000000
# 3 -0.007529 -0.006951 0.013155 0.000000 -0.003226 0.000000
# 4 0.000000 0.000000 0.000000 0.053846 0.000000 0.016263
# 5 -0.002384 0.005754 -0.003226 0.000000 0.037936 0.000000
# 6 0.000000 0.000000 0.000000 0.016263 0.000000 0.105796
#
#
# Mechanical properties :
#
#
# Convention : Reuss Voigt Hill
#
# Bulk Modulus (GPa) = 33.73949 51.09854 42.41901
# Shear Modulus (GPa) = 16.50221 21.32447 18.91334
#
# Velocity S-wave (km/s) = 3.00175 3.41227 3.21357
# Velocity P-wave (km/s) = 5.51693 6.58981 6.07709
#
# Compressibility (1/GPa) = 0.02963886
#
# Stress axis : x y z
#
# Youngs Moduli (GPa) = 30.37320 60.58146 76.01456
#
# Poissons Ratio (x) = 0.12075 0.57230
# Poissons Ratio (y) = 0.06054 0.52841
# Poissons Ratio (z) = 0.22867 0.42113
#
# Static dielectric constant tensor:
#      x y z
#    x 3.295470 0.000000 0.027790 
#    y 0.000000 3.259730 0.000000 
#    z 0.027790 0.000000 3.711710 
# 
# 
# High freq. dielectric constant tensor:
#      x y z
#    x 1.679070 0.000000 0.004690 
#    y 0.000000 1.694940 0.000000 
#    z 0.004690 0.000000 1.731420 
# 
# From -- ./inp_files/79296.got.cif
#   From: 2010.06.25/outbox.cif.g09.slc.cpg/sg10_40_cif.got.tgz:79296.got - 2010.06.27 22:07:45.
