data_PCOD8058865
_publ_section_title
;
Structure prediction by ZEFSAII (Michael W. Deem and Ramdas Pophale) SiO2 
 PCOD8058865
Probable space group: P 2/M
;
_chemical_formula_sum "Si O2"
_cell_formula_units_Z 32
_cell_length_a 29.539236
_cell_length_b 9.017638
_cell_length_c 12.355390
_cell_angle_alpha 90.000000
_cell_angle_beta 31.080184
_cell_angle_gamma 90.000000
_cell_volume 1699.017188
_symmetry_space_group_name_H-M "P 2/M"
_symmetry_group_IT_number 10
_symmetry_cell_setting 'monoclinic'
loop_
_space_group_symop_operation_xyz
x,y,z
-x,y,-z
-x,-y,-z
x,-y,z
loop_
_atom_site_type_symbol
_atom_site_label
_atom_site_fract_x
_atom_site_fract_y
_atom_site_fract_z
Si Si1 0.636804 0.675142 0.521522
Si Si2 0.403049 0.328217 0.729293
Si Si3 0.131154 0.324035 0.707533
Si Si4 0.556009 0.328260 0.116546
Si Si5 0.263448 0.174386 0.865658
Si Si6 0.324886 0.323703 0.314986
Si Si7 0.062556 0.174299 0.275193
Si Si8 0.979089 0.675373 0.865141
O O1 0.650089 0.500000 0.479434
O O2 0.542787 0.734118 0.670589
O O3 0.712679 0.755590 0.299009
O O4 0.642311 0.723979 0.634532
O O5 0.500000 0.270033 0.500000
O O6 0.394514 0.500000 0.711938
O O7 0.390111 0.304537 0.883740
O O8 0.326543 0.237605 0.829057
O O9 0.131597 0.500000 0.711913
O O10 0.228053 0.258061 0.492585
O O11 0.071992 0.274519 0.726993
O O12 0.094520 0.269363 0.898779
O O13 0.544283 0.500000 0.112478
O O14 0.609905 0.253226 0.908010
O O15 0.276930 0.000000 0.832118
O O16 0.162963 0.216725 0.098094
O O17 0.322459 0.500000 0.308485
O O18 0.032530 0.247890 0.225604
O O19 0.000000 0.232301 0.500000
O O20 0.052020 0.000000 0.281555
O O21 0.974656 0.500000 0.856224
#
# Coordination Sequence:
#
# PCOD8058865 Si02
#       8
#     4   4   4   4   4   4   4   4
#     4  10  18  32  54  78 105 136 174 216 259 309
#     4  10  19  35  56  79 109 139 173 220 264 304
#     4   8  15  28  47  77 111 135 161 211 269 311
#     4   9  17  29  47  75 107 137 171 212 255 303
#     4  11  23  37  56  79 102 137 182 221 263 317
#     4   9  16  26  47  78 108 138 171 208 257 314
#     4  10  23  41  55  72 105 142 176 220 269 314
#     4   9  17  32  55  79 104 133 170 215 264 316
#
# _framework density 18.834416999999998
#
# number of rings (size 3 to 8) (size 9 to 14) (size 15 to 20)
#    0.000    2.500    1.250    2.250    0.000    5.000 
#    0.000    2.500    0.000    3.000    0.000    0.000 
#    0.000    0.000    0.000    0.000    0.000    0.000 
#
# Total GULP energy -396708.927478 kJ/mol
# GULP energy per Si atom -12397.153984 kJ/mol
# Density = 1.879155 g / cm^3
# Si number density = 18.834417 Si / 1000 Ang^3
#
#
#
# Elastic Constant Matrix: (Units=GPa)
#
#
# Indices 1 2 3 4 5 6 
#
# 1 133.1043 38.3402 72.3446 0.0000 3.4007 0.0000
# 2 38.3402 34.2664 38.0030 0.0000 0.8066 0.0000
# 3 72.3446 38.0030 149.2517 0.0000 2.4324 0.0000
# 4 0.0000 0.0000 0.0000 16.1587 0.0000 -7.5853
# 5 3.4007 0.8066 2.4324 0.0000 27.6955 0.0000
# 6 0.0000 0.0000 0.0000 -7.5853 0.0000 3.9652
#
#
#
# Elastic Compliance Matrix: (Units=1/GPa)
#
#
# Indices 1 2 3 4 5 6 
#
# 1 0.012233 -0.009903 -0.003393 0.000000 -0.000916 0.000000
# 2 -0.009903 0.048685 -0.007604 0.000000 0.000466 0.000000
# 3 -0.003393 -0.007604 0.010285 0.000000 -0.000265 0.000000
# 4 0.000000 0.000000 0.000000 0.606633 0.000000 1.160463
# 5 -0.000916 0.000466 -0.000265 0.000000 0.036229 0.000000
# 6 0.000000 0.000000 0.000000 1.160463 0.000000 2.472110
#
#
# Mechanical properties :
#
#
# Convention : Reuss Voigt Hill
#
# Bulk Modulus (GPa) = 34.00911 68.22202 51.11556
# Shear Modulus (GPa) = 1.54427 20.75954 11.15191
#
# Velocity S-wave (km/s) = 0.90648 3.32356 2.43596
# Velocity P-wave (km/s) = 4.38083 7.14344 5.92539
#
# Compressibility (1/GPa) = 0.02940388
#
# Stress axis : x y z
#
# Youngs Moduli (GPa) = 81.74663 20.54014 97.22616
#
# Poissons Ratio (x) = 0.20340 0.32990
# Poissons Ratio (y) = 0.80950 0.73931
# Poissons Ratio (z) = 0.27738 0.15619
#
# Static dielectric constant tensor:
#      x y z
#    x 3.545250 0.000000 -0.127500 
#    y 0.000000 2.971790 0.000000 
#    z -0.127500 0.000000 3.838390 
# 
# 
# High freq. dielectric constant tensor:
#      x y z
#    x 1.745540 0.000000 -0.001220 
#    y 0.000000 1.677080 0.000000 
#    z -0.001220 0.000000 1.740640 
# 
# From -- ./inp_files/58088.got.cif
#   From: 2010.06.25/outbox.cif.g09.slc.cpg/sg10_30_cif.got.tgz:58088.got - 2010.06.27 22:07:45.
