data_PCOD8058065
_publ_section_title
;
Structure prediction by ZEFSAII (Michael W. Deem and Ramdas Pophale) SiO2 
 PCOD8058065
Probable space group: P 2/M
;
_chemical_formula_sum "Si O2"
_cell_formula_units_Z 32
_cell_length_a 19.422491
_cell_length_b 8.985251
_cell_length_c 28.562769
_cell_angle_alpha 90.000000
_cell_angle_beta 156.569482
_cell_angle_gamma 90.000000
_cell_volume 1982.083173
_symmetry_space_group_name_H-M "P 2/M"
_symmetry_group_IT_number 10
_symmetry_cell_setting 'monoclinic'
loop_
_space_group_symop_operation_xyz
x,y,z
-x,y,-z
-x,-y,-z
x,-y,z
loop_
_atom_site_type_symbol
_atom_site_label
_atom_site_fract_x
_atom_site_fract_y
_atom_site_fract_z
Si Si1 0.755388 0.325058 0.938849
Si Si2 0.402143 0.824620 0.740715
Si Si3 0.253657 0.834264 0.161319
Si Si4 0.610075 0.168173 0.437197
Si Si5 0.839194 0.173942 0.496002
Si Si6 0.562864 0.327877 0.591228
Si Si7 0.877321 0.332051 0.378770
Si Si8 0.097660 0.827836 0.161640
O O1 0.746979 0.500000 0.941355
O O2 0.589165 0.250602 0.858680
O O3 0.766573 0.289480 0.890761
O O4 0.926270 0.259744 0.070869
O O5 0.306698 0.780276 0.632891
O O6 0.294395 0.763188 0.717815
O O7 0.424165 0.000000 0.759544
O O8 0.443482 0.820920 0.300704
O O9 0.114903 0.808375 0.116090
O O10 0.229460 0.000000 0.124195
O O11 0.773108 0.215528 0.506816
O O12 0.590369 0.276132 0.469345
O O13 0.632713 0.000000 0.469927
O O14 0.018003 0.261758 0.599406
O O15 0.878324 0.000000 0.515368
O O16 0.500000 0.295933 0.500000
O O17 0.602202 0.500000 0.624803
O O18 0.737035 0.236420 0.708494
O O19 0.823715 0.500000 0.332693
O O20 0.000000 0.325960 0.500000
O O21 0.082087 0.000000 0.165663
#
# Coordination Sequence:
#
# PCOD8058065 Si02
#       8
#     4   4   4   4   4   4   4   4
#     4  12  22  29  42  65  93 121 153 192 230 269
#     4  10  18  30  44  58  85 125 162 191 225 267
#     4   9  17  31  45  61  87 121 155 189 224 263
#     4   9  17  30  48  69  91 120 159 193 224 271
#     4   9  16  28  44  62  86 120 158 192 226 266
#     4  10  21  36  52  71  95 118 144 187 241 285
#     4   9  17  27  39  60  87 116 154 195 231 266
#     4  10  21  35  50  65  85 117 156 190 224 272
#
# _framework density 16.144629999999999
#
# number of rings (size 3 to 8) (size 9 to 14) (size 15 to 20)
#    0.000    2.250    1.250    3.750    0.000    7.500 
#    0.000    0.000    0.000    0.000    0.000    0.000 
#    0.000    1.000    0.000   10.500    0.000    5.750 
#
# Total GULP energy -396797.370602 kJ/mol
# GULP energy per Si atom -12399.917831 kJ/mol
# Density = 1.610788 g / cm^3
# Si number density = 16.144630 Si / 1000 Ang^3
#
#
#
# Elastic Constant Matrix: (Units=GPa)
#
#
# Indices 1 2 3 4 5 6 
#
# 1 88.4157 54.0458 47.8005 0.0000 21.7208 0.0000
# 2 54.0458 112.6671 48.1100 0.0000 16.5245 0.0000
# 3 47.8005 48.1100 54.1916 0.0000 20.0049 0.0000
# 4 0.0000 0.0000 0.0000 20.8804 0.0000 4.9724
# 5 21.7208 16.5245 20.0049 0.0000 24.5445 0.0000
# 6 0.0000 0.0000 0.0000 4.9724 0.0000 25.9324
#
#
#
# Elastic Compliance Matrix: (Units=1/GPa)
#
#
# Indices 1 2 3 4 5 6 
#
# 1 0.023118 -0.003938 -0.014763 0.000000 -0.005774 0.000000
# 2 -0.003938 0.014984 -0.010572 0.000000 0.002014 0.000000
# 3 -0.014763 -0.010572 0.047789 0.000000 -0.018768 0.000000
# 4 0.000000 0.000000 0.000000 0.050183 0.000000 -0.009622
# 5 -0.005774 0.002014 -0.018768 0.000000 0.059792 0.000000
# 6 0.000000 0.000000 0.000000 -0.009622 0.000000 0.040407
#
#
# Mechanical properties :
#
#
# Convention : Reuss Voigt Hill
#
# Bulk Modulus (GPa) = 36.57242 61.68742 49.12992
# Shear Modulus (GPa) = 16.45092 21.29269 18.87180
#
# Velocity S-wave (km/s) = 3.19560 3.63557 3.42266
# Velocity P-wave (km/s) = 6.02644 7.47765 6.79092
#
# Compressibility (1/GPa) = 0.02734301
#
# Stress axis : x y z
#
# Youngs Moduli (GPa) = 43.25690 66.73862 20.92538
#
# Poissons Ratio (x) = 0.26285 0.30893
# Poissons Ratio (y) = 0.17037 0.22122
# Poissons Ratio (z) = 0.63862 0.70554
#
# Static dielectric constant tensor:
#      x y z
#    x 3.076140 0.000000 0.339630 
#    y 0.000000 3.135620 0.000000 
#    z 0.339630 0.000000 2.811360 
# 
# 
# High freq. dielectric constant tensor:
#      x y z
#    x 1.601280 0.000000 0.036410 
#    y 0.000000 1.630530 0.000000 
#    z 0.036410 0.000000 1.585610 
# 
# From -- ./inp_files/75988.got.cif
#   From: 2010.06.25/outbox.cif.g09.slc.cpg/sg10_38_cif.got.tgz:75988.got - 2010.06.27 22:07:45.
