data_PCOD8058318
_publ_section_title
;
Structure prediction by ZEFSAII (Michael W. Deem and Ramdas Pophale) SiO2 
 PCOD8058318
Probable space group: P 2/M
;
_chemical_formula_sum "Si O2"
_cell_formula_units_Z 32
_cell_length_a 23.966764
_cell_length_b 9.213742
_cell_length_c 17.565129
_cell_angle_alpha 90.000000
_cell_angle_beta 30.436332
_cell_angle_gamma 90.000000
_cell_volume 1964.922106
_symmetry_space_group_name_H-M "P 2/M"
_symmetry_group_IT_number 10
_symmetry_cell_setting 'monoclinic'
loop_
_space_group_symop_operation_xyz
x,y,z
-x,y,-z
-x,-y,-z
x,-y,z
loop_
_atom_site_type_symbol
_atom_site_label
_atom_site_fract_x
_atom_site_fract_y
_atom_site_fract_z
Si Si1 0.682847 0.669949 0.137340
Si Si2 0.139315 0.331026 0.953704
Si Si3 0.827243 0.333497 0.823816
Si Si4 0.478575 0.828333 0.438170
Si Si5 0.872780 0.163810 0.627913
Si Si6 0.905320 0.328077 0.277054
Si Si7 0.743409 0.330627 0.338933
Si Si8 0.926450 0.330859 0.422270
O O1 0.659206 0.500000 0.179005
O O2 0.767278 0.734430 0.100736
O O3 0.570303 0.758349 0.276159
O O4 0.731187 0.698494 0.996795
O O5 0.132746 0.500000 0.981282
O O6 0.169974 0.302212 0.830501
O O7 0.020274 0.259700 0.111089
O O8 0.828002 0.500000 0.797117
O O9 0.803152 0.239317 0.776875
O O10 0.944030 0.293641 0.724767
O O11 0.500000 0.781701 0.500000
O O12 0.362459 0.767462 0.547661
O O13 0.479864 0.000000 0.426521
O O14 0.854984 0.244737 0.568698
O O15 0.000000 0.173227 0.500000
O O16 0.831057 0.000000 0.668313
O O17 0.915245 0.500000 0.259028
O O18 0.802954 0.276805 0.346052
O O19 0.884784 0.280251 0.388251
O O20 0.709217 0.500000 0.381945
O O21 0.905363 0.500000 0.460806
#
# Coordination Sequence:
#
# PCOD8058318 Si02
#       8
#     4   4   4   4   4   4   4   4
#     4  10  18  30  51  74  94 121 160 200 238 282
#     4   9  15  26  46  73  99 121 152 196 239 279
#     4   9  16  27  45  69  95 122 153 191 235 281
#     4  11  23  36  48  64  92 128 165 204 243 279
#     4   9  17  27  40  62  94 128 160 189 222 272
#     4   9  16  27  46  75 101 123 155 196 239 283
#     4  10  19  31  51  72  93 124 163 202 238 279
#     4   9  15  26  44  66  96 127 154 185 229 281
#
# _framework density 16.285632
#
# number of rings (size 3 to 8) (size 9 to 14) (size 15 to 20)
#    0.000    2.500    2.500    1.125    0.000    4.000 
#    0.000    0.625    0.000    3.000    0.000    0.875 
#    0.000    7.000    0.000    0.000    0.000    0.000 
#
# Total GULP energy -396774.790172 kJ/mol
# GULP energy per Si atom -12399.212193 kJ/mol
# Density = 1.624856 g / cm^3
# Si number density = 16.285632 Si / 1000 Ang^3
#
#
#
# Elastic Constant Matrix: (Units=GPa)
#
#
# Indices 1 2 3 4 5 6 
#
# 1 114.2509 42.8508 57.7267 0.0000 9.5278 0.0000
# 2 42.8508 60.7708 43.3186 0.0000 8.5170 0.0000
# 3 57.7267 43.3186 78.0964 0.0000 7.0558 0.0000
# 4 0.0000 0.0000 0.0000 10.8082 0.0000 1.4189
# 5 9.5278 8.5170 7.0558 0.0000 25.3940 0.0000
# 6 0.0000 0.0000 0.0000 1.4189 0.0000 14.2622
#
#
#
# Elastic Compliance Matrix: (Units=1/GPa)
#
#
# Indices 1 2 3 4 5 6 
#
# 1 0.014700 -0.004108 -0.008425 0.000000 -0.001797 0.000000
# 2 -0.004108 0.029013 -0.012634 0.000000 -0.004679 0.000000
# 3 -0.008425 -0.012634 0.026025 0.000000 0.000167 0.000000
# 4 0.000000 0.000000 0.000000 0.093747 0.000000 -0.009326
# 5 -0.001797 -0.004679 0.000167 0.000000 0.041576 0.000000
# 6 0.000000 0.000000 0.000000 -0.009326 0.000000 0.071043
#
#
# Mechanical properties :
#
#
# Convention : Reuss Voigt Hill
#
# Bulk Modulus (GPa) = 51.53414 60.10115 55.81764
# Shear Modulus (GPa) = 15.01924 17.37434 16.19679
#
# Velocity S-wave (km/s) = 3.04013 3.26981 3.15706
# Velocity P-wave (km/s) = 6.63595 7.15822 6.90203
#
# Compressibility (1/GPa) = 0.01940461
#
# Stress axis : x y z
#
# Youngs Moduli (GPa) = 68.02697 34.46676 38.42498
#
# Poissons Ratio (x) = 0.14159 0.32372
# Poissons Ratio (y) = 0.27946 0.48546
# Poissons Ratio (z) = 0.57312 0.43545
#
# Static dielectric constant tensor:
#      x y z
#    x 3.101690 0.000000 0.154140 
#    y 0.000000 2.846680 0.000000 
#    z 0.154140 0.000000 2.959770 
# 
# 
# High freq. dielectric constant tensor:
#      x y z
#    x 1.615130 0.000000 0.020240 
#    y 0.000000 1.600170 0.000000 
#    z 0.020240 0.000000 1.612050 
# 
# From -- ./inp_files/56477.got.cif
#   From: 2010.06.25/outbox.cif.g09.slc.cpg/sg10_29_cif.got.tgz:56477.got - 2010.06.27 22:07:45.
