data_PCOD8058152
_publ_section_title
;
Structure prediction by ZEFSAII (Michael W. Deem and Ramdas Pophale) SiO2 
 PCOD8058152
Probable space group: P 2/M
;
_chemical_formula_sum "Si O2"
_cell_formula_units_Z 32
_cell_length_a 28.210960
_cell_length_b 8.853454
_cell_length_c 14.294002
_cell_angle_alpha 90.000000
_cell_angle_beta 149.929423
_cell_angle_gamma 90.000000
_cell_volume 1788.873838
_symmetry_space_group_name_H-M "P 2/M"
_symmetry_group_IT_number 10
_symmetry_cell_setting 'monoclinic'
loop_
_space_group_symop_operation_xyz
x,y,z
-x,y,-z
-x,-y,-z
x,-y,z
loop_
_atom_site_type_symbol
_atom_site_label
_atom_site_fract_x
_atom_site_fract_y
_atom_site_fract_z
Si Si1 0.706984 0.320021 0.206903
Si Si2 0.239918 0.176554 0.160561
Si Si3 0.881027 0.679159 0.385822
Si Si4 0.647560 0.321626 0.491856
Si Si5 0.602926 0.678839 0.208194
Si Si6 0.393732 0.671413 0.303370
Si Si7 0.907331 0.321133 0.222057
Si Si8 0.444580 0.670898 0.188137
O O1 0.710270 0.500000 0.200983
O O2 0.803168 0.252905 0.325266
O O3 0.687574 0.273327 0.281235
O O4 0.616739 0.250273 0.997429
O O5 0.263909 0.244584 0.304005
O O6 0.324027 0.213417 0.232814
O O7 0.226614 0.000000 0.148607
O O8 0.144508 0.245141 0.954314
O O9 0.878556 0.500000 0.382476
O O10 0.863861 0.731193 0.248530
O O11 0.983816 0.732504 0.596616
O O12 0.665108 0.500000 0.525351
O O13 0.636066 0.260780 0.366075
O O14 0.551501 0.265940 0.382038
O O15 0.593317 0.500000 0.196201
O O16 0.500000 0.744087 0.000000
O O17 0.500000 0.725299 0.500000
O O18 0.377808 0.500000 0.314922
O O19 0.378520 0.678036 0.166456
O O20 0.896766 0.500000 0.193335
O O21 0.462617 0.500000 0.186293
#
# Coordination Sequence:
#
# PCOD8058152 Si02
#       8
#     4   4   4   4   4   4   4   4
#     4   9  14  22  41  74 106 124 147 198 257 295
#     4  12  24  34  46  68  99 136 169 207 249 287
#     4   8  15  28  51  78 101 123 157 207 255 296
#     4  10  18  31  48  69  97 133 170 199 232 289
#     4   9  15  24  43  73 105 129 156 200 249 292
#     4  10  18  30  48  68  92 129 167 197 231 285
#     4   9  17  33  54  75  98 129 166 202 245 302
#     4   9  15  24  43  70  99 127 157 190 232 287
#
# _framework density 17.888349000000002
#
# number of rings (size 3 to 8) (size 9 to 14) (size 15 to 20)
#    0.000    2.500    2.500    2.625    0.000    2.250 
#    0.000    1.250    0.000    1.125    0.000    7.000 
#    0.000    0.000    0.000    0.000    0.000    0.000 
#
# Total GULP energy -396459.806162 kJ/mol
# GULP energy per Si atom -12389.368943 kJ/mol
# Density = 1.784763 g / cm^3
# Si number density = 17.888349 Si / 1000 Ang^3
#
#
#
# Elastic Constant Matrix: (Units=GPa)
#
#
# Indices 1 2 3 4 5 6 
#
# 1 99.5132 16.5715 54.6840 0.0000 -5.2635 0.0000
# 2 16.5715 38.9258 31.1020 0.0000 -5.6743 0.0000
# 3 54.6840 31.1020 133.5595 0.0000 -17.0659 0.0000
# 4 0.0000 0.0000 0.0000 4.2108 0.0000 1.0764
# 5 -5.2635 -5.6743 -17.0659 0.0000 28.8064 0.0000
# 6 0.0000 0.0000 0.0000 1.0764 0.0000 4.8637
#
#
#
# Elastic Compliance Matrix: (Units=1/GPa)
#
#
# Indices 1 2 3 4 5 6 
#
# 1 0.013069 -0.001634 -0.005092 0.000000 -0.000950 0.000000
# 2 -0.001634 0.031875 -0.006480 0.000000 0.002141 0.000000
# 3 -0.005092 -0.006480 0.011684 0.000000 0.004715 0.000000
# 4 0.000000 0.000000 0.000000 0.251729 0.000000 -0.055712
# 5 -0.000950 0.002141 0.004715 0.000000 0.037756 0.000000
# 6 0.000000 0.000000 0.000000 -0.055712 0.000000 0.217934
#
#
# Mechanical properties :
#
#
# Convention : Reuss Voigt Hill
#
# Bulk Modulus (GPa) = 33.09511 52.96815 43.03163
# Shear Modulus (GPa) = 8.32597 18.88557 13.60577
#
# Velocity S-wave (km/s) = 2.15975 3.25275 2.76088
# Velocity P-wave (km/s) = 4.97599 6.61679 5.85416
#
# Compressibility (1/GPa) = 0.03021594
#
# Stress axis : x y z
#
# Youngs Moduli (GPa) = 76.51852 31.37217 85.59027
#
# Poissons Ratio (x) = 0.05126 0.43581
# Poissons Ratio (y) = 0.12502 0.55465
# Poissons Ratio (z) = 0.38962 0.20330
#
# Static dielectric constant tensor:
#      x y z
#    x 3.522920 0.000000 -0.042440 
#    y 0.000000 2.661040 0.000000 
#    z -0.042440 0.000000 3.484970 
# 
# 
# High freq. dielectric constant tensor:
#      x y z
#    x 1.684610 0.000000 -0.011100 
#    y 0.000000 1.622350 0.000000 
#    z -0.011100 0.000000 1.695100 
# 
# From -- ./inp_files/66067.got.cif
#   From: 2010.06.25/outbox.cif.g09.slc.cpg/sg10_34_cif.got.tgz:66067.got - 2010.06.27 22:07:45.
