data_PCOD8058712
_publ_section_title
;
Structure prediction by ZEFSAII (Michael W. Deem and Ramdas Pophale) SiO2 
 PCOD8058712
Probable space group: P 2/M
;
_chemical_formula_sum "Si O2"
_cell_formula_units_Z 30
_cell_length_a 11.413903
_cell_length_b 18.393188
_cell_length_c 13.824351
_cell_angle_alpha 90.000000
_cell_angle_beta 33.034253
_cell_angle_gamma 90.000000
_cell_volume 1582.137566
_symmetry_space_group_name_H-M "P 2/M"
_symmetry_group_IT_number 10
_symmetry_cell_setting 'monoclinic'
loop_
_space_group_symop_operation_xyz
x,y,z
-x,y,-z
-x,-y,-z
x,-y,z
loop_
_atom_site_type_symbol
_atom_site_label
_atom_site_fract_x
_atom_site_fract_y
_atom_site_fract_z
Si Si1 0.549824 0.686039 0.217394
Si Si2 0.238723 0.918653 0.504298
Si Si3 0.500000 0.117974 0.500000
Si Si4 0.401594 0.817133 0.219952
Si Si5 0.841766 0.179017 0.808394
Si Si6 0.028953 0.679328 0.178252
Si Si7 0.198356 0.222423 0.809844
Si Si8 0.354191 0.414480 0.508776
O O1 0.386157 0.732218 0.263642
O O2 0.626866 0.750028 0.235461
O O3 0.443647 0.620484 0.348567
O O4 0.740161 0.651977 0.020230
O O5 0.418703 0.927476 0.464221
O O6 0.334585 0.872562 0.349881
O O7 0.022536 0.882420 0.696393
O O8 0.184995 0.000000 0.505019
O O9 0.297794 0.167517 0.665798
O O10 0.234943 0.824391 0.248518
O O11 0.645397 0.836043 0.018031
O O12 0.943784 0.258197 0.759644
O O13 0.894959 0.707912 0.180135
O O14 0.892700 0.611306 0.311690
O O15 0.000000 0.181874 0.000000
O O16 0.500000 0.391196 0.500000
O O17 0.356878 0.500000 0.493049
#
# Coordination Sequence:
#
# PCOD8058712 Si02
#       8
#     4   4   2   4   4   4   4   4
#     4  10  19  34  57  81 106 139 183 231 275 320
#     4  12  25  38  55  82 116 151 183 222 279 340
#     4  12  21  36  56  78 115 148 180 226 275 334
#     4  10  22  40  62  85 107 140 190 239 278 321
#     4  10  22  40  62  85 107 140 190 239 278 321
#     4  10  19  34  57  81 106 139 183 231 275 320
#     4  10  18  31  57  83 101 139 190 234 278 320
#     4  11  22  33  49  80 119 151 177 212 267 333
#
# _framework density 18.961687999999999
#
# number of rings (size 3 to 8) (size 9 to 14) (size 15 to 20)
#    0.000    1.467    4.000    2.200    0.000    2.133 
#    0.000    2.667    0.000    4.000    0.000    3.733 
#    0.000    0.000    0.000    0.000    0.000    0.000 
#
# Total GULP energy -371926.043773 kJ/mol
# GULP energy per Si atom -12397.534792 kJ/mol
# Density = 1.891853 g / cm^3
# Si number density = 18.961688 Si / 1000 Ang^3
#
#
#
# Elastic Constant Matrix: (Units=GPa)
#
#
# Indices 1 2 3 4 5 6 
#
# 1 87.9507 26.9742 30.7105 0.0000 2.3620 0.0000
# 2 26.9742 99.6674 67.4316 0.0000 6.2330 0.0000
# 3 30.7105 67.4316 122.7568 0.0000 13.2958 0.0000
# 4 0.0000 0.0000 0.0000 12.9941 0.0000 -2.1611
# 5 2.3620 6.2330 13.2958 0.0000 22.7086 0.0000
# 6 0.0000 0.0000 0.0000 -2.1611 0.0000 13.8245
#
#
#
# Elastic Compliance Matrix: (Units=1/GPa)
#
#
# Indices 1 2 3 4 5 6 
#
# 1 0.012721 -0.002044 -0.002111 0.000000 0.000474 0.000000
# 2 -0.002044 0.016310 -0.008527 0.000000 0.000728 0.000000
# 3 -0.002111 -0.008527 0.013966 0.000000 -0.005617 0.000000
# 4 0.000000 0.000000 0.000000 0.079013 0.000000 0.012352
# 5 0.000474 0.000728 -0.005617 0.000000 0.047076 0.000000
# 6 0.000000 0.000000 0.000000 0.012352 0.000000 0.074266
#
#
# Mechanical properties :
#
#
# Convention : Reuss Voigt Hill
#
# Bulk Modulus (GPa) = 56.70885 62.28972 59.49929
# Shear Modulus (GPa) = 18.20869 22.25602 20.23235
#
# Velocity S-wave (km/s) = 3.10221 3.42970 3.27006
# Velocity P-wave (km/s) = 6.54245 6.97176 6.76051
#
# Compressibility (1/GPa) = 0.01763393
#
# Stress axis : x y z
#
# Youngs Moduli (GPa) = 78.60792 61.31210 71.60007
#
# Poissons Ratio (x) = 0.12535 0.15114
# Poissons Ratio (y) = 0.16071 0.61051
# Poissons Ratio (z) = 0.16593 0.52279
#
# Static dielectric constant tensor:
#      x y z
#    x 3.544420 0.000000 0.000920 
#    y 0.000000 3.113480 0.000000 
#    z 0.000920 0.000000 3.680320 
# 
# 
# High freq. dielectric constant tensor:
#      x y z
#    x 1.737500 0.000000 0.003430 
#    y 0.000000 1.703910 0.000000 
#    z 0.003430 0.000000 1.752800 
# 
# From -- ./inp_files/65336.got.cif
#   From: 2010.06.25/outbox.cif.g09.slc.cpg/sg10_33_cif.got.tgz:65336.got - 2010.06.27 22:07:45.
