data_PCOD8058224
_publ_section_title
;
Structure prediction by ZEFSAII (Michael W. Deem and Ramdas Pophale) SiO2 
 PCOD8058224
Probable space group: P 2/M
;
_chemical_formula_sum "Si O2"
_cell_formula_units_Z 32
_cell_length_a 12.736892
_cell_length_b 8.832944
_cell_length_c 17.158187
_cell_angle_alpha 90.000000
_cell_angle_beta 90.629511
_cell_angle_gamma 90.000000
_cell_volume 1930.252513
_symmetry_space_group_name_H-M "P 2/M"
_symmetry_group_IT_number 10
_symmetry_cell_setting 'monoclinic'
loop_
_space_group_symop_operation_xyz
x,y,z
-x,y,-z
-x,-y,-z
x,-y,z
loop_
_atom_site_type_symbol
_atom_site_label
_atom_site_fract_x
_atom_site_fract_y
_atom_site_fract_z
Si Si1 0.121900 0.678439 0.845587
Si Si2 0.609022 0.680653 0.418176
Si Si3 0.613042 0.179826 0.582484
Si Si4 0.998868 0.680215 0.587519
Si Si5 0.793661 0.321910 0.677732
Si Si6 0.802918 0.320555 0.317383
Si Si7 0.117458 0.676482 0.156193
Si Si8 0.124640 0.171434 0.001389
O O1 0.127637 0.500000 0.854720
O O2 0.190036 0.735387 0.772122
O O3 0.170694 0.749391 0.924459
O O4 0.001916 0.732009 0.830535
O O5 0.595674 0.500000 0.422564
O O6 0.500624 0.758900 0.393008
O O7 0.647931 0.741165 0.502163
O O8 0.693621 0.731541 0.354347
O O9 0.693521 0.226180 0.650449
O O10 0.608994 0.000000 0.571697
O O11 0.003725 0.500000 0.587680
O O12 0.893411 0.734439 0.629143
O O13 0.000000 0.744742 0.500000
O O14 0.099711 0.747956 0.633061
O O15 0.773297 0.500000 0.665031
O O16 0.812938 0.283131 0.768302
O O17 0.812763 0.500000 0.319920
O O18 0.116983 0.500000 0.139322
O O19 0.169089 0.755142 0.081021
O O20 0.161920 0.000000 0.999940
O O21 0.000000 0.191192 0.000000
#
# Coordination Sequence:
#
# PCOD8058224 Si02
#       8
#     4   4   4   4   4   4   4   4
#     4   9  15  27  45  68  96 122 153 191 233 278
#     4  10  19  34  55  73  90 118 162 207 243 279
#     4  11  22  35  49  67  95 127 161 201 244 281
#     4   9  15  24  42  69  97 121 149 188 233 279
#     4  10  18  30  49  72  95 123 160 196 233 281
#     4   9  16  27  47  75  97 118 152 198 243 280
#     4   9  16  27  45  68  94 123 156 194 231 272
#     4   9  17  27  40  61  92 129 163 188 222 272
#
# _framework density 16.578142
#
# number of rings (size 3 to 8) (size 9 to 14) (size 15 to 20)
#    0.000    2.500    1.250    3.375    0.000    4.000 
#    0.000    1.250    0.000    4.125    0.000    0.875 
#    0.000    7.000    0.000    0.000    0.000    0.000 
#
# Total GULP energy -396742.641600 kJ/mol
# GULP energy per Si atom -12398.207550 kJ/mol
# Density = 1.654041 g / cm^3
# Si number density = 16.578142 Si / 1000 Ang^3
#
#
#
# Elastic Constant Matrix: (Units=GPa)
#
#
# Indices 1 2 3 4 5 6 
#
# 1 81.0233 30.4181 66.2596 0.0000 -2.4217 0.0000
# 2 30.4181 51.8768 42.4625 0.0000 1.8481 0.0000
# 3 66.2596 42.4625 157.3678 0.0000 -7.9034 0.0000
# 4 0.0000 0.0000 0.0000 10.0028 0.0000 3.6121
# 5 -2.4217 1.8481 -7.9034 0.0000 19.4507 0.0000
# 6 0.0000 0.0000 0.0000 3.6121 0.0000 10.2386
#
#
#
# Elastic Compliance Matrix: (Units=1/GPa)
#
#
# Indices 1 2 3 4 5 6 
#
# 1 0.020313 -0.006337 -0.006825 0.000000 0.000358 0.000000
# 2 -0.006337 0.027237 -0.004952 0.000000 -0.005389 0.000000
# 3 -0.006825 -0.004952 0.010765 0.000000 0.003995 0.000000
# 4 0.000000 0.000000 0.000000 0.114568 0.000000 -0.040419
# 5 0.000358 -0.005389 0.003995 0.000000 0.053592 0.000000
# 6 0.000000 0.000000 0.000000 -0.040419 0.000000 0.111930
#
#
# Mechanical properties :
#
#
# Convention : Reuss Voigt Hill
#
# Bulk Modulus (GPa) = 45.27386 63.17203 54.22294
# Shear Modulus (GPa) = 13.08917 18.01360 15.55139
#
# Velocity S-wave (km/s) = 2.81293 3.29992 3.06611
# Velocity P-wave (km/s) = 6.15782 7.26000 6.73151
#
# Compressibility (1/GPa) = 0.02208780
#
# Stress axis : x y z
#
# Youngs Moduli (GPa) = 49.22888 36.71413 92.89369
#
# Poissons Ratio (x) = 0.23266 0.63400
# Poissons Ratio (y) = 0.31197 0.46000
# Poissons Ratio (z) = 0.33599 0.18181
#
# Static dielectric constant tensor:
#      x y z
#    x 2.917190 0.000000 -0.056780 
#    y 0.000000 2.873800 0.000000 
#    z -0.056780 0.000000 3.327430 
# 
# 
# High freq. dielectric constant tensor:
#      x y z
#    x 1.603470 0.000000 -0.001080 
#    y 0.000000 1.617260 0.000000 
#    z -0.001080 0.000000 1.647640 
# 
# From -- ./inp_files/54888.got.cif
#   From: 2010.06.25/outbox.cif.g09.slc.cpg/sg10_28_cif.got.tgz:54888.got - 2010.06.27 22:07:45.
