data_PCOD8058384
_publ_section_title
;
Structure prediction by ZEFSAII (Michael W. Deem and Ramdas Pophale) SiO2 
 PCOD8058384
Probable space group: P 2/M
;
_chemical_formula_sum "Si O2"
_cell_formula_units_Z 32
_cell_length_a 12.101993
_cell_length_b 8.836165
_cell_length_c 19.942007
_cell_angle_alpha 90.000000
_cell_angle_beta 55.376465
_cell_angle_gamma 90.000000
_cell_volume 1754.842931
_symmetry_space_group_name_H-M "P 2/M"
_symmetry_group_IT_number 10
_symmetry_cell_setting 'monoclinic'
loop_
_space_group_symop_operation_xyz
x,y,z
-x,y,-z
-x,-y,-z
x,-y,z
loop_
_atom_site_type_symbol
_atom_site_label
_atom_site_fract_x
_atom_site_fract_y
_atom_site_fract_z
Si Si1 0.860412 0.675692 0.448549
Si Si2 0.917341 0.325178 0.796294
Si Si3 0.138163 0.177786 0.318519
Si Si4 0.100208 0.323033 0.048803
Si Si5 0.221837 0.673521 0.669131
Si Si6 0.314687 0.321649 0.365843
Si Si7 0.402461 0.824585 0.711578
Si Si8 0.175549 0.176634 0.894905
O O1 0.899069 0.500000 0.441726
O O2 0.770858 0.702987 0.413123
O O3 0.775806 0.734470 0.540717
O O4 0.999082 0.765707 0.398041
O O5 0.902490 0.500000 0.780591
O O6 0.844295 0.226246 0.765040
O O7 0.852121 0.291101 0.891338
O O8 0.074186 0.282928 0.746044
O O9 0.263129 0.244954 0.315881
O O10 0.143536 0.000000 0.321666
O O11 0.108073 0.500000 0.029654
O O12 0.946898 0.270351 0.093805
O O13 0.196697 0.231259 0.964643
O O14 0.256637 0.500000 0.674537
O O15 0.328143 0.781945 0.668252
O O16 0.305845 0.500000 0.361005
O O17 0.466554 0.275722 0.326517
O O18 0.308781 0.787104 0.807431
O O19 0.441733 0.000000 0.695548
O O20 0.139573 0.000000 0.905338
#
# Coordination Sequence:
#
# PCOD8058384 Si02
#       8
#     4   4   4   4   4   4   4   4
#     4   9  20  38  58  80 104 135 178 224 267 313
#     4   9  18  33  54  80 109 140 176 219 262 310
#     4  11  22  35  56  83 109 136 172 221 271 317
#     4  10  18  30  53  81 107 137 179 220 253 303
#     4   9  17  33  54  76 105 139 177 215 260 315
#     4  11  23  39  58  75 100 142 185 223 264 313
#     4  11  23  36  51  75 111 146 178 216 262 321
#     4  10  20  32  48  75 113 146 171 210 265 319
#
# _framework density 18.235250000000001
#
# number of rings (size 3 to 8) (size 9 to 14) (size 15 to 20)
#    0.000    2.000    1.250    4.500    0.000    7.500 
#    0.000    2.500    0.000    0.750    0.000    5.250 
#    0.000    0.000    0.000    0.000    0.000    0.000 
#
# Total GULP energy -396858.541853 kJ/mol
# GULP energy per Si atom -12401.829433 kJ/mol
# Density = 1.819375 g / cm^3
# Si number density = 18.235250 Si / 1000 Ang^3
#
#
#
# Elastic Constant Matrix: (Units=GPa)
#
#
# Indices 1 2 3 4 5 6 
#
# 1 85.4061 33.2162 26.3699 0.0000 17.8475 0.0000
# 2 33.2162 68.7985 23.2477 0.0000 8.8987 0.0000
# 3 26.3699 23.2477 58.0047 0.0000 23.3219 0.0000
# 4 0.0000 0.0000 0.0000 25.8169 0.0000 -3.5422
# 5 17.8475 8.8987 23.3219 0.0000 20.8589 0.0000
# 6 0.0000 0.0000 0.0000 -3.5422 0.0000 14.3934
#
#
#
# Elastic Compliance Matrix: (Units=1/GPa)
#
#
# Indices 1 2 3 4 5 6 
#
# 1 0.016666 -0.006427 -0.000672 0.000000 -0.010767 0.000000
# 2 -0.006427 0.019295 -0.006745 0.000000 0.004809 0.000000
# 3 -0.000672 -0.006745 0.034264 0.000000 -0.034857 0.000000
# 4 0.000000 0.000000 0.000000 0.040088 0.000000 0.009866
# 5 -0.010767 0.004809 -0.034857 0.000000 0.094075 0.000000
# 6 0.000000 0.000000 0.000000 0.009866 0.000000 0.071904
#
#
# Mechanical properties :
#
#
# Convention : Reuss Voigt Hill
#
# Bulk Modulus (GPa) = 23.50855 41.98630 32.74743
# Shear Modulus (GPa) = 15.71543 20.83887 18.27715
#
# Velocity S-wave (km/s) = 2.93886 3.38417 3.16934
# Velocity P-wave (km/s) = 4.94324 6.19233 5.60270
#
# Compressibility (1/GPa) = 0.04253772
#
# Stress axis : x y z
#
# Youngs Moduli (GPa) = 60.00397 51.82618 29.18524
#
# Poissons Ratio (x) = 0.33307 0.01960
# Poissons Ratio (y) = 0.38562 0.19686
# Poissons Ratio (z) = 0.04030 0.34958
#
# Static dielectric constant tensor:
#      x y z
#    x 3.155870 0.000000 0.258020 
#    y 0.000000 3.347280 0.000000 
#    z 0.258020 0.000000 3.581220 
# 
# 
# High freq. dielectric constant tensor:
#      x y z
#    x 1.684550 0.000000 0.023830 
#    y 0.000000 1.711830 0.000000 
#    z 0.023830 0.000000 1.707380 
# 
# From -- ./inp_files/83341.got.cif
#   From: 2010.06.25/outbox.cif.g09.slc.cpg/sg10_42_cif.got.tgz:83341.got - 2010.06.27 22:07:45.
