data_PCOD8058039
_publ_section_title
;
Structure prediction by ZEFSAII (Michael W. Deem and Ramdas Pophale) SiO2 
 PCOD8058039
Probable space group: P 2/M
;
_chemical_formula_sum "Si O2"
_cell_formula_units_Z 28
_cell_length_a 14.904151
_cell_length_b 8.963254
_cell_length_c 18.835138
_cell_angle_alpha 90.000000
_cell_angle_beta 37.303290
_cell_angle_gamma 90.000000
_cell_volume 1524.890984
_symmetry_space_group_name_H-M "P 2/M"
_symmetry_group_IT_number 10
_symmetry_cell_setting 'monoclinic'
loop_
_space_group_symop_operation_xyz
x,y,z
-x,y,-z
-x,-y,-z
x,-y,z
loop_
_atom_site_type_symbol
_atom_site_label
_atom_site_fract_x
_atom_site_fract_y
_atom_site_fract_z
Si Si1 0.396844 0.169227 0.854976
Si Si2 0.002234 0.674765 0.784267
Si Si3 0.908258 0.171180 0.407209
Si Si4 0.060945 0.824502 0.037044
Si Si5 0.315274 0.674065 0.346177
Si Si6 0.758784 0.167467 0.747870
Si Si7 0.709822 0.168929 0.930603
O O1 0.517133 0.274701 0.742049
O O2 0.426950 0.000000 0.811905
O O3 0.233678 0.220158 0.933994
O O4 0.416359 0.183228 0.929267
O O5 0.031578 0.500000 0.767169
O O6 0.034283 0.742443 0.842089
O O7 0.833326 0.709214 0.870367
O O8 0.109031 0.748367 0.658093
O O9 0.796753 0.243551 0.532334
O O10 0.072566 0.190196 0.334206
O O11 0.864704 0.000000 0.424848
O O12 0.039893 0.000000 0.060702
O O13 0.000000 0.769392 0.000000
O O14 0.299919 0.500000 0.368185
O O15 0.278688 0.712436 0.287790
O O16 0.655183 0.192417 0.883613
O O17 0.734958 0.000000 0.732213
O O18 0.779178 0.000000 0.892503
#
# Coordination Sequence:
#
# PCOD8058039 Si02
#       7
#     4   4   4   4   4   4   4
#     4   9  18  34  53  73 100 134 169 204 248 301
#     4  10  18  29  50  80 109 132 158 200 255 303
#     4  10  20  36  55  71  94 134 181 218 248 291
#     4   9  18  35  60  85 105 129 165 204 241 293
#     4  12  24  33  45  70 104 138 171 212 259 301
#     4   9  18  33  52  72  94 128 176 222 257 292
#     4   8  16  32  52  71  95 132 175 213 248 294
#
# _framework density 18.361968000000001
#
# number of rings (size 3 to 8) (size 9 to 14) (size 15 to 20)
#    0.000    2.429    0.000    5.143    0.000    7.714 
#    0.000    2.857    0.000    0.857    0.000    6.000 
#    0.000    0.000    0.000    0.000    0.000    0.000 
#
# Total GULP energy -347097.881276 kJ/mol
# GULP energy per Si atom -12396.352903 kJ/mol
# Density = 1.832017 g / cm^3
# Si number density = 18.361968 Si / 1000 Ang^3
#
#
#
# Elastic Constant Matrix: (Units=GPa)
#
#
# Indices 1 2 3 4 5 6 
#
# 1 55.9794 23.3107 0.6694 0.0000 17.7301 0.0000
# 2 23.3107 100.7093 30.6398 0.0000 6.9800 0.0000
# 3 0.6694 30.6398 47.6105 0.0000 5.8273 0.0000
# 4 0.0000 0.0000 0.0000 21.4183 0.0000 0.5019
# 5 17.7301 6.9800 5.8273 0.0000 21.8435 0.0000
# 6 0.0000 0.0000 0.0000 0.5019 0.0000 17.5831
#
#
#
# Elastic Compliance Matrix: (Units=1/GPa)
#
#
# Indices 1 2 3 4 5 6 
#
# 1 0.027647 -0.006932 0.006769 0.000000 -0.022032 0.000000
# 2 -0.006932 0.014161 -0.009459 0.000000 0.003625 0.000000
# 3 0.006769 -0.009459 0.028220 0.000000 -0.010000 0.000000
# 4 0.000000 0.000000 0.000000 0.046720 0.000000 -0.001334
# 5 -0.022032 0.003625 -0.010000 0.000000 0.065173 0.000000
# 6 0.000000 0.000000 0.000000 -0.001334 0.000000 0.056911
#
#
# Mechanical properties :
#
#
# Convention : Reuss Voigt Hill
#
# Bulk Modulus (GPa) = 19.69145 34.83768 27.26457
# Shear Modulus (GPa) = 18.18153 22.14759 20.16456
#
# Velocity S-wave (km/s) = 3.15012 3.47676 3.31746
# Velocity P-wave (km/s) = 4.89676 5.92715 5.43642
#
# Compressibility (1/GPa) = 0.05078345
#
# Stress axis : x y z
#
# Youngs Moduli (GPa) = 36.16990 70.61797 35.43574
#
# Poissons Ratio (x) = 0.48951 -0.23986
# Poissons Ratio (y) = 0.25072 0.33520
# Poissons Ratio (z) = -0.24483 0.66800
#
# Static dielectric constant tensor:
#      x y z
#    x 3.205920 0.000000 0.264750 
#    y 0.000000 3.264440 0.000000 
#    z 0.264750 0.000000 3.543350 
# 
# 
# High freq. dielectric constant tensor:
#      x y z
#    x 1.678670 0.000000 0.017470 
#    y 0.000000 1.704050 0.000000 
#    z 0.017470 0.000000 1.715920 
# 
# From -- ./inp_files/68617.got.cif
#   From: 2010.06.25/outbox.cif.g09.slc.cpg/sg10_35_cif.got.tgz:68617.got - 2010.06.27 22:07:45.
