data_PCOD8058957
_publ_section_title
;
Structure prediction by ZEFSAII (Michael W. Deem and Ramdas Pophale) SiO2 
 PCOD8058957
Probable space group: P 2/M
;
_chemical_formula_sum "Si O2"
_cell_formula_units_Z 26
_cell_length_a 14.174558
_cell_length_b 9.540426
_cell_length_c 12.408163
_cell_angle_alpha 90.000000
_cell_angle_beta 124.580278
_cell_angle_gamma 90.000000
_cell_volume 1381.527905
_symmetry_space_group_name_H-M "P 2/M"
_symmetry_group_IT_number 10
_symmetry_cell_setting 'monoclinic'
loop_
_space_group_symop_operation_xyz
x,y,z
-x,y,-z
-x,-y,-z
x,-y,z
loop_
_atom_site_type_symbol
_atom_site_label
_atom_site_fract_x
_atom_site_fract_y
_atom_site_fract_z
Si Si1 0.715021 0.662606 0.918703
Si Si2 0.109401 0.163791 0.370342
Si Si3 0.499251 0.157904 0.737546
Si Si4 0.843636 0.835139 0.177650
Si Si5 0.747560 0.345791 0.693783
Si Si6 0.254324 0.834287 0.661245
Si Si7 0.500000 0.244125 0.500000
O O1 0.701854 0.500000 0.943751
O O2 0.591939 0.736906 0.846562
O O3 0.764827 0.677966 0.831658
O O4 0.803510 0.742509 0.052089
O O5 0.174006 0.231921 0.311987
O O6 0.161480 0.224044 0.515578
O O7 0.976166 0.198379 0.282658
O O8 0.133541 0.000000 0.375097
O O9 0.379713 0.215975 0.706599
O O10 0.497155 0.150728 0.606134
O O11 0.524021 0.000000 0.794849
O O12 0.774709 0.781196 0.237915
O O13 0.823316 0.000000 0.141366
O O14 0.790575 0.500000 0.688415
O O15 0.613695 0.338431 0.575463
O O16 0.245964 0.000000 0.655093
#
# Coordination Sequence:
#
# PCOD8058957 Si02
#       7
#     4   4   4   4   4   4   2
#     4  10  23  40  55  78 115 154 190 227 276 331
#     4  10  20  36  59  88 113 141 184 235 281 327
#     4  10  19  33  58  87 114 142 182 230 280 332
#     4  10  21  38  60  80 110 151 192 230 271 328
#     4  10  21  36  56  81 112 150 185 225 278 336
#     4   9  18  35  58  87 114 143 180 229 285 332
#     4  10  18  32  56  86 114 144 178 228 278 330
#
# _framework density 18.819742000000002
#
# number of rings (size 3 to 8) (size 9 to 14) (size 15 to 20)
#    0.000    2.154    1.538    1.385    0.000    7.385 
#    0.000    7.692    0.000    1.846    0.000    0.000 
#    0.000    0.000    0.000    0.000    0.000    0.000 
#
# Total GULP energy -322394.030715 kJ/mol
# GULP energy per Si atom -12399.770412 kJ/mol
# Density = 1.877691 g / cm^3
# Si number density = 18.819742 Si / 1000 Ang^3
#
#
#
# Elastic Constant Matrix: (Units=GPa)
#
#
# Indices 1 2 3 4 5 6 
#
# 1 88.6392 30.1022 13.7104 0.0000 -5.4229 0.0000
# 2 30.1022 70.4106 40.0459 0.0000 4.0619 0.0000
# 3 13.7104 40.0459 70.9562 0.0000 -1.3882 0.0000
# 4 0.0000 0.0000 0.0000 12.7213 0.0000 3.0651
# 5 -5.4229 4.0619 -1.3882 0.0000 18.7329 0.0000
# 6 0.0000 0.0000 0.0000 3.0651 0.0000 14.0268
#
#
#
# Elastic Compliance Matrix: (Units=1/GPa)
#
#
# Indices 1 2 3 4 5 6 
#
# 1 0.013792 -0.007021 0.001408 0.000000 0.005619 0.000000
# 2 -0.007021 0.025054 -0.012948 0.000000 -0.008425 0.000000
# 3 0.001408 -0.012948 0.021223 0.000000 0.004788 0.000000
# 4 0.000000 0.000000 0.000000 0.082977 0.000000 -0.018132
# 5 0.005619 -0.008425 0.004788 0.000000 0.057190 0.000000
# 6 0.000000 0.000000 0.000000 -0.018132 0.000000 0.075254
#
#
# Mechanical properties :
#
#
# Convention : Reuss Voigt Hill
#
# Bulk Modulus (GPa) = 43.58174 44.19143 43.88659
# Shear Modulus (GPa) = 15.61217 18.83937 17.22577
#
# Velocity S-wave (km/s) = 2.88334 3.16736 3.02868
# Velocity P-wave (km/s) = 5.85599 6.07525 5.96662
#
# Compressibility (1/GPa) = 0.02294539
#
# Stress axis : x y z
#
# Youngs Moduli (GPa) = 72.50484 39.91306 47.11962
#
# Poissons Ratio (x) = 0.28024 -0.06632
# Poissons Ratio (y) = 0.50907 0.61012
# Poissons Ratio (z) = -0.10205 0.51681
#
# Static dielectric constant tensor:
#      x y z
#    x 3.551550 0.000000 -0.065260 
#    y 0.000000 3.265920 0.000000 
#    z -0.065260 0.000000 3.546070 
# 
# 
# High freq. dielectric constant tensor:
#      x y z
#    x 1.734960 0.000000 0.001160 
#    y 0.000000 1.711510 0.000000 
#    z 0.001160 0.000000 1.735060 
# 
# From -- ./inp_files/49484.got.cif
#   From: 2010.06.25/outbox.cif.g09.slc.cpg/sg10_25_cif.got.tgz:49484.got - 2010.06.27 22:07:45.
