data_PCOD8058968
_publ_section_title
;
Structure prediction by ZEFSAII (Michael W. Deem and Ramdas Pophale) SiO2 
 PCOD8058968
Probable space group: P 2/M
;
_chemical_formula_sum "Si O2"
_cell_formula_units_Z 32
_cell_length_a 12.610871
_cell_length_b 8.579960
_cell_length_c 28.935911
_cell_angle_alpha 90.000000
_cell_angle_beta 149.513632
_cell_angle_gamma 90.000000
_cell_volume 1588.403794
_symmetry_space_group_name_H-M "P 2/M"
_symmetry_group_IT_number 10
_symmetry_cell_setting 'monoclinic'
loop_
_space_group_symop_operation_xyz
x,y,z
-x,y,-z
-x,-y,-z
x,-y,z
loop_
_atom_site_type_symbol
_atom_site_label
_atom_site_fract_x
_atom_site_fract_y
_atom_site_fract_z
Si Si1 0.653657 0.319302 0.988832
Si Si2 0.179911 0.823985 0.035357
Si Si3 0.830448 0.817695 0.475094
Si Si4 0.909934 0.318248 0.350414
Si Si5 0.986892 0.684579 0.184532
Si Si6 0.797693 0.315143 0.206811
Si Si7 0.609663 0.315906 0.717996
Si Si8 0.490332 0.824598 0.764284
O O1 0.616553 0.500000 0.983321
O O2 0.803302 0.290349 0.001454
O O3 0.426531 0.242059 0.893439
O O4 0.779557 0.249414 0.080115
O O5 0.394630 0.823296 0.143886
O O6 0.123789 0.000000 0.998149
O O7 0.000000 0.754655 0.000000
O O8 0.614566 0.728253 0.386478
O O9 0.000000 0.766067 0.500000
O O10 0.902922 0.772324 0.554024
O O11 0.787188 0.000000 0.455868
O O12 0.963499 0.500000 0.369226
O O13 0.875677 0.249490 0.285624
O O14 0.705857 0.289642 0.304979
O O15 0.985759 0.500000 0.178215
O O16 0.967338 0.730784 0.231261
O O17 0.204015 0.749579 0.245029
O O18 0.772205 0.500000 0.202401
O O19 0.627089 0.500000 0.729785
O O20 0.639325 0.236830 0.779316
O O21 0.412788 0.000000 0.723224
#
# Coordination Sequence:
#
# PCOD8058968 Si02
#       8
#     4   4   4   4   4   4   4   4
#     4  10  18  32  57  85 111 147 192 235 274 322
#     4  10  21  34  48  72 112 157 191 225 276 333
#     4  11  23  39  60  84 112 150 184 223 284 346
#     4  11  21  35  59  88 112 140 184 234 277 327
#     4   9  19  35  56  85 118 149 186 233 285 330
#     4   9  18  34  57  86 117 149 187 232 281 328
#     4  11  22  36  58  86 114 146 186 235 280 332
#     4  11  21  34  53  77 113 153 184 225 282 336
#
# _framework density 20.14601
#
# number of rings (size 3 to 8) (size 9 to 14) (size 15 to 20)
#    0.000    1.750    2.500    2.625    0.000    2.750 
#    0.000    1.250    0.000   11.250    0.000    0.000 
#    0.000    0.000    0.000    0.000    0.000    0.000 
#
# Total GULP energy -396700.265533 kJ/mol
# GULP energy per Si atom -12396.883298 kJ/mol
# Density = 2.010016 g / cm^3
# Si number density = 20.146010 Si / 1000 Ang^3
#
#
#
# Elastic Constant Matrix: (Units=GPa)
#
#
# Indices 1 2 3 4 5 6 
#
# 1 128.5527 11.2478 38.8188 0.0000 -10.1983 0.0000
# 2 11.2478 30.2014 9.9262 0.0000 -5.6120 0.0000
# 3 38.8188 9.9262 78.6235 0.0000 -16.2777 0.0000
# 4 0.0000 0.0000 0.0000 17.8664 0.0000 -1.4331
# 5 -10.1983 -5.6120 -16.2777 0.0000 29.6902 0.0000
# 6 0.0000 0.0000 0.0000 -1.4331 0.0000 10.5927
#
#
#
# Elastic Compliance Matrix: (Units=1/GPa)
#
#
# Indices 1 2 3 4 5 6 
#
# 1 0.009266 -0.001971 -0.004224 0.000000 0.000495 0.000000
# 2 -0.001971 0.035547 -0.002554 0.000000 0.004642 0.000000
# 3 -0.004224 -0.002554 0.016612 0.000000 0.007174 0.000000
# 4 0.000000 0.000000 0.000000 0.056585 0.000000 0.007655
# 5 0.000495 0.004642 0.007174 0.000000 0.038662 0.000000
# 6 0.000000 0.000000 0.000000 0.007655 0.000000 0.095440
#
#
# Mechanical properties :
#
#
# Convention : Reuss Voigt Hill
#
# Bulk Modulus (GPa) = 22.76432 39.70702 31.23567
# Shear Modulus (GPa) = 17.59013 23.45552 20.52282
#
# Velocity S-wave (km/s) = 2.95809 3.41585 3.19518
# Velocity P-wave (km/s) = 4.79492 5.94220 5.39912
#
# Compressibility (1/GPa) = 0.04392840
#
# Stress axis : x y z
#
# Youngs Moduli (GPa) = 107.92132 28.13187 60.19795
#
# Poissons Ratio (x) = 0.05544 0.25426
# Poissons Ratio (y) = 0.21269 0.15373
# Poissons Ratio (z) = 0.45583 0.07184
#
# Static dielectric constant tensor:
#      x y z
#    x 3.771420 0.000000 -0.106750 
#    y 0.000000 3.334510 0.000000 
#    z -0.106750 0.000000 3.777390 
# 
# 
# High freq. dielectric constant tensor:
#      x y z
#    x 1.785860 0.000000 -0.008710 
#    y 0.000000 1.753520 0.000000 
#    z -0.008710 0.000000 1.788670 
# 
# From -- ./inp_files/95093.got.cif
#   From: 2010.06.25/outbox.cif.g09.slc.cpg/sg10_48_cif.got.tgz:95093.got - 2010.06.27 22:07:45.
