data_PCOD8058291
_publ_section_title
;
Structure prediction by ZEFSAII (Michael W. Deem and Ramdas Pophale) SiO2 
 PCOD8058291
Probable space group: P 2/M
;
_chemical_formula_sum "Si O2"
_cell_formula_units_Z 32
_cell_length_a 19.923618
_cell_length_b 9.018314
_cell_length_c 28.523388
_cell_angle_alpha 90.000000
_cell_angle_beta 20.819697
_cell_angle_gamma 90.000000
_cell_volume 1821.573457
_symmetry_space_group_name_H-M "P 2/M"
_symmetry_group_IT_number 10
_symmetry_cell_setting 'monoclinic'
loop_
_space_group_symop_operation_xyz
x,y,z
-x,y,-z
-x,-y,-z
x,-y,z
loop_
_atom_site_type_symbol
_atom_site_label
_atom_site_fract_x
_atom_site_fract_y
_atom_site_fract_z
Si Si1 0.439492 0.670512 0.228777
Si Si2 0.327992 0.173926 0.392738
Si Si3 0.067194 0.171740 0.308452
Si Si4 0.611537 0.327328 0.843293
Si Si5 0.035099 0.325640 0.910817
Si Si6 0.218921 0.828396 0.108801
Si Si7 0.720795 0.176784 0.179017
Si Si8 0.142625 0.671312 0.067759
O O1 0.423965 0.500000 0.253102
O O2 0.327086 0.760915 0.341145
O O3 0.346501 0.702430 0.238923
O O4 0.657805 0.721046 0.084821
O O5 0.508619 0.225735 0.304993
O O6 0.141657 0.226902 0.541645
O O7 0.331649 0.000000 0.384241
O O8 0.215426 0.266810 0.240394
O O9 0.091031 0.199524 0.237719
O O10 0.098623 0.000000 0.300684
O O11 0.586104 0.500000 0.869979
O O12 0.419036 0.250450 0.985331
O O13 0.032352 0.500000 0.924652
O O14 0.020177 0.300599 0.864522
O O15 0.226614 0.248482 0.804711
O O16 0.858237 0.246700 0.050740
O O17 0.101482 0.765208 0.141264
O O18 0.259806 0.000000 0.073560
O O19 0.746532 0.000000 0.163813
O O20 0.155420 0.500000 0.074430
#
# Coordination Sequence:
#
# PCOD8058291 Si02
#       8
#     4   4   4   4   4   4   4   4
#     4   9  18  33  50  72 102 132 165 202 249 303
#     4  10  21  35  51  71 103 139 169 205 246 297
#     4  10  22  38  52  72 100 134 173 209 251 298
#     4  10  21  36  54  77 102 128 164 213 259 298
#     4  10  18  30  50  75 104 135 163 199 250 299
#     4  10  20  34  55  77  99 129 168 213 255 297
#     4  10  19  30  47  75 105 133 167 205 242 292
#     4   9  18  32  51  76 105 132 163 207 254 299
#
# _framework density 17.567229000000001
#
# number of rings (size 3 to 8) (size 9 to 14) (size 15 to 20)
#    0.000    2.250    1.250    3.375    0.000    7.500 
#    0.000    2.500    0.000    0.750    0.000    5.250 
#    0.000    0.000    0.000    0.000    0.000    0.000 
#
# Total GULP energy -396793.365006 kJ/mol
# GULP energy per Si atom -12399.792656 kJ/mol
# Density = 1.752725 g / cm^3
# Si number density = 17.567229 Si / 1000 Ang^3
#
#
#
# Elastic Constant Matrix: (Units=GPa)
#
#
# Indices 1 2 3 4 5 6 
#
# 1 114.4242 48.4469 35.0630 0.0000 9.0754 0.0000
# 2 48.4469 72.7499 28.1191 0.0000 7.5272 0.0000
# 3 35.0630 28.1191 59.2924 0.0000 21.0824 0.0000
# 4 0.0000 0.0000 0.0000 -2.8161 0.0000 1.2883
# 5 9.0754 7.5272 21.0824 0.0000 17.6925 0.0000
# 6 0.0000 0.0000 0.0000 1.2883 0.0000 35.5599
#
#
#
# Elastic Compliance Matrix: (Units=1/GPa)
#
#
# Indices 1 2 3 4 5 6 
#
# 1 0.013119 -0.006914 -0.005435 0.000000 0.002689 0.000000
# 2 -0.006914 0.020646 -0.006664 0.000000 0.002704 0.000000
# 3 -0.005435 -0.006664 0.036857 0.000000 -0.038295 0.000000
# 4 0.000000 0.000000 0.000000 -0.349313 0.000000 0.012655
# 5 0.002689 0.002704 -0.038295 0.000000 0.099624 0.000000
# 6 0.000000 0.000000 0.000000 0.012655 0.000000 0.027663
#
#
# Mechanical properties :
#
#
# Convention : Reuss Voigt Hill
#
# Bulk Modulus (GPa) = 30.67907 52.19161 41.43534
# Shear Modulus (GPa) = -48.77407 19.07643 -14.84882
#
# Velocity S-wave (km/s) = -5.27489 3.29889 -2.91048
# Velocity P-wave (km/s) = 4.42692 6.65465 3.51331
#
# Compressibility (1/GPa) = 0.03259551
#
# Stress axis : x y z
#
# Youngs Moduli (GPa) = 76.22569 48.43572 27.13224
#
# Poissons Ratio (x) = 0.33487 0.14747
# Poissons Ratio (y) = 0.52701 0.18081
# Poissons Ratio (z) = 0.41430 0.32278
#
# Static dielectric constant tensor:
#      x y z
#    x 3.515550 0.000000 -0.111760 
#    y 0.000000 3.315750 0.000000 
#    z -0.111760 0.000000 3.127090 
# 
# 
# High freq. dielectric constant tensor:
#      x y z
#    x 1.691460 0.000000 -0.004090 
#    y 0.000000 1.687130 0.000000 
#    z -0.004090 0.000000 1.644260 
# 
# From -- ./inp_files/95642.got.cif
#   From: 2010.06.25/outbox.cif.g09.slc.cpg/sg10_48_cif.got.tgz:95642.got - 2010.06.27 22:07:45.
