data_PCOD8058079
_publ_section_title
;
Structure prediction by ZEFSAII (Michael W. Deem and Ramdas Pophale) SiO2 
 PCOD8058079
Probable space group: P 2/M
;
_chemical_formula_sum "Si O2"
_cell_formula_units_Z 28
_cell_length_a 18.732282
_cell_length_b 9.339873
_cell_length_c 17.945715
_cell_angle_alpha 90.000000
_cell_angle_beta 148.420176
_cell_angle_gamma 90.000000
_cell_volume 1644.232943
_symmetry_space_group_name_H-M "P 2/M"
_symmetry_group_IT_number 10
_symmetry_cell_setting 'monoclinic'
loop_
_space_group_symop_operation_xyz
x,y,z
-x,y,-z
-x,-y,-z
x,-y,z
loop_
_atom_site_type_symbol
_atom_site_label
_atom_site_fract_x
_atom_site_fract_y
_atom_site_fract_z
Si Si1 0.195211 0.661260 0.025356
Si Si2 0.773489 0.831174 0.087830
Si Si3 0.343800 0.664349 0.882547
Si Si4 0.850563 0.165431 0.395347
Si Si5 0.086126 0.836351 0.381966
Si Si6 0.851592 0.670156 0.857851
Si Si7 0.128691 0.339959 0.283039
O O1 0.247655 0.500000 0.055427
O O2 0.261393 0.770731 0.025398
O O3 0.238191 0.709876 0.148427
O O4 0.032327 0.664941 0.875143
O O5 0.745665 0.000000 0.064764
O O6 0.675978 0.753346 0.059547
O O7 0.927972 0.790890 0.247753
O O8 0.298122 0.500000 0.853826
O O9 0.257819 0.732161 0.739181
O O10 0.500000 0.674692 0.000000
O O11 0.840287 0.192942 0.474464
O O12 0.000000 0.206627 0.500000
O O13 0.819070 0.000000 0.347064
O O14 0.166908 0.752919 0.389137
O O15 0.093243 0.000000 0.364790
O O16 0.867549 0.500000 0.869096
O O17 0.795788 0.717879 0.725998
O O18 0.000000 0.741376 0.000000
O O19 0.177459 0.500000 0.344704
#
# Coordination Sequence:
#
# PCOD8058079 Si02
#       7
#     4   4   4   4   4   4   4
#     4   8  13  22  37  57  82 115 154 192 228 268
#     4  10  18  30  46  65  91 122 156 193 235 283
#     4  11  24  38  51  71  97 123 157 202 245 284
#     4  10  19  35  54  72  95 125 160 197 237 286
#     4   9  17  28  43  65  92 119 151 193 233 272
#     4   7  10  18  32  51  79 115 151 185 222 267
#     4   8  13  21  35  56  83 117 154 187 224 272
#
# _framework density 17.029216000000002
#
# number of rings (size 3 to 8) (size 9 to 14) (size 15 to 20)
#    0.000    3.000    1.429    2.571    0.000    2.571 
#    0.000    0.714    0.000    4.286    0.000    0.000 
#    0.000    1.143    0.000   12.857    0.000   10.000 
#
# Total GULP energy -346914.685924 kJ/mol
# GULP energy per Si atom -12389.810212 kJ/mol
# Density = 1.699046 g / cm^3
# Si number density = 17.029216 Si / 1000 Ang^3
#
#
#
# Elastic Constant Matrix: (Units=GPa)
#
#
# Indices 1 2 3 4 5 6 
#
# 1 107.7970 59.8305 42.3841 0.0000 -37.0310 0.0000
# 2 59.8305 87.8082 35.7195 0.0000 -15.7332 0.0000
# 3 42.3841 35.7195 44.8378 0.0000 -13.9876 0.0000
# 4 0.0000 0.0000 0.0000 20.3269 0.0000 -6.9457
# 5 -37.0310 -15.7332 -13.9876 0.0000 24.2840 0.0000
# 6 0.0000 0.0000 0.0000 -6.9457 0.0000 0.4390
#
#
#
# Elastic Compliance Matrix: (Units=1/GPa)
#
#
# Indices 1 2 3 4 5 6 
#
# 1 0.031239 -0.011028 -0.009889 0.000000 0.034796 0.000000
# 2 -0.011028 0.021047 -0.008941 0.000000 -0.008331 0.000000
# 3 -0.009889 -0.008941 0.039329 0.000000 0.001780 0.000000
# 4 0.000000 0.000000 0.000000 -0.011166 0.000000 -0.176650
# 5 0.034796 -0.008331 0.001780 0.000000 0.089868 0.000000
# 6 0.000000 0.000000 0.000000 -0.176650 0.000000 -0.516972
#
#
# Mechanical properties :
#
#
# Convention : Reuss Voigt Hill
#
# Bulk Modulus (GPa) = 31.35000 57.36791 44.35896
# Shear Modulus (GPa) = -18.09600 15.84393 -1.12604
#
# Velocity S-wave (km/s) = -3.26336 3.05355 -0.81405
# Velocity P-wave (km/s) = 2.06159 6.79656 5.02212
#
# Compressibility (1/GPa) = 0.03189792
#
# Stress axis : x y z
#
# Youngs Moduli (GPa) = 32.01100 47.51197 25.42644
#
# Poissons Ratio (x) = 0.52397 0.25145
# Poissons Ratio (y) = 0.35302 0.22735
# Poissons Ratio (z) = 0.31657 0.42482
#
# Static dielectric constant tensor:
#      x y z
#    x 3.417960 0.000000 -0.532890 
#    y 0.000000 3.126400 0.000000 
#    z -0.532890 0.000000 2.996810 
# 
# 
# High freq. dielectric constant tensor:
#      x y z
#    x 1.658990 0.000000 -0.047130 
#    y 0.000000 1.644500 0.000000 
#    z -0.047130 0.000000 1.604610 
# 
# From -- ./inp_files/79303.got.cif
#   From: 2010.06.25/outbox.cif.g09.slc.cpg/sg10_40_cif.got.tgz:79303.got - 2010.06.27 22:07:45.
