data_PCOD8058064
_publ_section_title
;
Structure prediction by ZEFSAII (Michael W. Deem and Ramdas Pophale) SiO2 
 PCOD8058064
Probable space group: P 2/M
;
_chemical_formula_sum "Si O2"
_cell_formula_units_Z 24
_cell_length_a 5.070422
_cell_length_b 22.282731
_cell_length_c 13.616501
_cell_angle_alpha 90.000000
_cell_angle_beta 79.133377
_cell_angle_gamma 90.000000
_cell_volume 1510.845016
_symmetry_space_group_name_H-M "P 2/M"
_symmetry_group_IT_number 10
_symmetry_cell_setting 'monoclinic'
loop_
_space_group_symop_operation_xyz
x,y,z
-x,y,-z
-x,-y,-z
x,-y,z
loop_
_atom_site_type_symbol
_atom_site_label
_atom_site_fract_x
_atom_site_fract_y
_atom_site_fract_z
Si Si1 0.026163 0.432342 0.881285
Si Si2 0.280389 0.071397 0.441578
Si Si3 0.478205 0.367089 0.117762
Si Si4 0.675923 0.930411 0.783665
Si Si5 0.285019 0.245760 0.934139
Si Si6 0.128916 0.879935 0.885516
O O1 0.974540 0.500000 0.848090
O O2 0.826336 0.386884 0.836810
O O3 0.328370 0.411796 0.835508
O O4 0.000000 0.428016 0.000000
O O5 0.500000 0.098410 0.500000
O O6 0.340626 0.092861 0.326966
O O7 0.000000 0.097186 0.500000
O O8 0.283188 0.000000 0.445084
O O9 0.567138 0.298790 0.137359
O O10 0.500000 0.375387 0.000000
O O11 0.387249 0.922044 0.854446
O O12 0.907217 0.892135 0.819019
O O13 0.757988 0.000000 0.783885
O O14 0.219519 0.189487 0.869085
O O15 0.500000 0.223087 0.000000
O O16 0.000000 0.269427 0.000000
O O17 0.000000 0.893465 0.000000
#
# Coordination Sequence:
#
# PCOD8058064 Si02
#       6
#     4   4   4   4   4   4
#     4   9  15  21  30  47  69  88 110 150 207 257
#     4   9  17  31  50  69  87 105 127 160 204 255
#     4   9  15  23  35  48  63  89 124 160 199 242
#     4  11  22  34  49  68  87 109 137 169 215 267
#     4  10  18  30  43  53  69  99 140 176 204 234
#     4  11  22  34  46  62  86 115 145 178 211 246
#
# _framework density 15.885149999999999
#
# number of rings (size 3 to 8) (size 9 to 14) (size 15 to 20)
#    0.000    2.167    0.000    7.000    0.000    6.667 
#    0.000    0.000    0.000    0.000    0.000    0.000 
#    0.000    0.000    0.000    0.000    0.000    0.000 
#
# Total GULP energy -297430.620330 kJ/mol
# GULP energy per Si atom -12392.942514 kJ/mol
# Density = 1.584899 g / cm^3
# Si number density = 15.885150 Si / 1000 Ang^3
#
#
#
# Elastic Constant Matrix: (Units=GPa)
#
#
# Indices 1 2 3 4 5 6 
#
# 1 126.5083 39.4927 38.3530 0.0000 18.1305 0.0000
# 2 39.4927 75.4480 39.5694 0.0000 9.7521 0.0000
# 3 38.3530 39.5694 52.5653 0.0000 10.7502 0.0000
# 4 0.0000 0.0000 0.0000 1.2803 0.0000 6.6016
# 5 18.1305 9.7521 10.7502 0.0000 22.6445 0.0000
# 6 0.0000 0.0000 0.0000 6.6016 0.0000 28.8833
#
#
#
# Elastic Compliance Matrix: (Units=1/GPa)
#
#
# Indices 1 2 3 4 5 6 
#
# 1 0.010959 -0.002356 -0.005134 0.000000 -0.005323 0.000000
# 2 -0.002356 0.022472 -0.015066 0.000000 -0.000639 0.000000
# 3 -0.005134 -0.015066 0.035379 0.000000 -0.006196 0.000000
# 4 0.000000 0.000000 0.000000 -4.375367 0.000000 1.000035
# 5 -0.005323 -0.000639 -0.006196 0.000000 0.051639 0.000000
# 6 0.000000 0.000000 0.000000 1.000035 0.000000 -0.193946
#
#
# Mechanical properties :
#
#
# Convention : Reuss Voigt Hill
#
# Bulk Modulus (GPa) = 42.19985 54.37243 48.28614
# Shear Modulus (GPa) = -1.13744 19.70204 9.28230
#
# Velocity S-wave (km/s) = -0.84711 3.52558 2.41993
# Velocity P-wave (km/s) = 5.06621 7.13272 6.18637
#
# Compressibility (1/GPa) = 0.02369676
#
# Stress axis : x y z
#
# Youngs Moduli (GPa) = 91.24545 44.50062 28.26557
#
# Poissons Ratio (x) = 0.10484 0.14512
# Poissons Ratio (y) = 0.21497 0.42586
# Poissons Ratio (z) = 0.46848 0.67046
#
# Static dielectric constant tensor:
#      x y z
#    x 3.466930 0.000000 0.125260 
#    y 0.000000 2.994230 0.000000 
#    z 0.125260 0.000000 2.574670 
# 
# 
# High freq. dielectric constant tensor:
#      x y z
#    x 1.642430 0.000000 0.018540 
#    y 0.000000 1.596830 0.000000 
#    z 0.018540 0.000000 1.531750 
# 
# From -- ./inp_files/39525.got.cif
#   From: 2010.06.25/outbox.cif.g09.slc.cpg/sg10_20_cif.got.tgz:39525.got - 2010.06.27 22:07:45.
