data_PCOD8058859
_publ_section_title
;
Structure prediction by ZEFSAII (Michael W. Deem and Ramdas Pophale) SiO2 
 PCOD8058859
Probable space group: P 2/M
;
_chemical_formula_sum "Si O2"
_cell_formula_units_Z 28
_cell_length_a 14.814088
_cell_length_b 8.835476
_cell_length_c 15.884342
_cell_angle_alpha 90.000000
_cell_angle_beta 46.060228
_cell_angle_gamma 90.000000
_cell_volume 1497.092325
_symmetry_space_group_name_H-M "P 2/M"
_symmetry_group_IT_number 10
_symmetry_cell_setting 'monoclinic'
loop_
_space_group_symop_operation_xyz
x,y,z
-x,y,-z
-x,-y,-z
x,-y,z
loop_
_atom_site_type_symbol
_atom_site_label
_atom_site_fract_x
_atom_site_fract_y
_atom_site_fract_z
Si Si1 0.182226 0.820326 0.775604
Si Si2 0.559968 0.322439 0.694708
Si Si3 0.969930 0.179277 0.650397
Si Si4 0.071606 0.820153 0.136736
Si Si5 0.704987 0.820141 0.123422
Si Si6 0.800350 0.178996 0.608509
Si Si7 0.383157 0.170374 0.514321
O O1 0.237775 0.753995 0.826463
O O2 0.264546 0.767182 0.642742
O O3 0.040956 0.762116 0.850843
O O4 0.187102 0.000000 0.779408
O O5 0.548231 0.500000 0.711540
O O6 0.429811 0.249301 0.808128
O O7 0.668383 0.262644 0.685846
O O8 0.591632 0.281221 0.578589
O O9 0.943455 0.249471 0.759771
O O10 0.863472 0.235674 0.654530
O O11 0.108135 0.226209 0.528126
O O12 0.963727 0.000000 0.657744
O O13 0.063500 0.000000 0.147189
O O14 0.203163 0.769174 0.011575
O O15 0.691376 0.000000 0.137264
O O16 0.777906 0.000000 0.623701
O O17 0.500000 0.168122 0.500000
O O18 0.358443 0.000000 0.495575
#
# Coordination Sequence:
#
# PCOD8058859 Si02
#       7
#     4   4   4   4   4   4   4
#     4   9  16  28  50  80 106 130 165 210 258 306
#     4  12  24  35  49  73 107 142 176 212 255 303
#     4   8  15  30  55  86 107 125 162 218 270 306
#     4   9  16  27  50  81 106 127 166 221 263 299
#     4  10  19  33  51  73 103 140 177 211 251 303
#     4   9  17  33  58  81 105 133 165 209 265 320
#     4  10  18  32  54  77 103 133 168 208 254 308
#
# _framework density 18.702922000000001
#
# number of rings (size 3 to 8) (size 9 to 14) (size 15 to 20)
#    0.000    2.429    1.429    3.429    0.000    4.286 
#    0.000    2.143    0.000   10.286    0.000    0.000 
#    0.000    0.000    0.000    0.000    0.000    0.000 
#
# Total GULP energy -347134.819296 kJ/mol
# GULP energy per Si atom -12397.672118 kJ/mol
# Density = 1.866035 g / cm^3
# Si number density = 18.702922 Si / 1000 Ang^3
#
#
#
# Elastic Constant Matrix: (Units=GPa)
#
#
# Indices 1 2 3 4 5 6 
#
# 1 114.5567 22.6108 72.5676 0.0000 -16.8907 0.0000
# 2 22.6108 36.8733 30.4677 0.0000 -7.3356 0.0000
# 3 72.5676 30.4677 144.1533 0.0000 -18.5992 0.0000
# 4 0.0000 0.0000 0.0000 4.5880 0.0000 4.0429
# 5 -16.8907 -7.3356 -18.5992 0.0000 31.4483 0.0000
# 6 0.0000 0.0000 0.0000 4.0429 0.0000 3.8069
#
#
#
# Elastic Compliance Matrix: (Units=1/GPa)
#
#
# Indices 1 2 3 4 5 6 
#
# 1 0.013384 -0.002848 -0.005731 0.000000 0.003135 0.000000
# 2 -0.002848 0.033901 -0.005314 0.000000 0.003235 0.000000
# 3 -0.005731 -0.005314 0.011246 0.000000 0.002334 0.000000
# 4 0.000000 0.000000 0.000000 3.396341 0.000000 -3.606913
# 5 0.003135 0.003235 0.002334 0.000000 0.035617 0.000000
# 6 0.000000 0.000000 0.000000 -3.606913 0.000000 4.093224
#
#
# Mechanical properties :
#
#
# Convention : Reuss Voigt Hill
#
# Bulk Modulus (GPa) = 32.52581 60.76395 46.64488
# Shear Modulus (GPa) = 0.65602 19.29779 9.97691
#
# Velocity S-wave (km/s) = 0.59289 3.21566 2.31214
# Velocity P-wave (km/s) = 4.23051 6.80785 5.66763
#
# Compressibility (1/GPa) = 0.03074482
#
# Stress axis : x y z
#
# Youngs Moduli (GPa) = 74.71516 29.49790 88.91690
#
# Poissons Ratio (x) = 0.08401 0.50961
# Poissons Ratio (y) = 0.21279 0.47251
# Poissons Ratio (z) = 0.42821 0.15675
#
# Static dielectric constant tensor:
#      x y z
#    x 3.674460 0.000000 0.040480 
#    y 0.000000 2.846740 0.000000 
#    z 0.040480 0.000000 3.675680 
# 
# 
# High freq. dielectric constant tensor:
#      x y z
#    x 1.733190 0.000000 -0.008030 
#    y 0.000000 1.663480 0.000000 
#    z -0.008030 0.000000 1.730510 
# 
# From -- ./inp_files/49193.got.cif
#   From: 2010.06.25/outbox.cif.g09.slc.cpg/sg10_25_cif.got.tgz:49193.got - 2010.06.27 22:07:45.
