data_PCOD8058279
_publ_section_title
;
Structure prediction by ZEFSAII (Michael W. Deem and Ramdas Pophale) SiO2 
 PCOD8058279
Probable space group: P 2/M
;
_chemical_formula_sum "Si O2"
_cell_formula_units_Z 24
_cell_length_a 19.532475
_cell_length_b 7.737458
_cell_length_c 9.200544
_cell_angle_alpha 90.000000
_cell_angle_beta 117.159030
_cell_angle_gamma 90.000000
_cell_volume 1237.182214
_symmetry_space_group_name_H-M "P 2/M"
_symmetry_group_IT_number 10
_symmetry_cell_setting 'monoclinic'
loop_
_space_group_symop_operation_xyz
x,y,z
-x,y,-z
-x,-y,-z
x,-y,z
loop_
_atom_site_type_symbol
_atom_site_label
_atom_site_fract_x
_atom_site_fract_y
_atom_site_fract_z
Si Si1 0.415474 0.000000 0.084659
Si Si2 0.698114 0.696736 0.377446
Si Si3 0.149974 0.705406 0.310959
Si Si4 0.141460 0.698815 0.980103
Si Si5 0.722719 0.193232 0.083973
Si Si6 0.001685 0.293540 0.337862
Si Si7 0.415185 0.000000 0.740295
O O1 0.363591 0.828688 0.070904
O O2 0.498172 0.000000 0.244437
O O3 0.424381 0.000000 0.920292
O O4 0.675317 0.500000 0.398077
O O5 0.771274 0.765413 0.537929
O O6 0.628556 0.825816 0.351101
O O7 0.719644 0.696353 0.227980
O O8 0.146959 0.500000 0.305134
O O9 0.146211 0.784635 0.144424
O O10 0.077948 0.777436 0.332756
O O11 0.121531 0.500000 0.983146
O O12 0.222798 0.715400 0.978662
O O13 0.072670 0.782186 0.819073
O O14 0.753625 0.000000 0.152406
O O15 0.000082 0.500000 0.338781
O O16 0.000000 0.220740 0.500000
#
# Coordination Sequence:
#
# PCOD8058279 Si02
#       7
#     2   4   4   4   4   4   2
#     4   7  16  32  53  70 109 136 159 223 262 311
#     4  10  18  32  55  79 106 140 176 216 263 315
#     4   9  18  30  47  75 106 137 176 220 264 312
#     4  10  18  30  50  74 102 138 179 219 262 311
#     4   9  18  33  51  72 104 136 173 214 264 308
#     4   9  16  27  47  74 103 136 177 222 264 310
#     4   9  16  34  53  80 109 134 171 217 266 315
#
# _framework density 19.39892
#
# number of rings (size 3 to 8) (size 9 to 14) (size 15 to 20)
#    0.500    2.333    0.833    2.000    0.000    4.667 
#    1.500    7.500    1.833    4.500    0.000    3.500 
#    0.000    0.000    0.000    0.000    0.000    0.000 
#
# Total GULP energy -297380.892667 kJ/mol
# GULP energy per Si atom -12390.870528 kJ/mol
# Density = 1.935477 g / cm^3
# Si number density = 19.398920 Si / 1000 Ang^3
#
#
#
# Elastic Constant Matrix: (Units=GPa)
#
#
# Indices 1 2 3 4 5 6 
#
# 1 125.7344 16.4593 100.8816 0.0000 31.9875 0.0000
# 2 16.4593 48.7068 20.5937 0.0000 11.5007 0.0000
# 3 100.8816 20.5937 137.9027 0.0000 12.0521 0.0000
# 4 0.0000 0.0000 0.0000 -10.9749 0.0000 0.6219
# 5 31.9875 11.5007 12.0521 0.0000 32.8026 0.0000
# 6 0.0000 0.0000 0.0000 0.6219 0.0000 15.5365
#
#
#
# Elastic Compliance Matrix: (Units=1/GPa)
#
#
# Indices 1 2 3 4 5 6 
#
# 1 0.029182 0.003889 -0.019964 0.000000 -0.022486 0.000000
# 2 0.003889 0.023955 -0.005534 0.000000 -0.010157 0.000000
# 3 -0.019964 -0.005534 0.021502 0.000000 0.013508 0.000000
# 4 0.000000 0.000000 0.000000 -0.090911 0.000000 0.003639
# 5 -0.022486 -0.010157 0.013508 0.000000 0.051011 0.000000
# 6 0.000000 0.000000 0.000000 0.003639 0.000000 0.064219
#
#
# Mechanical properties :
#
#
# Convention : Reuss Voigt Hill
#
# Bulk Modulus (GPa) = 31.82629 65.35702 48.59165
# Shear Modulus (GPa) = 32.75468 19.10013 25.92741
#
# Velocity S-wave (km/s) = 4.11357 3.14123 3.65984
# Velocity P-wave (km/s) = 6.24530 6.84987 6.55456
#
# Compressibility (1/GPa) = 0.03142057
#
# Stress axis : x y z
#
# Youngs Moduli (GPa) = 34.26734 41.74446 46.50801
#
# Poissons Ratio (x) = -0.16233 0.92847
# Poissons Ratio (y) = -0.13325 0.25739
# Poissons Ratio (z) = 0.68410 0.23103
#
# Static dielectric constant tensor:
#      x y z
#    x 3.748970 0.000000 0.229050 
#    y 0.000000 3.130540 0.000000 
#    z 0.229050 0.000000 3.660900 
# 
# 
# High freq. dielectric constant tensor:
#      x y z
#    x 1.748740 0.000000 0.008570 
#    y 0.000000 1.725750 0.000000 
#    z 0.008570 0.000000 1.743690 
# 
# From -- ./inp_files/35730.got.cif
#   From: 2010.06.25/outbox.cif.g09.slc.cpg/sg10_18_cif.got.tgz:35730.got - 2010.06.27 22:07:45.
