data_PCOD8058733
_publ_section_title
;
Structure prediction by ZEFSAII (Michael W. Deem and Ramdas Pophale) SiO2 
 PCOD8058733
Probable space group: P 2/M
;
_chemical_formula_sum "Si O2"
_cell_formula_units_Z 24
_cell_length_a 13.781820
_cell_length_b 13.169682
_cell_length_c 16.764290
_cell_angle_alpha 90.000000
_cell_angle_beta 24.422876
_cell_angle_gamma 90.000000
_cell_volume 1258.081940
_symmetry_space_group_name_H-M "P 2/M"
_symmetry_group_IT_number 10
_symmetry_cell_setting 'monoclinic'
loop_
_space_group_symop_operation_xyz
x,y,z
-x,y,-z
-x,-y,-z
x,-y,z
loop_
_atom_site_type_symbol
_atom_site_label
_atom_site_fract_x
_atom_site_fract_y
_atom_site_fract_z
Si Si1 0.517067 0.881816 0.175554
Si Si2 0.056162 0.883181 0.799937
Si Si3 0.805976 0.694780 0.208844
Si Si4 0.848294 0.791450 0.433240
Si Si5 0.306378 0.616572 0.543123
Si Si6 0.811120 0.888165 0.711519
O O1 0.367767 0.814420 0.347576
O O2 0.437808 0.856358 0.142850
O O3 0.463780 0.000000 0.232139
O O4 0.785502 0.853971 0.988322
O O5 0.160429 0.813393 0.792572
O O6 0.187464 0.860462 0.618809
O O7 0.091803 0.000000 0.798497
O O8 0.551084 0.677808 0.362022
O O9 0.826937 0.624732 0.272168
O O10 0.000000 0.660019 0.000000
O O11 0.846794 0.672390 0.410134
O O12 0.099804 0.811692 0.286883
O O13 0.344933 0.500000 0.491044
O O14 0.000000 0.891619 0.500000
O O15 0.790298 0.000000 0.766756
#
# Coordination Sequence:
#
# PCOD8058733 Si02
#       6
#     4   4   4   4   4   4
#     4   9  17  30  49  74 105 135 160 188 223 276
#     4  10  20  31  47  75 104 130 159 187 229 289
#     4  10  20  36  54  73  96 124 158 198 244 290
#     4  10  18  32  50  70  99 130 162 200 239 278
#     4  10  22  37  53  73  91 118 166 212 249 287
#     4   8  14  26  47  73  99 131 163 187 222 276
#
# _framework density 19.076658999999999
#
# number of rings (size 3 to 8) (size 9 to 14) (size 15 to 20)
#    0.000    2.500    0.000    4.500    0.000    2.333 
#    0.000   10.833    0.000    4.500    0.000    4.667 
#    0.000    0.000    0.000    0.000    0.000    0.000 
#
# Total GULP energy -297515.347989 kJ/mol
# GULP energy per Si atom -12396.472833 kJ/mol
# Density = 1.903324 g / cm^3
# Si number density = 19.076659 Si / 1000 Ang^3
#
#
#
# Elastic Constant Matrix: (Units=GPa)
#
#
# Indices 1 2 3 4 5 6 
#
# 1 93.1526 64.6122 37.3649 0.0000 -4.6419 0.0000
# 2 64.6122 121.8860 43.2384 0.0000 -15.8400 0.0000
# 3 37.3649 43.2384 69.7862 0.0000 -3.5762 0.0000
# 4 0.0000 0.0000 0.0000 11.8658 0.0000 -0.9354
# 5 -4.6419 -15.8400 -3.5762 0.0000 21.1067 0.0000
# 6 0.0000 0.0000 0.0000 -0.9354 0.0000 23.5156
#
#
#
# Elastic Compliance Matrix: (Units=1/GPa)
#
#
# Indices 1 2 3 4 5 6 
#
# 1 0.018340 -0.008441 -0.004749 0.000000 -0.003106 0.000000
# 2 -0.008441 0.015483 -0.004613 0.000000 0.008981 0.000000
# 3 -0.004749 -0.004613 0.019670 0.000000 -0.001174 0.000000
# 4 0.000000 0.000000 0.000000 0.084541 0.000000 0.003363
# 5 -0.003106 0.008981 -0.001174 0.000000 0.053237 0.000000
# 6 0.000000 0.000000 0.000000 0.003363 0.000000 0.042659
#
#
# Mechanical properties :
#
#
# Convention : Reuss Voigt Hill
#
# Bulk Modulus (GPa) = 55.90682 63.91734 59.91208
# Shear Modulus (GPa) = 18.14897 20.60489 19.37693
#
# Velocity S-wave (km/s) = 3.08778 3.29007 3.19053
# Velocity P-wave (km/s) = 6.48710 6.92900 6.71169
#
# Compressibility (1/GPa) = 0.01788691
#
# Stress axis : x y z
#
# Youngs Moduli (GPa) = 54.52557 64.58811 50.83868
#
# Poissons Ratio (x) = 0.54520 0.24142
# Poissons Ratio (y) = 0.46026 0.23452
# Poissons Ratio (z) = 0.25893 0.29795
#
# Static dielectric constant tensor:
#      x y z
#    x 3.694790 0.000000 -0.103760 
#    y 0.000000 3.207020 0.000000 
#    z -0.103760 0.000000 3.516610 
# 
# 
# High freq. dielectric constant tensor:
#      x y z
#    x 1.740100 0.000000 0.002540 
#    y 0.000000 1.703650 0.000000 
#    z 0.002540 0.000000 1.746000 
# 
# From -- ./inp_files/65024.got.cif
#   From: 2010.06.25/outbox.cif.g09.slc.cpg/sg10_33_cif.got.tgz:65024.got - 2010.06.27 22:07:45.
