data_PCOD8058515
_publ_section_title
;
Structure prediction by ZEFSAII (Michael W. Deem and Ramdas Pophale) SiO2 
 PCOD8058515
Probable space group: P 2/M
;
_chemical_formula_sum "Si O2"
_cell_formula_units_Z 16
_cell_length_a 13.411380
_cell_length_b 11.633000
_cell_length_c 15.254826
_cell_angle_alpha 90.000000
_cell_angle_beta 18.102056
_cell_angle_gamma 90.000000
_cell_volume 739.483413
_symmetry_space_group_name_H-M "P 2/M"
_symmetry_group_IT_number 10
_symmetry_cell_setting 'monoclinic'
loop_
_space_group_symop_operation_xyz
x,y,z
-x,y,-z
-x,-y,-z
x,-y,z
loop_
_atom_site_type_symbol
_atom_site_label
_atom_site_fract_x
_atom_site_fract_y
_atom_site_fract_z
Si Si1 0.549445 0.746042 0.243494
Si Si2 0.622032 0.228452 0.812227
Si Si3 0.475633 0.000000 0.292429
Si Si4 0.756212 0.000000 0.882665
Si Si5 0.791495 0.633575 0.320069
O O1 0.478159 0.725148 0.199741
O O2 0.510916 0.877786 0.312414
O O3 0.294372 0.669315 0.509090
O O4 0.905141 0.704129 0.968146
O O5 0.000000 0.211574 0.500000
O O6 0.500000 0.304090 0.000000
O O7 0.436661 0.110424 0.986282
O O8 0.122561 0.000000 0.540939
O O9 0.765730 0.000000 0.980420
O O10 0.500000 0.664407 0.500000
O O11 0.880622 0.500000 0.242988
#
# Coordination Sequence:
#
# PCOD8058515 Si02
#       5
#     4   4   2   2   4
#     4  11  22  40  62  91 128 158 193 248 304 354
#     4  11  20  32  54  86 124 166 204 236 282 350
#     4  10  20  35  57  90 128 162 190 232 303 373
#     4  10  18  31  50  82 123 166 209 240 272 327
#     4  11  24  44  69  90 109 148 210 265 303 346
#
# _framework density 21.636725999999999
#
# number of rings (size 3 to 8) (size 9 to 14) (size 15 to 20)
#    0.000    1.250    0.000    9.750    0.000    2.000 
#    0.000    3.750    0.000   15.000    0.000    0.000 
#    0.000    0.000    0.000    0.000    0.000    0.000 
#
# Total GULP energy -198222.104211 kJ/mol
# GULP energy per Si atom -12388.881513 kJ/mol
# Density = 2.158748 g / cm^3
# Si number density = 21.636726 Si / 1000 Ang^3
#
#
#
# Elastic Constant Matrix: (Units=GPa)
#
#
# Indices 1 2 3 4 5 6 
#
# 1 65.1256 33.7179 3.7060 0.0000 5.9807 0.0000
# 2 33.7179 82.5561 61.4762 0.0000 -20.6226 0.0000
# 3 3.7060 61.4762 128.5969 0.0000 -6.3333 0.0000
# 4 0.0000 0.0000 0.0000 15.7404 0.0000 -2.4964
# 5 5.9807 -20.6226 -6.3333 0.0000 35.6581 0.0000
# 6 0.0000 0.0000 0.0000 -2.4964 0.0000 12.4832
#
#
#
# Elastic Compliance Matrix: (Units=1/GPa)
#
#
# Indices 1 2 3 4 5 6 
#
# 1 0.027520 -0.021698 0.008812 0.000000 -0.015600 0.000000
# 2 -0.021698 0.039626 -0.017160 0.000000 0.023509 0.000000
# 3 0.008812 -0.017160 0.015298 0.000000 -0.008685 0.000000
# 4 0.000000 0.000000 0.000000 0.065612 0.000000 0.013121
# 5 -0.015600 0.023509 -0.008685 0.000000 0.042714 0.000000
# 6 0.000000 0.000000 0.000000 0.013121 0.000000 0.082732
#
#
# Mechanical properties :
#
#
# Convention : Reuss Voigt Hill
#
# Bulk Modulus (GPa) = 44.74212 52.67543 48.70877
# Shear Modulus (GPa) = 14.66072 24.60157 19.63114
#
# Velocity S-wave (km/s) = 2.60587 3.37564 3.01542
# Velocity P-wave (km/s) = 5.45690 6.29218 5.88937
#
# Compressibility (1/GPa) = 0.02235030
#
# Stress axis : x y z
#
# Youngs Moduli (GPa) = 36.33692 25.23566 65.36729
#
# Poissons Ratio (x) = 0.54758 -0.57599
# Poissons Ratio (y) = 0.78846 1.12173
# Poissons Ratio (z) = -0.32019 0.43306
#
# Static dielectric constant tensor:
#      x y z
#    x 4.064450 0.000000 0.272420 
#    y 0.000000 3.749530 0.000000 
#    z 0.272420 0.000000 4.136600 
# 
# 
# High freq. dielectric constant tensor:
#      x y z
#    x 1.850540 0.000000 0.014370 
#    y 0.000000 1.815940 0.000000 
#    z 0.014370 0.000000 1.872160 
# 
# From -- ./inp_files/64569.got.cif
#   From: 2010.06.25/outbox.cif.g09.slc.cpg/sg10_33_cif.got.tgz:64569.got - 2010.06.27 22:07:45.
