data_PCOD8058820
_publ_section_title
;
Structure prediction by ZEFSAII (Michael W. Deem and Ramdas Pophale) SiO2 
 PCOD8058820
Probable space group: P 2/M
;
_chemical_formula_sum "Si O2"
_cell_formula_units_Z 32
_cell_length_a 21.902190
_cell_length_b 8.746083
_cell_length_c 12.146868
_cell_angle_alpha 90.000000
_cell_angle_beta 133.484527
_cell_angle_gamma 90.000000
_cell_volume 1688.258415
_symmetry_space_group_name_H-M "P 2/M"
_symmetry_group_IT_number 10
_symmetry_cell_setting 'monoclinic'
loop_
_space_group_symop_operation_xyz
x,y,z
-x,y,-z
-x,-y,-z
x,-y,z
loop_
_atom_site_type_symbol
_atom_site_label
_atom_site_fract_x
_atom_site_fract_y
_atom_site_fract_z
Si Si1 0.878206 0.181463 0.105158
Si Si2 0.783558 0.679106 0.363310
Si Si3 0.581256 0.818530 0.736215
Si Si4 0.728537 0.817789 0.072024
Si Si5 0.395392 0.181755 0.478877
Si Si6 0.093948 0.181745 0.101914
Si Si7 0.756091 0.181901 0.560292
Si Si8 0.039728 0.827942 0.429929
O O1 0.805004 0.247940 0.092273
O O2 0.969953 0.236278 0.259454
O O3 0.874086 0.000000 0.108116
O O4 0.866883 0.238086 0.965708
O O5 0.770101 0.500000 0.346694
O O6 0.732378 0.749512 0.198264
O O7 0.745314 0.748000 0.426889
O O8 0.881842 0.716009 0.475853
O O9 0.613637 0.757374 0.657673
O O10 0.485585 0.763412 0.639719
O O11 0.584302 0.000000 0.735752
O O12 0.642046 0.759649 0.908604
O O13 0.733130 0.000000 0.086395
O O14 0.320143 0.247349 0.459956
O O15 0.390728 0.000000 0.472818
O O16 0.155418 0.236765 0.276014
O O17 0.088752 0.000000 0.094917
O O18 0.000000 0.250336 0.000000
O O19 0.752679 0.000000 0.548038
O O20 0.000000 0.831421 0.500000
O O21 0.069104 0.000000 0.433200
#
# Coordination Sequence:
#
# PCOD8058820 Si02
#       8
#     4   4   4   4   4   4   4   4
#     4   9  16  27  49  79 104 125 161 210 255 298
#     4  12  25  37  49  69 103 142 179 218 259 301
#     4   8  14  26  51  85 116 131 152 208 272 317
#     4  10  18  32  53  77 102 133 171 211 256 307
#     4   8  14  27  50  85 114 132 158 205 268 320
#     4   9  16  26  45  75 103 126 160 210 255 293
#     4  10  19  33  54  75 101 138 178 212 251 308
#     4  10  18  33  55  77 100 131 171 213 252 302
#
# _framework density 18.954443999999999
#
# number of rings (size 3 to 8) (size 9 to 14) (size 15 to 20)
#    0.000    2.500    1.250    3.375    0.000    5.250 
#    0.000    0.625    0.000   10.875    0.000    1.750 
#    0.000    0.000    0.000    0.000    0.000    0.000 
#
# Total GULP energy -396688.084040 kJ/mol
# GULP energy per Si atom -12396.502626 kJ/mol
# Density = 1.891130 g / cm^3
# Si number density = 18.954444 Si / 1000 Ang^3
#
#
#
# Elastic Constant Matrix: (Units=GPa)
#
#
# Indices 1 2 3 4 5 6 
#
# 1 132.5370 22.1942 78.8065 0.0000 -0.0759 0.0000
# 2 22.1942 29.2220 28.9035 0.0000 -0.2827 0.0000
# 3 78.8065 28.9035 173.1455 0.0000 -4.7493 0.0000
# 4 0.0000 0.0000 0.0000 1.9962 0.0000 2.6564
# 5 -0.0759 -0.2827 -4.7493 0.0000 32.8118 0.0000
# 6 0.0000 0.0000 0.0000 2.6564 0.0000 2.2102
#
#
#
# Elastic Compliance Matrix: (Units=1/GPa)
#
#
# Indices 1 2 3 4 5 6 
#
# 1 0.010729 -0.003962 -0.004239 0.000000 -0.000623 0.000000
# 2 -0.003962 0.042465 -0.005297 0.000000 -0.000410 0.000000
# 3 -0.004239 -0.005297 0.008622 0.000000 0.001192 0.000000
# 4 0.000000 0.000000 0.000000 -0.835865 0.000000 1.004591
# 5 -0.000623 -0.000410 0.001192 0.000000 0.030644 0.000000
# 6 0.000000 0.000000 0.000000 1.004591 0.000000 -0.754932
#
#
# Mechanical properties :
#
#
# Convention : Reuss Voigt Hill
#
# Bulk Modulus (GPa) = 28.71883 66.07922 47.39902
# Shear Modulus (GPa) = -3.42528 21.07033 8.82253
#
# Velocity S-wave (km/s) = -1.34575 3.33773 2.15979
# Velocity P-wave (km/s) = 3.57347 7.05632 5.59292
#
# Compressibility (1/GPa) = 0.03482036
#
# Stress axis : x y z
#
# Youngs Moduli (GPa) = 93.20950 23.54885 115.98694
#
# Poissons Ratio (x) = 0.09330 0.49164
# Poissons Ratio (y) = 0.36928 0.61436
# Poissons Ratio (z) = 0.39509 0.12473
#
# Static dielectric constant tensor:
#      x y z
#    x 3.708640 0.000000 0.111910 
#    y 0.000000 2.816100 0.000000 
#    z 0.111910 0.000000 3.927070 
# 
# 
# High freq. dielectric constant tensor:
#      x y z
#    x 1.737800 0.000000 -0.003460 
#    y 0.000000 1.666110 0.000000 
#    z -0.003460 0.000000 1.749180 
# 
# From -- ./inp_files/55341.got.cif
#   From: 2010.06.25/outbox.cif.g09.slc.cpg/sg10_28_cif.got.tgz:55341.got - 2010.06.27 22:07:45.
