data_PCOD8058443
_publ_section_title
;
Structure prediction by ZEFSAII (Michael W. Deem and Ramdas Pophale) SiO2 
 PCOD8058443
Probable space group: P 2/M
;
_chemical_formula_sum "Si O2"
_cell_formula_units_Z 24
_cell_length_a 11.315184
_cell_length_b 15.946336
_cell_length_c 13.629689
_cell_angle_alpha 90.000000
_cell_angle_beta 147.564266
_cell_angle_gamma 90.000000
_cell_volume 1319.044406
_symmetry_space_group_name_H-M "P 2/M"
_symmetry_group_IT_number 10
_symmetry_cell_setting 'monoclinic'
loop_
_space_group_symop_operation_xyz
x,y,z
-x,y,-z
-x,-y,-z
x,-y,z
loop_
_atom_site_type_symbol
_atom_site_label
_atom_site_fract_x
_atom_site_fract_y
_atom_site_fract_z
Si Si1 0.860019 0.311196 0.120741
Si Si2 0.044926 0.000000 0.677943
Si Si3 0.705280 0.402613 0.574135
Si Si4 0.828002 0.594680 0.300724
Si Si5 0.625696 0.000000 0.270191
Si Si6 0.668363 0.865720 0.029258
Si Si7 0.483899 0.592392 0.220849
O O1 0.808681 0.348958 0.191609
O O2 0.786222 0.215096 0.066927
O O3 0.110481 0.334209 0.268173
O O4 0.726976 0.349621 0.936395
O O5 0.118625 0.082030 0.788440
O O6 0.188005 0.000000 0.680694
O O7 0.777122 0.000000 0.475093
O O8 0.500000 0.386117 0.500000
O O9 0.785350 0.500000 0.638858
O O10 0.647725 0.378875 0.421521
O O11 0.902120 0.500000 0.322522
O O12 0.594309 0.593450 0.190841
O O13 0.000000 0.632778 0.500000
O O14 0.471696 0.917195 0.151246
O O15 0.500000 0.844025 0.000000
O O16 0.399194 0.500000 0.188793
#
# Coordination Sequence:
#
# PCOD8058443 Si02
#       7
#     4   2   4   4   2   4   4
#     4  12  21  32  51  78 106 134 169 221 263 303
#     4   8  15  31  50  67  97 146 167 188 243 306
#     4  10  22  39  54  70  98 139 187 228 259 301
#     4  10  18  31  48  69 104 142 168 202 253 309
#     4   8  15  31  48  67  99 139 172 197 235 306
#     4   9  18  30  46  74 107 132 168 205 246 308
#     4  10  20  33  51  73  99 136 174 209 260 311
#
# _framework density 18.194991000000002
#
# number of rings (size 3 to 8) (size 9 to 14) (size 15 to 20)
#    0.000    2.167    1.667    4.000    0.000    3.333 
#    6.000    2.500    0.000    0.000    0.000    2.333 
#    0.000    6.667    0.000    0.000    0.000    0.000 
#
# Total GULP energy -297362.042446 kJ/mol
# GULP energy per Si atom -12390.085102 kJ/mol
# Density = 1.815358 g / cm^3
# Si number density = 18.194991 Si / 1000 Ang^3
#
#
#
# Elastic Constant Matrix: (Units=GPa)
#
#
# Indices 1 2 3 4 5 6 
#
# 1 43.6397 21.1447 5.7797 0.0000 17.4416 0.0000
# 2 21.1447 111.9721 74.5944 0.0000 13.3962 0.0000
# 3 5.7797 74.5944 133.3219 0.0000 14.3933 0.0000
# 4 0.0000 0.0000 0.0000 19.8172 0.0000 10.6087
# 5 17.4416 13.3962 14.3933 0.0000 18.4674 0.0000
# 6 0.0000 0.0000 0.0000 10.6087 0.0000 11.5159
#
#
#
# Elastic Compliance Matrix: (Units=1/GPa)
#
#
# Indices 1 2 3 4 5 6 
#
# 1 0.041065 -0.007547 0.006593 0.000000 -0.038448 0.000000
# 2 -0.007547 0.015975 -0.008876 0.000000 0.002458 0.000000
# 3 0.006593 -0.008876 0.013275 0.000000 -0.010135 0.000000
# 4 0.000000 0.000000 0.000000 0.099560 0.000000 -0.091718
# 5 -0.038448 0.002458 -0.010135 0.000000 0.096578 0.000000
# 6 0.000000 0.000000 0.000000 -0.091718 0.000000 0.171329
#
#
# Mechanical properties :
#
#
# Convention : Reuss Voigt Hill
#
# Bulk Modulus (GPa) = 19.74135 54.66349 37.20242
# Shear Modulus (GPa) = 10.54120 22.45443 16.49781
#
# Velocity S-wave (km/s) = 2.40957 3.51679 3.01445
# Velocity P-wave (km/s) = 4.31449 6.82633 5.71024
#
# Compressibility (1/GPa) = 0.05065511
#
# Stress axis : x y z
#
# Youngs Moduli (GPa) = 24.35156 62.59647 75.32743
#
# Poissons Ratio (x) = 0.47243 -0.49665
# Poissons Ratio (y) = 0.18379 0.66864
# Poissons Ratio (z) = -0.16056 0.55563
#
# Static dielectric constant tensor:
#      x y z
#    x 2.984440 0.000000 -0.064740 
#    y 0.000000 3.183170 0.000000 
#    z -0.064740 0.000000 3.810940 
# 
# 
# High freq. dielectric constant tensor:
#      x y z
#    x 1.657230 0.000000 -0.000070 
#    y 0.000000 1.680400 0.000000 
#    z -0.000070 0.000000 1.726080 
# 
# From -- ./inp_files/51555.got.cif
#   From: 2010.06.25/outbox.cif.g09.slc.cpg/sg10_26_cif.got.tgz:51555.got - 2010.06.27 22:07:45.
