data_PCOD8058650
_publ_section_title
;
Structure prediction by ZEFSAII (Michael W. Deem and Ramdas Pophale) SiO2 
 PCOD8058650
Probable space group: P 2/M
;
_chemical_formula_sum "Si O2"
_cell_formula_units_Z 28
_cell_length_a 20.004166
_cell_length_b 15.612516
_cell_length_c 9.136066
_cell_angle_alpha 90.000000
_cell_angle_beta 28.800304
_cell_angle_gamma 90.000000
_cell_volume 1374.617288
_symmetry_space_group_name_H-M "P 2/M"
_symmetry_group_IT_number 10
_symmetry_cell_setting 'monoclinic'
loop_
_space_group_symop_operation_xyz
x,y,z
-x,y,-z
-x,-y,-z
x,-y,z
loop_
_atom_site_type_symbol
_atom_site_label
_atom_site_fract_x
_atom_site_fract_y
_atom_site_fract_z
Si Si1 0.641459 0.144907 0.801098
Si Si2 0.033058 0.738310 0.105412
Si Si3 0.256749 0.321747 0.329846
Si Si4 0.513138 0.900170 0.634943
Si Si5 0.203389 0.097776 0.760718
Si Si6 0.525163 0.400876 0.289811
Si Si7 0.754119 0.402320 0.345617
O O1 0.659401 0.246152 0.750866
O O2 0.770494 0.100870 0.466644
O O3 0.500000 0.111654 0.000000
O O4 0.625538 0.120596 0.003472
O O5 0.887408 0.715371 0.462853
O O6 0.085033 0.835306 0.040276
O O7 0.145191 0.665051 0.929392
O O8 0.000000 0.731078 0.000000
O O9 0.239838 0.392919 0.489372
O O10 0.338358 0.356577 0.034786
O O11 0.500000 0.856636 0.500000
O O12 0.654801 0.867278 0.438101
O O13 0.528072 0.000000 0.586846
O O14 0.162194 0.000000 0.883491
O O15 0.500000 0.362335 0.500000
O O16 0.559603 0.500000 0.237775
O O17 0.398742 0.383449 0.422404
O O18 0.798849 0.500000 0.222378
#
# Coordination Sequence:
#
# PCOD8058650 Si02
#       7
#     4   4   4   4   4   4   4
#     4  10  18  31  53  83 112 144 190 244 289 342
#     4  10  21  37  54  87 120 148 197 233 282 351
#     4  11  21  35  57  85 118 150 191 236 279 343
#     4   9  19  34  54  82 111 146 197 246 293 345
#     4  10  19  35  58  81 116 156 190 243 297 341
#     4  10  22  39  60  88 116 149 195 239 290 348
#     4  10  20  37  62  87 116 150 186 238 291 339
#
# _framework density 20.369305000000001
#
# number of rings (size 3 to 8) (size 9 to 14) (size 15 to 20)
#    0.000    2.000    2.857    2.143    2.000    6.857 
#    0.000    0.714    0.000    2.571    0.000    3.000 
#    0.000    0.000    0.000    0.000    0.000    0.000 
#
# Total GULP energy -347004.095551 kJ/mol
# GULP energy per Si atom -12393.003413 kJ/mol
# Density = 2.032294 g / cm^3
# Si number density = 20.369305 Si / 1000 Ang^3
#
#
#
# Elastic Constant Matrix: (Units=GPa)
#
#
# Indices 1 2 3 4 5 6 
#
# 1 64.3968 29.9430 52.8824 0.0000 6.0464 0.0000
# 2 29.9430 104.6709 51.2262 0.0000 -11.7432 0.0000
# 3 52.8824 51.2262 124.0527 0.0000 -6.8791 0.0000
# 4 0.0000 0.0000 0.0000 27.1342 0.0000 -7.5410
# 5 6.0464 -11.7432 -6.8791 0.0000 27.6214 0.0000
# 6 0.0000 0.0000 0.0000 -7.5410 0.0000 19.3015
#
#
#
# Elastic Compliance Matrix: (Units=1/GPa)
#
#
# Indices 1 2 3 4 5 6 
#
# 1 0.026751 -0.003664 -0.010446 0.000000 -0.010015 0.000000
# 2 -0.003664 0.012908 -0.003467 0.000000 0.005426 0.000000
# 3 -0.010446 -0.003467 0.014187 0.000000 0.004346 0.000000
# 4 0.000000 0.000000 0.000000 0.041343 0.000000 0.016152
# 5 -0.010015 0.005426 0.004346 0.000000 0.041785 0.000000
# 6 0.000000 0.000000 0.000000 0.016152 0.000000 0.058120
#
#
# Mechanical properties :
#
#
# Convention : Reuss Voigt Hill
#
# Bulk Modulus (GPa) = 53.50172 62.35817 57.92995
# Shear Modulus (GPa) = 21.14355 25.41599 23.27977
#
# Velocity S-wave (km/s) = 3.22531 3.53620 3.38433
# Velocity P-wave (km/s) = 6.33980 6.88136 6.61613
#
# Compressibility (1/GPa) = 0.01869099
#
# Stress axis : x y z
#
# Youngs Moduli (GPa) = 37.38182 77.47425 70.48756
#
# Poissons Ratio (x) = 0.28385 0.73632
# Poissons Ratio (y) = 0.13696 0.24440
# Poissons Ratio (z) = 0.39049 0.26862
#
# Static dielectric constant tensor:
#      x y z
#    x 3.821690 0.000000 -0.182450 
#    y 0.000000 3.676180 0.000000 
#    z -0.182450 0.000000 4.133350 
# 
# 
# High freq. dielectric constant tensor:
#      x y z
#    x 1.765920 0.000000 -0.008120 
#    y 0.000000 1.801040 0.000000 
#    z -0.008120 0.000000 1.783890 
# 
# From -- ./inp_files/25430.got.cif
#   From: 2010.06.25/outbox.cif.g09.slc.cpg/sg10_13_cif.got.tgz:25430.got - 2010.06.27 22:07:45.
