data_PCOD8058844
_publ_section_title
;
Structure prediction by ZEFSAII (Michael W. Deem and Ramdas Pophale) SiO2 
 PCOD8058844
Probable space group: P 2/M
;
_chemical_formula_sum "Si O2"
_cell_formula_units_Z 32
_cell_length_a 11.907668
_cell_length_b 19.308587
_cell_length_c 9.306504
_cell_angle_alpha 90.000000
_cell_angle_beta 48.696851
_cell_angle_gamma 90.000000
_cell_volume 1607.442564
_symmetry_space_group_name_H-M "P 2/M"
_symmetry_group_IT_number 10
_symmetry_cell_setting 'monoclinic'
loop_
_space_group_symop_operation_xyz
x,y,z
-x,y,-z
-x,-y,-z
x,-y,z
loop_
_atom_site_type_symbol
_atom_site_label
_atom_site_fract_x
_atom_site_fract_y
_atom_site_fract_z
Si Si1 0.883131 0.623189 0.920883
Si Si2 0.499380 0.167471 0.667724
Si Si3 0.643355 0.922301 0.777331
Si Si4 0.987776 0.769732 0.163033
Si Si5 0.694919 0.705392 0.527568
Si Si6 0.246167 0.824441 0.095473
Si Si7 0.204027 0.423075 0.701850
Si Si8 0.329030 0.322728 0.134718
O O1 0.912717 0.701140 0.946148
O O2 0.772505 0.624794 0.875801
O O3 0.045093 0.588630 0.753453
O O4 0.808529 0.582140 0.115205
O O5 0.500000 0.147008 0.500000
O O6 0.616516 0.117585 0.650392
O O7 0.544011 0.248931 0.650042
O O8 0.336602 0.153491 0.874838
O O9 0.763634 0.880883 0.769975
O O10 0.698415 0.000000 0.696639
O O11 0.500000 0.922520 0.000000
O O12 0.071054 0.815454 0.211306
O O13 0.821182 0.755143 0.354634
O O14 0.000000 0.809084 0.000000
O O15 0.677327 0.634851 0.450221
O O16 0.740968 0.680523 0.647349
O O17 0.329744 0.755179 0.075955
O O18 0.262607 0.500000 0.614278
O O19 0.500000 0.350233 0.000000
#
# Coordination Sequence:
#
# PCOD8058844 Si02
#       8
#     4   4   4   4   4   4   4   4
#     4   9  18  33  57  81 108 145 186 237 290 337
#     4  11  21  33  57  88 116 149 192 236 287 336
#     4   9  18  36  57  82 116 153 193 230 279 344
#     4  10  18  32  53  87 117 138 190 249 285 330
#     4  11  21  35  57  88 112 147 191 241 287 335
#     4  10  19  35  56  83 115 154 188 230 291 339
#     4  10  20  38  59  81 109 147 195 239 291 346
#     4  11  20  35  55  85 116 146 188 240 287 342
#
# _framework density 19.907399000000002
#
# number of rings (size 3 to 8) (size 9 to 14) (size 15 to 20)
#    0.000    1.875    5.000    1.875    1.750    4.750 
#    0.000    1.875    0.000    7.875    0.000    0.000 
#    0.000    0.000    0.000    0.000    0.000    0.000 
#
# Total GULP energy -396617.118306 kJ/mol
# GULP energy per Si atom -12394.284947 kJ/mol
# Density = 1.986209 g / cm^3
# Si number density = 19.907399 Si / 1000 Ang^3
#
#
#
# Elastic Constant Matrix: (Units=GPa)
#
#
# Indices 1 2 3 4 5 6 
#
# 1 71.2739 26.6980 14.8250 0.0000 21.5660 0.0000
# 2 26.6980 109.9436 16.1016 0.0000 12.6627 0.0000
# 3 14.8250 16.1016 77.7444 0.0000 23.6440 0.0000
# 4 0.0000 0.0000 0.0000 13.0622 0.0000 4.3206
# 5 21.5660 12.6627 23.6440 0.0000 29.8556 0.0000
# 6 0.0000 0.0000 0.0000 4.3206 0.0000 18.5154
#
#
#
# Elastic Compliance Matrix: (Units=1/GPa)
#
#
# Indices 1 2 3 4 5 6 
#
# 1 0.019023 -0.003254 0.001061 0.000000 -0.013202 0.000000
# 2 -0.003254 0.010177 -0.001172 0.000000 -0.001038 0.000000
# 3 0.001061 -0.001172 0.017105 0.000000 -0.013816 0.000000
# 4 0.000000 0.000000 0.000000 0.082960 0.000000 -0.019359
# 5 -0.013202 -0.001038 -0.013816 0.000000 0.054412 0.000000
# 6 0.000000 0.000000 0.000000 -0.019359 0.000000 0.058526
#
#
# Mechanical properties :
#
#
# Convention : Reuss Voigt Hill
#
# Bulk Modulus (GPa) = 25.26806 41.57902 33.42354
# Shear Modulus (GPa) = 19.07495 25.70914 22.39204
#
# Velocity S-wave (km/s) = 3.09881 3.59755 3.35746
# Velocity P-wave (km/s) = 5.05212 6.17965 5.64411
#
# Compressibility (1/GPa) = 0.03957565
#
# Stress axis : x y z
#
# Youngs Moduli (GPa) = 52.56738 98.26117 58.46383
#
# Poissons Ratio (x) = 0.31978 -0.06206
# Poissons Ratio (y) = 0.17108 0.06849
# Poissons Ratio (z) = -0.05580 0.11512
#
# Static dielectric constant tensor:
#      x y z
#    x 3.673340 0.000000 0.242350 
#    y 0.000000 3.524510 0.000000 
#    z 0.242350 0.000000 3.473750 
# 
# 
# High freq. dielectric constant tensor:
#      x y z
#    x 1.768840 0.000000 0.017630 
#    y 0.000000 1.741160 0.000000 
#    z 0.017630 0.000000 1.767850 
# 
# From -- ./inp_files/25975.got.cif
#   From: 2010.06.25/outbox.cif.g09.slc.cpg/sg10_13_cif.got.tgz:25975.got - 2010.06.27 22:07:45.
