data_PCOD8058196
_publ_section_title
;
Structure prediction by ZEFSAII (Michael W. Deem and Ramdas Pophale) SiO2 
 PCOD8058196
Probable space group: P 2/M
;
_chemical_formula_sum "Si O2"
_cell_formula_units_Z 24
_cell_length_a 12.314971
_cell_length_b 7.791661
_cell_length_c 22.134636
_cell_angle_alpha 90.000000
_cell_angle_beta 138.371997
_cell_angle_gamma 90.000000
_cell_volume 1410.894687
_symmetry_space_group_name_H-M "P 2/M"
_symmetry_group_IT_number 10
_symmetry_cell_setting 'monoclinic'
loop_
_space_group_symop_operation_xyz
x,y,z
-x,y,-z
-x,-y,-z
x,-y,z
loop_
_atom_site_type_symbol
_atom_site_label
_atom_site_fract_x
_atom_site_fract_y
_atom_site_fract_z
Si Si1 0.757104 0.000000 0.939664
Si Si2 0.159142 0.703335 0.489064
Si Si3 0.803588 0.297992 0.360817
Si Si4 0.454237 0.303064 0.181427
Si Si5 0.095042 0.000000 0.131775
Si Si6 0.300171 0.310642 0.247087
Si Si7 0.530372 0.804090 0.445778
O O1 0.649643 0.827029 0.903327
O O2 0.838096 0.000000 0.907970
O O3 0.897849 0.000000 0.049119
O O4 0.181258 0.500000 0.494013
O O5 0.203846 0.776260 0.574215
O O6 0.277412 0.790432 0.489488
O O7 0.970796 0.758928 0.396630
O O8 0.805924 0.500000 0.370298
O O9 0.644303 0.244652 0.255926
O O10 0.427121 0.500000 0.148175
O O11 0.405361 0.281332 0.230741
O O12 0.156756 0.830140 0.192278
O O13 0.218939 0.500000 0.212343
O O14 0.423323 0.303460 0.354292
O O15 0.500000 0.729349 0.500000
O O16 0.472167 0.000000 0.418171
#
# Coordination Sequence:
#
# PCOD8058196 Si02
#       7
#     2   4   4   4   2   4   4
#     4   9  18  28  44  64  90 125 149 185 238 278
#     4   9  16  28  45  64  87 121 160 190 227 270
#     4   8  14  26  44  65  92 120 150 192 228 268
#     4   9  16  27  44  67  94 121 153 188 226 278
#     4   9  18  32  43  63  93 116 154 198 226 274
#     4  10  18  30  49  65  86 124 159 189 230 276
#     4  11  22  33  44  63  95 128 161 201 231 261
#
# _framework density 17.010483000000001
#
# number of rings (size 3 to 8) (size 9 to 14) (size 15 to 20)
#    0.000    2.667    2.500    1.500    0.000    2.000 
#    1.500    4.167    0.000    0.000    0.000    0.000 
#    0.000    2.667    0.000    7.500    0.000    0.333 
#
# Total GULP energy -297466.594087 kJ/mol
# GULP energy per Si atom -12394.441420 kJ/mol
# Density = 1.697177 g / cm^3
# Si number density = 17.010483 Si / 1000 Ang^3
#
#
#
# Elastic Constant Matrix: (Units=GPa)
#
#
# Indices 1 2 3 4 5 6 
#
# 1 76.2403 19.3786 40.9639 0.0000 15.2939 0.0000
# 2 19.3786 89.4150 48.6731 0.0000 15.5910 0.0000
# 3 40.9639 48.6731 99.6647 0.0000 33.7310 0.0000
# 4 0.0000 0.0000 0.0000 21.0792 0.0000 6.9784
# 5 15.2939 15.5910 33.7310 0.0000 25.1141 0.0000
# 6 0.0000 0.0000 0.0000 6.9784 0.0000 12.3150
#
#
#
# Elastic Compliance Matrix: (Units=1/GPa)
#
#
# Indices 1 2 3 4 5 6 
#
# 1 0.016878 0.000138 -0.006411 0.000000 -0.001753 0.000000
# 2 0.000138 0.015248 -0.007831 0.000000 0.000968 0.000000
# 3 -0.006411 -0.007831 0.024799 0.000000 -0.024543 0.000000
# 4 0.000000 0.000000 0.000000 0.058395 0.000000 -0.033090
# 5 -0.001753 0.000968 -0.024543 0.000000 0.073249 0.000000
# 6 0.000000 0.000000 0.000000 -0.033090 0.000000 0.099952
#
#
# Mechanical properties :
#
#
# Convention : Reuss Voigt Hill
#
# Bulk Modulus (GPa) = 34.82271 53.70569 44.26420
# Shear Modulus (GPa) = 15.32330 22.12195 18.72262
#
# Velocity S-wave (km/s) = 3.00461 3.61014 3.32121
# Velocity P-wave (km/s) = 5.70550 7.00130 6.38635
#
# Compressibility (1/GPa) = 0.02871689
#
# Stress axis : x y z
#
# Youngs Moduli (GPa) = 59.24976 65.58287 40.32379
#
# Poissons Ratio (x) = -0.00903 0.25851
# Poissons Ratio (y) = -0.00815 0.31576
# Poissons Ratio (z) = 0.37985 0.51356
#
# Static dielectric constant tensor:
#      x y z
#    x 2.991780 0.000000 0.391630 
#    y 0.000000 3.193880 0.000000 
#    z 0.391630 0.000000 3.211100 
# 
# 
# High freq. dielectric constant tensor:
#      x y z
#    x 1.608280 0.000000 0.034080 
#    y 0.000000 1.660300 0.000000 
#    z 0.034080 0.000000 1.632920 
# 
# From -- ./inp_files/55061.got.cif
#   From: 2010.06.25/outbox.cif.g09.slc.cpg/sg10_28_cif.got.tgz:55061.got - 2010.06.27 22:07:45.
