data_PCOD8058819
_publ_section_title
;
Structure prediction by ZEFSAII (Michael W. Deem and Ramdas Pophale) SiO2 
 PCOD8058819
Probable space group: P 2/M
;
_chemical_formula_sum "Si O2"
_cell_formula_units_Z 32
_cell_length_a 20.985234
_cell_length_b 9.125997
_cell_length_c 20.465887
_cell_angle_alpha 90.000000
_cell_angle_beta 152.138356
_cell_angle_gamma 90.000000
_cell_volume 1831.706482
_symmetry_space_group_name_H-M "P 2/M"
_symmetry_group_IT_number 10
_symmetry_cell_setting 'monoclinic'
loop_
_space_group_symop_operation_xyz
x,y,z
-x,y,-z
-x,-y,-z
x,-y,z
loop_
_atom_site_type_symbol
_atom_site_label
_atom_site_fract_x
_atom_site_fract_y
_atom_site_fract_z
Si Si1 0.533781 0.828521 0.841284
Si Si2 0.768279 0.672086 0.587677
Si Si3 0.264955 0.673256 0.590212
Si Si4 0.993052 0.327956 0.418698
Si Si5 0.814061 0.171356 0.158383
Si Si6 0.655989 0.331670 0.830971
Si Si7 0.068918 0.331140 0.857744
Si Si8 0.477340 0.672259 0.550850
O O1 0.396606 0.750142 0.742053
O O2 0.573533 0.768195 0.806225
O O3 0.507725 0.000000 0.811068
O O4 0.654224 0.793972 0.002078
O O5 0.743336 0.500000 0.562640
O O6 0.749470 0.731634 0.497091
O O7 0.657019 0.741587 0.536178
O O8 0.920215 0.710581 0.751275
O O9 0.284874 0.500000 0.612290
O O10 0.131864 0.722815 0.509371
O O11 0.969404 0.500000 0.389339
O O12 0.862923 0.247260 0.269238
O O13 0.000000 0.280042 0.500000
O O14 0.902238 0.232963 0.178661
O O15 0.841444 0.000000 0.187705
O O16 0.619275 0.500000 0.814575
O O17 0.609601 0.293523 0.715412
O O18 0.818477 0.303945 0.983885
O O19 0.069368 0.500000 0.834362
O O20 0.500000 0.744740 0.500000
O O21 0.455306 0.500000 0.521949
#
# Coordination Sequence:
#
# PCOD8058819 Si02
#       8
#     4   4   4   4   4   4   4   4
#     4  10  20  32  49  76 104 130 164 207 247 288
#     4   9  15  26  45  70  95 122 158 201 244 283
#     4  10  18  32  53  76  99 126 164 207 247 289
#     4  10  21  37  56  77 101 130 165 204 247 295
#     4  10  20  33  50  75 105 133 163 200 249 298
#     4   9  16  28  47  70  94 128 166 200 248 294
#     4   9  16  28  48  71  96 124 162 209 247 286
#     4   9  16  26  42  67  99 130 160 197 242 293
#
# _framework density 17.470047999999998
#
# number of rings (size 3 to 8) (size 9 to 14) (size 15 to 20)
#    0.000    2.500    2.500    0.750    0.000    2.250 
#    0.000    1.250    0.000    7.875    0.000    0.000 
#    0.000    4.000    0.000    0.000    0.000    0.000 
#
# Total GULP energy -396715.450772 kJ/mol
# GULP energy per Si atom -12397.357837 kJ/mol
# Density = 1.743029 g / cm^3
# Si number density = 17.470048 Si / 1000 Ang^3
#
#
#
# Elastic Constant Matrix: (Units=GPa)
#
#
# Indices 1 2 3 4 5 6 
#
# 1 109.2886 24.8939 69.3026 0.0000 -4.6829 0.0000
# 2 24.8939 41.0641 40.9650 0.0000 -3.2131 0.0000
# 3 69.3026 40.9650 147.1722 0.0000 -0.4490 0.0000
# 4 0.0000 0.0000 0.0000 21.7951 0.0000 0.2317
# 5 -4.6829 -3.2131 -0.4490 0.0000 28.1724 0.0000
# 6 0.0000 0.0000 0.0000 0.2317 0.0000 6.4759
#
#
#
# Elastic Compliance Matrix: (Units=1/GPa)
#
#
# Indices 1 2 3 4 5 6 
#
# 1 0.013324 -0.002324 -0.005622 0.000000 0.001860 0.000000
# 2 -0.002324 0.034508 -0.008501 0.000000 0.003414 0.000000
# 3 -0.005622 -0.008501 0.011803 0.000000 -0.001716 0.000000
# 4 0.000000 0.000000 0.000000 0.045899 0.000000 -0.001642
# 5 0.001860 0.003414 -0.001716 0.000000 0.036167 0.000000
# 6 0.000000 0.000000 0.000000 -0.001642 0.000000 0.154477
#
#
# Mechanical properties :
#
#
# Convention : Reuss Voigt Hill
#
# Bulk Modulus (GPa) = 37.39295 63.09420 50.24357
# Shear Modulus (GPa) = 14.79359 22.11292 18.45325
#
# Velocity S-wave (km/s) = 2.91313 3.56161 3.25357
# Velocity P-wave (km/s) = 5.72413 7.28749 6.55260
#
# Compressibility (1/GPa) = 0.02674301
#
# Stress axis : x y z
#
# Youngs Moduli (GPa) = 75.05292 28.97876 84.72481
#
# Poissons Ratio (x) = 0.06733 0.47630
# Poissons Ratio (y) = 0.17439 0.72022
# Poissons Ratio (z) = 0.42193 0.24634
#
# Static dielectric constant tensor:
#      x y z
#    x 3.184910 0.000000 0.080840 
#    y 0.000000 2.995300 0.000000 
#    z 0.080840 0.000000 3.552910 
# 
# 
# High freq. dielectric constant tensor:
#      x y z
#    x 1.646010 0.000000 0.007770 
#    y 0.000000 1.644380 0.000000 
#    z 0.007770 0.000000 1.693420 
# 
# From -- ./inp_files/86162.got.cif
#   From: 2010.06.25/outbox.cif.g09.slc.cpg/sg10_44_cif.got.tgz:86162.got - 2010.06.27 22:07:45.
