data_PCOD8058006
_publ_section_title
;
Structure prediction by ZEFSAII (Michael W. Deem and Ramdas Pophale) SiO2 
 PCOD8058006
Probable space group: P 2/M
;
_chemical_formula_sum "Si O2"
_cell_formula_units_Z 28
_cell_length_a 18.736570
_cell_length_b 9.751042
_cell_length_c 15.509911
_cell_angle_alpha 90.000000
_cell_angle_beta 145.892381
_cell_angle_gamma 90.000000
_cell_volume 1588.982118
_symmetry_space_group_name_H-M "P 2/M"
_symmetry_group_IT_number 10
_symmetry_cell_setting 'monoclinic'
loop_
_space_group_symop_operation_xyz
x,y,z
-x,y,-z
-x,-y,-z
x,-y,z
loop_
_atom_site_type_symbol
_atom_site_label
_atom_site_fract_x
_atom_site_fract_y
_atom_site_fract_z
Si Si1 0.538410 0.349460 0.678100
Si Si2 0.391588 0.346515 0.820497
Si Si3 0.092426 0.840264 0.167077
Si Si4 0.880579 0.156272 0.616479
Si Si5 0.101267 0.341110 0.529282
Si Si6 0.586248 0.841931 0.314665
Si Si7 0.303113 0.350664 0.318348
O O1 0.552433 0.500000 0.737506
O O2 0.512779 0.229785 0.720326
O O3 0.428802 0.359814 0.499292
O O4 0.665559 0.314126 0.750414
O O5 0.392180 0.500000 0.780217
O O6 0.246405 0.317074 0.708519
O O7 0.431436 0.230809 0.794018
O O8 0.500000 0.337008 0.000000
O O9 0.046098 0.810734 0.219643
O O10 0.224185 0.767359 0.283336
O O11 0.116833 0.000000 0.179239
O O12 0.000000 0.783475 0.000000
O O13 0.925295 0.256813 0.585195
O O14 0.731668 0.175915 0.490009
O O15 0.906973 0.000000 0.612975
O O16 0.076889 0.500000 0.482928
O O17 0.000000 0.291000 0.500000
O O18 0.546783 0.000000 0.266686
O O19 0.234139 0.500000 0.252485
#
# Coordination Sequence:
#
# PCOD8058006 Si02
#       7
#     4   4   4   4   4   4   4
#     4   9  17  30  48  71  97 125 158 202 250 291
#     4   9  18  33  52  73 100 133 162 197 253 308
#     4  10  20  34  50  69 100 138 172 208 249 297
#     4   9  18  32  49  72  98 128 168 205 244 293
#     4   9  18  33  54  78  99 124 164 209 250 298
#     4  10  18  29  49  75  99 126 165 207 243 291
#     4   9  18  31  48  70  96 125 162 205 246 289
#
# _framework density 17.621344000000001
#
# number of rings (size 3 to 8) (size 9 to 14) (size 15 to 20)
#    0.000    2.714    1.429    1.286    0.000    2.571 
#    0.000    2.857    0.000    5.143    0.000    0.000 
#    0.000    0.000    0.000    0.000    0.000    0.000 
#
# Total GULP energy -346913.100177 kJ/mol
# GULP energy per Si atom -12389.753578 kJ/mol
# Density = 1.758124 g / cm^3
# Si number density = 17.621344 Si / 1000 Ang^3
#
#
#
# Elastic Constant Matrix: (Units=GPa)
#
#
# Indices 1 2 3 4 5 6 
#
# 1 116.5899 67.0217 32.7023 0.0000 -12.1663 0.0000
# 2 67.0217 97.5654 30.0859 0.0000 -13.7307 0.0000
# 3 32.7023 30.0859 64.8837 0.0000 -15.1714 0.0000
# 4 0.0000 0.0000 0.0000 15.9590 0.0000 -9.1381
# 5 -12.1663 -13.7307 -15.1714 0.0000 17.5696 0.0000
# 6 0.0000 0.0000 0.0000 -9.1381 0.0000 28.5997
#
#
#
# Elastic Compliance Matrix: (Units=1/GPa)
#
#
# Indices 1 2 3 4 5 6 
#
# 1 0.014720 -0.009097 -0.003107 0.000000 0.000400 0.000000
# 2 -0.009097 0.018057 -0.002457 0.000000 0.005691 0.000000
# 3 -0.003107 -0.002457 0.021508 0.000000 0.014500 0.000000
# 4 0.000000 0.000000 0.000000 0.076692 0.000000 0.024504
# 5 0.000400 0.005691 0.014500 0.000000 0.074162 0.000000
# 6 0.000000 0.000000 0.000000 0.024504 0.000000 0.042795
#
#
# Mechanical properties :
#
#
# Convention : Reuss Voigt Hill
#
# Bulk Modulus (GPa) = 40.06059 59.85098 49.95578
# Shear Modulus (GPa) = 17.50833 22.37427 19.94130
#
# Velocity S-wave (km/s) = 3.15554 3.56719 3.36766
# Velocity P-wave (km/s) = 6.00500 7.14179 6.59793
#
# Compressibility (1/GPa) = 0.02496219
#
# Stress axis : x y z
#
# Youngs Moduli (GPa) = 67.93507 55.37891 46.49390
#
# Poissons Ratio (x) = 0.50380 0.14446
# Poissons Ratio (y) = 0.61802 0.11425
# Poissons Ratio (z) = 0.21108 0.13608
#
# Static dielectric constant tensor:
#      x y z
#    x 3.446590 0.000000 -0.017150 
#    y 0.000000 3.390780 0.000000 
#    z -0.017150 0.000000 3.137460 
# 
# 
# High freq. dielectric constant tensor:
#      x y z
#    x 1.674550 0.000000 -0.010770 
#    y 0.000000 1.688380 0.000000 
#    z -0.010770 0.000000 1.651170 
# 
# From -- ./inp_files/54675.got.cif
#   From: 2010.06.25/outbox.cif.g09.slc.cpg/sg10_28_cif.got.tgz:54675.got - 2010.06.27 22:07:45.
