data_PCOD8058337
_publ_section_title
;
Structure prediction by ZEFSAII (Michael W. Deem and Ramdas Pophale) SiO2 
 PCOD8058337
Probable space group: P 2/M
;
_chemical_formula_sum "Si O2"
_cell_formula_units_Z 32
_cell_length_a 12.448773
_cell_length_b 9.244137
_cell_length_c 32.628005
_cell_angle_alpha 90.000000
_cell_angle_beta 26.841415
_cell_angle_gamma 90.000000
_cell_volume 1695.363944
_symmetry_space_group_name_H-M "P 2/M"
_symmetry_group_IT_number 10
_symmetry_cell_setting 'monoclinic'
loop_
_space_group_symop_operation_xyz
x,y,z
-x,y,-z
-x,-y,-z
x,-y,z
loop_
_atom_site_type_symbol
_atom_site_label
_atom_site_fract_x
_atom_site_fract_y
_atom_site_fract_z
Si Si1 0.338323 0.164555 0.828188
Si Si2 0.692898 0.669824 0.761992
Si Si3 0.471770 0.833382 0.393701
Si Si4 0.720055 0.838853 0.630510
Si Si5 0.117243 0.828450 0.062804
Si Si6 0.013319 0.829035 0.803798
Si Si7 0.360142 0.829238 0.137965
Si Si8 0.065769 0.331573 0.565957
O O1 0.452686 0.266609 0.823574
O O2 0.476133 0.175816 0.738434
O O3 0.070661 0.216586 0.908626
O O4 0.340459 0.000000 0.844363
O O5 0.655813 0.500000 0.780335
O O6 0.742825 0.745655 0.788003
O O7 0.923102 0.705497 0.655992
O O8 0.335111 0.810709 0.397710
O O9 0.737570 0.767910 0.298879
O O10 0.323406 0.746322 0.478770
O O11 0.481195 0.000000 0.403955
O O12 0.912481 0.723453 0.579658
O O13 0.827531 0.000000 0.600341
O O14 0.046026 0.761761 0.131334
O O15 0.123573 0.000000 0.065229
O O16 0.375099 0.771612 0.961559
O O17 0.801125 0.786917 0.845722
O O18 0.042354 0.000000 0.798442
O O19 0.354096 0.000000 0.148800
O O20 0.108641 0.500000 0.546121
#
# Coordination Sequence:
#
# PCOD8058337 Si02
#       8
#     4   4   4   4   4   4   4   4
#     4   9  16  30  54  80 107 137 170 210 255 310
#     4  10  22  39  53  69 104 145 180 218 260 304
#     4  10  18  30  51  78 106 135 166 205 258 313
#     4   9  16  28  48  75 106 137 165 200 255 315
#     4   9  16  30  55  86 112 132 163 212 265 312
#     4   9  17  32  54  83 113 135 164 211 263 312
#     4  10  20  34  57  82 103 136 179 217 254 303
#     4  10  21  34  49  71 100 137 177 215 256 303
#
# _framework density 18.875003
#
# number of rings (size 3 to 8) (size 9 to 14) (size 15 to 20)
#    0.000    2.500    1.250    1.500    0.000    5.500 
#    0.000    4.375    0.000    6.750    0.000    0.000 
#    0.000    0.000    0.000    0.000    0.000    0.000 
#
# Total GULP energy -396773.141320 kJ/mol
# GULP energy per Si atom -12399.160666 kJ/mol
# Density = 1.883204 g / cm^3
# Si number density = 18.875003 Si / 1000 Ang^3
#
#
#
# Elastic Constant Matrix: (Units=GPa)
#
#
# Indices 1 2 3 4 5 6 
#
# 1 43.7554 23.2805 22.6852 0.0000 9.0863 0.0000
# 2 23.2805 52.4051 31.6057 0.0000 2.1575 0.0000
# 3 22.6852 31.6057 101.4925 0.0000 -11.4053 0.0000
# 4 0.0000 0.0000 0.0000 17.3408 0.0000 6.0520
# 5 9.0863 2.1575 -11.4053 0.0000 18.3969 0.0000
# 6 0.0000 0.0000 0.0000 6.0520 0.0000 2.9170
#
#
#
# Elastic Compliance Matrix: (Units=1/GPa)
#
#
# Indices 1 2 3 4 5 6 
#
# 1 0.036992 -0.011223 -0.007179 0.000000 -0.021405 0.000000
# 2 -0.011223 0.028000 -0.006403 0.000000 -0.001710 0.000000
# 3 -0.007179 -0.006403 0.014978 0.000000 0.013582 0.000000
# 4 0.000000 0.000000 0.000000 0.209007 0.000000 -0.433637
# 5 -0.021405 -0.001710 0.013582 0.000000 0.073550 0.000000
# 6 0.000000 0.000000 0.000000 -0.433637 0.000000 1.242511
#
#
# Mechanical properties :
#
#
# Convention : Reuss Voigt Hill
#
# Bulk Modulus (GPa) = 32.93748 39.19953 36.06851
# Shear Modulus (GPa) = 3.00342 15.73638 9.36990
#
# Velocity S-wave (km/s) = 1.26280 2.89055 2.23046
# Velocity P-wave (km/s) = 4.42882 5.65273 5.07779
#
# Compressibility (1/GPa) = 0.03036055
#
# Stress axis : x y z
#
# Youngs Moduli (GPa) = 27.03252 35.71438 66.76513
#
# Poissons Ratio (x) = 0.40081 0.47931
# Poissons Ratio (y) = 0.30338 0.42751
# Poissons Ratio (z) = 0.19407 0.22869
#
# Static dielectric constant tensor:
#      x y z
#    x 3.275260 0.000000 -0.068080 
#    y 0.000000 3.130480 0.000000 
#    z -0.068080 0.000000 3.717930 
# 
# 
# High freq. dielectric constant tensor:
#      x y z
#    x 1.717350 0.000000 -0.003260 
#    y 0.000000 1.693130 0.000000 
#    z -0.003260 0.000000 1.748610 
# 
# From -- ./inp_files/94918.got.cif
#   From: 2010.06.25/outbox.cif.g09.slc.cpg/sg10_48_cif.got.tgz:94918.got - 2010.06.27 22:07:45.
