data_PCOD8058815
_publ_section_title
;
Structure prediction by ZEFSAII (Michael W. Deem and Ramdas Pophale) SiO2 
 PCOD8058815
Probable space group: P 2/M
;
_chemical_formula_sum "Si O2"
_cell_formula_units_Z 32
_cell_length_a 9.090539
_cell_length_b 13.423996
_cell_length_c 20.574632
_cell_angle_alpha 90.000000
_cell_angle_beta 40.967385
_cell_angle_gamma 90.000000
_cell_volume 1646.121498
_symmetry_space_group_name_H-M "P 2/M"
_symmetry_group_IT_number 10
_symmetry_cell_setting 'monoclinic'
loop_
_space_group_symop_operation_xyz
x,y,z
-x,y,-z
-x,-y,-z
x,-y,z
loop_
_atom_site_type_symbol
_atom_site_label
_atom_site_fract_x
_atom_site_fract_y
_atom_site_fract_z
Si Si1 0.195411 0.114339 0.287434
Si Si2 0.033222 0.615347 0.191611
Si Si3 0.242745 0.200359 0.402820
Si Si4 0.854844 0.614575 0.986069
Si Si5 0.841012 0.385727 0.648640
Si Si6 0.609271 0.295136 0.845168
Si Si7 0.685633 0.115777 0.491072
Si Si8 0.258008 0.617317 0.595234
O O1 0.324038 0.138953 0.312399
O O2 0.318274 0.180945 0.192138
O O3 0.931733 0.144847 0.380660
O O4 0.226828 0.000000 0.257270
O O5 0.067018 0.500000 0.196715
O O6 0.263845 0.669861 0.132585
O O7 0.832672 0.656805 0.304546
O O8 0.989166 0.633189 0.129753
O O9 0.224777 0.318506 0.391686
O O10 0.385372 0.178214 0.420274
O O11 0.000000 0.155209 0.500000
O O12 0.767812 0.500000 0.015344
O O13 0.653099 0.693250 0.053271
O O14 0.000000 0.638873 0.000000
O O15 0.828764 0.500000 0.629942
O O16 0.667855 0.366554 0.764716
O O17 0.087663 0.354819 0.593437
O O18 0.500000 0.142913 0.500000
O O19 0.681607 0.000000 0.510955
O O20 0.500000 0.667532 0.500000
O O21 0.285449 0.500000 0.589743
#
# Coordination Sequence:
#
# PCOD8058815 Si02
#       8
#     4   4   4   4   4   4   4   4
#     4   9  18  33  53  77 104 135 173 219 275 337
#     4   9  17  31  53  78 102 136 179 216 260 316
#     4   9  17  30  47  71  99 134 180 224 267 316
#     4  10  20  34  54  80 107 135 176 231 276 308
#     4   9  17  29  46  71 105 147 187 215 253 319
#     4  10  18  32  53  76 102 134 173 216 265 319
#     4   9  17  32  55  78 100 131 179 240 290 323
#     4   8  14  27  47  72 106 144 181 222 263 309
#
# _framework density 19.439634000000002
#
# number of rings (size 3 to 8) (size 9 to 14) (size 15 to 20)
#    0.000    2.875    0.000    2.625    0.000    2.750 
#    0.000   16.250    0.000    8.250    0.000    0.000 
#    0.000    0.000    0.000    0.000    0.000    0.000 
#
# Total GULP energy -396594.171910 kJ/mol
# GULP energy per Si atom -12393.567872 kJ/mol
# Density = 1.939539 g / cm^3
# Si number density = 19.439634 Si / 1000 Ang^3
#
#
#
# Elastic Constant Matrix: (Units=GPa)
#
#
# Indices 1 2 3 4 5 6 
#
# 1 116.1726 40.4541 52.5938 0.0000 18.8479 0.0000
# 2 40.4541 99.8245 34.4247 0.0000 6.5947 0.0000
# 3 52.5938 34.4247 93.5190 0.0000 1.2593 0.0000
# 4 0.0000 0.0000 0.0000 24.1830 0.0000 8.0078
# 5 18.8479 6.5947 1.2593 0.0000 26.2939 0.0000
# 6 0.0000 0.0000 0.0000 8.0078 0.0000 16.0682
#
#
#
# Elastic Compliance Matrix: (Units=1/GPa)
#
#
# Indices 1 2 3 4 5 6 
#
# 1 0.014133 -0.002780 -0.006802 0.000000 -0.009108 0.000000
# 2 -0.002780 0.012212 -0.002919 0.000000 -0.000930 0.000000
# 3 -0.006802 -0.002919 0.015528 0.000000 0.004865 0.000000
# 4 0.000000 0.000000 0.000000 0.049524 0.000000 -0.024681
# 5 -0.009108 -0.000930 0.004865 0.000000 0.044561 0.000000
# 6 0.000000 0.000000 0.000000 -0.024681 0.000000 0.074535
#
#
# Mechanical properties :
#
#
# Convention : Reuss Voigt Hill
#
# Bulk Modulus (GPa) = 59.27787 62.71793 60.99790
# Shear Modulus (GPa) = 20.73658 25.44524 23.09091
#
# Velocity S-wave (km/s) = 3.26961 3.62185 3.45022
# Velocity P-wave (km/s) = 6.69427 7.05856 6.87883
#
# Compressibility (1/GPa) = 0.01686970
#
# Stress axis : x y z
#
# Youngs Moduli (GPa) = 70.75552 81.88370 64.40091
#
# Poissons Ratio (x) = 0.22764 0.43808
# Poissons Ratio (y) = 0.19670 0.18802
# Poissons Ratio (z) = 0.48130 0.23906
#
# Static dielectric constant tensor:
#      x y z
#    x 3.520620 0.000000 0.133590 
#    y 0.000000 3.394410 0.000000 
#    z 0.133590 0.000000 3.510880 
# 
# 
# High freq. dielectric constant tensor:
#      x y z
#    x 1.745810 0.000000 0.017160 
#    y 0.000000 1.743730 0.000000 
#    z 0.017160 0.000000 1.733230 
# 
# From -- ./inp_files/82796.got.cif
#   From: 2010.06.25/outbox.cif.g09.slc.cpg/sg10_42_cif.got.tgz:82796.got - 2010.06.27 22:07:45.
