data_PCOD8058257
_publ_section_title
;
Structure prediction by ZEFSAII (Michael W. Deem and Ramdas Pophale) SiO2 
 PCOD8058257
Probable space group: P 2/M
;
_chemical_formula_sum "Si O2"
_cell_formula_units_Z 28
_cell_length_a 23.960092
_cell_length_b 7.929667
_cell_length_c 20.329316
_cell_angle_alpha 90.000000
_cell_angle_beta 158.243795
_cell_angle_gamma 90.000000
_cell_volume 1431.659050
_symmetry_space_group_name_H-M "P 2/M"
_symmetry_group_IT_number 10
_symmetry_cell_setting 'monoclinic'
loop_
_space_group_symop_operation_xyz
x,y,z
-x,y,-z
-x,-y,-z
x,-y,z
loop_
_atom_site_type_symbol
_atom_site_label
_atom_site_fract_x
_atom_site_fract_y
_atom_site_fract_z
Si Si1 0.046218 0.806039 0.481009
Si Si2 0.374982 0.301825 0.810821
Si Si3 0.243351 0.315394 0.083921
Si Si4 0.487896 0.695774 0.176022
Si Si5 0.831428 0.192945 0.135042
Si Si6 0.363409 0.000000 0.440741
Si Si7 0.408200 0.313096 0.570575
Si Si8 0.713982 0.000000 0.789094
O O1 0.222586 0.791991 0.661977
O O2 0.000000 0.719601 0.500000
O O3 0.950547 0.724023 0.316497
O O4 0.996931 0.000000 0.429938
O O5 0.345028 0.500000 0.780432
O O6 0.426782 0.241678 0.795548
O O7 0.500000 0.246061 0.000000
O O8 0.199504 0.500000 0.065048
O O9 0.419186 0.310358 0.261502
O O10 0.204487 0.167519 0.093215
O O11 0.154714 0.292018 0.918498
O O12 0.442853 0.500000 0.121674
O O13 0.599397 0.726907 0.359863
O O14 0.334921 0.799777 0.016101
O O15 0.870588 0.000000 0.162317
O O16 0.319011 0.168152 0.433202
O O17 0.539909 0.000000 0.618633
O O18 0.266781 0.000000 0.268331
O O19 0.339800 0.500000 0.480734
#
# Coordination Sequence:
#
# PCOD8058257 Si02
#       8
#     4   4   4   4   4   2   4   2
#     4  10  22  37  51  73 104 134 168 212 258 306
#     4  10  21  36  53  74 101 132 170 215 257 304
#     4   9  16  27  43  64  94 130 167 209 255 299
#     4   9  18  31  48  72  98 128 171 216 257 306
#     4  10  18  30  50  72  97 132 174 216 256 306
#     4   9  16  24  40  62  94 131 168 201 244 303
#     4   8  15  26  40  62  93 127 165 208 250 298
#     4   9  16  26  38  64  96 129 168 205 242 303
#
# _framework density 19.557728999999998
#
# number of rings (size 3 to 8) (size 9 to 14) (size 15 to 20)
#    0.000    2.714    0.714    2.143    3.000    2.857 
#    0.000    2.857    0.000    0.000    0.000    0.000 
#    0.000    2.286    0.000    6.429    0.000    5.286 
#
# Total GULP energy -347115.372068 kJ/mol
# GULP energy per Si atom -12396.977574 kJ/mol
# Density = 1.951322 g / cm^3
# Si number density = 19.557729 Si / 1000 Ang^3
#
#
#
# Elastic Constant Matrix: (Units=GPa)
#
#
# Indices 1 2 3 4 5 6 
#
# 1 120.4466 54.0978 52.2988 0.0000 -36.2963 0.0000
# 2 54.0978 109.1021 31.8174 0.0000 -27.8678 0.0000
# 3 52.2988 31.8174 72.1646 0.0000 -22.2591 0.0000
# 4 0.0000 0.0000 0.0000 15.4683 0.0000 -5.4541
# 5 -36.2963 -27.8678 -22.2591 0.0000 32.7466 0.0000
# 6 0.0000 0.0000 0.0000 -5.4541 0.0000 14.9578
#
#
#
# Elastic Compliance Matrix: (Units=1/GPa)
#
#
# Indices 1 2 3 4 5 6 
#
# 1 0.015788 -0.003249 -0.006914 0.000000 0.010034 0.000000
# 2 -0.003249 0.012793 -0.001314 0.000000 0.006393 0.000000
# 3 -0.006914 -0.001314 0.021179 0.000000 0.005614 0.000000
# 4 0.000000 0.000000 0.000000 0.074186 0.000000 0.027051
# 5 0.010034 0.006393 0.005614 0.000000 0.050916 0.000000
# 6 0.000000 0.000000 0.000000 0.027051 0.000000 0.076719
#
#
# Mechanical properties :
#
#
# Convention : Reuss Voigt Hill
#
# Bulk Modulus (GPa) = 37.30559 64.23792 50.77175
# Shear Modulus (GPa) = 17.63858 23.53448 20.58653
#
# Velocity S-wave (km/s) = 3.00638 3.47267 3.24790
# Velocity P-wave (km/s) = 5.58275 6.99971 6.33099
#
# Compressibility (1/GPa) = 0.02680563
#
# Stress axis : x y z
#
# Youngs Moduli (GPa) = 63.34094 78.16960 47.21656
#
# Poissons Ratio (x) = 0.25396 0.32645
# Poissons Ratio (y) = 0.20578 0.06205
# Poissons Ratio (z) = 0.43794 0.10272
#
# Static dielectric constant tensor:
#      x y z
#    x 3.598040 0.000000 -0.415240 
#    y 0.000000 3.669590 0.000000 
#    z -0.415240 0.000000 3.191180 
# 
# 
# High freq. dielectric constant tensor:
#      x y z
#    x 1.749100 0.000000 -0.033320 
#    y 0.000000 1.764610 0.000000 
#    z -0.033320 0.000000 1.718100 
# 
# From -- ./inp_files/86579.got.cif
#   From: 2010.06.25/outbox.cif.g09.slc.cpg/sg10_44_cif.got.tgz:86579.got - 2010.06.27 22:07:45.
