data_PCOD8058901
_publ_section_title
;
Structure prediction by ZEFSAII (Michael W. Deem and Ramdas Pophale) SiO2 
 PCOD8058901
Probable space group: P 2/M
;
_chemical_formula_sum "Si O2"
_cell_formula_units_Z 32
_cell_length_a 32.508866
_cell_length_b 8.615264
_cell_length_c 12.615577
_cell_angle_alpha 90.000000
_cell_angle_beta 153.661556
_cell_angle_gamma 90.000000
_cell_volume 1567.617663
_symmetry_space_group_name_H-M "P 2/M"
_symmetry_group_IT_number 10
_symmetry_cell_setting 'monoclinic'
loop_
_space_group_symop_operation_xyz
x,y,z
-x,y,-z
-x,-y,-z
x,-y,z
loop_
_atom_site_type_symbol
_atom_site_label
_atom_site_fract_x
_atom_site_fract_y
_atom_site_fract_z
Si Si1 0.215567 0.816030 0.612148
Si Si2 0.395044 0.323703 0.527633
Si Si3 0.065060 0.185072 0.836322
Si Si4 0.155349 0.826927 0.251139
Si Si5 0.363927 0.173564 0.671524
Si Si6 0.129443 0.680892 0.619149
Si Si7 0.220056 0.819650 0.026228
Si Si8 0.401153 0.679545 0.977628
O O1 0.164147 0.746392 0.387341
O O2 0.154619 0.775261 0.572051
O O3 0.317959 0.742563 0.859173
O O4 0.227428 0.000000 0.627075
O O5 0.363277 0.500000 0.434104
O O6 0.395061 0.291345 0.652874
O O7 0.501452 0.297848 0.734820
O O8 0.325634 0.210509 0.305368
O O9 0.149213 0.233892 0.954097
O O10 0.972817 0.267102 0.580467
O O11 0.052484 0.000000 0.806561
O O12 0.085562 0.249326 0.003665
O O13 0.253586 0.827668 0.420293
O O14 0.118811 0.000000 0.186788
O O15 0.407003 0.226374 0.881851
O O16 0.399926 0.000000 0.729151
O O17 0.133496 0.500000 0.603524
O O18 0.201175 0.721487 0.877208
O O19 0.207856 0.000000 0.971456
O O20 0.383258 0.500000 0.910176
#
# Coordination Sequence:
#
# PCOD8058901 Si02
#       8
#     4   4   4   4   4   4   4   4
#     4  10  21  40  64  87 116 157 205 247 289 347
#     4  11  22  35  55  86 124 159 192 239 303 359
#     4  10  20  39  64  90 119 151 193 244 299 352
#     4   8  16  33  58  88 118 151 190 241 293 338
#     4  10  18  32  54  84 120 161 203 241 286 345
#     4  12  26  42  60  85 119 157 198 245 300 356
#     4  11  23  41  65  89 117 153 200 250 294 349
#     4  10  21  36  55  85 123 160 194 239 300 355
#
# _framework density 20.413139999999999
#
# number of rings (size 3 to 8) (size 9 to 14) (size 15 to 20)
#    0.000    1.750    1.250    4.500    0.000    6.500 
#    0.000    4.375    0.000    3.750    0.000    0.000 
#    0.000    0.000    0.000    0.000    0.000    0.000 
#
# Total GULP energy -396766.725181 kJ/mol
# GULP energy per Si atom -12398.960162 kJ/mol
# Density = 2.036668 g / cm^3
# Si number density = 20.413140 Si / 1000 Ang^3
#
#
#
# Elastic Constant Matrix: (Units=GPa)
#
#
# Indices 1 2 3 4 5 6 
#
# 1 59.2730 16.8415 15.4922 0.0000 -10.9588 0.0000
# 2 16.8415 64.4211 23.8208 0.0000 -0.6888 0.0000
# 3 15.4922 23.8208 90.5683 0.0000 -2.4501 0.0000
# 4 0.0000 0.0000 0.0000 30.2190 0.0000 -0.0160
# 5 -10.9588 -0.6888 -2.4501 0.0000 14.7291 0.0000
# 6 0.0000 0.0000 0.0000 -0.0160 0.0000 26.4210
#
#
#
# Elastic Compliance Matrix: (Units=1/GPa)
#
#
# Indices 1 2 3 4 5 6 
#
# 1 0.021618 -0.004734 -0.002033 0.000000 0.015525 0.000000
# 2 -0.004734 0.018232 -0.004076 0.000000 -0.003348 0.000000
# 3 -0.002033 -0.004076 0.012471 0.000000 0.000371 0.000000
# 4 0.000000 0.000000 0.000000 0.033092 0.000000 0.000020
# 5 0.015525 -0.003348 0.000371 0.000000 0.079349 0.000000
# 6 0.000000 0.000000 0.000000 0.000020 0.000000 0.037849
#
#
# Mechanical properties :
#
#
# Convention : Reuss Voigt Hill
#
# Bulk Modulus (GPa) = 32.64193 36.28571 34.46382
# Shear Modulus (GPa) = 21.32132 24.81436 23.06784
#
# Velocity S-wave (km/s) = 3.23536 3.49034 3.36527
# Velocity P-wave (km/s) = 5.47559 5.83588 5.65861
#
# Compressibility (1/GPa) = 0.03063545
#
# Stress axis : x y z
#
# Youngs Moduli (GPa) = 46.25823 54.84917 80.18457
#
# Poissons Ratio (x) = 0.25965 0.16300
# Poissons Ratio (y) = 0.21898 0.32684
# Poissons Ratio (z) = 0.09403 0.22357
#
# Static dielectric constant tensor:
#      x y z
#    x 3.535360 0.000000 0.017220 
#    y 0.000000 3.560800 0.000000 
#    z 0.017220 0.000000 3.830250 
# 
# 
# High freq. dielectric constant tensor:
#      x y z
#    x 1.778410 0.000000 0.001990 
#    y 0.000000 1.786230 0.000000 
#    z 0.001990 0.000000 1.807210 
# 
# From -- ./inp_files/58345.got.cif
#   From: 2010.06.25/outbox.cif.g09.slc.cpg/sg10_30_cif.got.tgz:58345.got - 2010.06.27 22:07:45.
