data_PCOD8058382
_publ_section_title
;
Structure prediction by ZEFSAII (Michael W. Deem and Ramdas Pophale) SiO2 
 PCOD8058382
Probable space group: P 2/M
;
_chemical_formula_sum "Si O2"
_cell_formula_units_Z 32
_cell_length_a 30.865443
_cell_length_b 8.757304
_cell_length_c 13.230984
_cell_angle_alpha 90.000000
_cell_angle_beta 153.285250
_cell_angle_gamma 90.000000
_cell_volume 1607.726209
_symmetry_space_group_name_H-M "P 2/M"
_symmetry_group_IT_number 10
_symmetry_cell_setting 'monoclinic'
loop_
_space_group_symop_operation_xyz
x,y,z
-x,y,-z
-x,-y,-z
x,-y,z
loop_
_atom_site_type_symbol
_atom_site_label
_atom_site_fract_x
_atom_site_fract_y
_atom_site_fract_z
Si Si1 0.759718 0.674866 0.870920
Si Si2 0.830647 0.830524 0.827873
Si Si3 0.965567 0.170484 0.826825
Si Si4 0.624412 0.178355 0.067244
Si Si5 0.894198 0.819697 0.312083
Si Si6 0.429222 0.676440 0.632129
Si Si7 0.317010 0.321267 0.602517
Si Si8 0.816635 0.181202 0.362785
O O1 0.775920 0.500000 0.935853
O O2 0.808982 0.704827 0.866510
O O3 0.646176 0.710613 0.616331
O O4 0.809438 0.780875 0.057267
O O5 0.782766 0.771939 0.622831
O O6 0.790198 0.000000 0.770579
O O7 0.944910 0.839830 0.061774
O O8 0.879162 0.251998 0.585955
O O9 0.930949 0.000000 0.787530
O O10 0.000000 0.260079 0.000000
O O11 0.634463 0.269709 0.192549
O O12 0.705987 0.225386 0.154917
O O13 0.630223 0.000000 0.103682
O O14 0.522587 0.220857 0.805087
O O15 0.857394 0.750628 0.342466
O O16 0.000000 0.752921 0.500000
O O17 0.902994 0.000000 0.336856
O O18 0.459536 0.500000 0.694465
O O19 0.386196 0.719428 0.652248
O O20 0.294992 0.500000 0.561255
O O21 0.831492 0.000000 0.391052
#
# Coordination Sequence:
#
# PCOD8058382 Si02
#       8
#     4   4   4   4   4   4   4   4
#     4  10  21  37  56  79 108 138 171 219 275 323
#     4  10  18  30  53  81 105 136 180 223 264 316
#     4   9  16  28  49  76 107 141 173 210 259 313
#     4  11  21  33  53  79 107 141 181 226 270 315
#     4  10  20  37  62  85 106 138 179 222 267 318
#     4   9  20  37  54  74 105 144 180 218 268 320
#     4  10  20  34  52  76 111 150 182 219 267 316
#     4   9  19  34  51  79 113 138 172 224 275 319
#
# _framework density 19.903887999999998
#
# number of rings (size 3 to 8) (size 9 to 14) (size 15 to 20)
#    0.000    2.250    0.000    4.125    0.000    8.750 
#    0.000    1.875    0.000   13.500    0.000    0.000 
#    0.000    0.000    0.000    0.000    0.000    0.000 
#
# Total GULP energy -396637.903362 kJ/mol
# GULP energy per Si atom -12394.934480 kJ/mol
# Density = 1.985859 g / cm^3
# Si number density = 19.903888 Si / 1000 Ang^3
#
#
#
# Elastic Constant Matrix: (Units=GPa)
#
#
# Indices 1 2 3 4 5 6 
#
# 1 93.7033 18.4787 55.0688 0.0000 3.5665 0.0000
# 2 18.4787 38.9671 22.5900 0.0000 11.8396 0.0000
# 3 55.0688 22.5900 124.0789 0.0000 2.9083 0.0000
# 4 0.0000 0.0000 0.0000 27.0574 0.0000 -6.9400
# 5 3.5665 11.8396 2.9083 0.0000 32.0120 0.0000
# 6 0.0000 0.0000 0.0000 -6.9400 0.0000 5.9131
#
#
#
# Elastic Compliance Matrix: (Units=1/GPa)
#
#
# Indices 1 2 3 4 5 6 
#
# 1 0.014880 -0.003688 -0.005938 0.000000 0.000246 0.000000
# 2 -0.003688 0.033329 -0.004161 0.000000 -0.011538 0.000000
# 3 -0.005938 -0.004161 0.011425 0.000000 0.001162 0.000000
# 4 0.000000 0.000000 0.000000 0.052876 0.000000 0.062058
# 5 0.000246 -0.011538 0.001162 0.000000 0.035373 0.000000
# 6 0.000000 0.000000 0.000000 0.062058 0.000000 0.241949
#
#
# Mechanical properties :
#
#
# Convention : Reuss Voigt Hill
#
# Bulk Modulus (GPa) = 31.19158 49.89160 40.54159
# Shear Modulus (GPa) = 11.67971 23.70395 17.69183
#
# Velocity S-wave (km/s) = 2.42503 3.45472 2.98462
# Velocity P-wave (km/s) = 4.85244 6.40579 5.68244
#
# Compressibility (1/GPa) = 0.03205993
#
# Stress axis : x y z
#
# Youngs Moduli (GPa) = 67.20497 30.00358 87.52627
#
# Poissons Ratio (x) = 0.11067 0.51975
# Poissons Ratio (y) = 0.24788 0.36416
# Poissons Ratio (z) = 0.39908 0.12483
#
# Static dielectric constant tensor:
#      x y z
#    x 3.561100 0.000000 0.025520 
#    y 0.000000 3.333870 0.000000 
#    z 0.025520 0.000000 3.851230 
# 
# 
# High freq. dielectric constant tensor:
#      x y z
#    x 1.758840 0.000000 0.005220 
#    y 0.000000 1.747280 0.000000 
#    z 0.005220 0.000000 1.788610 
# 
# From -- ./inp_files/58249.got.cif
#   From: 2010.06.25/outbox.cif.g09.slc.cpg/sg10_30_cif.got.tgz:58249.got - 2010.06.27 22:07:45.
