data_PCOD8058010
_publ_section_title
;
Structure prediction by ZEFSAII (Michael W. Deem and Ramdas Pophale) SiO2 
 PCOD8058010
Probable space group: P 2/M
;
_chemical_formula_sum "Si O2"
_cell_formula_units_Z 28
_cell_length_a 29.399230
_cell_length_b 9.238635
_cell_length_c 9.991811
_cell_angle_alpha 90.000000
_cell_angle_beta 145.761028
_cell_angle_gamma 90.000000
_cell_volume 1526.943868
_symmetry_space_group_name_H-M "P 2/M"
_symmetry_group_IT_number 10
_symmetry_cell_setting 'monoclinic'
loop_
_space_group_symop_operation_xyz
x,y,z
-x,y,-z
-x,-y,-z
x,-y,z
loop_
_atom_site_type_symbol
_atom_site_label
_atom_site_fract_x
_atom_site_fract_y
_atom_site_fract_z
Si Si1 0.817257 0.663886 0.545302
Si Si2 0.153331 0.166445 0.874192
Si Si3 0.924280 0.168791 0.600764
Si Si4 0.086295 0.667951 0.960819
Si Si5 0.349906 0.334158 0.978906
Si Si6 0.674657 0.830907 0.809918
Si Si7 0.501386 0.839945 0.343531
O O1 0.841179 0.500000 0.560784
O O2 0.859834 0.776303 0.550964
O O3 0.720493 0.684602 0.302139
O O4 0.842393 0.693556 0.759058
O O5 0.109342 0.198966 0.628293
O O6 0.113103 0.267987 0.885145
O O7 0.140874 0.000000 0.886595
O O8 0.248179 0.205188 0.093639
O O9 0.007336 0.253165 0.824959
O O10 0.939448 0.000000 0.662338
O O11 0.066230 0.500000 0.891989
O O12 0.367936 0.500000 0.056385
O O13 0.319914 0.258533 0.040881
O O14 0.432579 0.266441 0.119718
O O15 0.593018 0.791951 0.527147
O O16 0.673901 0.000000 0.849050
O O17 0.500000 0.838855 0.500000
O O18 0.482575 0.000000 0.241899
#
# Coordination Sequence:
#
# PCOD8058010 Si02
#       7
#     4   4   4   4   4   4   4
#     4  10  22  38  54  76 108 143 176 215 260 311
#     4  10  21  37  56  79 107 136 174 220 261 308
#     4  11  22  37  59  82 103 132 176 224 266 310
#     4  11  24  39  54  75 107 143 177 214 263 316
#     4  10  18  29  49  76 105 134 171 214 255 301
#     4   9  17  32  51  74 105 138 168 208 261 309
#     4   8  15  27  46  72 104 136 166 205 258 309
#
# _framework density 18.337281000000001
#
# number of rings (size 3 to 8) (size 9 to 14) (size 15 to 20)
#    0.000    2.143    1.429    3.000    0.000    9.429 
#    0.000    0.000    0.000    0.857    0.000    6.000 
#    0.000    0.000    0.000    0.000    0.000    0.000 
#
# Total GULP energy -347193.506577 kJ/mol
# GULP energy per Si atom -12399.768092 kJ/mol
# Density = 1.829554 g / cm^3
# Si number density = 18.337281 Si / 1000 Ang^3
#
#
#
# Elastic Constant Matrix: (Units=GPa)
#
#
# Indices 1 2 3 4 5 6 
#
# 1 25.4648 24.4121 25.2426 0.0000 5.3040 0.0000
# 2 24.4121 91.1982 45.6974 0.0000 2.3055 0.0000
# 3 25.2426 45.6974 93.9290 0.0000 17.8062 0.0000
# 4 0.0000 0.0000 0.0000 27.6587 0.0000 6.8600
# 5 5.3040 2.3055 17.8062 0.0000 31.1129 0.0000
# 6 0.0000 0.0000 0.0000 6.8600 0.0000 22.4866
#
#
#
# Elastic Compliance Matrix: (Units=1/GPa)
#
#
# Indices 1 2 3 4 5 6 
#
# 1 0.060796 -0.011032 -0.010276 0.000000 -0.003666 0.000000
# 2 -0.011032 0.016815 -0.005985 0.000000 0.004060 0.000000
# 3 -0.010276 -0.005985 0.017839 0.000000 -0.008014 0.000000
# 4 0.000000 0.000000 0.000000 0.039115 0.000000 -0.011933
# 5 -0.003666 0.004060 -0.008014 0.000000 0.037052 0.000000
# 6 0.000000 0.000000 0.000000 -0.011933 0.000000 0.048111
#
#
# Mechanical properties :
#
#
# Convention : Reuss Voigt Hill
#
# Bulk Modulus (GPa) = 24.47243 44.58848 34.53046
# Shear Modulus (GPa) = 17.36497 23.93430 20.64963
#
# Velocity S-wave (km/s) = 3.08064 3.61671 3.35938
# Velocity P-wave (km/s) = 5.10181 6.46601 5.82399
#
# Compressibility (1/GPa) = 0.04086231
#
# Stress axis : x y z
#
# Youngs Moduli (GPa) = 16.44842 59.47154 56.05620
#
# Poissons Ratio (x) = 0.65610 0.57605
# Poissons Ratio (y) = 0.18146 0.33552
# Poissons Ratio (z) = 0.16903 0.35596
#
# Static dielectric constant tensor:
#      x y z
#    x 3.215690 0.000000 0.425020 
#    y 0.000000 3.461050 0.000000 
#    z 0.425020 0.000000 3.674940 
# 
# 
# High freq. dielectric constant tensor:
#      x y z
#    x 1.682420 0.000000 0.028750 
#    y 0.000000 1.717470 0.000000 
#    z 0.028750 0.000000 1.716340 
# 
# From -- ./inp_files/37257.got.cif
#   From: 2010.06.25/outbox.cif.g09.slc.cpg/sg10_19_cif.got.tgz:37257.got - 2010.06.27 22:07:45.
