data_PCOD8058389
_publ_section_title
;
Structure prediction by ZEFSAII (Michael W. Deem and Ramdas Pophale) SiO2 
 PCOD8058389
Probable space group: P 2/M
;
_chemical_formula_sum "Si O2"
_cell_formula_units_Z 32
_cell_length_a 12.621802
_cell_length_b 9.348553
_cell_length_c 14.303809
_cell_angle_alpha 90.000000
_cell_angle_beta 91.536275
_cell_angle_gamma 90.000000
_cell_volume 1687.179638
_symmetry_space_group_name_H-M "P 2/M"
_symmetry_group_IT_number 10
_symmetry_cell_setting 'monoclinic'
loop_
_space_group_symop_operation_xyz
x,y,z
-x,y,-z
-x,-y,-z
x,-y,z
loop_
_atom_site_type_symbol
_atom_site_label
_atom_site_fract_x
_atom_site_fract_y
_atom_site_fract_z
Si Si1 0.616935 0.836226 0.971506
Si Si2 0.395046 0.660697 0.533022
Si Si3 0.896730 0.171354 0.298863
Si Si4 0.898954 0.333187 0.692722
Si Si5 0.460901 0.342892 0.739515
Si Si6 0.688293 0.665628 0.793790
Si Si7 0.702709 0.838512 0.168192
Si Si8 0.834846 0.331650 0.483734
O O1 0.669017 0.747004 0.889794
O O2 0.603969 0.000000 0.938532
O O3 0.500000 0.778823 0.000000
O O4 0.705264 0.824416 0.056171
O O5 0.500000 0.745759 0.500000
O O6 0.400511 0.500000 0.491410
O O7 0.393986 0.662984 0.644016
O O8 0.284102 0.726585 0.497375
O O9 0.806225 0.224398 0.223365
O O10 0.880038 0.236750 0.401271
O O11 0.006714 0.236928 0.262755
O O12 0.904266 0.000000 0.304986
O O13 0.918964 0.500000 0.714698
O O14 0.790532 0.279229 0.738973
O O15 0.899439 0.309114 0.580477
O O16 0.451530 0.500000 0.784772
O O17 0.585125 0.307784 0.725725
O O18 0.408304 0.233364 0.808474
O O19 0.703718 0.500000 0.818592
O O20 0.692623 0.000000 0.201796
O O21 0.834090 0.500000 0.454466
#
# Coordination Sequence:
#
# PCOD8058389 Si02
#       8
#     4   4   4   4   4   4   4   4
#     4  10  20  36  59  83 109 146 184 218 270 340
#     4   9  16  27  47  77 110 142 177 215 260 320
#     4  11  23  38  57  80 110 147 190 236 273 314
#     4  10  22  39  57  80 113 149 186 228 275 326
#     4  10  18  30  53  82 110 140 176 218 270 326
#     4  10  21  36  56  86 117 142 177 230 280 324
#     4  10  21  37  55  79 110 141 179 225 271 321
#     4  10  19  34  57  82 109 146 188 227 270 324
#
# _framework density 18.966564000000002
#
# number of rings (size 3 to 8) (size 9 to 14) (size 15 to 20)
#    0.000    2.000    2.500    1.500    0.000    6.750 
#    0.000    0.625    0.000    6.750    0.000    0.000 
#    0.000    0.000    0.000    0.000    0.000    0.000 
#
# Total GULP energy -396577.959375 kJ/mol
# GULP energy per Si atom -12393.061230 kJ/mol
# Density = 1.892340 g / cm^3
# Si number density = 18.966564 Si / 1000 Ang^3
#
#
#
# Elastic Constant Matrix: (Units=GPa)
#
#
# Indices 1 2 3 4 5 6 
#
# 1 123.4155 40.8990 29.9801 0.0000 6.9905 0.0000
# 2 40.8990 50.6785 28.1415 0.0000 0.0281 0.0000
# 3 29.9801 28.1415 62.9771 0.0000 6.3964 0.0000
# 4 0.0000 0.0000 0.0000 -11.9585 0.0000 45.3398
# 5 6.9905 0.0281 6.3964 0.0000 23.6836 0.0000
# 6 0.0000 0.0000 0.0000 45.3398 0.0000 -27.3692
#
#
#
# Elastic Compliance Matrix: (Units=1/GPa)
#
#
# Indices 1 2 3 4 5 6 
#
# 1 0.011400 -0.008450 -0.001347 0.000000 -0.002991 0.000000
# 2 -0.008450 0.032750 -0.011167 0.000000 0.005471 0.000000
# 3 -0.001347 -0.011167 0.022074 0.000000 -0.005551 0.000000
# 4 0.000000 0.000000 0.000000 0.015835 0.000000 0.026232
# 5 -0.002991 0.005471 -0.005551 0.000000 0.044599 0.000000
# 6 0.000000 0.000000 0.000000 0.026232 0.000000 0.006919
#
#
# Mechanical properties :
#
#
# Convention : Reuss Voigt Hill
#
# Bulk Modulus (GPa) = 41.16181 48.34581 44.75381
# Shear Modulus (GPa) = 27.23257 6.07454 16.65355
#
# Velocity S-wave (km/s) = 3.79333 1.79157 2.96640
# Velocity P-wave (km/s) = 6.39807 5.46122 5.94812
#
# Compressibility (1/GPa) = 0.02429437
#
# Stress axis : x y z
#
# Youngs Moduli (GPa) = 87.72165 30.53435 45.30218
#
# Poissons Ratio (x) = 0.25802 0.06102
# Poissons Ratio (y) = 0.74127 0.50591
# Poissons Ratio (z) = 0.11816 0.34099
#
# Static dielectric constant tensor:
#      x y z
#    x 3.775190 0.000000 0.128130 
#    y 0.000000 3.279150 0.000000 
#    z 0.128130 0.000000 3.371960 
# 
# 
# High freq. dielectric constant tensor:
#      x y z
#    x 1.749570 0.000000 0.009960 
#    y 0.000000 1.710210 0.000000 
#    z 0.009960 0.000000 1.726270 
# 
# From -- ./inp_files/63840.got.cif
#   From: 2010.06.25/outbox.cif.g09.slc.cpg/sg10_32_cif.got.tgz:63840.got - 2010.06.27 22:07:45.
