data_PCOD8058978
_publ_section_title
;
Structure prediction by ZEFSAII (Michael W. Deem and Ramdas Pophale) SiO2 
 PCOD8058978
Probable space group: P 2/M
;
_chemical_formula_sum "Si O2"
_cell_formula_units_Z 12
_cell_length_a 13.172393
_cell_length_b 7.644705
_cell_length_c 19.064886
_cell_angle_alpha 90.000000
_cell_angle_beta 161.034179
_cell_angle_gamma 90.000000
_cell_volume 623.948019
_symmetry_space_group_name_H-M "P 2/M"
_symmetry_group_IT_number 10
_symmetry_cell_setting 'monoclinic'
loop_
_space_group_symop_operation_xyz
x,y,z
-x,y,-z
-x,-y,-z
x,-y,z
loop_
_atom_site_type_symbol
_atom_site_label
_atom_site_fract_x
_atom_site_fract_y
_atom_site_fract_z
Si Si1 0.383008 0.303212 0.498931
Si Si2 0.369202 0.000000 0.243351
Si Si3 0.295287 0.805914 0.928357
Si Si4 0.630743 0.000000 0.259187
O O1 0.500000 0.235142 0.500000
O O2 0.505126 0.500000 0.593066
O O3 0.516886 0.175851 0.644922
O O4 0.007034 0.309240 0.253624
O O5 0.504447 0.000000 0.254421
O O6 0.000000 0.000000 0.000000
O O7 0.183692 0.000000 0.829508
O O8 0.500000 0.717843 0.000000
O O9 0.503362 0.826869 0.135105
O O10 0.000000 0.000000 0.500000
#
# Coordination Sequence:
#
# PCOD8058978 Si02
#       4
#     4   2   4   2
#     4  11  23  39  59  83 113 152 197 233 272 339
#     4  12  22  36  60  84 116 150 182 234 296 332
#     4   9  18  36  61  86 108 149 197 226 275 337
#     4  10  18  32  58  88 114 142 182 236 284 334
#
# _framework density 19.232372000000002
#
# number of rings (size 3 to 8) (size 9 to 14) (size 15 to 20)
#    1.000    0.667    1.667    4.500    0.000    1.333 
#    0.000    1.667    0.000    4.000    0.000    0.000 
#    0.000    0.000    0.000    0.000    0.000    0.000 
#
# Total GULP energy -148767.277704 kJ/mol
# GULP energy per Si atom -12397.273142 kJ/mol
# Density = 1.918860 g / cm^3
# Si number density = 19.232372 Si / 1000 Ang^3
#
#
#
# Elastic Constant Matrix: (Units=GPa)
#
#
# Indices 1 2 3 4 5 6 
#
# 1 209.4857 41.3337 78.4657 0.0000 9.0005 0.0000
# 2 41.3337 70.7877 34.7391 0.0000 -11.5853 0.0000
# 3 78.4657 34.7391 148.5176 0.0000 7.5485 0.0000
# 4 0.0000 0.0000 0.0000 11.7500 0.0000 -3.1003
# 5 9.0005 -11.5853 7.5485 0.0000 42.8202 0.0000
# 6 0.0000 0.0000 0.0000 -3.1003 0.0000 -21.4017
#
#
#
# Elastic Compliance Matrix: (Units=1/GPa)
#
#
# Indices 1 2 3 4 5 6 
#
# 1 0.006364 -0.002673 -0.002656 0.000000 -0.001593 0.000000
# 2 -0.002673 0.018228 -0.003159 0.000000 0.006051 0.000000
# 3 -0.002656 -0.003159 0.008971 0.000000 -0.001878 0.000000
# 4 0.000000 0.000000 0.000000 0.081973 0.000000 -0.011875
# 5 -0.001593 0.006051 -0.001878 0.000000 0.025656 0.000000
# 6 0.000000 0.000000 0.000000 -0.011875 0.000000 -0.045005
#
#
# Mechanical properties :
#
#
# Convention : Reuss Voigt Hill
#
# Bulk Modulus (GPa) = 60.28932 81.98534 71.13733
# Shear Modulus (GPa) = 42.12513 24.91719 33.52116
#
# Velocity S-wave (km/s) = 4.68517 3.60333 4.17940
# Velocity P-wave (km/s) = 7.78997 7.74812 7.76907
#
# Compressibility (1/GPa) = 0.01658669
#
# Stress axis : x y z
#
# Youngs Moduli (GPa) = 157.12290 54.86009 111.47214
#
# Poissons Ratio (x) = 0.14666 0.29609
# Poissons Ratio (y) = 0.42005 0.35211
# Poissons Ratio (z) = 0.41735 0.17329
#
# Static dielectric constant tensor:
#      x y z
#    x 3.586860 0.000000 0.099250 
#    y 0.000000 3.224780 0.000000 
#    z 0.099250 0.000000 3.492790 
# 
# 
# High freq. dielectric constant tensor:
#      x y z
#    x 1.763990 0.000000 0.015480 
#    y 0.000000 1.719780 0.000000 
#    z 0.015480 0.000000 1.750260 
# 
# From -- ./inp_files/75832.got.cif
#   From: 2010.06.25/outbox.cif.g09.slc.cpg/sg10_38_cif.got.tgz:75832.got - 2010.06.27 22:07:45.
