data_PCOD8058838
_publ_section_title
;
Structure prediction by ZEFSAII (Michael W. Deem and Ramdas Pophale) SiO2 
 PCOD8058838
Probable space group: P 2/M
;
_chemical_formula_sum "Si O2"
_cell_formula_units_Z 32
_cell_length_a 14.840771
_cell_length_b 8.762127
_cell_length_c 12.824202
_cell_angle_alpha 90.000000
_cell_angle_beta 99.175956
_cell_angle_gamma 90.000000
_cell_volume 1646.277125
_symmetry_space_group_name_H-M "P 2/M"
_symmetry_group_IT_number 10
_symmetry_cell_setting 'monoclinic'
loop_
_space_group_symop_operation_xyz
x,y,z
-x,y,-z
-x,-y,-z
x,-y,z
loop_
_atom_site_type_symbol
_atom_site_label
_atom_site_fract_x
_atom_site_fract_y
_atom_site_fract_z
Si Si1 0.596530 0.323690 0.045654
Si Si2 0.935429 0.321142 0.192116
Si Si3 0.405004 0.822552 0.535564
Si Si4 0.785653 0.680805 0.993436
Si Si5 0.663300 0.674307 0.283381
Si Si6 0.153241 0.178432 0.634323
Si Si7 0.789675 0.179553 0.579013
Si Si8 0.125446 0.181111 0.191896
O O1 0.591791 0.500000 0.013148
O O2 0.606378 0.300355 0.169625
O O3 0.500000 0.242671 0.000000
O O4 0.684293 0.255817 0.001196
O O5 0.952731 0.500000 0.196439
O O6 0.921055 0.265227 0.308740
O O7 0.023144 0.240352 0.159292
O O8 0.850434 0.276163 0.102975
O O9 0.500000 0.783467 0.500000
O O10 0.405224 0.716497 0.636862
O O11 0.317856 0.777542 0.447678
O O12 0.398471 0.000000 0.566032
O O13 0.787573 0.500000 0.976993
O O14 0.815238 0.762238 0.893575
O O15 0.699072 0.500000 0.298801
O O16 0.747981 0.789226 0.298851
O O17 0.155241 0.238054 0.514129
O O18 0.130962 0.000000 0.635543
O O19 0.831842 0.249277 0.692595
O O20 0.801103 0.000000 0.584191
O O21 0.125825 0.000000 0.192966
#
# Coordination Sequence:
#
# PCOD8058838 Si02
#       8
#     4   4   4   4   4   4   4   4
#     4   9  18  34  56  81 110 147 184 221 278 341
#     4  11  22  38  59  84 112 146 187 233 283 332
#     4   9  18  34  56  79 106 147 189 226 277 338
#     4  10  21  39  58  79 112 150 185 229 283 332
#     4  10  18  32  53  80 110 142 181 230 278 323
#     4  10  19  35  60  83 107 145 186 225 275 336
#     4   8  18  36  54  77 112 148 181 226 284 333
#     4  11  23  38  56  81 113 150 189 231 278 334
#
# _framework density 19.437797
#
# number of rings (size 3 to 8) (size 9 to 14) (size 15 to 20)
#    0.000    2.250    1.250    2.625    0.000    4.250 
#    0.000    8.750    0.000    2.625    0.000    0.000 
#    0.000    0.000    0.000    0.000    0.000    0.000 
#
# Total GULP energy -396699.988549 kJ/mol
# GULP energy per Si atom -12396.874642 kJ/mol
# Density = 1.939356 g / cm^3
# Si number density = 19.437797 Si / 1000 Ang^3
#
#
#
# Elastic Constant Matrix: (Units=GPa)
#
#
# Indices 1 2 3 4 5 6 
#
# 1 135.2708 30.6202 67.5378 0.0000 -9.3927 0.0000
# 2 30.6202 39.5218 43.1126 0.0000 -1.9058 0.0000
# 3 67.5378 43.1126 128.4685 0.0000 -8.7291 0.0000
# 4 0.0000 0.0000 0.0000 29.8060 0.0000 -7.1573
# 5 -9.3927 -1.9058 -8.7291 0.0000 25.5705 0.0000
# 6 0.0000 0.0000 0.0000 -7.1573 0.0000 22.6658
#
#
#
# Elastic Compliance Matrix: (Units=1/GPa)
#
#
# Indices 1 2 3 4 5 6 
#
# 1 0.010397 -0.003389 -0.004183 0.000000 0.002138 0.000000
# 2 -0.003389 0.041086 -0.012165 0.000000 -0.002335 0.000000
# 3 -0.004183 -0.012165 0.014230 0.000000 0.002414 0.000000
# 4 0.000000 0.000000 0.000000 0.036303 0.000000 0.011464
# 5 0.002138 -0.002335 0.002414 0.000000 0.040543 0.000000
# 6 0.000000 0.000000 0.000000 0.011464 0.000000 0.047739
#
#
# Mechanical properties :
#
#
# Convention : Reuss Voigt Hill
#
# Bulk Modulus (GPa) = 38.11247 65.08917 51.60082
# Shear Modulus (GPa) = 20.96281 26.40783 23.68532
#
# Velocity S-wave (km/s) = 3.28755 3.68989 3.49452
# Velocity P-wave (km/s) = 5.83615 7.19113 6.54878
#
# Compressibility (1/GPa) = 0.02623813
#
# Stress axis : x y z
#
# Youngs Moduli (GPa) = 96.18425 24.33940 70.27535
#
# Poissons Ratio (x) = 0.08248 0.29398
# Poissons Ratio (y) = 0.32593 0.85491
# Poissons Ratio (z) = 0.40236 0.29609
#
# Static dielectric constant tensor:
#      x y z
#    x 3.693770 0.000000 -0.030420 
#    y 0.000000 3.364030 0.000000 
#    z -0.030420 0.000000 3.810220 
# 
# 
# High freq. dielectric constant tensor:
#      x y z
#    x 1.759930 0.000000 -0.008460 
#    y 0.000000 1.732570 0.000000 
#    z -0.008460 0.000000 1.762790 
# 
# From -- ./inp_files/49858.got.cif
#   From: 2010.06.25/outbox.cif.g09.slc.cpg/sg10_25_cif.got.tgz:49858.got - 2010.06.27 22:07:45.
