data_PCOD8058137
_publ_section_title
;
Structure prediction by ZEFSAII (Michael W. Deem and Ramdas Pophale) SiO2 
 PCOD8058137
Probable space group: P 2/M
;
_chemical_formula_sum "Si O2"
_cell_formula_units_Z 30
_cell_length_a 12.440689
_cell_length_b 18.268114
_cell_length_c 13.031982
_cell_angle_alpha 90.000000
_cell_angle_beta 33.764251
_cell_angle_gamma 90.000000
_cell_volume 1646.073440
_symmetry_space_group_name_H-M "P 2/M"
_symmetry_group_IT_number 10
_symmetry_cell_setting 'monoclinic'
loop_
_space_group_symop_operation_xyz
x,y,z
-x,y,-z
-x,-y,-z
x,-y,z
loop_
_atom_site_type_symbol
_atom_site_label
_atom_site_fract_x
_atom_site_fract_y
_atom_site_fract_z
Si Si1 0.652683 0.782682 0.572644
Si Si2 0.010878 0.382403 0.110448
Si Si3 0.447451 0.264596 0.927465
Si Si4 0.404552 0.579168 0.879773
Si Si5 0.392017 0.629744 0.482988
Si Si6 0.570550 0.919435 0.332123
Si Si7 0.952232 0.777265 0.845848
Si Si8 0.000000 0.879345 0.000000
O O1 0.623245 0.758608 0.713755
O O2 0.581305 0.717433 0.554168
O O3 0.522200 0.855615 0.663599
O O4 0.881761 0.791042 0.371394
O O5 0.823835 0.399089 0.327424
O O6 0.046943 0.296417 0.089529
O O7 0.000000 0.404717 0.000000
O O8 0.181846 0.427751 0.025059
O O9 0.428898 0.353204 0.938550
O O10 0.500000 0.240410 0.000000
O O11 0.253596 0.220799 0.048707
O O12 0.461799 0.500000 0.884159
O O13 0.529573 0.588536 0.677975
O O14 0.500000 0.606999 0.500000
O O15 0.500000 0.899681 0.500000
O O16 0.496609 0.000000 0.354366
O O17 0.802927 0.925233 0.152908
O O18 0.988680 0.836748 0.902748
#
# Coordination Sequence:
#
# PCOD8058137 Si02
#       8
#     4   4   4   4   4   4   4   2
#     4  10  20  35  56  81 110 148 187 233 276 318
#     4  10  18  30  47  74 106 139 176 217 261 322
#     4  10  22  40  60  82 103 137 195 245 281 323
#     4  10  22  36  50  75 108 141 176 220 282 339
#     4  10  19  30  50  75 106 143 182 217 264 326
#     4  11  22  33  51  87 130 160 181 211 267 340
#     4  10  20  31  58  85 108 146 180 231 277 325
#     4  12  19  32  56  86 123 150 184 214 271 336
#
# _framework density 18.225190000000001
#
# number of rings (size 3 to 8) (size 9 to 14) (size 15 to 20)
#    0.000    1.733    4.667    0.600    1.867    1.867 
#    0.000    0.000    0.000    0.400    0.000    8.400 
#    0.000    0.000    0.000    0.000    0.000    0.000 
#
# Total GULP energy -371719.871573 kJ/mol
# GULP energy per Si atom -12390.662386 kJ/mol
# Density = 1.818371 g / cm^3
# Si number density = 18.225190 Si / 1000 Ang^3
#
#
#
# Elastic Constant Matrix: (Units=GPa)
#
#
# Indices 1 2 3 4 5 6 
#
# 1 70.0858 14.8353 38.4818 0.0000 9.3050 0.0000
# 2 14.8353 84.2092 17.2811 0.0000 0.7130 0.0000
# 3 38.4818 17.2811 121.9103 0.0000 -8.3270 0.0000
# 4 0.0000 0.0000 0.0000 12.3946 0.0000 0.0042
# 5 9.3050 0.7130 -8.3270 0.0000 24.0861 0.0000
# 6 0.0000 0.0000 0.0000 0.0042 0.0000 16.2299
#
#
#
# Elastic Compliance Matrix: (Units=1/GPa)
#
#
# Indices 1 2 3 4 5 6 
#
# 1 0.019602 -0.002022 -0.006569 0.000000 -0.009784 0.000000
# 2 -0.002022 0.012462 -0.001127 0.000000 0.000023 0.000000
# 3 -0.006569 -0.001127 0.010868 0.000000 0.006329 0.000000
# 4 0.000000 0.000000 0.000000 0.080680 0.000000 -0.000021
# 5 -0.009784 0.000023 0.006329 0.000000 0.047485 0.000000
# 6 0.000000 0.000000 0.000000 -0.000021 0.000000 0.061615
#
#
# Mechanical properties :
#
#
# Convention : Reuss Voigt Hill
#
# Bulk Modulus (GPa) = 42.55939 46.37796 44.46867
# Shear Modulus (GPa) = 19.23214 24.24926 21.74070
#
# Velocity S-wave (km/s) = 3.25199 3.65161 3.45758
# Velocity P-wave (km/s) = 6.12399 6.57886 6.35549
#
# Compressibility (1/GPa) = 0.02349658
#
# Stress axis : x y z
#
# Youngs Moduli (GPa) = 51.01464 80.24078 92.01046
#
# Poissons Ratio (x) = 0.16228 0.60443
# Poissons Ratio (y) = 0.10317 0.10366
# Poissons Ratio (z) = 0.33512 0.09040
#
# Static dielectric constant tensor:
#      x y z
#    x 3.009570 0.000000 -0.221510 
#    y 0.000000 3.269840 0.000000 
#    z -0.221510 0.000000 3.666830 
# 
# 
# High freq. dielectric constant tensor:
#      x y z
#    x 1.663190 0.000000 -0.012460 
#    y 0.000000 1.697670 0.000000 
#    z -0.012460 0.000000 1.727780 
# 
# From -- ./inp_files/47895.got.cif
#   From: 2010.06.25/outbox.cif.g09.slc.cpg/sg10_24_cif.got.tgz:47895.got - 2010.06.27 22:07:45.
