data_PCOD8058510
_publ_section_title
;
Structure prediction by ZEFSAII (Michael W. Deem and Ramdas Pophale) SiO2 
 PCOD8058510
Probable space group: P 2/M
;
_chemical_formula_sum "Si O2"
_cell_formula_units_Z 28
_cell_length_a 11.838824
_cell_length_b 13.065358
_cell_length_c 22.134311
_cell_angle_alpha 90.000000
_cell_angle_beta 25.515934
_cell_angle_gamma 90.000000
_cell_volume 1474.800790
_symmetry_space_group_name_H-M "P 2/M"
_symmetry_group_IT_number 10
_symmetry_cell_setting 'monoclinic'
loop_
_space_group_symop_operation_xyz
x,y,z
-x,y,-z
-x,-y,-z
x,-y,z
loop_
_atom_site_type_symbol
_atom_site_label
_atom_site_fract_x
_atom_site_fract_y
_atom_site_fract_z
Si Si1 0.317060 0.115299 0.845927
Si Si2 0.951544 0.121120 0.699927
Si Si3 0.591760 0.796523 0.075074
Si Si4 0.883097 0.884189 0.180004
Si Si5 0.230985 0.750357 0.661056
Si Si6 0.832661 0.116186 0.527711
Si Si7 0.254052 0.383145 0.074261
O O1 0.423382 0.193821 0.844686
O O2 0.074001 0.139240 0.915499
O O3 0.524818 0.121236 0.689664
O O4 0.308493 0.000000 0.877287
O O5 0.665831 0.171561 0.836253
O O6 0.110436 0.156366 0.681330
O O7 0.105757 0.164952 0.566929
O O8 0.926538 0.000000 0.714209
O O9 0.670632 0.679758 0.022255
O O10 0.820237 0.871108 0.939316
O O11 0.709995 0.801119 0.301035
O O12 0.780277 0.000000 0.239666
O O13 0.500000 0.710368 0.500000
O O14 0.019773 0.658169 0.765154
O O15 0.000000 0.171701 0.500000
O O16 0.936790 0.000000 0.473611
O O17 0.206950 0.500000 0.078234
O O18 0.500000 0.372123 0.000000
#
# Coordination Sequence:
#
# PCOD8058510 Si02
#       7
#     4   4   4   4   4   4   4
#     4  10  18  31  50  76 114 155 190 220 259 319
#     4  11  20  31  51  82 120 155 188 223 264 319
#     4  11  20  33  55  82 106 144 191 237 273 326
#     4  10  21  33  49  77 119 161 189 216 261 324
#     4  11  23  38  57  84 114 146 189 230 281 332
#     4   9  16  26  42  68 105 147 185 217 250 302
#     4  10  22  43  64  83 106 135 183 243 299 346
#
# _framework density 18.985616
#
# number of rings (size 3 to 8) (size 9 to 14) (size 15 to 20)
#    0.000    1.714    2.857    3.000    0.000    3.714 
#    0.000    2.143    0.000    6.857    0.000    3.000 
#    0.000    0.000    0.000    0.000    0.000    0.000 
#
# Total GULP energy -346993.862025 kJ/mol
# GULP energy per Si atom -12392.637929 kJ/mol
# Density = 1.894240 g / cm^3
# Si number density = 18.985616 Si / 1000 Ang^3
#
#
#
# Elastic Constant Matrix: (Units=GPa)
#
#
# Indices 1 2 3 4 5 6 
#
# 1 81.3009 40.4406 24.3972 0.0000 10.0276 0.0000
# 2 40.4406 105.7410 45.7496 0.0000 7.6250 0.0000
# 3 24.3972 45.7496 81.2397 0.0000 3.0064 0.0000
# 4 0.0000 0.0000 0.0000 16.6924 0.0000 -1.5503
# 5 10.0276 7.6250 3.0064 0.0000 33.9108 0.0000
# 6 0.0000 0.0000 0.0000 -1.5503 0.0000 18.6194
#
#
#
# Elastic Compliance Matrix: (Units=1/GPa)
#
#
# Indices 1 2 3 4 5 6 
#
# 1 0.015741 -0.005005 -0.001784 0.000000 -0.003371 0.000000
# 2 -0.005005 0.014260 -0.006485 0.000000 -0.001151 0.000000
# 3 -0.001784 -0.006485 0.016477 0.000000 0.000525 0.000000
# 4 0.000000 0.000000 0.000000 0.060374 0.000000 0.005027
# 5 -0.003371 -0.001151 0.000525 0.000000 0.030698 0.000000
# 6 0.000000 0.000000 0.000000 0.005027 0.000000 0.054126
#
#
# Mechanical properties :
#
#
# Convention : Reuss Voigt Hill
#
# Bulk Modulus (GPa) = 50.17361 54.38405 52.27883
# Shear Modulus (GPa) = 22.23531 24.35746 23.29639
#
# Velocity S-wave (km/s) = 3.42594 3.58571 3.50673
# Velocity P-wave (km/s) = 6.49107 6.77127 6.63265
#
# Compressibility (1/GPa) = 0.01993080
#
# Stress axis : x y z
#
# Youngs Moduli (GPa) = 63.52941 70.12632 60.68955
#
# Poissons Ratio (x) = 0.35100 0.10825
# Poissons Ratio (y) = 0.31798 0.39355
# Poissons Ratio (z) = 0.11332 0.45475
#
# Static dielectric constant tensor:
#      x y z
#    x 3.781920 0.000000 0.109440 
#    y 0.000000 3.002840 0.000000 
#    z 0.109440 0.000000 3.940790 
# 
# 
# High freq. dielectric constant tensor:
#      x y z
#    x 1.754770 0.000000 -0.003380 
#    y 0.000000 1.666280 0.000000 
#    z -0.003380 0.000000 1.768420 
# 
# From -- ./inp_files/83957.got.cif
#   From: 2010.06.25/outbox.cif.g09.slc.cpg/sg10_42_cif.got.tgz:83957.got - 2010.06.27 22:07:45.
