data_PCOD8058607
_publ_section_title
;
Structure prediction by ZEFSAII (Michael W. Deem and Ramdas Pophale) SiO2 
 PCOD8058607
Probable space group: P 2/M
;
_chemical_formula_sum "Si O2"
_cell_formula_units_Z 32
_cell_length_a 32.489264
_cell_length_b 9.104631
_cell_length_c 12.375787
_cell_angle_alpha 90.000000
_cell_angle_beta 27.172753
_cell_angle_gamma 90.000000
_cell_volume 1671.791849
_symmetry_space_group_name_H-M "P 2/M"
_symmetry_group_IT_number 10
_symmetry_cell_setting 'monoclinic'
loop_
_space_group_symop_operation_xyz
x,y,z
-x,y,-z
-x,-y,-z
x,-y,z
loop_
_atom_site_type_symbol
_atom_site_label
_atom_site_fract_x
_atom_site_fract_y
_atom_site_fract_z
Si Si1 0.433405 0.171206 0.439070
Si Si2 0.394618 0.666017 0.971938
Si Si3 0.196980 0.325176 0.487171
Si Si4 0.644077 0.667162 0.182699
Si Si5 0.134874 0.673573 0.864168
Si Si6 0.240968 0.168251 0.797504
Si Si7 0.820601 0.826982 0.822413
Si Si8 0.935411 0.325649 0.392460
O O1 0.523366 0.235944 0.172284
O O2 0.420780 0.251338 0.582614
O O3 0.347038 0.200383 0.565231
O O4 0.445779 0.000000 0.433178
O O5 0.405705 0.500000 0.989376
O O6 0.402458 0.668995 0.824543
O O7 0.298994 0.733226 0.233539
O O8 0.197538 0.500000 0.481823
O O9 0.158948 0.265028 0.689372
O O10 0.131940 0.268901 0.543765
O O11 0.660766 0.500000 0.182471
O O12 0.738787 0.750067 0.951034
O O13 0.140606 0.500000 0.850322
O O14 0.207328 0.731030 0.779846
O O15 0.035139 0.726428 0.127770
O O16 0.224549 0.000000 0.804305
O O17 0.185995 0.207473 0.034803
O O18 0.911321 0.756537 0.560974
O O19 0.816754 0.000000 0.809984
O O20 0.929526 0.500000 0.423251
#
# Coordination Sequence:
#
# PCOD8058607 Si02
#       8
#     4   4   4   4   4   4   4   4
#     4  10  21  35  52  77 109 147 183 221 268 322
#     4  10  19  32  53  80 109 143 177 217 273 327
#     4   9  18  36  57  82 114 142 174 222 279 328
#     4  10  18  31  52  80 112 145 177 217 273 327
#     4  10  21  36  60  84 103 140 190 230 268 321
#     4   9  21  40  55  72 109 150 183 222 272 320
#     4  10  20  34  54  81 112 149 183 219 270 325
#     4  10  19  35  58  85 113 140 174 224 280 330
#
# _framework density 19.141138999999999
#
# number of rings (size 3 to 8) (size 9 to 14) (size 15 to 20)
#    0.000    2.250    1.250    2.625    0.000    8.000 
#    0.000    4.375    0.000    5.250    0.000    0.000 
#    0.000    0.000    0.000    0.000    0.000    0.000 
#
# Total GULP energy -396808.689848 kJ/mol
# GULP energy per Si atom -12400.271558 kJ/mol
# Density = 1.909757 g / cm^3
# Si number density = 19.141139 Si / 1000 Ang^3
#
#
#
# Elastic Constant Matrix: (Units=GPa)
#
#
# Indices 1 2 3 4 5 6 
#
# 1 61.9182 17.5608 23.2864 0.0000 -5.5404 0.0000
# 2 17.5608 57.7330 25.1674 0.0000 -6.3363 0.0000
# 3 23.2864 25.1674 93.5601 0.0000 -20.1148 0.0000
# 4 0.0000 0.0000 0.0000 20.5603 0.0000 -8.2125
# 5 -5.5404 -6.3363 -20.1148 0.0000 17.4304 0.0000
# 6 0.0000 0.0000 0.0000 -8.2125 0.0000 5.3684
#
#
#
# Elastic Compliance Matrix: (Units=1/GPa)
#
#
# Indices 1 2 3 4 5 6 
#
# 1 0.018653 -0.004126 -0.003432 0.000000 0.000469 0.000000
# 2 -0.004126 0.020560 -0.004228 0.000000 0.001284 0.000000
# 3 -0.003432 -0.004228 0.016112 0.000000 0.015966 0.000000
# 4 0.000000 0.000000 0.000000 0.125043 0.000000 0.191287
# 5 0.000469 0.001284 0.015966 0.000000 0.076412 0.000000
# 6 0.000000 0.000000 0.000000 0.191287 0.000000 0.478898
#
#
# Mechanical properties :
#
#
# Convention : Reuss Voigt Hill
#
# Bulk Modulus (GPa) = 31.49219 38.36006 34.92612
# Shear Modulus (GPa) = 6.49490 18.48495 12.48992
#
# Velocity S-wave (km/s) = 1.84405 3.11097 2.55721
# Velocity P-wave (km/s) = 4.58502 5.74355 5.19667
#
# Compressibility (1/GPa) = 0.03175391
#
# Stress axis : x y z
#
# Youngs Moduli (GPa) = 53.61002 48.63811 62.06444
#
# Poissons Ratio (x) = 0.20070 0.21300
# Poissons Ratio (y) = 0.22121 0.26238
# Poissons Ratio (z) = 0.18399 0.20562
#
# Static dielectric constant tensor:
#      x y z
#    x 3.262180 0.000000 -0.009750 
#    y 0.000000 3.332220 0.000000 
#    z -0.009750 0.000000 3.743590 
# 
# 
# High freq. dielectric constant tensor:
#      x y z
#    x 1.723370 0.000000 -0.007290 
#    y 0.000000 1.728800 0.000000 
#    z -0.007290 0.000000 1.755780 
# 
# From -- ./inp_files/58118.got.cif
#   From: 2010.06.25/outbox.cif.g09.slc.cpg/sg10_30_cif.got.tgz:58118.got - 2010.06.27 22:07:45.
