data_PCOD8058021
_publ_section_title
;
Structure prediction by ZEFSAII (Michael W. Deem and Ramdas Pophale) SiO2 
 PCOD8058021
Probable space group: P 2/M
;
_chemical_formula_sum "Si O2"
_cell_formula_units_Z 32
_cell_length_a 21.660211
_cell_length_b 8.519401
_cell_length_c 11.954842
_cell_angle_alpha 90.000000
_cell_angle_beta 128.118025
_cell_angle_gamma 90.000000
_cell_volume 1735.590618
_symmetry_space_group_name_H-M "P 2/M"
_symmetry_group_IT_number 10
_symmetry_cell_setting 'monoclinic'
loop_
_space_group_symop_operation_xyz
x,y,z
-x,y,-z
-x,-y,-z
x,-y,z
loop_
_atom_site_type_symbol
_atom_site_label
_atom_site_fract_x
_atom_site_fract_y
_atom_site_fract_z
Si Si1 0.215825 0.683226 0.845384
Si Si2 0.824798 0.680578 0.764205
Si Si3 0.914237 0.685760 0.658448
Si Si4 0.317860 0.180207 0.514878
Si Si5 0.046376 0.181664 0.664109
Si Si6 0.231534 0.179764 0.631568
Si Si7 0.731753 0.687257 0.859057
Si Si8 0.583535 0.314265 0.549889
O O1 0.230964 0.500000 0.850055
O O2 0.123677 0.714032 0.752449
O O3 0.254438 0.767353 0.781714
O O4 0.259141 0.750803 0.004765
O O5 0.845402 0.500000 0.799932
O O6 0.893371 0.751701 0.761154
O O7 0.743721 0.700277 0.607544
O O8 0.806681 0.751378 0.867850
O O9 0.928827 0.500000 0.674506
O O10 0.842628 0.721028 0.494358
O O11 0.992895 0.774100 0.710299
O O12 0.308939 0.201058 0.639463
O O13 0.401105 0.233456 0.554921
O O14 0.299509 0.000000 0.461921
O O15 0.000000 0.223582 0.500000
O O16 0.070022 0.000000 0.695446
O O17 0.203478 0.000000 0.602069
O O18 0.735380 0.500000 0.861946
O O19 0.649323 0.742428 0.713170
O O20 0.500000 0.253094 0.500000
O O21 0.583194 0.500000 0.533695
#
# Coordination Sequence:
#
# PCOD8058021 Si02
#       8
#     4   4   4   4   4   4   4   4
#     4  11  21  32  50  71  94 128 167 205 240 287
#     4   8  15  30  50  70  95 125 158 200 246 290
#     4  10  18  29  50  74  92 119 164 211 249 289
#     4   9  17  28  46  73 102 128 158 198 238 280
#     4  11  22  34  47  65  96 132 163 205 253 292
#     4  10  19  31  46  68  99 131 162 201 247 286
#     4   8  16  32  51  74 101 125 156 197 241 287
#     4   9  17  32  56  81 104 129 156 192 239 287
#
# _framework density 18.437528
#
# number of rings (size 3 to 8) (size 9 to 14) (size 15 to 20)
#    0.000    2.500    1.250    2.625    0.000    2.750 
#    0.000    5.625    0.000    4.500    0.000    5.250 
#    0.000    0.000    0.000    0.000    0.000    0.000 
#
# Total GULP energy -396444.720075 kJ/mol
# GULP energy per Si atom -12388.897502 kJ/mol
# Density = 1.839556 g / cm^3
# Si number density = 18.437528 Si / 1000 Ang^3
#
#
#
# Elastic Constant Matrix: (Units=GPa)
#
#
# Indices 1 2 3 4 5 6 
#
# 1 157.1217 22.1580 49.9619 0.0000 -22.6691 0.0000
# 2 22.1580 28.9254 12.9326 0.0000 -4.1187 0.0000
# 3 49.9619 12.9326 69.2369 0.0000 -20.2628 0.0000
# 4 0.0000 0.0000 0.0000 8.0459 0.0000 -4.9904
# 5 -22.6691 -4.1187 -20.2628 0.0000 27.4816 0.0000
# 6 0.0000 0.0000 0.0000 -4.9904 0.0000 25.2872
#
#
#
# Elastic Compliance Matrix: (Units=1/GPa)
#
#
# Indices 1 2 3 4 5 6 
#
# 1 0.008930 -0.004279 -0.004688 0.000000 0.003268 0.000000
# 2 -0.004279 0.039780 -0.004630 0.000000 -0.000982 0.000000
# 3 -0.004688 -0.004630 0.022132 0.000000 0.011757 0.000000
# 4 0.000000 0.000000 0.000000 0.141623 0.000000 0.027949
# 5 0.003268 -0.000982 0.011757 0.000000 0.047606 0.000000
# 6 0.000000 0.000000 0.000000 0.027949 0.000000 0.045062
#
#
# Mechanical properties :
#
#
# Convention : Reuss Voigt Hill
#
# Bulk Modulus (GPa) = 22.91088 47.26543 35.08815
# Shear Modulus (GPa) = 14.41434 23.51170 18.96302
#
# Velocity S-wave (km/s) = 2.79909 3.57488 3.21050
# Velocity P-wave (km/s) = 4.78537 6.53688 5.72846
#
# Compressibility (1/GPa) = 0.04364738
#
# Stress axis : x y z
#
# Youngs Moduli (GPa) = 111.97760 25.13820 45.18355
#
# Poissons Ratio (x) = 0.10758 0.21184
# Poissons Ratio (y) = 0.47920 0.20919
# Poissons Ratio (z) = 0.52499 0.11638
#
# Static dielectric constant tensor:
#      x y z
#    x 3.901960 0.000000 -0.409640 
#    y 0.000000 3.234060 0.000000 
#    z -0.409640 0.000000 3.219800 
# 
# 
# High freq. dielectric constant tensor:
#      x y z
#    x 1.730550 0.000000 -0.031030 
#    y 0.000000 1.704480 0.000000 
#    z -0.031030 0.000000 1.664830 
# 
# From -- ./inp_files/54882.got.cif
#   From: 2010.06.25/outbox.cif.g09.slc.cpg/sg10_28_cif.got.tgz:54882.got - 2010.06.27 22:07:45.
