data_PCOD8058886
_publ_section_title
;
Structure prediction by ZEFSAII (Michael W. Deem and Ramdas Pophale) SiO2 
 PCOD8058886
Probable space group: P 2/M
;
_chemical_formula_sum "Si O2"
_cell_formula_units_Z 26
_cell_length_a 19.852691
_cell_length_b 9.151655
_cell_length_c 14.005928
_cell_angle_alpha 90.000000
_cell_angle_beta 32.618654
_cell_angle_gamma 90.000000
_cell_volume 1371.689972
_symmetry_space_group_name_H-M "P 2/M"
_symmetry_group_IT_number 10
_symmetry_cell_setting 'monoclinic'
loop_
_space_group_symop_operation_xyz
x,y,z
-x,y,-z
-x,-y,-z
x,-y,z
loop_
_atom_site_type_symbol
_atom_site_label
_atom_site_fract_x
_atom_site_fract_y
_atom_site_fract_z
Si Si1 0.749083 0.338936 0.208293
Si Si2 0.164937 0.672853 0.254634
Si Si3 0.920537 0.823532 0.468167
Si Si4 0.606619 0.173301 0.529185
Si Si5 0.000000 0.246922 0.000000
Si Si6 0.162258 0.837510 0.635465
Si Si7 0.354176 0.333843 0.867061
O O1 0.695074 0.500000 0.292260
O O2 0.652232 0.226069 0.370975
O O3 0.745677 0.304696 0.098974
O O4 0.890263 0.338914 0.080439
O O5 0.137129 0.500000 0.299697
O O6 0.181390 0.753534 0.337321
O O7 0.052817 0.752997 0.334414
O O8 0.289422 0.699678 0.045137
O O9 0.888174 0.763286 0.400760
O O10 0.926266 0.000000 0.470028
O O11 0.709256 0.237313 0.481776
O O12 0.471238 0.228079 0.718562
O O13 0.606647 0.000000 0.527219
O O14 0.939271 0.153738 0.157901
O O15 0.196430 0.000000 0.564016
O O16 0.402335 0.500000 0.806161
#
# Coordination Sequence:
#
# PCOD8058886 Si02
#       7
#     4   4   4   4   2   4   4
#     4  10  20  34  52  76 107 138 169 209 256 305
#     4  10  20  35  54  78 106 134 169 213 257 304
#     4  10  19  34  55  79 105 134 168 208 259 309
#     4  10  21  36  53  75 103 137 176 213 252 302
#     4  10  18  32  54  80 105 136 173 206 249 306
#     4   9  19  34  52  76 107 137 167 211 260 302
#     4  10  21  36  53  74 103 138 173 212 256 301
#
# _framework density 18.954719999999998
#
# number of rings (size 3 to 8) (size 9 to 14) (size 15 to 20)
#    0.000    2.154    0.000    4.154    0.000    4.308 
#    0.000    9.231    0.000    4.615    0.000    0.000 
#    0.000    0.000    0.000    0.000    0.000    0.000 
#
# Total GULP energy -322183.205131 kJ/mol
# GULP energy per Si atom -12391.661736 kJ/mol
# Density = 1.891158 g / cm^3
# Si number density = 18.954720 Si / 1000 Ang^3
#
#
#
# Elastic Constant Matrix: (Units=GPa)
#
#
# Indices 1 2 3 4 5 6 
#
# 1 117.1006 34.5973 55.1749 0.0000 17.7410 0.0000
# 2 34.5973 89.5897 40.8672 0.0000 2.2837 0.0000
# 3 55.1749 40.8672 115.6336 0.0000 4.1410 0.0000
# 4 0.0000 0.0000 0.0000 30.6272 0.0000 0.7698
# 5 17.7410 2.2837 4.1410 0.0000 27.9338 0.0000
# 6 0.0000 0.0000 0.0000 0.7698 0.0000 19.0203
#
#
#
# Elastic Compliance Matrix: (Units=1/GPa)
#
#
# Indices 1 2 3 4 5 6 
#
# 1 0.012662 -0.002466 -0.004915 0.000000 -0.007111 0.000000
# 2 -0.002466 0.013792 -0.003733 0.000000 0.000992 0.000000
# 3 -0.004915 -0.003733 0.012255 0.000000 0.001610 0.000000
# 4 0.000000 0.000000 0.000000 0.032684 0.000000 -0.001323
# 5 -0.007111 0.000992 0.001610 0.000000 0.039996 0.000000
# 6 0.000000 0.000000 0.000000 -0.001323 0.000000 0.052629
#
#
# Mechanical properties :
#
#
# Convention : Reuss Voigt Hill
#
# Bulk Modulus (GPa) = 60.68159 64.84475 62.76317
# Shear Modulus (GPa) = 26.07705 28.29522 27.18613
#
# Velocity S-wave (km/s) = 3.71314 3.86784 3.79128
# Velocity P-wave (km/s) = 7.10399 7.36421 7.23527
#
# Compressibility (1/GPa) = 0.01647946
#
# Stress axis : x y z
#
# Youngs Moduli (GPa) = 78.97882 72.50580 81.59911
#
# Poissons Ratio (x) = 0.17881 0.40108
# Poissons Ratio (y) = 0.19478 0.30462
# Poissons Ratio (z) = 0.38820 0.27067
#
# Static dielectric constant tensor:
#      x y z
#    x 3.806030 0.000000 0.181080 
#    y 0.000000 3.395100 0.000000 
#    z 0.181080 0.000000 3.438160 
# 
# 
# High freq. dielectric constant tensor:
#      x y z
#    x 1.739600 0.000000 0.008220 
#    y 0.000000 1.731840 0.000000 
#    z 0.008220 0.000000 1.729610 
# 
# From -- ./inp_files/69885.got.cif
#   From: 2010.06.25/outbox.cif.g09.slc.cpg/sg10_35_cif.got.tgz:69885.got - 2010.06.27 22:07:45.
