data_PCOD8058631
_publ_section_title
;
Structure prediction by ZEFSAII (Michael W. Deem and Ramdas Pophale) SiO2 
 PCOD8058631
Probable space group: P 2/M
;
_chemical_formula_sum "Si O2"
_cell_formula_units_Z 28
_cell_length_a 10.191719
_cell_length_b 7.805677
_cell_length_c 31.280749
_cell_angle_alpha 90.000000
_cell_angle_beta 36.151821
_cell_angle_gamma 90.000000
_cell_volume 1468.024693
_symmetry_space_group_name_H-M "P 2/M"
_symmetry_group_IT_number 10
_symmetry_cell_setting 'monoclinic'
loop_
_space_group_symop_operation_xyz
x,y,z
-x,y,-z
-x,-y,-z
x,-y,z
loop_
_atom_site_type_symbol
_atom_site_label
_atom_site_fract_x
_atom_site_fract_y
_atom_site_fract_z
Si Si1 0.892364 0.297980 0.834278
Si Si2 0.855552 0.500000 0.420069
Si Si3 0.108714 0.196865 0.317941
Si Si4 0.021420 0.298317 0.090943
Si Si5 0.579803 0.694180 0.069958
Si Si6 0.200921 0.808875 0.680849
Si Si7 0.585054 0.805927 0.161823
Si Si8 0.548662 0.500000 0.418134
O O1 0.905973 0.500000 0.822169
O O2 0.656282 0.220497 0.880264
O O3 0.919843 0.249494 0.876292
O O4 0.091110 0.209221 0.756174
O O5 0.691841 0.500000 0.423193
O O6 0.712598 0.500000 0.501329
O O7 0.003675 0.326842 0.380228
O O8 0.364290 0.253315 0.244859
O O9 0.990869 0.223177 0.303453
O O10 0.084407 0.000000 0.340522
O O11 0.993463 0.500000 0.091697
O O12 0.790040 0.210315 0.139929
O O13 0.215209 0.220268 0.009596
O O14 0.568130 0.500000 0.056788
O O15 0.625497 0.697005 0.108479
O O16 0.397822 0.670812 0.623223
O O17 0.302477 0.000000 0.649436
O O18 0.553002 0.000000 0.154960
#
# Coordination Sequence:
#
# PCOD8058631 Si02
#       8
#     4   2   4   4   4   4   4   2
#     4  10  19  34  55  76 106 142 183 231 275 325
#     4   9  18  30  54  77 110 146 171 210 273 319
#     4   9  19  32  50  79 108 140 183 220 260 323
#     4  10  22  36  50  77 107 138 184 232 278 323
#     4  10  20  34  56  76 100 141 184 230 280 326
#     4  10  18  31  53  78 107 143 179 218 267 321
#     4  11  22  35  51  74 106 144 183 227 272 319
#     4   9  18  32  48  83 112 138 175 214 263 327
#
# _framework density 19.073249000000001
#
# number of rings (size 3 to 8) (size 9 to 14) (size 15 to 20)
#    0.000    2.143    2.143    1.286    2.000    5.143 
#    0.000    2.857    0.000    2.571    0.000    2.000 
#    0.000    3.429    0.000    0.000    0.000    0.000 
#
# Total GULP energy -347221.004318 kJ/mol
# GULP energy per Si atom -12400.750154 kJ/mol
# Density = 1.902984 g / cm^3
# Si number density = 19.073249 Si / 1000 Ang^3
#
#
#
# Elastic Constant Matrix: (Units=GPa)
#
#
# Indices 1 2 3 4 5 6 
#
# 1 68.0662 15.9305 32.4224 0.0000 -4.9227 0.0000
# 2 15.9305 88.0621 60.5099 0.0000 -4.4046 0.0000
# 3 32.4224 60.5099 161.4121 0.0000 -13.5482 0.0000
# 4 0.0000 0.0000 0.0000 12.7878 0.0000 -4.0090
# 5 -4.9227 -4.4046 -13.5482 0.0000 11.4054 0.0000
# 6 0.0000 0.0000 0.0000 -4.0090 0.0000 15.2039
#
#
#
# Elastic Compliance Matrix: (Units=1/GPa)
#
#
# Indices 1 2 3 4 5 6 
#
# 1 0.016435 -0.000986 -0.002630 0.000000 0.003588 0.000000
# 2 -0.000986 0.015365 -0.005664 0.000000 -0.001220 0.000000
# 3 -0.002630 -0.005664 0.009517 0.000000 0.007982 0.000000
# 4 0.000000 0.000000 0.000000 0.085246 0.000000 0.022478
# 5 0.003588 -0.001220 0.007982 0.000000 0.098237 0.000000
# 6 0.000000 0.000000 0.000000 0.022478 0.000000 0.071700
#
#
# Mechanical properties :
#
#
# Convention : Reuss Voigt Hill
#
# Bulk Modulus (GPa) = 43.94604 59.47399 51.71001
# Shear Modulus (GPa) = 15.49683 21.79127 18.64405
#
# Velocity S-wave (km/s) = 2.85351 3.38376 3.12989
# Velocity P-wave (km/s) = 5.82644 6.82027 6.34285
#
# Compressibility (1/GPa) = 0.02275518
#
# Stress axis : x y z
#
# Youngs Moduli (GPa) = 60.84643 65.08234 105.07379
#
# Poissons Ratio (x) = 0.06419 0.27638
# Poissons Ratio (y) = 0.06001 0.59518
# Poissons Ratio (z) = 0.16005 0.36865
#
# Static dielectric constant tensor:
#      x y z
#    x 3.092210 0.000000 -0.120070 
#    y 0.000000 3.479910 0.000000 
#    z -0.120070 0.000000 3.594100 
# 
# 
# High freq. dielectric constant tensor:
#      x y z
#    x 1.702260 0.000000 -0.005710 
#    y 0.000000 1.741820 0.000000 
#    z -0.005710 0.000000 1.739780 
# 
# From -- ./inp_files/92001.got.cif
#   From: 2010.06.25/outbox.cif.g09.slc.cpg/sg10_47_cif.got.tgz:92001.got - 2010.06.27 22:07:45.
