data_PCOD8058408
_publ_section_title
;
Structure prediction by ZEFSAII (Michael W. Deem and Ramdas Pophale) SiO2 
 PCOD8058408
Probable space group: P 2/M
;
_chemical_formula_sum "Si O2"
_cell_formula_units_Z 32
_cell_length_a 18.084820
_cell_length_b 13.937862
_cell_length_c 12.796657
_cell_angle_alpha 90.000000
_cell_angle_beta 151.059205
_cell_angle_gamma 90.000000
_cell_volume 1560.872848
_symmetry_space_group_name_H-M "P 2/M"
_symmetry_group_IT_number 10
_symmetry_cell_setting 'monoclinic'
loop_
_space_group_symop_operation_xyz
x,y,z
-x,y,-z
-x,-y,-z
x,-y,z
loop_
_atom_site_type_symbol
_atom_site_label
_atom_site_fract_x
_atom_site_fract_y
_atom_site_fract_z
Si Si1 0.071940 0.305355 0.846161
Si Si2 0.238600 0.705564 0.453392
Si Si3 0.835335 0.386977 0.252329
Si Si4 0.450575 0.259508 0.053885
Si Si5 0.564032 0.105812 0.790357
Si Si6 0.776061 0.108158 0.678822
Si Si7 0.151386 0.893023 0.994200
Si Si8 0.828958 0.605969 0.829433
O O1 0.158209 0.359437 0.860662
O O2 0.897455 0.343458 0.646523
O O3 0.061427 0.189782 0.819903
O O4 0.178806 0.328242 0.077805
O O5 0.395136 0.694624 0.709234
O O6 0.171767 0.813018 0.342485
O O7 0.274151 0.651486 0.388961
O O8 0.810695 0.500000 0.237526
O O9 0.000000 0.352983 0.500000
O O10 0.691162 0.334115 0.128753
O O11 0.398557 0.173547 0.064869
O O12 0.500000 0.222726 0.000000
O O13 0.404230 0.125837 0.536477
O O14 0.676442 0.117067 0.832426
O O15 0.571210 0.000000 0.848482
O O16 0.856388 0.123860 0.890259
O O17 0.813811 0.000000 0.685290
O O18 0.087290 0.000000 0.888598
O O19 0.767405 0.500000 0.780119
O O20 0.000000 0.601453 0.000000
#
# Coordination Sequence:
#
# PCOD8058408 Si02
#       8
#     4   4   4   4   4   4   4   4
#     4  11  20  37  59  88 122 159 194 237 287 351
#     4  10  21  35  57  86 122 157 196 235 293 346
#     4  11  25  45  67  88 112 148 195 248 302 351
#     4  11  23  41  63  89 114 150 194 249 298 351
#     4   9  18  34  56  84 120 159 198 238 290 350
#     4   9  17  30  51  84 124 163 199 237 284 342
#     4  10  18  30  55  88 123 160 199 240 283 340
#     4   9  18  33  54  81 115 154 193 233 285 345
#
# _framework density 20.501349000000001
#
# number of rings (size 3 to 8) (size 9 to 14) (size 15 to 20)
#    0.000    2.000    2.500    1.500    0.000    3.500 
#    0.000    1.875    0.000    4.500    0.000    0.000 
#    0.000    0.000    0.000    0.000    0.000    0.000 
#
# Total GULP energy -396542.333060 kJ/mol
# GULP energy per Si atom -12391.947908 kJ/mol
# Density = 2.045469 g / cm^3
# Si number density = 20.501349 Si / 1000 Ang^3
#
#
#
# Elastic Constant Matrix: (Units=GPa)
#
#
# Indices 1 2 3 4 5 6 
#
# 1 65.3113 -3.5277 -7.8650 0.0000 -3.7167 0.0000
# 2 -3.5277 84.6295 4.9081 0.0000 -4.3655 0.0000
# 3 -7.8650 4.9081 60.0189 0.0000 -7.4559 0.0000
# 4 0.0000 0.0000 0.0000 26.9026 0.0000 0.3843
# 5 -3.7167 -4.3655 -7.4559 0.0000 24.9770 0.0000
# 6 0.0000 0.0000 0.0000 0.3843 0.0000 20.0367
#
#
#
# Elastic Compliance Matrix: (Units=1/GPa)
#
#
# Indices 1 2 3 4 5 6 
#
# 1 0.015821 0.000684 0.002414 0.000000 0.003194 0.000000
# 2 0.000684 0.011985 -0.000641 0.000000 0.002005 0.000000
# 3 0.002414 -0.000641 0.017718 0.000000 0.005536 0.000000
# 4 0.000000 0.000000 0.000000 0.037181 0.000000 -0.000713
# 5 0.003194 0.002005 0.005536 0.000000 0.042515 0.000000
# 6 0.000000 0.000000 0.000000 -0.000713 0.000000 0.049922
#
#
# Mechanical properties :
#
#
# Convention : Reuss Voigt Hill
#
# Bulk Modulus (GPa) = 19.82634 21.88784 20.85709
# Shear Modulus (GPa) = 26.73204 28.81287 27.77246
#
# Velocity S-wave (km/s) = 3.61490 3.75295 3.68457
# Velocity P-wave (km/s) = 5.20721 5.42946 5.31949
#
# Compressibility (1/GPa) = 0.05043795
#
# Stress axis : x y z
#
# Youngs Moduli (GPa) = 63.20818 83.43507 56.43996
#
# Poissons Ratio (x) = -0.05709 -0.13625
# Poissons Ratio (y) = -0.04325 0.03620
# Poissons Ratio (z) = -0.15259 0.05351
#
# Static dielectric constant tensor:
#      x y z
#    x 3.728190 0.000000 0.050620 
#    y 0.000000 3.936340 0.000000 
#    z 0.050620 0.000000 3.521560 
# 
# 
# High freq. dielectric constant tensor:
#      x y z
#    x 1.799730 0.000000 0.009700 
#    y 0.000000 1.803850 0.000000 
#    z 0.009700 0.000000 1.780880 
# 
# From -- ./inp_files/54034.got.cif
#   From: 2010.06.25/outbox.cif.g09.slc.cpg/sg10_28_cif.got.tgz:54034.got - 2010.06.27 22:07:45.
