data_PCOD8058160
_publ_section_title
;
Structure prediction by ZEFSAII (Michael W. Deem and Ramdas Pophale) SiO2 
 PCOD8058160
Probable space group: P 2/M
;
_chemical_formula_sum "Si O2"
_cell_formula_units_Z 28
_cell_length_a 15.112503
_cell_length_b 8.286154
_cell_length_c 12.047113
_cell_angle_alpha 90.000000
_cell_angle_beta 108.778781
_cell_angle_gamma 90.000000
_cell_volume 1428.289372
_symmetry_space_group_name_H-M "P 2/M"
_symmetry_group_IT_number 10
_symmetry_cell_setting 'monoclinic'
loop_
_space_group_symop_operation_xyz
x,y,z
-x,y,-z
-x,-y,-z
x,-y,z
loop_
_atom_site_type_symbol
_atom_site_label
_atom_site_fract_x
_atom_site_fract_y
_atom_site_fract_z
Si Si1 0.757129 0.313637 0.697517
Si Si2 0.084656 0.307714 0.391841
Si Si3 0.452760 0.310621 0.763130
Si Si4 0.292099 0.310111 0.862197
Si Si5 0.120854 0.307889 0.651704
Si Si6 0.663946 0.307027 0.879328
Si Si7 0.597569 0.814028 0.487629
O O1 0.775028 0.500000 0.727472
O O2 0.852156 0.236807 0.683728
O O3 0.726496 0.235368 0.803190
O O4 0.676156 0.295586 0.574497
O O5 0.091007 0.500000 0.395293
O O6 0.124638 0.243842 0.526309
O O7 0.977369 0.252113 0.332618
O O8 0.451992 0.500000 0.735600
O O9 0.391839 0.270654 0.847228
O O10 0.557570 0.245274 0.823436
O O11 0.403625 0.216067 0.643635
O O12 0.276280 0.500000 0.861081
O O13 0.206223 0.232895 0.757542
O O14 0.293720 0.240045 0.988109
O O15 0.126823 0.500000 0.652952
O O16 0.662809 0.500000 0.878278
O O17 0.500000 0.757643 0.500000
O O18 0.618874 0.000000 0.522597
#
# Coordination Sequence:
#
# PCOD8058160 Si02
#       7
#     4   4   4   4   4   4   4
#     4  10  18  30  48  69  93 122 155 188 227 272
#     4   8  14  24  41  65  90 118 151 187 228 272
#     4  10  18  30  49  69  90 122 158 190 226 269
#     4   9  16  26  43  68  95 123 155 190 229 267
#     4   8  13  23  38  61  94 122 147 186 232 271
#     4   9  17  27  41  65  95 122 154 194 225 262
#     4  11  22  33  46  67  96 122 148 187 232 277
#
# _framework density 19.603871000000002
#
# number of rings (size 3 to 8) (size 9 to 14) (size 15 to 20)
#    0.000    2.714    1.429    2.571    0.000    4.571 
#    0.000    0.714    0.000    6.857    0.000    8.000 
#    0.000    1.143    0.000    0.000    0.000    0.000 
#
# Total GULP energy -347044.625438 kJ/mol
# GULP energy per Si atom -12394.450909 kJ/mol
# Density = 1.955925 g / cm^3
# Si number density = 19.603871 Si / 1000 Ang^3
#
#
#
# Elastic Constant Matrix: (Units=GPa)
#
#
# Indices 1 2 3 4 5 6 
#
# 1 166.3843 6.5808 77.4509 0.0000 -19.5633 0.0000
# 2 6.5808 5.8255 1.0364 0.0000 -2.4400 0.0000
# 3 77.4509 1.0364 139.6336 0.0000 -14.4912 0.0000
# 4 0.0000 0.0000 0.0000 3.9827 0.0000 -1.5082
# 5 -19.5633 -2.4400 -14.4912 0.0000 30.3117 0.0000
# 6 0.0000 0.0000 0.0000 -1.5082 0.0000 4.2090
#
#
#
# Elastic Compliance Matrix: (Units=1/GPa)
#
#
# Indices 1 2 3 4 5 6 
#
# 1 0.008753 -0.007888 -0.004500 0.000000 0.002863 0.000000
# 2 -0.007888 0.184761 0.004229 0.000000 0.011803 0.000000
# 3 -0.004500 0.004229 0.009849 0.000000 0.002145 0.000000
# 4 0.000000 0.000000 0.000000 0.290505 0.000000 0.104098
# 5 0.002863 0.011803 0.002145 0.000000 0.036814 0.000000
# 6 0.000000 0.000000 0.000000 0.104098 0.000000 0.274890
#
#
# Mechanical properties :
#
#
# Convention : Reuss Voigt Hill
#
# Bulk Modulus (GPa) = 5.34630 53.55331 29.44981
# Shear Modulus (GPa) = 5.65458 22.81903 14.23680
#
# Velocity S-wave (km/s) = 1.70020 3.41545 2.69778
# Velocity P-wave (km/s) = 2.56658 6.55216 4.97585
#
# Compressibility (1/GPa) = 0.18704522
#
# Stress axis : x y z
#
# Youngs Moduli (GPa) = 114.24173 5.41239 101.53761
#
# Poissons Ratio (x) = 0.04270 0.45687
# Poissons Ratio (y) = 0.90120 -0.42941
# Poissons Ratio (z) = 0.51404 -0.02289
#
# Static dielectric constant tensor:
#      x y z
#    x 3.947430 0.000000 -0.141460 
#    y 0.000000 2.858450 0.000000 
#    z -0.141460 0.000000 3.785500 
# 
# 
# High freq. dielectric constant tensor:
#      x y z
#    x 1.772600 0.000000 -0.009430 
#    y 0.000000 1.695870 0.000000 
#    z -0.009430 0.000000 1.758790 
# 
# From -- ./inp_files/49343.got.cif
#   From: 2010.06.25/outbox.cif.g09.slc.cpg/sg10_25_cif.got.tgz:49343.got - 2010.06.27 22:07:45.
