data_PCOD8058934
_publ_section_title
;
Structure prediction by ZEFSAII (Michael W. Deem and Ramdas Pophale) SiO2 
 PCOD8058934
Probable space group: P 2/M
;
_chemical_formula_sum "Si O2"
_cell_formula_units_Z 28
_cell_length_a 10.122179
_cell_length_b 9.159693
_cell_length_c 30.698491
_cell_angle_alpha 90.000000
_cell_angle_beta 147.075078
_cell_angle_gamma 90.000000
_cell_volume 1547.045748
_symmetry_space_group_name_H-M "P 2/M"
_symmetry_group_IT_number 10
_symmetry_cell_setting 'monoclinic'
loop_
_space_group_symop_operation_xyz
x,y,z
-x,y,-z
-x,-y,-z
x,-y,z
loop_
_atom_site_type_symbol
_atom_site_label
_atom_site_fract_x
_atom_site_fract_y
_atom_site_fract_z
Si Si1 0.300555 0.827485 0.325225
Si Si2 0.845378 0.828327 0.498137
Si Si3 0.049821 0.673119 0.081525
Si Si4 0.836552 0.668494 0.348269
Si Si5 0.625557 0.327050 0.906717
Si Si6 0.108638 0.670006 0.737949
Si Si7 0.312580 0.327205 0.238845
O O1 0.567963 0.781164 0.414736
O O2 0.239084 0.755085 0.262176
O O3 0.117063 0.767904 0.310551
O O4 0.274988 0.000000 0.313660
O O5 0.000000 0.769492 0.500000
O O6 0.943202 0.756651 0.569288
O O7 0.875005 0.000000 0.511240
O O8 0.074406 0.500000 0.087803
O O9 0.238583 0.737758 0.098249
O O10 0.119758 0.728096 0.149017
O O11 0.774691 0.720408 0.991578
O O12 0.881059 0.500000 0.370652
O O13 0.835038 0.699671 0.296759
O O14 0.580895 0.719927 0.297744
O O15 0.626796 0.500000 0.902325
O O16 0.345613 0.275650 0.830815
O O17 0.050342 0.500000 0.730494
O O18 0.295768 0.500000 0.241928
#
# Coordination Sequence:
#
# PCOD8058934 Si02
#       7
#     4   4   4   4   4   4   4
#     4  11  24  39  54  74 104 144 183 217 261 315
#     4  10  21  38  56  75 102 138 181 223 259 307
#     4   8  13  24  49  83 110 133 169 214 259 305
#     4  10  20  33  56  85 109 133 169 218 270 317
#     4   8  13  25  49  80 111 138 166 210 260 308
#     4  10  20  36  55  81 113 141 171 213 266 317
#     4  10  18  32  55  84 109 134 172 219 265 311
#
# _framework density 18.099011000000001
#
# number of rings (size 3 to 8) (size 9 to 14) (size 15 to 20)
#    0.000    2.429    2.857    1.286    0.000    2.571 
#    0.000    3.571    0.000    5.143    0.000    2.000 
#    0.000    0.000    0.000    0.000    0.000    0.000 
#
# Total GULP energy -347122.607499 kJ/mol
# GULP energy per Si atom -12397.235982 kJ/mol
# Density = 1.805782 g / cm^3
# Si number density = 18.099011 Si / 1000 Ang^3
#
#
#
# Elastic Constant Matrix: (Units=GPa)
#
#
# Indices 1 2 3 4 5 6 
#
# 1 57.9442 18.1463 23.9655 0.0000 9.1678 0.0000
# 2 18.1463 29.7141 31.1943 0.0000 0.9622 0.0000
# 3 23.9655 31.1943 134.0198 0.0000 1.7121 0.0000
# 4 0.0000 0.0000 0.0000 3.1265 0.0000 6.6265
# 5 9.1678 0.9622 1.7121 0.0000 28.7676 0.0000
# 6 0.0000 0.0000 0.0000 6.6265 0.0000 18.6675
#
#
#
# Elastic Compliance Matrix: (Units=1/GPa)
#
#
# Indices 1 2 3 4 5 6 
#
# 1 0.022685 -0.012528 -0.001054 0.000000 -0.006748 0.000000
# 2 -0.012528 0.051478 -0.009778 0.000000 0.002853 0.000000
# 3 -0.001054 -0.009778 0.009925 0.000000 0.000072 0.000000
# 4 0.000000 0.000000 0.000000 1.291542 0.000000 -0.458466
# 5 -0.006748 0.002853 0.000072 0.000000 0.036812 0.000000
# 6 0.000000 0.000000 0.000000 -0.458466 0.000000 0.216313
#
#
# Mechanical properties :
#
#
# Convention : Reuss Voigt Hill
#
# Bulk Modulus (GPa) = 26.76185 40.92115 33.84150
# Shear Modulus (GPa) = 2.96220 20.00378 11.48299
#
# Velocity S-wave (km/s) = 1.28071 3.32812 2.52157
# Velocity P-wave (km/s) = 4.12376 6.11778 5.21693
#
# Compressibility (1/GPa) = 0.03736662
#
# Stress axis : x y z
#
# Youngs Moduli (GPa) = 44.08180 19.42582 100.75452
#
# Poissons Ratio (x) = 0.24338 0.10622
# Poissons Ratio (y) = 0.55228 0.98518
# Poissons Ratio (z) = 0.04647 0.18995
#
# Static dielectric constant tensor:
#      x y z
#    x 3.185100 0.000000 0.020530 
#    y 0.000000 2.964190 0.000000 
#    z 0.020530 0.000000 3.721540 
# 
# 
# High freq. dielectric constant tensor:
#      x y z
#    x 1.685670 0.000000 -0.002220 
#    y 0.000000 1.661180 0.000000 
#    z -0.002220 0.000000 1.720360 
# 
# From -- ./inp_files/37314.got.cif
#   From: 2010.06.25/outbox.cif.g09.slc.cpg/sg10_19_cif.got.tgz:37314.got - 2010.06.27 22:07:45.
