data_PCOD8058959
_publ_section_title
;
Structure prediction by ZEFSAII (Michael W. Deem and Ramdas Pophale) SiO2 
 PCOD8058959
Probable space group: P 2/M
;
_chemical_formula_sum "Si O2"
_cell_formula_units_Z 32
_cell_length_a 18.255920
_cell_length_b 14.029555
_cell_length_c 12.272253
_cell_angle_alpha 90.000000
_cell_angle_beta 149.317716
_cell_angle_gamma 90.000000
_cell_volume 1603.902391
_symmetry_space_group_name_H-M "P 2/M"
_symmetry_group_IT_number 10
_symmetry_cell_setting 'monoclinic'
loop_
_space_group_symop_operation_xyz
x,y,z
-x,y,-z
-x,-y,-z
x,-y,z
loop_
_atom_site_type_symbol
_atom_site_label
_atom_site_fract_x
_atom_site_fract_y
_atom_site_fract_z
Si Si1 0.136931 0.239743 0.600912
Si Si2 0.276758 0.108217 0.368108
Si Si3 0.697277 0.721305 0.988925
Si Si4 0.861782 0.609394 0.895607
Si Si5 0.429797 0.712299 0.526253
Si Si6 0.865113 0.106854 0.589726
Si Si7 0.955556 0.388847 0.250156
Si Si8 0.804328 0.892838 0.978195
O O1 0.199821 0.168623 0.590535
O O2 0.091277 0.336014 0.478102
O O3 0.000000 0.204602 0.500000
O O4 0.280886 0.245864 0.858900
O O5 0.415432 0.175510 0.535192
O O6 0.178152 0.141260 0.343998
O O7 0.330425 0.000000 0.450866
O O8 0.191074 0.122345 0.146128
O O9 0.540925 0.675833 0.761848
O O10 0.718714 0.809328 0.930891
O O11 0.812484 0.635557 0.133146
O O12 0.813757 0.500000 0.847247
O O13 0.915216 0.651393 0.078912
O O14 0.726343 0.663547 0.669250
O O15 0.000000 0.621470 0.000000
O O16 0.500000 0.691955 0.500000
O O17 0.032457 0.115575 0.778639
O O18 0.808959 0.000000 0.503616
O O19 0.992170 0.500000 0.297208
O O20 0.744562 0.000000 0.929414
#
# Coordination Sequence:
#
# PCOD8058959 Si02
#       8
#     4   4   4   4   4   4   4   4
#     4  10  21  36  57  84 124 158 208 253 291 357
#     4  10  22  36  55  85 122 160 203 249 305 372
#     4  11  22  38  52  91 122 158 205 243 299 359
#     4  10  23  41  65  97 125 155 197 249 312 371
#     4  12  23  38  63  91 125 163 199 247 312 359
#     4  10  20  35  57  86 117 161 208 255 305 350
#     4  10  20  37  61  88 120 155 197 245 298 357
#     4  10  18  32  56  86 121 155 196 255 309 354
#
# _framework density 19.951339000000001
#
# number of rings (size 3 to 8) (size 9 to 14) (size 15 to 20)
#    0.000    1.625    5.000    0.375    1.750    6.000 
#    0.000    0.625    0.000    1.500    0.000    2.625 
#    0.000    0.000    0.000    0.000    0.000    0.000 
#
# Total GULP energy -396461.245029 kJ/mol
# GULP energy per Si atom -12389.413907 kJ/mol
# Density = 1.990593 g / cm^3
# Si number density = 19.951339 Si / 1000 Ang^3
#
#
#
# Elastic Constant Matrix: (Units=GPa)
#
#
# Indices 1 2 3 4 5 6 
#
# 1 56.7608 29.9422 43.7954 0.0000 -24.4960 0.0000
# 2 29.9422 62.6493 36.5862 0.0000 -11.1710 0.0000
# 3 43.7954 36.5862 135.1758 0.0000 -26.4435 0.0000
# 4 0.0000 0.0000 0.0000 9.1887 0.0000 -7.2770
# 5 -24.4960 -11.1710 -26.4435 0.0000 32.9807 0.0000
# 6 0.0000 0.0000 0.0000 -7.2770 0.0000 27.7761
#
#
#
# Elastic Compliance Matrix: (Units=1/GPa)
#
#
# Indices 1 2 3 4 5 6 
#
# 1 0.034882 -0.010558 -0.004833 0.000000 0.018457 0.000000
# 2 -0.010558 0.022364 -0.003184 0.000000 -0.002819 0.000000
# 3 -0.004833 -0.003184 0.010570 0.000000 0.003807 0.000000
# 4 0.000000 0.000000 0.000000 0.137320 0.000000 0.035976
# 5 0.018457 -0.002819 0.003807 0.000000 0.046127 0.000000
# 6 0.000000 0.000000 0.000000 0.035976 0.000000 0.045427
#
#
# Mechanical properties :
#
#
# Convention : Reuss Voigt Hill
#
# Bulk Modulus (GPa) = 32.60893 52.80373 42.70633
# Shear Modulus (GPa) = 14.53226 23.60657 19.06942
#
# Velocity S-wave (km/s) = 2.70179 3.44351 3.09495
# Velocity P-wave (km/s) = 5.11005 6.50646 5.85007
#
# Compressibility (1/GPa) = 0.03066645
#
# Stress axis : x y z
#
# Youngs Moduli (GPa) = 28.66847 44.71383 94.60618
#
# Poissons Ratio (x) = 0.47207 0.45725
# Poissons Ratio (y) = 0.30267 0.30123
# Poissons Ratio (z) = 0.13856 0.14237
#
# Static dielectric constant tensor:
#      x y z
#    x 3.634710 0.000000 -0.452200 
#    y 0.000000 3.726360 0.000000 
#    z -0.452200 0.000000 4.001320 
# 
# 
# High freq. dielectric constant tensor:
#      x y z
#    x 1.760330 0.000000 -0.021640 
#    y 0.000000 1.776700 0.000000 
#    z -0.021640 0.000000 1.769630 
# 
# From -- ./inp_files/54063.got.cif
#   From: 2010.06.25/outbox.cif.g09.slc.cpg/sg10_28_cif.got.tgz:54063.got - 2010.06.27 22:07:45.
