data_PCOD8058845
_publ_section_title
;
Structure prediction by ZEFSAII (Michael W. Deem and Ramdas Pophale) SiO2 
 PCOD8058845
Probable space group: P 2/M
;
_chemical_formula_sum "Si O2"
_cell_formula_units_Z 28
_cell_length_a 19.591225
_cell_length_b 8.793139
_cell_length_c 24.641975
_cell_angle_alpha 90.000000
_cell_angle_beta 21.408660
_cell_angle_gamma 90.000000
_cell_volume 1549.511258
_symmetry_space_group_name_H-M "P 2/M"
_symmetry_group_IT_number 10
_symmetry_cell_setting 'monoclinic'
loop_
_space_group_symop_operation_xyz
x,y,z
-x,y,-z
-x,-y,-z
x,-y,z
loop_
_atom_site_type_symbol
_atom_site_label
_atom_site_fract_x
_atom_site_fract_y
_atom_site_fract_z
Si Si1 0.820216 0.819285 0.666871
Si Si2 0.288983 0.832606 0.136934
Si Si3 0.228660 0.178634 0.677107
Si Si4 0.570287 0.675719 0.374530
Si Si5 0.164291 0.324209 0.914263
Si Si6 0.571160 0.322833 0.068066
Si Si7 0.850387 0.320525 0.954093
O O1 0.831806 0.768535 0.722154
O O2 0.629138 0.758308 0.782150
O O3 0.000000 0.757539 0.500000
O O4 0.810979 0.000000 0.670822
O O5 0.214143 0.000000 0.175500
O O6 0.500000 0.847489 0.000000
O O7 0.288607 0.723754 0.084918
O O8 0.267819 0.268973 0.704035
O O9 0.387681 0.220948 0.515939
O O10 0.032816 0.233311 0.797005
O O11 0.230638 0.000000 0.686816
O O12 0.524364 0.500000 0.421120
O O13 0.639802 0.697381 0.261703
O O14 0.110985 0.500000 0.960582
O O15 0.187211 0.255681 0.957396
O O16 0.000000 0.245372 0.000000
O O17 0.532932 0.500000 0.090988
O O18 0.673466 0.278030 0.048149
O O19 0.887324 0.500000 0.924737
#
# Coordination Sequence:
#
# PCOD8058845 Si02
#       7
#     4   4   4   4   4   4   4
#     4   9  18  34  56  79 104 137 173 205 242 299
#     4   8  15  30  52  74  99 133 169 201 236 292
#     4  11  21  32  48  73 101 128 163 210 257 303
#     4  10  18  32  54  73  94 127 166 211 260 306
#     4   9  16  30  54  76  93 127 177 218 251 302
#     4  10  20  32  51  78 107 135 166 213 257 300
#     4  10  20  36  53  73 101 134 174 212 259 312
#
# _framework density 18.070215000000001
#
# number of rings (size 3 to 8) (size 9 to 14) (size 15 to 20)
#    0.000    2.429    1.429    3.857    0.000    4.000 
#    0.000    3.571    0.000    5.143    0.000    0.000 
#    0.000    0.000    0.000    0.000    0.000    0.000 
#
# Total GULP energy -347036.275206 kJ/mol
# GULP energy per Si atom -12394.152686 kJ/mol
# Density = 1.802909 g / cm^3
# Si number density = 18.070215 Si / 1000 Ang^3
#
#
#
# Elastic Constant Matrix: (Units=GPa)
#
#
# Indices 1 2 3 4 5 6 
#
# 1 116.0757 28.1615 61.6209 0.0000 10.1926 0.0000
# 2 28.1615 50.1162 25.5953 0.0000 -3.5850 0.0000
# 3 61.6209 25.5953 108.6995 0.0000 10.5774 0.0000
# 4 0.0000 0.0000 0.0000 16.2975 0.0000 -0.0812
# 5 10.1926 -3.5850 10.5774 0.0000 25.0965 0.0000
# 6 0.0000 0.0000 0.0000 -0.0812 0.0000 15.5866
#
#
#
# Elastic Compliance Matrix: (Units=1/GPa)
#
#
# Indices 1 2 3 4 5 6 
#
# 1 0.013276 -0.004589 -0.006107 0.000000 -0.003473 0.000000
# 2 -0.004589 0.025085 -0.003999 0.000000 0.007133 0.000000
# 3 -0.006107 -0.003999 0.013992 0.000000 -0.003988 0.000000
# 4 0.000000 0.000000 0.000000 0.061361 0.000000 0.000319
# 5 -0.003473 0.007133 -0.003988 0.000000 0.043956 0.000000
# 6 0.000000 0.000000 0.000000 0.000319 0.000000 0.064159
#
#
# Mechanical properties :
#
#
# Convention : Reuss Voigt Hill
#
# Bulk Modulus (GPa) = 43.55231 56.18299 49.86765
# Shear Modulus (GPa) = 19.31443 22.03037 20.67240
#
# Velocity S-wave (km/s) = 3.27288 3.49543 3.38598
# Velocity P-wave (km/s) = 6.19971 6.88837 6.55309
#
# Compressibility (1/GPa) = 0.02296089
#
# Stress axis : x y z
#
# Youngs Moduli (GPa) = 75.32617 39.86420 71.47155
#
# Poissons Ratio (x) = 0.18295 0.43649
# Poissons Ratio (y) = 0.34569 0.28583
# Poissons Ratio (z) = 0.46003 0.15943
#
# Static dielectric constant tensor:
#      x y z
#    x 3.418950 0.000000 0.311960 
#    y 0.000000 3.174420 0.000000 
#    z 0.311960 0.000000 3.434750 
# 
# 
# High freq. dielectric constant tensor:
#      x y z
#    x 1.683040 0.000000 0.018720 
#    y 0.000000 1.685370 0.000000 
#    z 0.018720 0.000000 1.695240 
# 
# From -- ./inp_files/93526.got.cif
#   From: 2010.06.25/outbox.cif.g09.slc.cpg/sg10_47_cif.got.tgz:93526.got - 2010.06.27 22:07:45.
