data_PCOD8058386
_publ_section_title
;
Structure prediction by ZEFSAII (Michael W. Deem and Ramdas Pophale) SiO2 
 PCOD8058386
Probable space group: P 2/M
;
_chemical_formula_sum "Si O2"
_cell_formula_units_Z 32
_cell_length_a 28.050861
_cell_length_b 13.646998
_cell_length_c 7.244218
_cell_angle_alpha 90.000000
_cell_angle_beta 147.089967
_cell_angle_gamma 90.000000
_cell_volume 1506.717038
_symmetry_space_group_name_H-M "P 2/M"
_symmetry_group_IT_number 10
_symmetry_cell_setting 'monoclinic'
loop_
_space_group_symop_operation_xyz
x,y,z
-x,y,-z
-x,-y,-z
x,-y,z
loop_
_atom_site_type_symbol
_atom_site_label
_atom_site_fract_x
_atom_site_fract_y
_atom_site_fract_z
Si Si1 0.809244 0.392542 0.220183
Si Si2 0.981251 0.305026 0.734582
Si Si3 0.155694 0.610869 0.231678
Si Si4 0.071311 0.892123 0.569858
Si Si5 0.322410 0.728395 0.727264
Si Si6 0.507379 0.388780 0.741258
Si Si7 0.655856 0.742776 0.767315
Si Si8 0.277122 0.113763 0.296983
O O1 0.779511 0.500000 0.063943
O O2 0.895394 0.362624 0.382511
O O3 0.828939 0.386876 0.500524
O O4 0.731161 0.321006 0.916034
O O5 0.959824 0.189501 0.675935
O O6 0.000000 0.343331 0.000000
O O7 0.065393 0.332477 0.883502
O O8 0.151764 0.500000 0.144793
O O9 0.234941 0.668021 0.394289
O O10 0.000000 0.886003 0.500000
O O11 0.066743 0.000000 0.462455
O O12 0.171614 0.871292 0.955562
O O13 0.318494 0.830957 0.607465
O O14 0.400269 0.659674 0.905220
O O15 0.334117 0.754469 0.980765
O O16 0.500000 0.398287 0.500000
O O17 0.498849 0.500000 0.796441
O O18 0.433710 0.313669 0.577017
O O19 0.671313 0.847742 0.719225
O O20 0.300752 0.000000 0.392849
#
# Coordination Sequence:
#
# PCOD8058386 Si02
#       8
#     4   4   4   4   4   4   4   4
#     4   9  16  29  51  80 114 150 185 227 283 345
#     4  10  18  30  53  81 111 145 187 235 287 350
#     4   9  17  30  52  82 116 153 187 226 283 350
#     4  10  21  38  56  75 108 153 197 250 304 344
#     4  10  21  38  62  87 119 159 198 241 296 353
#     4   9  18  36  64  95 126 160 197 241 294 351
#     4  10  20  38  62  89 118 155 196 244 294 351
#     4  11  24  42  62  85 117 155 200 254 302 349
#
# _framework density 21.238227999999999
#
# number of rings (size 3 to 8) (size 9 to 14) (size 15 to 20)
#    0.000    2.250    1.250    1.875    0.000    5.750 
#    0.000    4.375    0.000    3.750    0.000    0.000 
#    0.000    0.000    0.000    0.000    0.000    0.000 
#
# Total GULP energy -396599.726089 kJ/mol
# GULP energy per Si atom -12393.741440 kJ/mol
# Density = 2.118989 g / cm^3
# Si number density = 21.238228 Si / 1000 Ang^3
#
#
#
# Elastic Constant Matrix: (Units=GPa)
#
#
# Indices 1 2 3 4 5 6 
#
# 1 66.7387 33.2848 34.0828 0.0000 18.1857 0.0000
# 2 33.2848 169.1095 61.7883 0.0000 14.0832 0.0000
# 3 34.0828 61.7883 103.5660 0.0000 37.9580 0.0000
# 4 0.0000 0.0000 0.0000 32.0152 0.0000 4.4418
# 5 18.1857 14.0832 37.9580 0.0000 27.1121 0.0000
# 6 0.0000 0.0000 0.0000 4.4418 0.0000 20.3407
#
#
#
# Elastic Compliance Matrix: (Units=1/GPa)
#
#
# Indices 1 2 3 4 5 6 
#
# 1 0.019654 -0.002582 -0.001206 0.000000 -0.010153 0.000000
# 2 -0.002582 0.008232 -0.006427 0.000000 0.006454 0.000000
# 3 -0.001206 -0.006427 0.025401 0.000000 -0.031415 0.000000
# 4 0.000000 0.000000 0.000000 0.032211 0.000000 -0.007034
# 5 -0.010153 0.006454 -0.031415 0.000000 0.084324 0.000000
# 6 0.000000 0.000000 0.000000 -0.007034 0.000000 0.050699
#
#
# Mechanical properties :
#
#
# Convention : Reuss Voigt Hill
#
# Bulk Modulus (GPa) = 30.43561 66.41399 48.42480
# Shear Modulus (GPa) = 19.84879 29.91081 24.87980
#
# Velocity S-wave (km/s) = 3.06040 3.75687 3.42638
# Velocity P-wave (km/s) = 5.18168 7.08220 6.20513
#
# Compressibility (1/GPa) = 0.03285625
#
# Stress axis : x y z
#
# Youngs Moduli (GPa) = 50.87941 121.47090 39.36844
#
# Poissons Ratio (x) = 0.31365 0.04749
# Poissons Ratio (y) = 0.13138 0.25303
# Poissons Ratio (z) = 0.06138 0.78073
#
# Static dielectric constant tensor:
#      x y z
#    x 3.650940 0.000000 0.364060 
#    y 0.000000 3.946920 0.000000 
#    z 0.364060 0.000000 3.910430 
# 
# 
# High freq. dielectric constant tensor:
#      x y z
#    x 1.824360 0.000000 0.016790 
#    y 0.000000 1.831220 0.000000 
#    z 0.016790 0.000000 1.832180 
# 
# From -- ./inp_files/38251.got.cif
#   From: 2010.06.25/outbox.cif.g09.slc.cpg/sg10_20_cif.got.tgz:38251.got - 2010.06.27 22:07:45.
