data_PCOD8058775
_publ_section_title
;
Structure prediction by ZEFSAII (Michael W. Deem and Ramdas Pophale) SiO2 
 PCOD8058775
Probable space group: P 2/M
;
_chemical_formula_sum "Si O2"
_cell_formula_units_Z 32
_cell_length_a 20.863905
_cell_length_b 8.979593
_cell_length_c 14.313733
_cell_angle_alpha 90.000000
_cell_angle_beta 137.055341
_cell_angle_gamma 90.000000
_cell_volume 1826.998628
_symmetry_space_group_name_H-M "P 2/M"
_symmetry_group_IT_number 10
_symmetry_cell_setting 'monoclinic'
loop_
_space_group_symop_operation_xyz
x,y,z
-x,y,-z
-x,-y,-z
x,-y,z
loop_
_atom_site_type_symbol
_atom_site_label
_atom_site_fract_x
_atom_site_fract_y
_atom_site_fract_z
Si Si1 0.656289 0.829554 0.344437
Si Si2 0.057289 0.676365 0.366618
Si Si3 0.137135 0.326040 0.918191
Si Si4 0.816512 0.826283 0.651433
Si Si5 0.517705 0.675833 0.914321
Si Si6 0.274028 0.325212 0.907309
Si Si7 0.891402 0.324883 0.905629
Si Si8 0.190416 0.175607 0.643465
O O1 0.710010 0.803621 0.499888
O O2 0.560966 0.734865 0.240747
O O3 0.723466 0.777371 0.331600
O O4 0.627573 0.000000 0.300433
O O5 0.068178 0.500000 0.387826
O O6 0.112883 0.730179 0.335088
O O7 0.095119 0.752794 0.501210
O O8 0.949814 0.729496 0.238002
O O9 0.123153 0.500000 0.917479
O O10 0.234450 0.288290 0.968615
O O11 0.135007 0.259080 0.020307
O O12 0.823382 0.765805 0.763711
O O13 0.844279 0.000000 0.674519
O O14 0.512109 0.500000 0.908473
O O15 0.500000 0.738684 0.000000
O O16 0.618831 0.731381 0.985164
O O17 0.266648 0.500000 0.876945
O O18 0.208797 0.238613 0.765208
O O19 0.870538 0.500000 0.872874
O O20 0.000000 0.289471 0.000000
O O21 0.177024 0.000000 0.632273
#
# Coordination Sequence:
#
# PCOD8058775 Si02
#       8
#     4   4   4   4   4   4   4   4
#     4   9  19  33  50  72 102 134 164 202 251 304
#     4  10  18  32  52  73 100 138 176 207 244 297
#     4   9  19  34  52  74 101 134 171 208 251 301
#     4  10  20  33  50  79 108 132 165 208 259 301
#     4  10  19  31  51  79 100 123 168 216 250 289
#     4  10  20  35  52  72 102 136 168 209 256 302
#     4  10  18  33  55  78 100 130 174 212 246 296
#     4  10  20  33  48  73 105 137 172 209 248 297
#
# _framework density 17.515066000000001
#
# number of rings (size 3 to 8) (size 9 to 14) (size 15 to 20)
#    0.000    2.250    2.500    1.875    0.000    4.000 
#    0.000    4.375    0.000    0.750    0.000    5.250 
#    0.000    0.000    0.000    0.000    0.000    0.000 
#
# Total GULP energy -396781.215926 kJ/mol
# GULP energy per Si atom -12399.412998 kJ/mol
# Density = 1.747520 g / cm^3
# Si number density = 17.515066 Si / 1000 Ang^3
#
#
#
# Elastic Constant Matrix: (Units=GPa)
#
#
# Indices 1 2 3 4 5 6 
#
# 1 99.9244 25.4920 54.0607 0.0000 -0.0538 0.0000
# 2 25.4920 44.7262 31.2721 0.0000 -1.6928 0.0000
# 3 54.0607 31.2721 107.2464 0.0000 -2.9398 0.0000
# 4 0.0000 0.0000 0.0000 24.9916 0.0000 -5.2097
# 5 -0.0538 -1.6928 -2.9398 0.0000 25.9046 0.0000
# 6 0.0000 0.0000 0.0000 -5.2097 0.0000 11.3625
#
#
#
# Elastic Compliance Matrix: (Units=1/GPa)
#
#
# Indices 1 2 3 4 5 6 
#
# 1 0.014304 -0.003930 -0.006090 0.000000 -0.000918 0.000000
# 2 -0.003930 0.029185 -0.006497 0.000000 0.001162 0.000000
# 3 -0.006090 -0.006497 0.014321 0.000000 0.001188 0.000000
# 4 0.000000 0.000000 0.000000 0.044242 0.000000 0.020285
# 5 -0.000918 0.001162 0.001188 0.000000 0.038812 0.000000
# 6 0.000000 0.000000 0.000000 0.020285 0.000000 0.097309
#
#
# Mechanical properties :
#
#
# Convention : Reuss Voigt Hill
#
# Bulk Modulus (GPa) = 40.36045 52.61627 46.48836
# Shear Modulus (GPa) = 17.89129 21.85657 19.87393
#
# Velocity S-wave (km/s) = 3.19953 3.53636 3.37215
# Velocity P-wave (km/s) = 6.06157 6.83961 6.46231
#
# Compressibility (1/GPa) = 0.02477673
#
# Stress axis : x y z
#
# Youngs Moduli (GPa) = 69.90934 34.26435 69.82652
#
# Poissons Ratio (x) = 0.13465 0.42523
# Poissons Ratio (y) = 0.27472 0.45369
# Poissons Ratio (z) = 0.42573 0.22263
#
# Static dielectric constant tensor:
#      x y z
#    x 3.154700 0.000000 -0.030890 
#    y 0.000000 3.097720 0.000000 
#    z -0.030890 0.000000 3.379540 
# 
# 
# High freq. dielectric constant tensor:
#      x y z
#    x 1.652730 0.000000 -0.003040 
#    y 0.000000 1.667530 0.000000 
#    z -0.003040 0.000000 1.679430 
# 
# From -- ./inp_files/66023.got.cif
#   From: 2010.06.25/outbox.cif.g09.slc.cpg/sg10_34_cif.got.tgz:66023.got - 2010.06.27 22:07:45.
