data_PCOD8058953
_publ_section_title
;
Structure prediction by ZEFSAII (Michael W. Deem and Ramdas Pophale) SiO2 
 PCOD8058953
Probable space group: P 2/M
;
_chemical_formula_sum "Si O2"
_cell_formula_units_Z 32
_cell_length_a 19.307172
_cell_length_b 9.426395
_cell_length_c 12.551234
_cell_angle_alpha 90.000000
_cell_angle_beta 48.710533
_cell_angle_gamma 90.000000
_cell_volume 1716.380251
_symmetry_space_group_name_H-M "P 2/M"
_symmetry_group_IT_number 10
_symmetry_cell_setting 'monoclinic'
loop_
_space_group_symop_operation_xyz
x,y,z
-x,y,-z
-x,-y,-z
x,-y,z
loop_
_atom_site_type_symbol
_atom_site_label
_atom_site_fract_x
_atom_site_fract_y
_atom_site_fract_z
Si Si1 0.974609 0.166686 0.908428
Si Si2 0.157052 0.831755 0.615484
Si Si3 0.683901 0.338050 0.942157
Si Si4 0.226378 0.832266 0.957708
Si Si5 0.483920 0.662896 0.204716
Si Si6 0.273696 0.841806 0.684802
Si Si7 0.715410 0.333850 0.671829
Si Si8 0.473688 0.159367 0.414171
O O1 0.049064 0.203410 0.739862
O O2 0.877437 0.222079 0.960855
O O3 0.968389 0.000000 0.930630
O O4 0.000000 0.232098 0.000000
O O5 0.199131 0.769420 0.683572
O O6 0.203411 0.750844 0.469686
O O7 0.175738 0.000000 0.582052
O O8 0.701985 0.500000 0.957587
O O9 0.730830 0.240258 0.982424
O O10 0.729985 0.303866 0.781958
O O11 0.572977 0.315082 0.038743
O O12 0.232010 0.000000 0.973056
O O13 0.284162 0.779208 0.793779
O O14 0.470198 0.500000 0.249433
O O15 0.387866 0.720871 0.253901
O O16 0.513503 0.747060 0.280036
O O17 0.364069 0.841840 0.521068
O O18 0.236687 0.000000 0.744209
O O19 0.724959 0.500000 0.635819
O O20 0.500000 0.228707 0.500000
O O21 0.515520 0.000000 0.362658
#
# Coordination Sequence:
#
# PCOD8058953 Si02
#       8
#     4   4   4   4   4   4   4   4
#     4   9  16  30  56  85 110 138 172 212 262 318
#     4  10  18  32  56  83 108 135 172 217 263 311
#     4  10  22  39  55  74 105 143 180 222 271 313
#     4  10  19  34  57  83 108 138 178 218 260 316
#     4  10  20  35  55  76  99 135 184 226 259 306
#     4   9  16  28  49  76 107 138 166 205 258 312
#     4  10  21  38  57  76 103 142 184 223 264 311
#     4  10  19  30  46  73 110 144 169 203 260 320
#
# _framework density 18.643886999999999
#
# number of rings (size 3 to 8) (size 9 to 14) (size 15 to 20)
#    0.000    2.250    2.500    1.125    0.000    3.750 
#    0.000    2.500    0.000    6.750    0.000    0.000 
#    0.000    0.000    0.000    0.000    0.000    0.000 
#
# Total GULP energy -396491.919248 kJ/mol
# GULP energy per Si atom -12390.372476 kJ/mol
# Density = 1.860145 g / cm^3
# Si number density = 18.643887 Si / 1000 Ang^3
#
#
#
# Elastic Constant Matrix: (Units=GPa)
#
#
# Indices 1 2 3 4 5 6 
#
# 1 63.7537 21.1415 29.8827 0.0000 2.9691 0.0000
# 2 21.1415 41.6879 38.1709 0.0000 5.3482 0.0000
# 3 29.8827 38.1709 118.6694 0.0000 4.8938 0.0000
# 4 0.0000 0.0000 0.0000 -22.5516 0.0000 -6.5301
# 5 2.9691 5.3482 4.8938 0.0000 28.5233 0.0000
# 6 0.0000 0.0000 0.0000 -6.5301 0.0000 20.4813
#
#
#
# Elastic Compliance Matrix: (Units=1/GPa)
#
#
# Indices 1 2 3 4 5 6 
#
# 1 0.019340 -0.007559 -0.002431 0.000000 -0.000179 0.000000
# 2 -0.007559 0.037548 -0.009987 0.000000 -0.004540 0.000000
# 3 -0.002431 -0.009987 0.012250 0.000000 0.000024 0.000000
# 4 0.000000 0.000000 0.000000 -0.040595 0.000000 -0.012943
# 5 -0.000179 -0.004540 0.000024 0.000000 0.035925 0.000000
# 6 0.000000 0.000000 0.000000 -0.012943 0.000000 0.044698
#
#
# Mechanical properties :
#
#
# Convention : Reuss Voigt Hill
#
# Bulk Modulus (GPa) = 34.26525 44.72234 39.49379
# Shear Modulus (GPa) = 31.47645 14.28498 22.88072
#
# Velocity S-wave (km/s) = 4.11335 2.77104 3.50701
# Velocity P-wave (km/s) = 6.40142 5.85474 6.13417
#
# Compressibility (1/GPa) = 0.02918409
#
# Stress axis : x y z
#
# Youngs Moduli (GPa) = 51.70651 26.63257 81.62986
#
# Poissons Ratio (x) = 0.20131 0.19847
# Poissons Ratio (y) = 0.39084 0.81523
# Poissons Ratio (z) = 0.12572 0.26598
#
# Static dielectric constant tensor:
#      x y z
#    x 3.418290 0.000000 -0.123530 
#    y 0.000000 3.065900 0.000000 
#    z -0.123530 0.000000 3.567680 
# 
# 
# High freq. dielectric constant tensor:
#      x y z
#    x 1.721320 0.000000 -0.005150 
#    y 0.000000 1.679300 0.000000 
#    z -0.005150 0.000000 1.732350 
# 
# From -- ./inp_files/55274.got.cif
#   From: 2010.06.25/outbox.cif.g09.slc.cpg/sg10_28_cif.got.tgz:55274.got - 2010.06.27 22:07:45.
