data_PCOD8058317
_publ_section_title
;
Structure prediction by ZEFSAII (Michael W. Deem and Ramdas Pophale) SiO2 
 PCOD8058317
Probable space group: P 2/M
;
_chemical_formula_sum "Si O2"
_cell_formula_units_Z 32
_cell_length_a 11.642177
_cell_length_b 9.087492
_cell_length_c 21.486288
_cell_angle_alpha 90.000000
_cell_angle_beta 127.731027
_cell_angle_gamma 90.000000
_cell_volume 1797.864503
_symmetry_space_group_name_H-M "P 2/M"
_symmetry_group_IT_number 10
_symmetry_cell_setting 'monoclinic'
loop_
_space_group_symop_operation_xyz
x,y,z
-x,y,-z
-x,-y,-z
x,-y,z
loop_
_atom_site_type_symbol
_atom_site_label
_atom_site_fract_x
_atom_site_fract_y
_atom_site_fract_z
Si Si1 0.837662 0.168342 0.696549
Si Si2 0.234051 0.665831 0.674465
Si Si3 0.566094 0.325623 0.087571
Si Si4 0.561410 0.662135 0.830156
Si Si5 0.669758 0.825843 0.409117
Si Si6 0.662344 0.673134 0.534676
Si Si7 0.356593 0.169688 0.255631
Si Si8 0.160845 0.169636 0.769519
O O1 0.771440 0.279044 0.624730
O O2 0.777824 0.212433 0.744847
O O3 0.010286 0.185043 0.756379
O O4 0.791345 0.000000 0.665231
O O5 0.173197 0.500000 0.646029
O O6 0.399678 0.661701 0.750200
O O7 0.221752 0.754413 0.605641
O O8 0.142695 0.750264 0.696966
O O9 0.595406 0.500000 0.101944
O O10 0.450635 0.277178 0.103006
O O11 0.718253 0.243554 0.146917
O O12 0.500000 0.278025 0.000000
O O13 0.629295 0.500000 0.853162
O O14 0.663763 0.756415 0.818814
O O15 0.710365 0.759134 0.489013
O O16 0.504181 0.780454 0.338887
O O17 0.693254 0.000000 0.417746
O O18 0.500000 0.718721 0.500000
O O19 0.675606 0.500000 0.527142
O O20 0.363618 0.000000 0.242819
O O21 0.202306 0.000000 0.771195
#
# Coordination Sequence:
#
# PCOD8058317 Si02
#       8
#     4   4   4   4   4   4   4   4
#     4  10  21  36  51  70 100 138 173 209 254 305
#     4   9  17  31  50  71 100 132 166 210 257 303
#     4   9  18  34  56  80 106 135 164 200 251 304
#     4   8  15  27  46  73 100 125 158 203 244 287
#     4  10  18  30  51  73  97 130 171 217 261 304
#     4  11  22  33  48  73 102 132 172 219 261 304
#     4   9  17  29  47  70  96 130 168 205 247 295
#     4  10  20  34  53  77 104 132 169 209 249 303
#
# _framework density 17.798894000000001
#
# number of rings (size 3 to 8) (size 9 to 14) (size 15 to 20)
#    0.000    2.500    1.250    2.250    0.000    5.750 
#    0.000    0.625    0.000    4.500    0.000    5.250 
#    0.000    0.000    0.000    0.000    0.000    0.000 
#
# Total GULP energy -396765.526607 kJ/mol
# GULP energy per Si atom -12398.922706 kJ/mol
# Density = 1.775838 g / cm^3
# Si number density = 17.798894 Si / 1000 Ang^3
#
#
#
# Elastic Constant Matrix: (Units=GPa)
#
#
# Indices 1 2 3 4 5 6 
#
# 1 115.5260 48.0606 52.0942 0.0000 -24.4495 0.0000
# 2 48.0606 84.0046 40.1968 0.0000 -11.3400 0.0000
# 3 52.0942 40.1968 79.6706 0.0000 -24.7740 0.0000
# 4 0.0000 0.0000 0.0000 19.9481 0.0000 -9.1971
# 5 -24.4495 -11.3400 -24.7740 0.0000 29.4303 0.0000
# 6 0.0000 0.0000 0.0000 -9.1971 0.0000 24.4265
#
#
#
# Elastic Compliance Matrix: (Units=1/GPa)
#
#
# Indices 1 2 3 4 5 6 
#
# 1 0.014169 -0.004945 -0.005015 0.000000 0.005644 0.000000
# 2 -0.004945 0.017434 -0.006436 0.000000 -0.002808 0.000000
# 3 -0.005015 -0.006436 0.023043 0.000000 0.012751 0.000000
# 4 0.000000 0.000000 0.000000 0.060661 0.000000 0.022840
# 5 0.005644 -0.002808 0.012751 0.000000 0.048320 0.000000
# 6 0.000000 0.000000 0.000000 0.022840 0.000000 0.049539
#
#
# Mechanical properties :
#
#
# Convention : Reuss Voigt Hill
#
# Bulk Modulus (GPa) = 45.75651 62.21160 53.98406
# Shear Modulus (GPa) = 19.74409 24.01761 21.88085
#
# Velocity S-wave (km/s) = 3.33421 3.67739 3.51000
# Velocity P-wave (km/s) = 6.37071 7.28418 6.84270
#
# Compressibility (1/GPa) = 0.02185481
#
# Stress axis : x y z
#
# Youngs Moduli (GPa) = 70.57650 57.36021 43.39746
#
# Poissons Ratio (x) = 0.28364 0.21762
# Poissons Ratio (y) = 0.34899 0.27930
# Poissons Ratio (z) = 0.35392 0.36916
#
# Static dielectric constant tensor:
#      x y z
#    x 3.422160 0.000000 -0.330340 
#    y 0.000000 3.396530 0.000000 
#    z -0.330340 0.000000 3.028860 
# 
# 
# High freq. dielectric constant tensor:
#      x y z
#    x 1.687800 0.000000 -0.028360 
#    y 0.000000 1.695390 0.000000 
#    z -0.028360 0.000000 1.651200 
# 
# From -- ./inp_files/52781.got.cif
#   From: 2010.06.25/outbox.cif.g09.slc.cpg/sg10_27_cif.got.tgz:52781.got - 2010.06.27 22:07:45.
