data_PCOD8058766
_publ_section_title
;
Structure prediction by ZEFSAII (Michael W. Deem and Ramdas Pophale) SiO2 
 PCOD8058766
Probable space group: P 2/M
;
_chemical_formula_sum "Si O2"
_cell_formula_units_Z 32
_cell_length_a 25.588863
_cell_length_b 8.954353
_cell_length_c 11.819220
_cell_angle_alpha 90.000000
_cell_angle_beta 45.236052
_cell_angle_gamma 90.000000
_cell_volume 1922.830095
_symmetry_space_group_name_H-M "P 2/M"
_symmetry_group_IT_number 10
_symmetry_cell_setting 'monoclinic'
loop_
_space_group_symop_operation_xyz
x,y,z
-x,y,-z
-x,-y,-z
x,-y,z
loop_
_atom_site_type_symbol
_atom_site_label
_atom_site_fract_x
_atom_site_fract_y
_atom_site_fract_z
Si Si1 0.304365 0.177554 0.703436
Si Si2 0.783357 0.832713 0.771681
Si Si3 0.426997 0.830624 0.684314
Si Si4 0.369657 0.177331 0.370506
Si Si5 0.917199 0.675718 0.647588
Si Si6 0.524615 0.327868 0.169036
Si Si7 0.337265 0.327613 0.191907
Si Si8 0.176667 0.832837 0.047079
O O1 0.363826 0.240156 0.701494
O O2 0.322435 0.235638 0.550194
O O3 0.222439 0.228326 0.868858
O O4 0.310033 0.000000 0.697274
O O5 0.863983 0.754238 0.635545
O O6 0.721015 0.738616 0.806254
O O7 0.786361 0.000000 0.716134
O O8 0.766295 0.837648 0.932731
O O9 0.500000 0.829375 0.500000
O O10 0.434261 0.725288 0.781314
O O11 0.409588 0.000000 0.751038
O O12 0.453337 0.229807 0.253310
O O13 0.329939 0.243993 0.321900
O O14 0.369771 0.000000 0.362590
O O15 0.909555 0.500000 0.647100
O O16 0.000000 0.730252 0.500000
O O17 0.892048 0.726527 0.813423
O O18 0.501120 0.500000 0.217522
O O19 0.580252 0.306569 0.979881
O O20 0.318371 0.500000 0.239005
O O21 0.146551 0.000000 0.069122
#
# Coordination Sequence:
#
# PCOD8058766 Si02
#       8
#     4   4   4   4   4   4   4   4
#     4   9  17  32  49  70  96 124 161 207 249 289
#     4   9  18  32  53  77  99 129 166 198 236 288
#     4  10  18  32  52  70  92 123 161 204 252 300
#     4  11  22  36  53  69  90 128 175 214 251 296
#     4   9  17  30  49  77 112 139 157 185 232 288
#     4  11  23  36  49  69  96 127 165 213 262 301
#     4  11  23  37  50  68  98 130 165 212 257 294
#     4   8  16  29  49  74 101 129 159 195 234 283
#
# _framework density 16.642135
#
# number of rings (size 3 to 8) (size 9 to 14) (size 15 to 20)
#    0.750    1.500    1.250    2.625    0.000    5.750 
#    0.000    1.250    0.000    0.000    0.000    0.875 
#    0.000    7.000    0.000    0.000    0.000    0.000 
#
# Total GULP energy -396594.632934 kJ/mol
# GULP energy per Si atom -12393.582279 kJ/mol
# Density = 1.660426 g / cm^3
# Si number density = 16.642135 Si / 1000 Ang^3
#
#
#
# Elastic Constant Matrix: (Units=GPa)
#
#
# Indices 1 2 3 4 5 6 
#
# 1 39.2927 27.9290 36.7258 0.0000 0.8615 0.0000
# 2 27.9290 80.8752 40.9180 0.0000 -3.2812 0.0000
# 3 36.7258 40.9180 99.2423 0.0000 -8.1792 0.0000
# 4 0.0000 0.0000 0.0000 17.5539 0.0000 -4.9461
# 5 0.8615 -3.2812 -8.1792 0.0000 25.2965 0.0000
# 6 0.0000 0.0000 0.0000 -4.9461 0.0000 16.8533
#
#
#
# Elastic Compliance Matrix: (Units=1/GPa)
#
#
# Indices 1 2 3 4 5 6 
#
# 1 0.044367 -0.008854 -0.013343 0.000000 -0.006974 0.000000
# 2 -0.008854 0.017391 -0.003784 0.000000 0.001334 0.000000
# 3 -0.013343 -0.003784 0.017025 0.000000 0.005468 0.000000
# 4 0.000000 0.000000 0.000000 0.062103 0.000000 0.018226
# 5 -0.006974 0.001334 0.005468 0.000000 0.041710 0.000000
# 6 0.000000 0.000000 0.000000 0.018226 0.000000 0.064684
#
#
# Mechanical properties :
#
#
# Convention : Reuss Voigt Hill
#
# Bulk Modulus (GPa) = 37.28318 47.83954 42.56136
# Shear Modulus (GPa) = 16.22417 19.52989 17.87703
#
# Velocity S-wave (km/s) = 3.12570 3.42939 3.28106
# Velocity P-wave (km/s) = 5.95636 6.67003 6.32327
#
# Compressibility (1/GPa) = 0.02682175
#
# Stress axis : x y z
#
# Youngs Moduli (GPa) = 22.53904 57.50170 58.73755
#
# Poissons Ratio (x) = 0.50911 0.78373
# Poissons Ratio (y) = 0.19956 0.22226
# Poissons Ratio (z) = 0.30074 0.21758
#
# Static dielectric constant tensor:
#      x y z
#    x 2.901200 0.000000 0.073100 
#    y 0.000000 3.082510 0.000000 
#    z 0.073100 0.000000 3.200220 
# 
# 
# High freq. dielectric constant tensor:
#      x y z
#    x 1.610240 0.000000 0.002550 
#    y 0.000000 1.640510 0.000000 
#    z 0.002550 0.000000 1.635080 
# 
# From -- ./inp_files/56439.got.cif
#   From: 2010.06.25/outbox.cif.g09.slc.cpg/sg10_29_cif.got.tgz:56439.got - 2010.06.27 22:07:45.
