data_PCOD8058390
_publ_section_title
;
Structure prediction by ZEFSAII (Michael W. Deem and Ramdas Pophale) SiO2 
 PCOD8058390
Probable space group: P 2/M
;
_chemical_formula_sum "Si O2"
_cell_formula_units_Z 32
_cell_length_a 12.807980
_cell_length_b 8.791780
_cell_length_c 32.534147
_cell_angle_alpha 90.000000
_cell_angle_beta 27.181518
_cell_angle_gamma 90.000000
_cell_volume 1673.529735
_symmetry_space_group_name_H-M "P 2/M"
_symmetry_group_IT_number 10
_symmetry_cell_setting 'monoclinic'
loop_
_space_group_symop_operation_xyz
x,y,z
-x,y,-z
-x,-y,-z
x,-y,z
loop_
_atom_site_type_symbol
_atom_site_label
_atom_site_fract_x
_atom_site_fract_y
_atom_site_fract_z
Si Si1 0.492069 0.679275 0.748666
Si Si2 0.603628 0.180685 0.005852
Si Si3 0.836408 0.181608 0.690665
Si Si4 0.253773 0.663562 0.420908
Si Si5 0.777412 0.181488 0.300007
Si Si6 0.709810 0.175373 0.510870
Si Si7 0.796896 0.180706 0.797346
Si Si8 0.120317 0.180648 0.827952
O O1 0.478656 0.500000 0.760940
O O2 0.614705 0.755140 0.744723
O O3 0.634605 0.728468 0.659108
O O4 0.242170 0.746207 0.825367
O O5 0.443946 0.236195 0.099416
O O6 0.605554 0.000000 0.002477
O O7 0.500000 0.247550 0.000000
O O8 0.860207 0.240214 0.921992
O O9 0.817113 0.241106 0.743937
O O10 0.079559 0.249997 0.588356
O O11 0.832163 0.000000 0.688683
O O12 0.366623 0.500000 0.395537
O O13 0.255730 0.797742 0.453099
O O14 0.000000 0.621348 0.500000
O O15 0.550441 0.237451 0.404972
O O16 0.775384 0.237165 0.252803
O O17 0.996484 0.247425 0.247289
O O18 0.786116 0.000000 0.296251
O O19 0.715886 0.000000 0.497765
O O20 0.812427 0.000000 0.792332
O O21 0.135476 0.000000 0.826123
#
# Coordination Sequence:
#
# PCOD8058390 Si02
#       8
#     4   4   4   4   4   4   4   4
#     4  11  22  35  52  73 103 140 175 213 259 305
#     4   9  15  27  52  84 108 129 162 209 263 307
#     4  10  21  34  50  73 104 143 179 208 244 299
#     4  10  19  31  47  69  95 130 174 215 251 291
#     4   9  16  27  47  77 109 132 158 206 260 303
#     4  10  19  29  46  75 106 136 167 205 254 301
#     4   9  17  31  50  76 108 136 168 209 253 307
#     4  10  18  30  53  84 108 127 162 215 265 305
#
# _framework density 19.121261000000001
#
# number of rings (size 3 to 8) (size 9 to 14) (size 15 to 20)
#    0.000    2.250    3.750    0.375    0.000    1.250 
#    0.000    3.125    0.000    6.375    0.000    1.750 
#    0.000    0.000    0.000    0.000    0.000    0.000 
#
# Total GULP energy -396436.153343 kJ/mol
# GULP energy per Si atom -12388.629792 kJ/mol
# Density = 1.907774 g / cm^3
# Si number density = 19.121261 Si / 1000 Ang^3
#
#
#
# Elastic Constant Matrix: (Units=GPa)
#
#
# Indices 1 2 3 4 5 6 
#
# 1 123.3576 16.1150 64.8104 0.0000 -8.0507 0.0000
# 2 16.1150 18.9168 16.5671 0.0000 -2.9776 0.0000
# 3 64.8104 16.5671 124.7877 0.0000 -13.4225 0.0000
# 4 0.0000 0.0000 0.0000 10.0628 0.0000 0.9090
# 5 -8.0507 -2.9776 -13.4225 0.0000 34.6264 0.0000
# 6 0.0000 0.0000 0.0000 0.9090 0.0000 3.9662
#
#
#
# Elastic Compliance Matrix: (Units=1/GPa)
#
#
# Indices 1 2 3 4 5 6 
#
# 1 0.011586 -0.005192 -0.005307 0.000000 0.000190 0.000000
# 2 -0.005192 0.062299 -0.005351 0.000000 0.002076 0.000000
# 3 -0.005307 -0.005351 0.011790 0.000000 0.002876 0.000000
# 4 0.000000 0.000000 0.000000 0.101476 0.000000 -0.023257
# 5 0.000190 0.002076 0.002876 0.000000 0.030217 0.000000
# 6 0.000000 0.000000 0.000000 -0.023257 0.000000 0.257457
#
#
# Mechanical properties :
#
#
# Convention : Reuss Voigt Hill
#
# Bulk Modulus (GPa) = 18.52747 51.33855 34.93301
# Shear Modulus (GPa) = 9.53256 21.03573 15.28415
#
# Velocity S-wave (km/s) = 2.23521 3.32041 2.83030
# Velocity P-wave (km/s) = 4.04624 6.45038 5.38421
#
# Compressibility (1/GPa) = 0.05397390
#
# Stress axis : x y z
#
# Youngs Moduli (GPa) = 86.31410 16.05158 84.81797
#
# Poissons Ratio (x) = 0.08333 0.45017
# Poissons Ratio (y) = 0.44810 0.45389
# Poissons Ratio (z) = 0.45811 0.08590
#
# Static dielectric constant tensor:
#      x y z
#    x 3.519880 0.000000 -0.173540 
#    y 0.000000 3.013610 0.000000 
#    z -0.173540 0.000000 3.818940 
# 
# 
# High freq. dielectric constant tensor:
#      x y z
#    x 1.735470 0.000000 -0.016360 
#    y 0.000000 1.693040 0.000000 
#    z -0.016360 0.000000 1.749990 
# 
# From -- ./inp_files/94984.got.cif
#   From: 2010.06.25/outbox.cif.g09.slc.cpg/sg10_48_cif.got.tgz:94984.got - 2010.06.27 22:07:45.
