data_PCOD8058161
_publ_section_title
;
Structure prediction by ZEFSAII (Michael W. Deem and Ramdas Pophale) SiO2 
 PCOD8058161
Probable space group: P 2/M
;
_chemical_formula_sum "Si O2"
_cell_formula_units_Z 28
_cell_length_a 17.923967
_cell_length_b 9.044171
_cell_length_c 22.009169
_cell_angle_alpha 90.000000
_cell_angle_beta 26.946793
_cell_angle_gamma 90.000000
_cell_volume 1616.817035
_symmetry_space_group_name_H-M "P 2/M"
_symmetry_group_IT_number 10
_symmetry_cell_setting 'monoclinic'
loop_
_space_group_symop_operation_xyz
x,y,z
-x,y,-z
-x,-y,-z
x,-y,z
loop_
_atom_site_type_symbol
_atom_site_label
_atom_site_fract_x
_atom_site_fract_y
_atom_site_fract_z
Si Si1 0.462370 0.331225 0.891895
Si Si2 0.821115 0.170008 0.834235
Si Si3 0.956957 0.171768 0.221798
Si Si4 0.689628 0.329142 0.347362
Si Si5 0.806214 0.172560 0.142281
Si Si6 0.346391 0.835634 0.157360
Si Si7 0.749105 0.326248 0.063117
O O1 0.490089 0.500000 0.885686
O O2 0.627189 0.255990 0.799681
O O3 0.301365 0.279243 0.043660
O O4 0.422406 0.301499 0.849740
O O5 0.816273 0.208486 0.765071
O O6 0.997959 0.188509 0.738897
O O7 0.758670 0.000000 0.887540
O O8 0.791577 0.264308 0.330417
O O9 0.101780 0.234645 0.074436
O O10 0.931378 0.000000 0.222836
O O11 0.500000 0.309802 0.500000
O O12 0.736371 0.500000 0.302566
O O13 0.733469 0.232736 0.257336
O O14 0.764621 0.000000 0.165907
O O15 0.717735 0.263614 0.152904
O O16 0.000000 0.202647 0.000000
O O17 0.327550 0.000000 0.195345
O O18 0.500000 0.816559 0.000000
O O19 0.795252 0.500000 0.031049
#
# Coordination Sequence:
#
# PCOD8058161 Si02
#       7
#     4   4   4   4   4   4   4
#     4   9  16  23  34  57  86 117 153 191 232 276
#     4   8  15  25  37  55  82 117 155 191 231 280
#     4  10  18  30  48  69  93 123 162 205 243 284
#     4  11  24  39  54  73  99 131 163 199 248 300
#     4  11  22  35  54  78  98 124 165 208 246 289
#     4   8  13  22  34  50  78 118 154 185 228 278
#     4  10  19  30  46  68  96 128 160 199 244 289
#
# _framework density 17.317976000000002
#
# number of rings (size 3 to 8) (size 9 to 14) (size 15 to 20)
#    0.000    2.429    1.429    3.000    0.000    6.571 
#    0.000    0.000    0.000    0.000    0.000    0.000 
#    0.000    1.143    0.000   12.857    0.000    7.286 
#
# Total GULP energy -346895.133388 kJ/mol
# GULP energy per Si atom -12389.111907 kJ/mol
# Density = 1.727856 g / cm^3
# Si number density = 17.317976 Si / 1000 Ang^3
#
#
#
# Elastic Constant Matrix: (Units=GPa)
#
#
# Indices 1 2 3 4 5 6 
#
# 1 165.4626 66.2396 25.0845 0.0000 -8.7067 0.0000
# 2 66.2396 92.6550 19.6615 0.0000 0.4507 0.0000
# 3 25.0845 19.6615 31.8247 0.0000 -2.2165 0.0000
# 4 0.0000 0.0000 0.0000 6.6351 0.0000 1.0315
# 5 -8.7067 0.4507 -2.2165 0.0000 10.8506 0.0000
# 6 0.0000 0.0000 0.0000 1.0315 0.0000 30.5299
#
#
#
# Elastic Compliance Matrix: (Units=1/GPa)
#
#
# Indices 1 2 3 4 5 6 
#
# 1 0.009299 -0.006021 -0.003117 0.000000 0.007075 0.000000
# 2 -0.006021 0.016367 -0.005833 0.000000 -0.006703 0.000000
# 3 -0.003117 -0.005833 0.037864 0.000000 0.005476 0.000000
# 4 0.000000 0.000000 0.000000 0.151510 0.000000 -0.005119
# 5 0.007075 -0.006703 0.005476 0.000000 0.099235 0.000000
# 6 0.000000 0.000000 0.000000 -0.005119 0.000000 0.032928
#
#
# Mechanical properties :
#
#
# Convention : Reuss Voigt Hill
#
# Bulk Modulus (GPa) = 29.77201 56.87928 43.32565
# Shear Modulus (GPa) = 12.87531 21.53356 17.20444
#
# Velocity S-wave (km/s) = 2.72961 3.53005 3.15531
# Velocity P-wave (km/s) = 5.21182 7.03778 6.19247
#
# Compressibility (1/GPa) = 0.03358859
#
# Stress axis : x y z
#
# Youngs Moduli (GPa) = 107.54128 61.09723 26.41029
#
# Poissons Ratio (x) = 0.36785 0.08232
# Poissons Ratio (y) = 0.64748 0.15405
# Poissons Ratio (z) = 0.33520 0.35638
#
# Static dielectric constant tensor:
#      x y z
#    x 4.165230 0.000000 -0.284070 
#    y 0.000000 3.387890 0.000000 
#    z -0.284070 0.000000 3.069000 
# 
# 
# High freq. dielectric constant tensor:
#      x y z
#    x 1.704300 0.000000 -0.006580 
#    y 0.000000 1.684260 0.000000 
#    z -0.006580 0.000000 1.574900 
# 
# From -- ./inp_files/85601.got.cif
#   From: 2010.06.25/outbox.cif.g09.slc.cpg/sg10_43_cif.got.tgz:85601.got - 2010.06.27 22:07:45.
