data_PCOD8058154
_publ_section_title
;
Structure prediction by ZEFSAII (Michael W. Deem and Ramdas Pophale) SiO2 
 PCOD8058154
Probable space group: P 2/M
;
_chemical_formula_sum "Si O2"
_cell_formula_units_Z 24
_cell_length_a 19.669502
_cell_length_b 9.075734
_cell_length_c 16.689107
_cell_angle_alpha 90.000000
_cell_angle_beta 149.358902
_cell_angle_gamma 90.000000
_cell_volume 1518.405110
_symmetry_space_group_name_H-M "P 2/M"
_symmetry_group_IT_number 10
_symmetry_cell_setting 'monoclinic'
loop_
_space_group_symop_operation_xyz
x,y,z
-x,y,-z
-x,-y,-z
x,-y,z
loop_
_atom_site_type_symbol
_atom_site_label
_atom_site_fract_x
_atom_site_fract_y
_atom_site_fract_z
Si Si1 0.383051 0.327206 0.111269
Si Si2 0.639464 0.832878 0.376506
Si Si3 0.841227 0.670966 0.992372
Si Si4 0.522020 0.167137 0.934102
Si Si5 0.158352 0.166032 0.164308
Si Si6 0.852519 0.326695 0.687648
O O1 0.410676 0.500000 0.136364
O O2 0.509063 0.247761 0.282961
O O3 0.248296 0.288928 0.021903
O O4 0.370104 0.263804 0.006933
O O5 0.618044 0.830512 0.257871
O O6 0.773428 0.745086 0.533547
O O7 0.648825 0.000000 0.418309
O O8 0.831882 0.500000 0.959958
O O9 0.785657 0.760663 0.859871
O O10 0.992647 0.714382 0.167377
O O11 0.576415 0.000000 0.996818
O O12 0.500000 0.235677 0.000000
O O13 0.205875 0.259047 0.289286
O O14 0.213356 0.000000 0.227077
O O15 0.000000 0.169176 0.000000
O O16 0.828727 0.500000 0.664872
#
# Coordination Sequence:
#
# PCOD8058154 Si02
#       6
#     4   4   4   4   4   4
#     4   9  17  30  48  71  95 119 152 189 228 273
#     4   9  18  31  47  69  95 120 152 191 230 273
#     4   9  18  31  47  68  95 124 155 191 229 271
#     4   8  16  31  50  70  93 120 150 186 227 274
#     4   9  17  28  44  66  91 122 160 194 225 267
#     4  10  18  30  48  68  93 125 157 190 230 271
#
# _framework density 15.806058999999999
#
# number of rings (size 3 to 8) (size 9 to 14) (size 15 to 20)
#    1.000    2.000    0.000    1.500    0.000    4.333 
#    0.000    0.833    0.000    6.000    0.000    7.000 
#    0.000    0.000    0.000    0.000    0.000    0.000 
#
# Total GULP energy -297388.346771 kJ/mol
# GULP energy per Si atom -12391.181115 kJ/mol
# Density = 1.577008 g / cm^3
# Si number density = 15.806059 Si / 1000 Ang^3
#
#
#
# Elastic Constant Matrix: (Units=GPa)
#
#
# Indices 1 2 3 4 5 6 
#
# 1 109.0995 50.5779 40.8807 0.0000 -7.1434 0.0000
# 2 50.5779 94.4817 39.2458 0.0000 -2.8103 0.0000
# 3 40.8807 39.2458 68.6837 0.0000 -5.4233 0.0000
# 4 0.0000 0.0000 0.0000 23.0681 0.0000 -4.4937
# 5 -7.1434 -2.8103 -5.4233 0.0000 18.6848 0.0000
# 6 0.0000 0.0000 0.0000 -4.4937 0.0000 23.2351
#
#
#
# Elastic Compliance Matrix: (Units=1/GPa)
#
#
# Indices 1 2 3 4 5 6 
#
# 1 0.013587 -0.005144 -0.004911 0.000000 0.002995 0.000000
# 2 -0.005144 0.015827 -0.006088 0.000000 -0.001354 0.000000
# 3 -0.004911 -0.006088 0.021227 0.000000 0.003368 0.000000
# 4 0.000000 0.000000 0.000000 0.045047 0.000000 0.008712
# 5 0.002995 -0.001354 0.003368 0.000000 0.055439 0.000000
# 6 0.000000 0.000000 0.000000 0.008712 0.000000 0.044723
#
#
# Mechanical properties :
#
#
# Convention : Reuss Voigt Hill
#
# Bulk Modulus (GPa) = 54.48500 59.29709 56.89105
# Shear Modulus (GPa) = 21.34421 22.43497 21.88959
#
# Velocity S-wave (km/s) = 3.67874 3.77157 3.72544
# Velocity P-wave (km/s) = 7.25189 7.52085 7.38760
#
# Compressibility (1/GPa) = 0.01835368
#
# Stress axis : x y z
#
# Youngs Moduli (GPa) = 73.59849 63.18452 47.10902
#
# Poissons Ratio (x) = 0.32505 0.23136
# Poissons Ratio (y) = 0.37862 0.28681
# Poissons Ratio (z) = 0.36145 0.38468
#
# Static dielectric constant tensor:
#      x y z
#    x 2.874790 0.000000 -0.101810 
#    y 0.000000 3.103500 0.000000 
#    z -0.101810 0.000000 2.784840 
# 
# 
# High freq. dielectric constant tensor:
#      x y z
#    x 1.585350 0.000000 -0.010420 
#    y 0.000000 1.621740 0.000000 
#    z -0.010420 0.000000 1.579350 
# 
# From -- ./inp_files/33501.got.cif
#   From: 2010.06.25/outbox.cif.g09.slc.cpg/sg10_17_cif.got.tgz:33501.got - 2010.06.27 22:07:45.
