data_PCOD8058323
_publ_section_title
;
Structure prediction by ZEFSAII (Michael W. Deem and Ramdas Pophale) SiO2 
 PCOD8058323
Probable space group: P 2/M
;
_chemical_formula_sum "Si O2"
_cell_formula_units_Z 32
_cell_length_a 14.913763
_cell_length_b 8.540640
_cell_length_c 15.112685
_cell_angle_alpha 90.000000
_cell_angle_beta 79.109100
_cell_angle_gamma 90.000000
_cell_volume 1890.278474
_symmetry_space_group_name_H-M "P 2/M"
_symmetry_group_IT_number 10
_symmetry_cell_setting 'monoclinic'
loop_
_space_group_symop_operation_xyz
x,y,z
-x,y,-z
-x,-y,-z
x,-y,z
loop_
_atom_site_type_symbol
_atom_site_label
_atom_site_fract_x
_atom_site_fract_y
_atom_site_fract_z
Si Si1 0.116444 0.682508 0.112835
Si Si2 0.202936 0.818571 0.926154
Si Si3 0.568574 0.819296 0.875534
Si Si4 0.755359 0.183448 0.764098
Si Si5 0.387487 0.319042 0.947079
Si Si6 0.876989 0.815868 0.585156
Si Si7 0.086119 0.317306 0.795298
Si Si8 0.072354 0.185742 0.612342
O O1 0.119181 0.500000 0.089644
O O2 0.191903 0.718800 0.172013
O O3 0.017600 0.735262 0.165910
O O4 0.137016 0.774970 0.019372
O O5 0.297035 0.721944 0.909955
O O6 0.153192 0.780623 0.844269
O O7 0.227341 0.000000 0.926134
O O8 0.647520 0.779112 0.789565
O O9 0.477925 0.718276 0.871797
O O10 0.541144 0.000000 0.875890
O O11 0.608915 0.783506 0.964867
O O12 0.789892 0.235664 0.660103
O O13 0.774478 0.000000 0.777874
O O14 0.386929 0.500000 0.973685
O O15 0.868238 0.759895 0.484773
O O16 0.969030 0.753954 0.614709
O O17 0.887661 0.000000 0.579295
O O18 0.100532 0.500000 0.810603
O O19 0.111476 0.275767 0.689769
O O20 0.077373 0.000000 0.628029
#
# Coordination Sequence:
#
# PCOD8058323 Si02
#       8
#     4   4   4   4   4   4   4   4
#     4  11  22  34  48  70 103 136 168 206 245 292
#     4  12  24  37  53  71  94 131 175 213 246 295
#     4  10  19  31  50  75 101 131 169 207 243 295
#     4  10  18  30  51  75 102 135 169 205 245 290
#     4  11  21  34  51  71  99 132 163 206 256 298
#     4   8  15  28  49  75 100 129 168 209 247 287
#     4  11  23  36  49  71 102 135 170 209 250 295
#     4   9  16  30  51  72  97 132 172 209 243 289
#
# _framework density 16.928723999999999
#
# number of rings (size 3 to 8) (size 9 to 14) (size 15 to 20)
#    0.000    1.750    2.500    5.250    0.000    3.500 
#    0.000    1.875    0.000    0.000    0.000    0.875 
#    0.000    7.000    0.000    0.000    0.000    0.000 
#
# Total GULP energy -396790.913234 kJ/mol
# GULP energy per Si atom -12399.716039 kJ/mol
# Density = 1.689019 g / cm^3
# Si number density = 16.928724 Si / 1000 Ang^3
#
#
#
# Elastic Constant Matrix: (Units=GPa)
#
#
# Indices 1 2 3 4 5 6 
#
# 1 75.9216 15.4610 42.7898 0.0000 -11.1049 0.0000
# 2 15.4610 45.2771 13.7137 0.0000 -1.4902 0.0000
# 3 42.7898 13.7137 112.5843 0.0000 -10.9118 0.0000
# 4 0.0000 0.0000 0.0000 8.9029 0.0000 0.3451
# 5 -11.1049 -1.4902 -10.9118 0.0000 25.4114 0.0000
# 6 0.0000 0.0000 0.0000 0.3451 0.0000 23.3262
#
#
#
# Elastic Compliance Matrix: (Units=1/GPa)
#
#
# Indices 1 2 3 4 5 6 
#
# 1 0.018089 -0.004232 -0.005861 0.000000 0.005140 0.000000
# 2 -0.004232 0.023923 -0.001407 0.000000 -0.001051 0.000000
# 3 -0.005861 -0.001407 0.011504 0.000000 0.002296 0.000000
# 4 0.000000 0.000000 0.000000 0.112387 0.000000 -0.001663
# 5 0.005140 -0.001051 0.002296 0.000000 0.042523 0.000000
# 6 0.000000 0.000000 0.000000 -0.001663 0.000000 0.042895
#
#
# Mechanical properties :
#
#
# Convention : Reuss Voigt Hill
#
# Bulk Modulus (GPa) = 32.77209 41.96801 37.37005
# Shear Modulus (GPa) = 17.57510 22.31600 19.94555
#
# Velocity S-wave (km/s) = 3.22558 3.63469 3.43623
# Velocity P-wave (km/s) = 5.76831 6.51609 6.15357
#
# Compressibility (1/GPa) = 0.03051377
#
# Stress axis : x y z
#
# Youngs Moduli (GPa) = 55.28346 41.80052 86.92741
#
# Poissons Ratio (x) = 0.17692 0.50950
# Poissons Ratio (y) = 0.23398 0.12233
# Poissons Ratio (z) = 0.32403 0.05883
#
# Static dielectric constant tensor:
#      x y z
#    x 3.255810 0.000000 -0.325140 
#    y 0.000000 3.085060 0.000000 
#    z -0.325140 0.000000 3.305650 
# 
# 
# High freq. dielectric constant tensor:
#      x y z
#    x 1.637140 0.000000 -0.015800 
#    y 0.000000 1.651880 0.000000 
#    z -0.015800 0.000000 1.636640 
# 
# From -- ./inp_files/66110.got.cif
#   From: 2010.06.25/outbox.cif.g09.slc.cpg/sg10_34_cif.got.tgz:66110.got - 2010.06.27 22:07:45.
