data_PCOD8058475
_publ_section_title
;
Structure prediction by ZEFSAII (Michael W. Deem and Ramdas Pophale) SiO2 
 PCOD8058475
Probable space group: P 2/M
;
_chemical_formula_sum "Si O2"
_cell_formula_units_Z 32
_cell_length_a 20.249427
_cell_length_b 9.069931
_cell_length_c 17.053423
_cell_angle_alpha 90.000000
_cell_angle_beta 144.058427
_cell_angle_gamma 90.000000
_cell_volume 1838.386239
_symmetry_space_group_name_H-M "P 2/M"
_symmetry_group_IT_number 10
_symmetry_cell_setting 'monoclinic'
loop_
_space_group_symop_operation_xyz
x,y,z
-x,y,-z
-x,-y,-z
x,-y,z
loop_
_atom_site_type_symbol
_atom_site_label
_atom_site_fract_x
_atom_site_fract_y
_atom_site_fract_z
Si Si1 0.881270 0.674639 0.104161
Si Si2 0.645818 0.325983 0.936513
Si Si3 0.597797 0.325955 0.338054
Si Si4 0.026547 0.828265 0.114640
Si Si5 0.741486 0.825481 0.343261
Si Si6 0.074712 0.662761 0.397302
Si Si7 0.785214 0.337717 0.626824
Si Si8 0.374062 0.327063 0.905653
O O1 0.886588 0.500000 0.094648
O O2 0.932800 0.750588 0.077338
O O3 0.950783 0.715079 0.250393
O O4 0.754758 0.735523 0.995221
O O5 0.656347 0.500000 0.951003
O O6 0.533021 0.279607 0.781147
O O7 0.640898 0.266892 0.020537
O O8 0.610587 0.500000 0.331485
O O9 0.651836 0.238765 0.318116
O O10 0.658844 0.286826 0.479823
O O11 0.153764 0.773683 0.255233
O O12 0.021602 0.000000 0.127444
O O13 0.000000 0.789134 0.000000
O O14 0.868874 0.776146 0.487749
O O15 0.713969 0.763424 0.231168
O O16 0.734839 0.000000 0.337507
O O17 0.069686 0.500000 0.431361
O O18 0.147821 0.654893 0.389396
O O19 0.782041 0.500000 0.663167
O O20 0.347504 0.500000 0.872090
O O21 0.500000 0.291528 0.000000
#
# Coordination Sequence:
#
# PCOD8058475 Si02
#       8
#     4   4   4   4   4   4   4   4
#     4   9  18  33  53  76  97 121 158 202 238 279
#     4   9  17  31  52  73  94 124 162 199 241 291
#     4   9  16  30  49  70  96 126 160 197 240 287
#     4  10  20  33  51  75 102 130 157 188 231 285
#     4  11  20  28  43  68  96 124 162 209 246 278
#     4   8  15  29  47  66  91 122 158 198 242 286
#     4   8  15  27  48  75  98 121 156 201 237 272
#     4  10  18  31  50  68  91 128 165 200 247 291
#
# _framework density 17.406571
#
# number of rings (size 3 to 8) (size 9 to 14) (size 15 to 20)
#    0.000    2.750    1.250    3.000    0.000    5.750 
#    0.000    1.875    0.000    4.500    0.000    5.250 
#    0.000    0.000    0.000    0.000    0.000    0.000 
#
# Total GULP energy -396614.053108 kJ/mol
# GULP energy per Si atom -12394.189160 kJ/mol
# Density = 1.736695 g / cm^3
# Si number density = 17.406571 Si / 1000 Ang^3
#
#
#
# Elastic Constant Matrix: (Units=GPa)
#
#
# Indices 1 2 3 4 5 6 
#
# 1 70.6262 35.2037 65.0114 0.0000 7.9909 0.0000
# 2 35.2037 69.0436 58.8762 0.0000 -3.6897 0.0000
# 3 65.0114 58.8762 165.6754 0.0000 9.4172 0.0000
# 4 0.0000 0.0000 0.0000 11.8407 0.0000 -5.0845
# 5 7.9909 -3.6897 9.4172 0.0000 25.3486 0.0000
# 6 0.0000 0.0000 0.0000 -5.0845 0.0000 9.9433
#
#
#
# Elastic Compliance Matrix: (Units=1/GPa)
#
#
# Indices 1 2 3 4 5 6 
#
# 1 0.024675 -0.007125 -0.006793 0.000000 -0.006292 0.000000
# 2 -0.007125 0.023737 -0.006092 0.000000 0.007965 0.000000
# 3 -0.006793 -0.006092 0.011028 0.000000 -0.002842 0.000000
# 4 0.000000 0.000000 0.000000 0.108217 0.000000 0.055337
# 5 -0.006292 0.007965 -0.002842 0.000000 0.043649 0.000000
# 6 0.000000 0.000000 0.000000 0.055337 0.000000 0.128868
#
#
# Mechanical properties :
#
#
# Convention : Reuss Voigt Hill
#
# Bulk Modulus (GPa) = 51.49321 69.28086 60.38704
# Shear Modulus (GPa) = 12.93098 19.17677 16.05387
#
# Velocity S-wave (km/s) = 2.72854 3.32278 3.04021
# Velocity P-wave (km/s) = 6.29074 7.38980 6.86231
#
# Compressibility (1/GPa) = 0.01942004
#
# Stress axis : x y z
#
# Youngs Moduli (GPa) = 40.52618 42.12775 90.67716
#
# Poissons Ratio (x) = 0.30016 0.61597
# Poissons Ratio (y) = 0.28875 0.55244
# Poissons Ratio (z) = 0.27530 0.25666
#
# Static dielectric constant tensor:
#      x y z
#    x 2.953800 0.000000 0.278050 
#    y 0.000000 3.037200 0.000000 
#    z 0.278050 0.000000 3.891110 
# 
# 
# High freq. dielectric constant tensor:
#      x y z
#    x 1.624710 0.000000 0.009380 
#    y 0.000000 1.651110 0.000000 
#    z 0.009380 0.000000 1.691010 
# 
# From -- ./inp_files/79991.got.cif
#   From: 2010.06.25/outbox.cif.g09.slc.cpg/sg10_40_cif.got.tgz:79991.got - 2010.06.27 22:07:45.
