data_PCOD8058131
_publ_section_title
;
Structure prediction by ZEFSAII (Michael W. Deem and Ramdas Pophale) SiO2 
 PCOD8058131
Probable space group: P 2/M
;
_chemical_formula_sum "Si O2"
_cell_formula_units_Z 32
_cell_length_a 21.584599
_cell_length_b 9.125911
_cell_length_c 28.113780
_cell_angle_alpha 90.000000
_cell_angle_beta 161.017014
_cell_angle_gamma 90.000000
_cell_volume 1801.385466
_symmetry_space_group_name_H-M "P 2/M"
_symmetry_group_IT_number 10
_symmetry_cell_setting 'monoclinic'
loop_
_space_group_symop_operation_xyz
x,y,z
-x,y,-z
-x,-y,-z
x,-y,z
loop_
_atom_site_type_symbol
_atom_site_label
_atom_site_fract_x
_atom_site_fract_y
_atom_site_fract_z
Si Si1 0.476261 0.828513 0.928975
Si Si2 0.424314 0.325234 0.339715
Si Si3 0.210655 0.328913 0.664318
Si Si4 0.195162 0.828712 0.904072
Si Si5 0.458498 0.668806 0.165048
Si Si6 0.695563 0.671466 0.848728
Si Si7 0.898081 0.674513 0.823366
Si Si8 0.164339 0.673805 0.329218
O O1 0.299315 0.749541 0.774770
O O2 0.430386 0.000000 0.894442
O O3 0.500000 0.770893 0.000000
O O4 0.673883 0.791373 0.046216
O O5 0.421183 0.500000 0.337344
O O6 0.378019 0.259183 0.253938
O O7 0.269074 0.264420 0.264212
O O8 0.631512 0.268868 0.505156
O O9 0.202779 0.500000 0.670625
O O10 0.335977 0.296166 0.708225
O O11 0.000000 0.267630 0.500000
O O12 0.993763 0.747642 0.751663
O O13 0.160326 0.000000 0.884297
O O14 0.296970 0.769631 0.025171
O O15 0.400226 0.500000 0.113234
O O16 0.459520 0.702221 0.222231
O O17 0.722485 0.500000 0.860202
O O18 0.900885 0.737907 0.011968
O O19 0.898751 0.500000 0.824320
O O20 0.862673 0.729772 0.744243
O O21 0.145061 0.500000 0.319565
#
# Coordination Sequence:
#
# PCOD8058131 Si02
#       8
#     4   4   4   4   4   4   4   4
#     4   9  19  36  55  74  97 128 168 209 244 285
#     4   9  17  26  40  69 101 124 153 198 242 281
#     4   9  18  32  50  76 107 133 158 195 244 298
#     4  10  19  32  52  73  94 124 163 200 236 281
#     4   9  16  30  51  71  96 127 160 195 235 282
#     4   9  15  25  43  68  95 122 154 195 239 276
#     4   9  15  25  44  67  94 125 158 196 238 280
#     4  10  18  30  47  71  98 125 157 195 240 284
#
# _framework density 17.764105000000001
#
# number of rings (size 3 to 8) (size 9 to 14) (size 15 to 20)
#    0.000    2.750    1.250    1.125    0.000    4.000 
#    2.250    0.000    0.000    2.250    0.000    0.875 
#    0.000    0.000    0.000    0.000    0.000    0.000 
#
# Total GULP energy -396737.428612 kJ/mol
# GULP energy per Si atom -12398.044644 kJ/mol
# Density = 1.772367 g / cm^3
# Si number density = 17.764105 Si / 1000 Ang^3
#
#
#
# Elastic Constant Matrix: (Units=GPa)
#
#
# Indices 1 2 3 4 5 6 
#
# 1 131.4252 28.6348 86.0759 0.0000 -5.2800 0.0000
# 2 28.6348 27.2909 30.0884 0.0000 1.1176 0.0000
# 3 86.0759 30.0884 163.9532 0.0000 0.3318 0.0000
# 4 0.0000 0.0000 0.0000 13.1800 0.0000 1.2474
# 5 -5.2800 1.1176 0.3318 0.0000 30.7206 0.0000
# 6 0.0000 0.0000 0.0000 1.2474 0.0000 16.1025
#
#
#
# Elastic Compliance Matrix: (Units=1/GPa)
#
#
# Indices 1 2 3 4 5 6 
#
# 1 0.012910 -0.007738 -0.005363 0.000000 0.002558 0.000000
# 2 -0.007738 0.050651 -0.005227 0.000000 -0.003116 0.000000
# 3 -0.005363 -0.005227 0.009876 0.000000 -0.000838 0.000000
# 4 0.000000 0.000000 0.000000 0.076433 0.000000 -0.005921
# 5 0.002558 -0.003116 -0.000838 0.000000 0.033114 0.000000
# 6 0.000000 0.000000 0.000000 -0.005921 0.000000 0.062561
#
#
# Mechanical properties :
#
#
# Convention : Reuss Voigt Hill
#
# Bulk Modulus (GPa) = 27.18726 68.02972 47.60849
# Shear Modulus (GPa) = 16.98025 23.85863 20.41944
#
# Velocity S-wave (km/s) = 3.09508 3.66878 3.39407
# Velocity P-wave (km/s) = 5.30193 7.50506 6.49755
#
# Compressibility (1/GPa) = 0.03678193
#
# Stress axis : x y z
#
# Youngs Moduli (GPa) = 77.45941 19.74291 101.25815
#
# Poissons Ratio (x) = 0.15277 0.54304
# Poissons Ratio (y) = 0.59937 0.52925
# Poissons Ratio (z) = 0.41541 0.10319
#
# Static dielectric constant tensor:
#      x y z
#    x 3.477380 0.000000 0.056090 
#    y 0.000000 2.860900 0.000000 
#    z 0.056090 0.000000 3.412880 
# 
# 
# High freq. dielectric constant tensor:
#      x y z
#    x 1.695840 0.000000 0.007900 
#    y 0.000000 1.638270 0.000000 
#    z 0.007900 0.000000 1.685980 
# 
# From -- ./inp_files/93785.got.cif
#   From: 2010.06.25/outbox.cif.g09.slc.cpg/sg10_47_cif.got.tgz:93785.got - 2010.06.27 22:07:45.
