data_PCOD8058219
_publ_section_title
;
Structure prediction by ZEFSAII (Michael W. Deem and Ramdas Pophale) SiO2 
 PCOD8058219
Probable space group: P 2/M
;
_chemical_formula_sum "Si O2"
_cell_formula_units_Z 32
_cell_length_a 27.003499
_cell_length_b 9.087558
_cell_length_c 18.959030
_cell_angle_alpha 90.000000
_cell_angle_beta 155.700756
_cell_angle_gamma 90.000000
_cell_volume 1914.501245
_symmetry_space_group_name_H-M "P 2/M"
_symmetry_group_IT_number 10
_symmetry_cell_setting 'monoclinic'
loop_
_space_group_symop_operation_xyz
x,y,z
-x,y,-z
-x,-y,-z
x,-y,z
loop_
_atom_site_type_symbol
_atom_site_label
_atom_site_fract_x
_atom_site_fract_y
_atom_site_fract_z
Si Si1 0.092120 0.169526 0.180658
Si Si2 0.963756 0.828101 0.614767
Si Si3 0.728887 0.673161 0.816564
Si Si4 0.595182 0.169791 0.764932
Si Si5 0.999030 0.325974 0.802867
Si Si6 0.676505 0.167231 0.606282
Si Si7 0.219782 0.829352 0.879028
Si Si8 0.130864 0.666171 0.635864
O O1 0.227881 0.196202 0.331191
O O2 0.073790 0.273273 0.223628
O O3 0.068962 0.000000 0.171819
O O4 0.000000 0.217786 0.000000
O O5 0.940805 0.750883 0.659505
O O6 0.099749 0.795878 0.767375
O O7 0.869967 0.759184 0.437269
O O8 0.936802 0.000000 0.586439
O O9 0.715628 0.500000 0.802962
O O10 0.632569 0.741625 0.744376
O O11 0.700016 0.723465 0.700561
O O12 0.862574 0.724422 0.010876
O O13 0.454581 0.196006 0.597005
O O14 0.626096 0.000000 0.790475
O O15 0.667825 0.224015 0.927978
O O16 0.986736 0.500000 0.779268
O O17 0.687914 0.000000 0.649451
O O18 0.223953 0.737981 0.811897
O O19 0.227637 0.000000 0.868834
O O20 0.171597 0.500000 0.672354
O O21 0.000000 0.670943 0.500000
#
# Coordination Sequence:
#
# PCOD8058219 Si02
#       8
#     4   4   4   4   4   4   4   4
#     4  10  20  35  54  72  92 125 169 213 252 293
#     4  10  18  30  49  71  97 129 165 201 238 289
#     4  11  22  33  48  71 101 132 165 204 248 296
#     4  10  20  34  51  72  99 132 168 205 243 290
#     4  11  22  33  49  73 100 131 165 205 251 295
#     4  10  21  36  53  71  94 128 171 212 249 290
#     4   9  17  29  46  69  97 130 164 195 235 288
#     4   9  17  28  44  68 100 132 159 193 238 288
#
# _framework density 16.714535999999999
#
# number of rings (size 3 to 8) (size 9 to 14) (size 15 to 20)
#    0.000    2.000    2.500    1.875    0.000    6.250 
#    0.000    0.000    0.000    0.000    0.000    0.875 
#    0.000    7.000    0.000    0.000    0.000    0.000 
#
# Total GULP energy -396915.998203 kJ/mol
# GULP energy per Si atom -12403.624944 kJ/mol
# Density = 1.667649 g / cm^3
# Si number density = 16.714536 Si / 1000 Ang^3
#
#
#
# Elastic Constant Matrix: (Units=GPa)
#
#
# Indices 1 2 3 4 5 6 
#
# 1 95.0618 49.0734 49.4004 0.0000 -13.3759 0.0000
# 2 49.0734 77.5214 40.8757 0.0000 -12.7174 0.0000
# 3 49.4004 40.8757 51.6797 0.0000 -9.4274 0.0000
# 4 0.0000 0.0000 0.0000 20.9654 0.0000 -4.9710
# 5 -13.3759 -12.7174 -9.4274 0.0000 32.1396 0.0000
# 6 0.0000 0.0000 0.0000 -4.9710 0.0000 22.6483
#
#
#
# Elastic Compliance Matrix: (Units=1/GPa)
#
#
# Indices 1 2 3 4 5 6 
#
# 1 0.022083 -0.004611 -0.017030 0.000000 0.002371 0.000000
# 2 -0.004611 0.023546 -0.013594 0.000000 0.003411 0.000000
# 3 -0.017030 -0.013594 0.046600 0.000000 0.001203 0.000000
# 4 0.000000 0.000000 0.000000 0.050316 0.000000 0.011044
# 5 0.002371 0.003411 0.001203 0.000000 0.033803 0.000000
# 6 0.000000 0.000000 0.000000 0.011044 0.000000 0.046577
#
#
# Mechanical properties :
#
#
# Convention : Reuss Voigt Hill
#
# Bulk Modulus (GPa) = 45.95572 55.88465 50.92018
# Shear Modulus (GPa) = 16.63081 20.81157 18.72119
#
# Velocity S-wave (km/s) = 3.15777 3.53245 3.35035
# Velocity P-wave (km/s) = 6.39136 7.08131 6.74516
#
# Compressibility (1/GPa) = 0.02176008
#
# Stress axis : x y z
#
# Youngs Moduli (GPa) = 45.28348 42.47079 21.45935
#
# Poissons Ratio (x) = 0.19583 0.36545
# Poissons Ratio (y) = 0.20879 0.29171
# Poissons Ratio (z) = 0.77117 0.57733
#
# Static dielectric constant tensor:
#      x y z
#    x 2.984190 0.000000 -0.141810 
#    y 0.000000 3.173670 0.000000 
#    z -0.141810 0.000000 3.140500 
# 
# 
# High freq. dielectric constant tensor:
#      x y z
#    x 1.625210 0.000000 -0.020700 
#    y 0.000000 1.651020 0.000000 
#    z -0.020700 0.000000 1.629000 
# 
# From -- ./inp_files/75997.got.cif
#   From: 2010.06.25/outbox.cif.g09.slc.cpg/sg10_38_cif.got.tgz:75997.got - 2010.06.27 22:07:45.
