data_PCOD8058784
_publ_section_title
;
Structure prediction by ZEFSAII (Michael W. Deem and Ramdas Pophale) SiO2 
 PCOD8058784
Probable space group: P 2/M
;
_chemical_formula_sum "Si O2"
_cell_formula_units_Z 28
_cell_length_a 28.316511
_cell_length_b 8.769507
_cell_length_c 9.615041
_cell_angle_alpha 90.000000
_cell_angle_beta 140.929417
_cell_angle_gamma 90.000000
_cell_volume 1504.865602
_symmetry_space_group_name_H-M "P 2/M"
_symmetry_group_IT_number 10
_symmetry_cell_setting 'monoclinic'
loop_
_space_group_symop_operation_xyz
x,y,z
-x,y,-z
-x,-y,-z
x,-y,z
loop_
_atom_site_type_symbol
_atom_site_label
_atom_site_fract_x
_atom_site_fract_y
_atom_site_fract_z
Si Si1 0.582956 0.179993 0.713072
Si Si2 0.252276 0.320008 0.407260
Si Si3 0.096220 0.180893 0.106446
Si Si4 0.191405 0.325643 0.787719
Si Si5 0.704973 0.178547 0.770402
Si Si6 0.053301 0.320820 0.297816
Si Si7 0.314074 0.675676 0.840846
O O1 0.500000 0.248097 0.500000
O O2 0.636202 0.235570 0.709055
O O3 0.580489 0.000000 0.711544
O O4 0.614928 0.235625 0.933924
O O5 0.237768 0.500000 0.378295
O O6 0.173388 0.233990 0.214523
O O7 0.301555 0.271540 0.387547
O O8 0.297292 0.265740 0.646924
O O9 0.090608 0.241115 0.250264
O O10 0.090604 0.000000 0.092324
O O11 0.028407 0.250729 0.859542
O O12 0.201137 0.500000 0.859017
O O13 0.105344 0.289855 0.551256
O O14 0.240109 0.292947 0.761797
O O15 0.217244 0.217439 0.972667
O O16 0.701542 0.000000 0.731084
O O17 0.047647 0.500000 0.253228
O O18 0.336304 0.500000 0.890561
#
# Coordination Sequence:
#
# PCOD8058784 Si02
#       7
#     4   4   4   4   4   4   4
#     4   9  19  37  59  83 111 141 172 209 260 320
#     4  11  21  37  55  76 108 145 180 220 269 324
#     4  11  21  31  48  77 109 140 179 228 274 314
#     4   9  17  33  54  76 102 138 182 223 264 315
#     4  10  21  35  54  81 109 139 175 219 267 317
#     4  10  18  32  52  75 105 142 184 226 270 319
#     4   9  18  33  55  81 104 135 181 222 257 307
#
# _framework density 18.606311999999999
#
# number of rings (size 3 to 8) (size 9 to 14) (size 15 to 20)
#    0.000    2.143    1.429    3.429    0.000    3.143 
#    0.000    1.429    0.000    8.571    0.000    0.000 
#    0.000    0.000    0.000    0.000    0.000    0.000 
#
# Total GULP energy -347234.246281 kJ/mol
# GULP energy per Si atom -12401.223081 kJ/mol
# Density = 1.856396 g / cm^3
# Si number density = 18.606312 Si / 1000 Ang^3
#
#
#
# Elastic Constant Matrix: (Units=GPa)
#
#
# Indices 1 2 3 4 5 6 
#
# 1 74.0957 21.5732 58.7918 0.0000 -4.4546 0.0000
# 2 21.5732 51.7670 38.2643 0.0000 4.9332 0.0000
# 3 58.7918 38.2643 134.8633 0.0000 6.1569 0.0000
# 4 0.0000 0.0000 0.0000 24.0871 0.0000 1.8863
# 5 -4.4546 4.9332 6.1569 0.0000 29.9429 0.0000
# 6 0.0000 0.0000 0.0000 1.8863 0.0000 23.8497
#
#
#
# Elastic Compliance Matrix: (Units=1/GPa)
#
#
# Indices 1 2 3 4 5 6 
#
# 1 0.021759 -0.003035 -0.008878 0.000000 0.005563 0.000000
# 2 -0.003035 0.025073 -0.005634 0.000000 -0.003424 0.000000
# 3 -0.008878 -0.005634 0.013024 0.000000 -0.003071 0.000000
# 4 0.000000 0.000000 0.000000 0.041775 0.000000 -0.003304
# 5 0.005563 -0.003424 -0.003071 0.000000 0.035420 0.000000
# 6 0.000000 0.000000 0.000000 -0.003304 0.000000 0.042191
#
#
# Mechanical properties :
#
#
# Convention : Reuss Voigt Hill
#
# Bulk Modulus (GPa) = 40.38744 55.33163 47.85953
# Shear Modulus (GPa) = 22.46277 25.04904 23.75591
#
# Velocity S-wave (km/s) = 3.47834 3.67313 3.57706
# Velocity P-wave (km/s) = 6.15510 6.91316 6.54512
#
# Compressibility (1/GPa) = 0.02476017
#
# Stress axis : x y z
#
# Youngs Moduli (GPa) = 45.95874 39.88307 76.78118
#
# Poissons Ratio (x) = 0.12106 0.68167
# Poissons Ratio (y) = 0.13950 0.43262
# Poissons Ratio (z) = 0.40803 0.22472
#
# Static dielectric constant tensor:
#      x y z
#    x 3.264330 0.000000 0.081530 
#    y 0.000000 3.363210 0.000000 
#    z 0.081530 0.000000 3.598930 
# 
# 
# High freq. dielectric constant tensor:
#      x y z
#    x 1.694450 0.000000 -0.000510 
#    y 0.000000 1.724090 0.000000 
#    z -0.000510 0.000000 1.725740 
# 
# From -- ./inp_files/37262.got.cif
#   From: 2010.06.25/outbox.cif.g09.slc.cpg/sg10_19_cif.got.tgz:37262.got - 2010.06.27 22:07:45.
