data_PCOD8058846
_publ_section_title
;
Structure prediction by ZEFSAII (Michael W. Deem and Ramdas Pophale) SiO2 
 PCOD8058846
Probable space group: P 2/M
;
_chemical_formula_sum "Si O2"
_cell_formula_units_Z 30
_cell_length_a 12.155061
_cell_length_b 8.826630
_cell_length_c 29.826137
_cell_angle_alpha 90.000000
_cell_angle_beta 150.490464
_cell_angle_gamma 90.000000
_cell_volume 1576.215628
_symmetry_space_group_name_H-M "P 2/M"
_symmetry_group_IT_number 10
_symmetry_cell_setting 'monoclinic'
loop_
_space_group_symop_operation_xyz
x,y,z
-x,y,-z
-x,-y,-z
x,-y,z
loop_
_atom_site_type_symbol
_atom_site_label
_atom_site_fract_x
_atom_site_fract_y
_atom_site_fract_z
Si Si1 0.000000 0.260111 0.000000
Si Si2 0.283271 0.179417 0.738628
Si Si3 0.181196 0.319291 0.408268
Si Si4 0.297614 0.823467 0.959078
Si Si5 0.661961 0.170063 0.808457
Si Si6 0.807148 0.178189 0.765507
Si Si7 0.400944 0.334674 0.085801
Si Si8 0.388770 0.818207 0.397204
O O1 0.879585 0.163466 0.918022
O O2 0.804914 0.358764 0.952974
O O3 0.443252 0.240719 0.755131
O O4 0.409592 0.219483 0.829684
O O5 0.053411 0.270186 0.653759
O O6 0.240072 0.000000 0.721800
O O7 0.201722 0.500000 0.413060
O O8 0.369875 0.251709 0.507600
O O9 0.208939 0.247483 0.368678
O O10 0.068450 0.784035 0.852207
O O11 0.314380 0.000000 0.977236
O O12 0.500000 0.769933 0.000000
O O13 0.299987 0.728359 0.004751
O O14 0.713807 0.252266 0.779043
O O15 0.595337 0.000000 0.773745
O O16 0.678554 0.239361 0.676240
O O17 0.774303 0.000000 0.757002
O O18 0.510215 0.500000 0.117301
O O19 0.393625 0.000000 0.403043
#
# Coordination Sequence:
#
# PCOD8058846 Si02
#       8
#     2   4   4   4   4   4   4   4
#     4  10  18  32  54  74 113 154 191 226 273 328
#     4  10  21  36  58  83 109 143 188 235 280 332
#     4  11  22  39  60  84 115 145 181 233 285 339
#     4  10  21  36  55  80 112 151 191 231 275 326
#     4   9  17  31  55  85 109 141 189 237 278 322
#     4   9  18  34  56  84 115 144 186 236 278 324
#     4  11  22  35  52  80 114 151 188 230 278 329
#     4  10  20  36  62  88 113 147 187 230 277 337
#
# _framework density 19.03293
#
# number of rings (size 3 to 8) (size 9 to 14) (size 15 to 20)
#    0.000    2.000    1.333    3.600    1.867    1.333 
#    0.000    2.000    0.000    4.000    0.000    0.000 
#    0.000    0.000    0.000    0.000    0.000    0.000 
#
# Total GULP energy -371826.461073 kJ/mol
# GULP energy per Si atom -12394.215369 kJ/mol
# Density = 1.898961 g / cm^3
# Si number density = 19.032930 Si / 1000 Ang^3
#
#
#
# Elastic Constant Matrix: (Units=GPa)
#
#
# Indices 1 2 3 4 5 6 
#
# 1 124.3235 32.4267 86.5946 0.0000 -6.1839 0.0000
# 2 32.4267 82.7944 33.9868 0.0000 0.2383 0.0000
# 3 86.5946 33.9868 123.0659 0.0000 -3.2806 0.0000
# 4 0.0000 0.0000 0.0000 -20.4950 0.0000 18.2639
# 5 -6.1839 0.2383 -3.2806 0.0000 40.0859 0.0000
# 6 0.0000 0.0000 0.0000 18.2639 0.0000 7.1766
#
#
#
# Elastic Compliance Matrix: (Units=1/GPa)
#
#
# Indices 1 2 3 4 5 6 
#
# 1 0.016128 -0.001895 -0.010782 0.000000 0.001617 0.000000
# 2 -0.001895 0.013851 -0.002507 0.000000 -0.000580 0.000000
# 3 -0.010782 -0.002507 0.016397 0.000000 -0.000307 0.000000
# 4 0.000000 0.000000 0.000000 -0.014931 0.000000 0.037998
# 5 0.001617 -0.000580 -0.000307 0.000000 0.025174 0.000000
# 6 0.000000 0.000000 0.000000 0.037998 0.000000 0.042640
#
#
# Mechanical properties :
#
#
# Convention : Reuss Voigt Hill
#
# Bulk Modulus (GPa) = 62.47168 70.68890 66.58029
# Shear Modulus (GPa) = 37.04701 17.16522 27.10611
#
# Velocity S-wave (km/s) = 4.41667 3.00637 3.77791
# Velocity P-wave (km/s) = 7.67486 7.01940 7.35444
#
# Compressibility (1/GPa) = 0.01600725
#
# Stress axis : x y z
#
# Youngs Moduli (GPa) = 62.00286 72.19561 60.98815
#
# Poissons Ratio (x) = 0.13684 0.65758
# Poissons Ratio (y) = 0.11752 0.15290
# Poissons Ratio (z) = 0.66852 0.18100
#
# Static dielectric constant tensor:
#      x y z
#    x 3.826300 0.000000 -0.033350 
#    y 0.000000 3.217000 0.000000 
#    z -0.033350 0.000000 3.494840 
# 
# 
# High freq. dielectric constant tensor:
#      x y z
#    x 1.744670 0.000000 0.005170 
#    y 0.000000 1.718820 0.000000 
#    z 0.005170 0.000000 1.734890 
# 
# From -- ./inp_files/94896.got.cif
#   From: 2010.06.25/outbox.cif.g09.slc.cpg/sg10_48_cif.got.tgz:94896.got - 2010.06.27 22:07:45.
