data_PCOD8058235
_publ_section_title
;
Structure prediction by ZEFSAII (Michael W. Deem and Ramdas Pophale) SiO2 
 PCOD8058235
Probable space group: P 2/M
;
_chemical_formula_sum "Si O2"
_cell_formula_units_Z 24
_cell_length_a 12.283222
_cell_length_b 9.114173
_cell_length_c 18.481464
_cell_angle_alpha 90.000000
_cell_angle_beta 43.325947
_cell_angle_gamma 90.000000
_cell_volume 1419.657739
_symmetry_space_group_name_H-M "P 2/M"
_symmetry_group_IT_number 10
_symmetry_cell_setting 'monoclinic'
loop_
_space_group_symop_operation_xyz
x,y,z
-x,y,-z
-x,-y,-z
x,-y,z
loop_
_atom_site_type_symbol
_atom_site_label
_atom_site_fract_x
_atom_site_fract_y
_atom_site_fract_z
Si Si1 0.752152 0.673513 0.628868
Si Si2 0.155289 0.670369 0.040807
Si Si3 0.858429 0.165788 0.160983
Si Si4 0.396947 0.670892 0.803087
Si Si5 0.986266 0.165315 0.770724
Si Si6 0.981585 0.673567 0.392554
O O1 0.747314 0.500000 0.634994
O O2 0.574378 0.737249 0.719752
O O3 0.833435 0.721347 0.514316
O O4 0.856573 0.727643 0.646588
O O5 0.116331 0.500000 0.070194
O O6 0.158865 0.748501 0.118320
O O7 0.016091 0.744788 0.059007
O O8 0.320463 0.695194 0.919287
O O9 0.698658 0.243692 0.212372
O O10 0.862819 0.165505 0.247152
O O11 0.865277 0.000000 0.127193
O O12 0.396380 0.500000 0.782263
O O13 0.038601 0.245542 0.673117
O O14 0.930369 0.000000 0.780513
O O15 0.983067 0.500000 0.378683
#
# Coordination Sequence:
#
# PCOD8058235 Si02
#       6
#     4   4   4   4   4   4
#     4   8  17  32  52  77  96 119 157 204 244 276
#     4   9  17  29  48  73  96 128 162 192 235 282
#     4   9  19  31  46  70 101 133 158 190 236 283
#     4  10  18  30  49  74 102 124 157 200 235 282
#     4   9  19  32  48  70  98 129 161 198 235 280
#     4   9  16  33  57  72  91 124 163 199 238 286
#
# _framework density 16.905483
#
# number of rings (size 3 to 8) (size 9 to 14) (size 15 to 20)
#    1.000    2.000    0.000    2.500    0.000    3.333 
#    0.000    5.000    0.000   10.000    0.000    0.000 
#    0.000    0.000    0.000    0.000    0.000    0.000 
#
# Total GULP energy -297358.038187 kJ/mol
# GULP energy per Si atom -12389.918258 kJ/mol
# Density = 1.686701 g / cm^3
# Si number density = 16.905483 Si / 1000 Ang^3
#
#
#
# Elastic Constant Matrix: (Units=GPa)
#
#
# Indices 1 2 3 4 5 6 
#
# 1 48.6565 25.9941 51.3722 0.0000 -13.1183 0.0000
# 2 25.9941 84.3119 42.6087 0.0000 0.7277 0.0000
# 3 51.3722 42.6087 101.9036 0.0000 -6.6927 0.0000
# 4 0.0000 0.0000 0.0000 7.8645 0.0000 8.3813
# 5 -13.1183 0.7277 -6.6927 0.0000 34.0600 0.0000
# 6 0.0000 0.0000 0.0000 8.3813 0.0000 15.8364
#
#
#
# Elastic Compliance Matrix: (Units=1/GPa)
#
#
# Indices 1 2 3 4 5 6 
#
# 1 0.051359 -0.004300 -0.023086 0.000000 0.015337 0.000000
# 2 -0.004300 0.015483 -0.004495 0.000000 -0.002870 0.000000
# 3 -0.023086 -0.004495 0.023051 0.000000 -0.004266 0.000000
# 4 0.000000 0.000000 0.000000 0.291642 0.000000 -0.154349
# 5 0.015337 -0.002870 -0.004266 0.000000 0.034490 0.000000
# 6 0.000000 0.000000 0.000000 -0.154349 0.000000 0.144833
#
#
# Mechanical properties :
#
#
# Convention : Reuss Voigt Hill
#
# Bulk Modulus (GPa) = 38.26859 52.75801 45.51330
# Shear Modulus (GPa) = 7.89479 19.21199 13.55339
#
# Velocity S-wave (km/s) = 2.16335 3.37476 2.83453
# Velocity P-wave (km/s) = 5.37830 6.81621 6.13950
#
# Compressibility (1/GPa) = 0.02613109
#
# Stress axis : x y z
#
# Youngs Moduli (GPa) = 19.47075 64.58876 43.38254
#
# Poissons Ratio (x) = 0.27771 1.00155
# Poissons Ratio (y) = 0.08372 0.19499
# Poissons Ratio (z) = 0.44951 0.29030
#
# Static dielectric constant tensor:
#      x y z
#    x 3.104950 0.000000 -0.103700 
#    y 0.000000 3.059280 0.000000 
#    z -0.103700 0.000000 3.141390 
# 
# 
# High freq. dielectric constant tensor:
#      x y z
#    x 1.631530 0.000000 0.010050 
#    y 0.000000 1.645060 0.000000 
#    z 0.010050 0.000000 1.641460 
# 
# From -- ./inp_files/75892.got.cif
#   From: 2010.06.25/outbox.cif.g09.slc.cpg/sg10_38_cif.got.tgz:75892.got - 2010.06.27 22:07:45.
