data_PCOD8058142
_publ_section_title
;
Structure prediction by ZEFSAII (Michael W. Deem and Ramdas Pophale) SiO2 
 PCOD8058142
Probable space group: P 2/M
;
_chemical_formula_sum "Si O2"
_cell_formula_units_Z 24
_cell_length_a 25.374479
_cell_length_b 12.650233
_cell_length_c 8.801075
_cell_angle_alpha 90.000000
_cell_angle_beta 29.874267
_cell_angle_gamma 90.000000
_cell_volume 1407.169711
_symmetry_space_group_name_H-M "P 2/M"
_symmetry_group_IT_number 10
_symmetry_cell_setting 'monoclinic'
loop_
_space_group_symop_operation_xyz
x,y,z
-x,y,-z
-x,-y,-z
x,-y,z
loop_
_atom_site_type_symbol
_atom_site_label
_atom_site_fract_x
_atom_site_fract_y
_atom_site_fract_z
Si Si1 0.116768 0.000000 0.776612
Si Si2 0.287630 0.619336 0.852694
Si Si3 0.287630 0.380664 0.209159
Si Si4 0.500000 0.625591 0.171108
Si Si5 0.885148 0.211806 0.717257
Si Si6 0.116769 0.000000 0.139545
Si Si7 0.114852 0.211805 0.642996
O O1 0.169698 0.892884 0.579359
O O2 0.116929 0.000000 0.957678
O O3 0.000000 0.000000 0.000000
O O4 0.266442 0.500000 0.846487
O O5 0.393934 0.668981 0.515360
O O6 0.304962 0.620202 0.987596
O O7 0.187692 0.689560 0.054772
O O8 0.266441 0.500000 0.321305
O O9 0.187691 0.310440 0.506771
O O10 0.393933 0.331020 0.014973
O O11 0.500001 0.500000 0.184033
O O12 0.500000 0.666728 0.000000
O O13 0.895256 0.196887 0.511860
O O14 0.000000 0.234023 0.500000
O O15 0.830302 0.107116 0.927850
O O16 0.000000 0.000000 0.500000
O O17 0.000000 0.234022 0.000000
#
# Coordination Sequence:
#
# PCOD8058142 Si02
#       7
#     2   4   4   4   4   2   4
#     4  10  18  30  48  67  90 121 158 196 232 272
#     4   9  18  32  49  69  95 127 158 188 228 279
#     4   9  18  32  49  69  95 127 158 188 228 279
#     4   9  17  29  47  70  93 120 157 197 231 267
#     4  10  19  31  48  70  96 125 157 192 231 275
#     4  10  18  30  48  67  90 121 158 196 232 272
#     4  10  19  31  48  70  96 125 157 192 231 275
#
# _framework density 17.055512
#
# number of rings (size 3 to 8) (size 9 to 14) (size 15 to 20)
#    0.000    2.500    0.000    5.000    0.000    5.333 
#    0.000    0.000    0.000    1.000    0.000    7.000 
#    0.000    0.000    0.000    0.000    0.000    0.000 
#
# Total GULP energy -297506.655479 kJ/mol
# GULP energy per Si atom -12396.110645 kJ/mol
# Density = 1.701669 g / cm^3
# Si number density = 17.055512 Si / 1000 Ang^3
#
#
#
# Elastic Constant Matrix: (Units=GPa)
#
#
# Indices 1 2 3 4 5 6 
#
# 1 94.9165 54.6182 47.0280 0.0000 -7.6245 0.0000
# 2 54.6182 106.8049 62.3422 0.0000 -7.8581 0.0000
# 3 47.0280 62.3422 107.0450 0.0000 -4.7134 0.0000
# 4 0.0000 0.0000 0.0000 8.4310 0.0000 9.2060
# 5 -7.6245 -7.8581 -4.7134 0.0000 24.7318 0.0000
# 6 0.0000 0.0000 0.0000 9.2060 0.0000 17.4803
#
#
#
# Elastic Compliance Matrix: (Units=1/GPa)
#
#
# Indices 1 2 3 4 5 6 
#
# 1 0.015821 -0.005941 -0.003387 0.000000 0.002344 0.000000
# 2 -0.005941 0.016633 -0.006984 0.000000 0.002123 0.000000
# 3 -0.003387 -0.006984 0.014879 0.000000 -0.000428 0.000000
# 4 0.000000 0.000000 0.000000 0.279122 0.000000 -0.147000
# 5 0.002344 0.002123 -0.000428 0.000000 0.041749 0.000000
# 6 0.000000 0.000000 0.000000 -0.147000 0.000000 0.134625
#
#
# Mechanical properties :
#
#
# Convention : Reuss Voigt Hill
#
# Bulk Modulus (GPa) = 67.98657 70.74924 69.36791
# Shear Modulus (GPa) = 9.25315 19.78050 14.51682
#
# Velocity S-wave (km/s) = 2.33176 3.40924 2.92062
# Velocity P-wave (km/s) = 6.87007 7.55440 7.22035
#
# Compressibility (1/GPa) = 0.01470879
#
# Stress axis : x y z
#
# Youngs Moduli (GPa) = 63.20810 60.11975 67.21074
#
# Poissons Ratio (x) = 0.35715 0.22767
# Poissons Ratio (y) = 0.37550 0.46939
# Poissons Ratio (z) = 0.21412 0.41987
#
# Static dielectric constant tensor:
#      x y z
#    x 3.203520 0.000000 0.068890 
#    y 0.000000 3.755290 0.000000 
#    z 0.068890 0.000000 3.135790 
# 
# 
# High freq. dielectric constant tensor:
#      x y z
#    x 1.660460 0.000000 0.014160 
#    y 0.000000 1.646900 0.000000 
#    z 0.014160 0.000000 1.646550 
# 
# From -- ./inp_files/37488.got.cif
#   From: 2010.06.25/outbox.cif.g09.slc.cpg/sg10_19_cif.got.tgz:37488.got - 2010.06.27 22:07:45.
