data_PCOD8058116
_publ_section_title
;
Structure prediction by ZEFSAII (Michael W. Deem and Ramdas Pophale) SiO2 
 PCOD8058116
Probable space group: P 2/M
;
_chemical_formula_sum "Si O2"
_cell_formula_units_Z 24
_cell_length_a 11.863946
_cell_length_b 9.195304
_cell_length_c 19.487711
_cell_angle_alpha 90.000000
_cell_angle_beta 139.371119
_cell_angle_gamma 90.000000
_cell_volume 1384.336607
_symmetry_space_group_name_H-M "P 2/M"
_symmetry_group_IT_number 10
_symmetry_cell_setting 'monoclinic'
loop_
_space_group_symop_operation_xyz
x,y,z
-x,y,-z
-x,-y,-z
x,-y,z
loop_
_atom_site_type_symbol
_atom_site_label
_atom_site_fract_x
_atom_site_fract_y
_atom_site_fract_z
Si Si1 0.063441 0.662440 0.437476
Si Si2 0.621787 0.672687 0.619192
Si Si3 0.594168 0.167569 0.374575
Si Si4 0.734885 0.833582 0.299026
Si Si5 0.327910 0.170611 0.884492
Si Si6 0.997385 0.660919 0.750472
O O1 0.100600 0.500000 0.483836
O O2 0.226241 0.766681 0.517197
O O3 0.896139 0.732731 0.397897
O O4 0.016555 0.651709 0.336881
O O5 0.500000 0.724919 0.500000
O O6 0.608486 0.500000 0.620516
O O7 0.562626 0.746218 0.662829
O O8 0.818496 0.724912 0.698049
O O9 0.584920 0.183818 0.287251
O O10 0.585236 0.000000 0.392972
O O11 0.660770 0.787194 0.190800
O O12 0.801734 0.000000 0.327065
O O13 0.160578 0.238659 0.844863
O O14 0.313352 0.000000 0.888813
O O15 0.500000 0.232979 0.000000
O O16 0.029948 0.500000 0.795888
#
# Coordination Sequence:
#
# PCOD8058116 Si02
#       6
#     4   4   4   4   4   4
#     4  10  18  30  47  68  96 131 167 197 234 286
#     4  10  19  34  50  67  98 135 169 201 232 275
#     4  11  21  30  44  68 100 134 163 195 237 285
#     4   9  19  33  46  68 100 126 156 202 249 288
#     4   9  18  34  56  76  94 121 158 203 251 294
#     4   9  18  32  50  72  98 127 159 201 244 279
#
# _framework density 17.336824
#
# number of rings (size 3 to 8) (size 9 to 14) (size 15 to 20)
#    0.000    2.333    1.667    1.500    0.000    5.333 
#    0.000    0.000    0.000    1.000    0.000    7.000 
#    0.000    0.000    0.000    0.000    0.000    0.000 
#
# Total GULP energy -297537.144876 kJ/mol
# GULP energy per Si atom -12397.381036 kJ/mol
# Density = 1.729736 g / cm^3
# Si number density = 17.336824 Si / 1000 Ang^3
#
#
#
# Elastic Constant Matrix: (Units=GPa)
#
#
# Indices 1 2 3 4 5 6 
#
# 1 126.0402 43.6691 44.3528 0.0000 24.7075 0.0000
# 2 43.6691 55.3177 34.2115 0.0000 8.2389 0.0000
# 3 44.3528 34.2115 88.5010 0.0000 20.5420 0.0000
# 4 0.0000 0.0000 0.0000 19.3233 0.0000 5.6777
# 5 24.7075 8.2389 20.5420 0.0000 22.3765 0.0000
# 6 0.0000 0.0000 0.0000 5.6777 0.0000 29.1422
#
#
#
# Elastic Compliance Matrix: (Units=1/GPa)
#
#
# Indices 1 2 3 4 5 6 
#
# 1 0.013226 -0.008259 -0.000956 0.000000 -0.010686 0.000000
# 2 -0.008259 0.028917 -0.008495 0.000000 0.006270 0.000000
# 3 -0.000956 -0.008495 0.017907 0.000000 -0.012256 0.000000
# 4 0.000000 0.000000 0.000000 0.054893 0.000000 -0.010695
# 5 -0.010686 0.006270 -0.012256 0.000000 0.065431 0.000000
# 6 0.000000 0.000000 0.000000 -0.010695 0.000000 0.036398
#
#
# Mechanical properties :
#
#
# Convention : Reuss Voigt Hill
#
# Bulk Modulus (GPa) = 40.59797 57.14729 48.87263
# Shear Modulus (GPa) = 19.20114 24.01011 21.60562
#
# Velocity S-wave (km/s) = 3.33158 3.72549 3.53402
# Velocity P-wave (km/s) = 6.18605 7.17915 6.70102
#
# Compressibility (1/GPa) = 0.02463177
#
# Stress axis : x y z
#
# Youngs Moduli (GPa) = 75.60632 34.58208 55.84505
#
# Poissons Ratio (x) = 0.28560 0.05337
# Poissons Ratio (y) = 0.62441 0.47439
# Poissons Ratio (z) = 0.07225 0.29377
#
# Static dielectric constant tensor:
#      x y z
#    x 3.407270 0.000000 0.027820 
#    y 0.000000 3.416830 0.000000 
#    z 0.027820 0.000000 3.036650 
# 
# 
# High freq. dielectric constant tensor:
#      x y z
#    x 1.674500 0.000000 0.002360 
#    y 0.000000 1.673100 0.000000 
#    z 0.002360 0.000000 1.630310 
# 
# From -- ./inp_files/45185.got.cif
#   From: 2010.06.25/outbox.cif.g09.slc.cpg/sg10_23_cif.got.tgz:45185.got - 2010.06.27 22:07:45.
