data_PCOD8058847
_publ_section_title
;
Structure prediction by ZEFSAII (Michael W. Deem and Ramdas Pophale) SiO2 
 PCOD8058847
Probable space group: P 2/M
;
_chemical_formula_sum "Si O2"
_cell_formula_units_Z 30
_cell_length_a 10.792010
_cell_length_b 10.311036
_cell_length_c 15.911676
_cell_angle_alpha 90.000000
_cell_angle_beta 114.626295
_cell_angle_gamma 90.000000
_cell_volume 1609.555425
_symmetry_space_group_name_H-M "P 2/M"
_symmetry_group_IT_number 10
_symmetry_cell_setting 'monoclinic'
loop_
_space_group_symop_operation_xyz
x,y,z
-x,y,-z
-x,-y,-z
x,-y,z
loop_
_atom_site_type_symbol
_atom_site_label
_atom_site_fract_x
_atom_site_fract_y
_atom_site_fract_z
Si Si1 0.224104 0.845803 0.722437
Si Si2 0.418697 0.144970 0.630402
Si Si3 0.009051 0.648615 0.599192
Si Si4 0.271478 0.144614 0.234983
Si Si5 0.500000 0.297673 0.500000
Si Si6 0.770899 0.638259 0.652024
Si Si7 0.149552 0.848670 0.024562
Si Si8 0.651774 0.847322 0.062004
O O1 0.318064 0.798308 0.671923
O O2 0.303690 0.814108 0.830825
O O3 0.093997 0.752269 0.678210
O O4 0.186605 0.000000 0.707796
O O5 0.568226 0.153607 0.710752
O O6 0.408388 0.214399 0.538183
O O7 0.373857 0.000000 0.598355
O O8 0.066165 0.500000 0.622880
O O9 0.856586 0.657728 0.591693
O O10 0.000000 0.692564 0.500000
O O11 0.196846 0.245290 0.275264
O O12 0.217489 0.000000 0.242056
O O13 0.241518 0.179875 0.131095
O O14 0.389082 0.377533 0.416531
O O15 0.810725 0.500000 0.705807
O O16 0.232705 0.788403 0.968766
O O17 0.127579 0.000000 0.000713
O O18 0.000000 0.785417 0.000000
O O19 0.644895 0.000000 0.044347
O O20 0.500000 0.789483 0.000000
#
# Coordination Sequence:
#
# PCOD8058847 Si02
#       8
#     4   4   4   4   2   4   4   4
#     4  10  20  33  55  82 108 137 180 225 262 310
#     4   9  17  30  48  76 107 134 166 212 263 306
#     4  10  22  39  54  72 104 144 179 215 267 321
#     4   9  18  32  52  75 103 135 165 206 259 311
#     4  10  18  32  54  74  99 136 177 210 257 318
#     4  10  21  35  53  75 102 132 171 218 261 309
#     4   9  17  28  46  73 103 132 168 210 252 306
#     4   9  17  30  50  77 109 142 174 216 270 320
#
# _framework density 18.638687000000001
#
# number of rings (size 3 to 8) (size 9 to 14) (size 15 to 20)
#    0.000    2.533    0.000    2.000    1.867    4.533 
#    0.000    2.667    0.000    1.600    0.000    0.000 
#    0.000    0.000    0.000    0.000    0.000    0.000 
#
# Total GULP energy -371766.259713 kJ/mol
# GULP energy per Si atom -12392.208657 kJ/mol
# Density = 1.859626 g / cm^3
# Si number density = 18.638687 Si / 1000 Ang^3
#
#
#
# Elastic Constant Matrix: (Units=GPa)
#
#
# Indices 1 2 3 4 5 6 
#
# 1 99.8464 29.4808 33.4352 0.0000 -19.5564 0.0000
# 2 29.4808 67.8741 40.5513 0.0000 -5.0017 0.0000
# 3 33.4352 40.5513 86.1347 0.0000 -8.8635 0.0000
# 4 0.0000 0.0000 0.0000 12.5094 0.0000 -2.1461
# 5 -19.5564 -5.0017 -8.8635 0.0000 33.5768 0.0000
# 6 0.0000 0.0000 0.0000 -2.1461 0.0000 15.9755
#
#
#
# Elastic Compliance Matrix: (Units=1/GPa)
#
#
# Indices 1 2 3 4 5 6 
#
# 1 0.013285 -0.003632 -0.002782 0.000000 0.006462 0.000000
# 2 -0.003632 0.021501 -0.008841 0.000000 -0.001246 0.000000
# 3 -0.002782 -0.008841 0.017012 0.000000 0.001553 0.000000
# 4 0.000000 0.000000 0.000000 0.081826 0.000000 0.010992
# 5 0.006462 -0.001246 0.001553 0.000000 0.033771 0.000000
# 6 0.000000 0.000000 0.000000 0.010992 0.000000 0.064072
#
#
# Mechanical properties :
#
#
# Convention : Reuss Voigt Hill
#
# Bulk Modulus (GPa) = 46.97494 51.19886 49.08690
# Shear Modulus (GPa) = 18.58240 22.43820 20.51030
#
# Velocity S-wave (km/s) = 3.16092 3.47342 3.32085
# Velocity P-wave (km/s) = 6.21124 6.60416 6.41071
#
# Compressibility (1/GPa) = 0.02128794
#
# Stress axis : x y z
#
# Youngs Moduli (GPa) = 75.27213 46.51000 58.78338
#
# Poissons Ratio (x) = 0.16892 0.16354
# Poissons Ratio (y) = 0.27339 0.51969
# Poissons Ratio (z) = 0.20941 0.41118
#
# Static dielectric constant tensor:
#      x y z
#    x 3.560850 0.000000 -0.128200 
#    y 0.000000 3.224730 0.000000 
#    z -0.128200 0.000000 3.356330 
# 
# 
# High freq. dielectric constant tensor:
#      x y z
#    x 1.732870 0.000000 -0.007960 
#    y 0.000000 1.683820 0.000000 
#    z -0.007960 0.000000 1.722230 
# 
# From -- ./inp_files/63873.got.cif
#   From: 2010.06.25/outbox.cif.g09.slc.cpg/sg10_32_cif.got.tgz:63873.got - 2010.06.27 22:07:45.
