data_PCOD8058416
_publ_section_title
;
Structure prediction by ZEFSAII (Michael W. Deem and Ramdas Pophale) SiO2 
 PCOD8058416
Probable space group: P 2/M
;
_chemical_formula_sum "Si O2"
_cell_formula_units_Z 32
_cell_length_a 11.659138
_cell_length_b 14.683538
_cell_length_c 17.546322
_cell_angle_alpha 90.000000
_cell_angle_beta 30.694098
_cell_angle_gamma 90.000000
_cell_volume 1533.345955
_symmetry_space_group_name_H-M "P 2/M"
_symmetry_group_IT_number 10
_symmetry_cell_setting 'monoclinic'
loop_
_space_group_symop_operation_xyz
x,y,z
-x,y,-z
-x,-y,-z
x,-y,z
loop_
_atom_site_type_symbol
_atom_site_label
_atom_site_fract_x
_atom_site_fract_y
_atom_site_fract_z
Si Si1 0.303040 0.323307 0.399537
Si Si2 0.226159 0.101073 0.829764
Si Si3 0.866490 0.702452 0.736176
Si Si4 0.660015 0.129265 0.668705
Si Si5 0.482871 0.600242 0.154838
Si Si6 0.972357 0.606397 0.832743
Si Si7 0.376162 0.728061 0.650248
Si Si8 0.086942 0.097631 0.326593
O O1 0.350171 0.237502 0.318024
O O2 0.378228 0.403650 0.300088
O O3 0.448024 0.318824 0.393391
O O4 0.040983 0.327090 0.570267
O O5 0.417543 0.091549 0.784811
O O6 0.293591 0.173405 0.726442
O O7 0.190555 0.000000 0.813783
O O8 0.000000 0.135103 0.000000
O O9 0.624762 0.670948 0.843741
O O10 0.936215 0.650544 0.771474
O O11 0.867295 0.812388 0.750678
O O12 0.734117 0.090649 0.707266
O O13 0.834844 0.102768 0.502582
O O14 0.447781 0.500000 0.139334
O O15 0.747916 0.621365 0.010526
O O16 0.035165 0.500000 0.787832
O O17 0.171765 0.657959 0.761522
O O18 0.500000 0.744497 0.500000
O O19 0.109235 0.000000 0.268835
#
# Coordination Sequence:
#
# PCOD8058416 Si02
#       8
#     4   4   4   4   4   4   4   4
#     4  10  21  38  63  95 122 156 205 261 309 360
#     4  10  22  38  63  96 128 165 207 252 307 367
#     4  11  21  40  63  93 129 162 202 253 311 375
#     4   9  17  33  54  88 127 160 192 246 301 356
#     4  11  24  41  64  93 121 158 207 258 321 380
#     4  11  26  45  64  87 122 170 210 252 317 386
#     4  11  24  44  64  90 124 168 214 256 313 369
#     4  10  18  30  58  92 122 159 201 246 298 357
#
# _framework density 20.869392000000001
#
# number of rings (size 3 to 8) (size 9 to 14) (size 15 to 20)
#    0.000    1.625    2.500    2.625    3.500    3.500 
#    0.000    1.875    0.000    1.500    0.000    0.000 
#    0.000    0.000    0.000    0.000    0.000    0.000 
#
# Total GULP energy -396702.872089 kJ/mol
# GULP energy per Si atom -12396.964753 kJ/mol
# Density = 2.082189 g / cm^3
# Si number density = 20.869392 Si / 1000 Ang^3
#
#
#
# Elastic Constant Matrix: (Units=GPa)
#
#
# Indices 1 2 3 4 5 6 
#
# 1 59.1216 30.5536 20.3604 0.0000 -19.9155 0.0000
# 2 30.5536 126.5799 43.2024 0.0000 -12.0278 0.0000
# 3 20.3604 43.2024 75.9401 0.0000 -21.7521 0.0000
# 4 0.0000 0.0000 0.0000 46.6284 0.0000 -51.8836
# 5 -19.9155 -12.0278 -21.7521 0.0000 30.9955 0.0000
# 6 0.0000 0.0000 0.0000 -51.8836 0.0000 132.6608
#
#
#
# Elastic Compliance Matrix: (Units=1/GPa)
#
#
# Indices 1 2 3 4 5 6 
#
# 1 0.023780 -0.004469 0.000058 0.000000 0.013586 0.000000
# 2 -0.004469 0.010644 -0.005628 0.000000 -0.002691 0.000000
# 3 0.000058 -0.005628 0.019699 0.000000 0.011678 0.000000
# 4 0.000000 0.000000 0.000000 0.037970 0.000000 0.014850
# 5 0.013586 -0.002691 0.011678 0.000000 0.048144 0.000000
# 6 0.000000 0.000000 0.000000 0.014850 0.000000 0.013346
#
#
# Mechanical properties :
#
#
# Convention : Reuss Voigt Hill
#
# Bulk Modulus (GPa) = 29.37150 49.98603 39.67877
# Shear Modulus (GPa) = 27.02568 53.22530 40.12549
#
# Velocity S-wave (km/s) = 3.60250 5.05563 4.38961
# Velocity P-wave (km/s) = 5.60433 7.62122 6.68923
#
# Compressibility (1/GPa) = 0.03404661
#
# Stress axis : x y z
#
# Youngs Moduli (GPa) = 42.05156 93.94952 50.76277
#
# Poissons Ratio (x) = 0.41985 -0.00296
# Poissons Ratio (y) = 0.18793 0.28569
# Poissons Ratio (z) = -0.00245 0.52874
#
# Static dielectric constant tensor:
#      x y z
#    x 3.629760 0.000000 -0.268770 
#    y 0.000000 4.042610 0.000000 
#    z -0.268770 0.000000 3.753260 
# 
# 
# High freq. dielectric constant tensor:
#      x y z
#    x 1.803310 0.000000 -0.023260 
#    y 0.000000 1.830480 0.000000 
#    z -0.023260 0.000000 1.808150 
# 
# From -- ./inp_files/77006.got.cif
#   From: 2010.06.25/outbox.cif.g09.slc.cpg/sg10_39_cif.got.tgz:77006.got - 2010.06.27 22:07:45.
