data_PCOD8058253
_publ_section_title
;
Structure prediction by ZEFSAII (Michael W. Deem and Ramdas Pophale) SiO2 
 PCOD8058253
Probable space group: P 2/M
;
_chemical_formula_sum "Si O2"
_cell_formula_units_Z 24
_cell_length_a 15.199702
_cell_length_b 8.637080
_cell_length_c 23.591853
_cell_angle_alpha 90.000000
_cell_angle_beta 153.209284
_cell_angle_gamma 90.000000
_cell_volume 1395.993293
_symmetry_space_group_name_H-M "P 2/M"
_symmetry_group_IT_number 10
_symmetry_cell_setting 'monoclinic'
loop_
_space_group_symop_operation_xyz
x,y,z
-x,y,-z
-x,-y,-z
x,-y,z
loop_
_atom_site_type_symbol
_atom_site_label
_atom_site_fract_x
_atom_site_fract_y
_atom_site_fract_z
Si Si1 0.669255 0.180249 0.666323
Si Si2 0.258190 0.679256 0.404255
Si Si3 0.568308 0.178895 0.302502
Si Si4 0.200808 0.319714 0.145144
Si Si5 0.896821 0.681149 0.567769
Si Si6 0.810248 0.328573 0.351743
O O1 0.794761 0.221401 0.682073
O O2 0.470990 0.278412 0.550706
O O3 0.789448 0.223451 0.791139
O O4 0.617488 0.000000 0.636807
O O5 0.255747 0.500000 0.386010
O O6 0.101809 0.714755 0.364130
O O7 0.374814 0.277286 0.202526
O O8 0.728567 0.218228 0.441905
O O9 0.647898 0.215501 0.284852
O O10 0.514456 0.000000 0.275690
O O11 0.210225 0.500000 0.165416
O O12 0.000000 0.273224 0.000000
O O13 0.851806 0.500000 0.529443
O O14 0.110281 0.725595 0.664591
O O15 0.717803 0.500000 0.295075
O O16 0.000000 0.330377 0.500000
#
# Coordination Sequence:
#
# PCOD8058253 Si02
#       6
#     4   4   4   4   4   4
#     4  11  21  32  47  71 100 127 159 201 248 290
#     4  10  18  30  50  71  98 134 166 195 234 287
#     4  11  20  29  45  69  98 127 156 199 246 290
#     4  11  23  38  54  69  90 127 171 207 241 289
#     4   9  17  29  47  69  96 131 165 195 232 281
#     4   8  15  28  44  64  93 128 162 194 231 282
#
# _framework density 17.192060999999999
#
# number of rings (size 3 to 8) (size 9 to 14) (size 15 to 20)
#    0.000    2.000    1.667    6.000    0.000    5.000 
#    0.000    0.000    0.000    0.000    0.000    1.167 
#    0.000    9.333    0.000    0.000    0.000    0.000 
#
# Total GULP energy -297521.573026 kJ/mol
# GULP energy per Si atom -12396.732209 kJ/mol
# Density = 1.715293 g / cm^3
# Si number density = 17.192061 Si / 1000 Ang^3
#
#
#
# Elastic Constant Matrix: (Units=GPa)
#
#
# Indices 1 2 3 4 5 6 
#
# 1 149.5451 22.0262 35.4505 0.0000 11.8683 0.0000
# 2 22.0262 49.9622 14.2422 0.0000 -2.0090 0.0000
# 3 35.4505 14.2422 50.2450 0.0000 0.5805 0.0000
# 4 0.0000 0.0000 0.0000 6.9021 0.0000 -4.9415
# 5 11.8683 -2.0090 0.5805 0.0000 16.6130 0.0000
# 6 0.0000 0.0000 0.0000 -4.9415 0.0000 16.5660
#
#
#
# Elastic Compliance Matrix: (Units=1/GPa)
#
#
# Indices 1 2 3 4 5 6 
#
# 1 0.008877 -0.002621 -0.005446 0.000000 -0.006469 0.000000
# 2 -0.002621 0.022684 -0.004636 0.000000 0.004778 0.000000
# 3 -0.005446 -0.004636 0.025030 0.000000 0.002455 0.000000
# 4 0.000000 0.000000 0.000000 0.184226 0.000000 0.054953
# 5 -0.006469 0.004778 0.002455 0.000000 0.065307 0.000000
# 6 0.000000 0.000000 0.000000 0.054953 0.000000 0.076757
#
#
# Mechanical properties :
#
#
# Convention : Reuss Voigt Hill
#
# Bulk Modulus (GPa) = 32.06507 43.68778 37.87643
# Shear Modulus (GPa) = 11.94222 19.88512 15.91367
#
# Velocity S-wave (km/s) = 2.63845 3.40464 3.04573
# Velocity P-wave (km/s) = 5.28900 6.39705 5.86923
#
# Compressibility (1/GPa) = 0.03118658
#
# Stress axis : x y z
#
# Youngs Moduli (GPa) = 112.64635 44.08319 39.95154
#
# Poissons Ratio (x) = 0.11556 0.21756
# Poissons Ratio (y) = 0.29529 0.18520
# Poissons Ratio (z) = 0.61343 0.20436
#
# Static dielectric constant tensor:
#      x y z
#    x 3.843280 0.000000 0.221340 
#    y 0.000000 3.189710 0.000000 
#    z 0.221340 0.000000 2.705200 
# 
# 
# High freq. dielectric constant tensor:
#      x y z
#    x 1.685650 0.000000 0.017350 
#    y 0.000000 1.669800 0.000000 
#    z 0.017350 0.000000 1.591410 
# 
# From -- ./inp_files/95416.got.cif
#   From: 2010.06.25/outbox.cif.g09.slc.cpg/sg10_48_cif.got.tgz:95416.got - 2010.06.27 22:07:45.
