data_PCOD8058383
_publ_section_title
;
Structure prediction by ZEFSAII (Michael W. Deem and Ramdas Pophale) SiO2 
 PCOD8058383
Probable space group: P 2/M
;
_chemical_formula_sum "Si O2"
_cell_formula_units_Z 32
_cell_length_a 16.636219
_cell_length_b 9.053810
_cell_length_c 12.032370
_cell_angle_alpha 90.000000
_cell_angle_beta 86.623060
_cell_angle_gamma 90.000000
_cell_volume 1809.182699
_symmetry_space_group_name_H-M "P 2/M"
_symmetry_group_IT_number 10
_symmetry_cell_setting 'monoclinic'
loop_
_space_group_symop_operation_xyz
x,y,z
-x,y,-z
-x,-y,-z
x,-y,z
loop_
_atom_site_type_symbol
_atom_site_label
_atom_site_fract_x
_atom_site_fract_y
_atom_site_fract_z
Si Si1 0.327371 0.171779 0.055354
Si Si2 0.622295 0.325619 0.173799
Si Si3 0.893535 0.171633 0.408092
Si Si4 0.264789 0.327083 0.632017
Si Si5 0.072024 0.827730 0.345254
Si Si6 0.207576 0.669955 0.216935
Si Si7 0.456105 0.828627 0.235319
Si Si8 0.663215 0.329798 0.604346
O O1 0.246268 0.241286 0.111783
O O2 0.401787 0.198047 0.131596
O O3 0.312610 0.000000 0.034223
O O4 0.346938 0.252146 0.940259
O O5 0.615584 0.500000 0.157305
O O6 0.684755 0.282336 0.264585
O O7 0.536103 0.264368 0.214381
O O8 0.822936 0.255695 0.350240
O O9 0.900622 0.225332 0.534742
O O10 0.977180 0.203622 0.337505
O O11 0.873304 0.000000 0.407510
O O12 0.251553 0.500000 0.622663
O O13 0.312177 0.270648 0.519006
O O14 0.119309 0.734897 0.248605
O O15 0.091416 0.000000 0.328062
O O16 0.200104 0.500000 0.182537
O O17 0.260487 0.691528 0.322551
O O18 0.410671 0.770016 0.348334
O O19 0.477102 0.000000 0.249404
O O20 0.634861 0.500000 0.604247
#
# Coordination Sequence:
#
# PCOD8058383 Si02
#       8
#     4   4   4   4   4   4   4   4
#     4  10  21  37  56  77 103 133 171 221 266 305
#     4  11  23  37  54  75 102 138 176 215 261 310
#     4   9  18  31  50  76 108 143 174 207 250 304
#     4  10  21  36  52  74 107 142 175 212 254 307
#     4   9  17  30  49  78 111 139 170 209 255 302
#     4  10  18  30  53  81 106 136 173 212 257 308
#     4  10  21  36  55  78 102 130 170 220 265 306
#     4   9  18  33  51  74 105 138 170 207 256 308
#
# _framework density 17.687545
#
# number of rings (size 3 to 8) (size 9 to 14) (size 15 to 20)
#    0.000    2.250    1.250    2.625    0.000    6.000 
#    0.000    3.750    0.000    0.750    0.000    5.250 
#    0.000    0.000    0.000    0.000    0.000    0.000 
#
# Total GULP energy -396886.126382 kJ/mol
# GULP energy per Si atom -12402.691449 kJ/mol
# Density = 1.764729 g / cm^3
# Si number density = 17.687545 Si / 1000 Ang^3
#
#
#
# Elastic Constant Matrix: (Units=GPa)
#
#
# Indices 1 2 3 4 5 6 
#
# 1 146.1847 66.2822 -14.9680 0.0000 9.4334 0.0000
# 2 66.2822 86.3699 40.4927 0.0000 -3.7420 0.0000
# 3 -14.9680 40.4927 347.1653 0.0000 -108.4363 0.0000
# 4 0.0000 0.0000 0.0000 27.6627 0.0000 -7.5949
# 5 9.4334 -3.7420 -108.4363 0.0000 57.8097 0.0000
# 6 0.0000 0.0000 0.0000 -7.5949 0.0000 34.2857
#
#
#
# Elastic Compliance Matrix: (Units=1/GPa)
#
#
# Indices 1 2 3 4 5 6 
#
# 1 0.011293 -0.009552 0.002010 0.000000 0.001309 0.000000
# 2 -0.009552 0.020845 -0.004672 0.000000 -0.005856 0.000000
# 3 0.002010 -0.004672 0.008005 0.000000 0.014386 0.000000
# 4 0.000000 0.000000 0.000000 0.038491 0.000000 0.008526
# 5 0.001309 -0.005856 0.014386 0.000000 0.043690 0.000000
# 6 0.000000 0.000000 0.000000 0.008526 0.000000 0.031055
#
#
# Mechanical properties :
#
#
# Convention : Reuss Voigt Hill
#
# Bulk Modulus (GPa) = 63.63440 84.81486 74.22463
# Shear Modulus (GPa) = 27.31533 56.47913 41.89723
#
# Velocity S-wave (km/s) = 3.93405 5.65693 4.87225
# Velocity P-wave (km/s) = 7.52933 9.52490 8.58529
#
# Compressibility (1/GPa) = 0.01571477
#
# Stress axis : x y z
#
# Youngs Moduli (GPa) = 88.55000 47.97215 124.91414
#
# Poissons Ratio (x) = 0.45824 -0.25106
# Poissons Ratio (y) = 0.84584 0.58364
# Poissons Ratio (z) = -0.17797 0.22414
#
# Static dielectric constant tensor:
#      x y z
#    x 3.261800 0.000000 -0.151850 
#    y 0.000000 3.301020 0.000000 
#    z -0.151850 0.000000 3.237930 
# 
# 
# High freq. dielectric constant tensor:
#      x y z
#    x 1.682820 0.000000 -0.019370 
#    y 0.000000 1.690340 0.000000 
#    z -0.019370 0.000000 1.666270 
# 
# From -- ./inp_files/49768.got.cif
#   From: 2010.06.25/outbox.cif.g09.slc.cpg/sg10_25_cif.got.tgz:49768.got - 2010.06.27 22:07:45.
