data_PCOD8058352
_publ_section_title
;
Structure prediction by ZEFSAII (Michael W. Deem and Ramdas Pophale) SiO2 
 PCOD8058352
Probable space group: P 2/M
;
_chemical_formula_sum "Si O2"
_cell_formula_units_Z 32
_cell_length_a 13.792307
_cell_length_b 9.817230
_cell_length_c 19.638773
_cell_angle_alpha 90.000000
_cell_angle_beta 40.552742
_cell_angle_gamma 90.000000
_cell_volume 1728.830003
_symmetry_space_group_name_H-M "P 2/M"
_symmetry_group_IT_number 10
_symmetry_cell_setting 'monoclinic'
loop_
_space_group_symop_operation_xyz
x,y,z
-x,y,-z
-x,-y,-z
x,-y,z
loop_
_atom_site_type_symbol
_atom_site_label
_atom_site_fract_x
_atom_site_fract_y
_atom_site_fract_z
Si Si1 0.191169 0.339213 0.730085
Si Si2 0.558724 0.661214 0.300358
Si Si3 0.861413 0.844765 0.617787
Si Si4 0.411782 0.157439 0.979567
Si Si5 0.283690 0.339427 0.535875
Si Si6 0.961418 0.649626 0.670074
Si Si7 0.869242 0.347675 0.874079
Si Si8 0.466956 0.846795 0.232231
O O1 0.184839 0.500000 0.722105
O O2 0.285820 0.300782 0.746130
O O3 0.270453 0.277579 0.619664
O O4 0.019299 0.290293 0.831450
O O5 0.544245 0.500000 0.294318
O O6 0.425821 0.718771 0.419253
O O7 0.558741 0.739197 0.228275
O O8 0.854874 0.754898 0.688970
O O9 0.708281 0.827512 0.658070
O O10 0.000000 0.790372 0.500000
O O11 0.886584 0.000000 0.626959
O O12 0.513954 0.177945 0.858621
O O13 0.365786 0.000000 0.014365
O O14 0.500000 0.209166 0.000000
O O15 0.264713 0.244237 0.042821
O O16 0.305512 0.500000 0.530002
O O17 0.133810 0.302447 0.574487
O O18 0.945653 0.500000 0.644912
O O19 0.907295 0.642763 0.775284
O O20 0.826091 0.500000 0.923700
O O21 0.518764 0.000000 0.223643
#
# Coordination Sequence:
#
# PCOD8058352 Si02
#       8
#     4   4   4   4   4   4   4   4
#     4   8  15  29  50  77 106 133 164 204 245 284
#     4  10  18  30  52  77 100 133 173 204 235 287
#     4  10  20  33  49  69  96 133 169 197 235 292
#     4  10  21  38  58  75  94 127 168 206 248 300
#     4   8  14  26  47  76 106 134 165 200 239 286
#     4   9  17  29  47  73 102 128 156 199 252 295
#     4   9  18  33  53  77 102 125 157 206 255 292
#     4  10  22  37  50  70 102 132 160 204 256 297
#
# _framework density 18.509629
#
# number of rings (size 3 to 8) (size 9 to 14) (size 15 to 20)
#    0.000    2.750    0.000    3.375    0.000    4.500 
#    0.000    1.250    0.000    6.750    0.000    0.000 
#    0.000    0.000    0.000    0.000    0.000    0.000 
#
# Total GULP energy -396641.162654 kJ/mol
# GULP energy per Si atom -12395.036333 kJ/mol
# Density = 1.846750 g / cm^3
# Si number density = 18.509629 Si / 1000 Ang^3
#
#
#
# Elastic Constant Matrix: (Units=GPa)
#
#
# Indices 1 2 3 4 5 6 
#
# 1 107.8734 50.0015 38.2556 0.0000 1.0031 0.0000
# 2 50.0015 58.7389 27.7199 0.0000 -1.5038 0.0000
# 3 38.2556 27.7199 67.6429 0.0000 -11.1813 0.0000
# 4 0.0000 0.0000 0.0000 23.4415 0.0000 -1.6868
# 5 1.0031 -1.5038 -11.1813 0.0000 24.6420 0.0000
# 6 0.0000 0.0000 0.0000 -1.6868 0.0000 8.4002
#
#
#
# Elastic Compliance Matrix: (Units=1/GPa)
#
#
# Indices 1 2 3 4 5 6 
#
# 1 0.016605 -0.011787 -0.005180 0.000000 -0.003746 0.000000
# 2 -0.011787 0.029659 -0.005524 0.000000 -0.000217 0.000000
# 3 -0.005180 -0.005524 0.021574 0.000000 0.009663 0.000000
# 4 0.000000 0.000000 0.000000 0.043285 0.000000 0.008692
# 5 -0.003746 -0.000217 0.009663 0.000000 0.045105 0.000000
# 6 0.000000 0.000000 0.000000 0.008692 0.000000 0.120790
#
#
# Mechanical properties :
#
#
# Convention : Reuss Voigt Hill
#
# Bulk Modulus (GPa) = 43.75056 51.80103 47.77580
# Shear Modulus (GPa) = 15.16899 19.18195 17.17547
#
# Velocity S-wave (km/s) = 2.86583 3.22269 3.04948
# Velocity P-wave (km/s) = 5.88546 6.47259 6.18599
#
# Compressibility (1/GPa) = 0.02285685
#
# Stress axis : x y z
#
# Youngs Moduli (GPa) = 60.22153 33.71636 46.35141
#
# Poissons Ratio (x) = 0.39740 0.24011
# Poissons Ratio (y) = 0.70980 0.25605
# Poissons Ratio (z) = 0.31196 0.18626
#
# Static dielectric constant tensor:
#      x y z
#    x 3.575540 0.000000 -0.271620 
#    y 0.000000 3.232290 0.000000 
#    z -0.271620 0.000000 3.483540 
# 
# 
# High freq. dielectric constant tensor:
#      x y z
#    x 1.716420 0.000000 -0.008650 
#    y 0.000000 1.685780 0.000000 
#    z -0.008650 0.000000 1.710040 
# 
# From -- ./inp_files/58326.got.cif
#   From: 2010.06.25/outbox.cif.g09.slc.cpg/sg10_30_cif.got.tgz:58326.got - 2010.06.27 22:07:45.
