data_PCOD8058793
_publ_section_title
;
Structure prediction by ZEFSAII (Michael W. Deem and Ramdas Pophale) SiO2 
 PCOD8058793
Probable space group: P 2/M
;
_chemical_formula_sum "Si O2"
_cell_formula_units_Z 30
_cell_length_a 23.915137
_cell_length_b 9.382182
_cell_length_c 14.235449
_cell_angle_alpha 90.000000
_cell_angle_beta 28.798895
_cell_angle_gamma 90.000000
_cell_volume 1538.713258
_symmetry_space_group_name_H-M "P 2/M"
_symmetry_group_IT_number 10
_symmetry_cell_setting 'monoclinic'
loop_
_space_group_symop_operation_xyz
x,y,z
-x,y,-z
-x,-y,-z
x,-y,z
loop_
_atom_site_type_symbol
_atom_site_label
_atom_site_fract_x
_atom_site_fract_y
_atom_site_fract_z
Si Si1 0.070015 0.843922 0.591408
Si Si2 0.235569 0.660165 0.074755
Si Si3 0.872536 0.665727 0.956805
Si Si4 0.430728 0.834690 0.891278
Si Si5 0.669744 0.837281 0.759519
Si Si6 0.000000 0.248779 0.500000
Si Si7 0.647864 0.670177 0.607211
Si Si8 0.127981 0.332144 0.833482
O O1 0.202399 0.795588 0.395487
O O2 0.998335 0.735237 0.759658
O O3 0.027225 0.851687 0.547493
O O4 0.054842 0.000000 0.658380
O O5 0.287406 0.500000 0.002063
O O6 0.217501 0.711355 0.992527
O O7 0.111766 0.654895 0.310297
O O8 0.322596 0.771138 0.993572
O O9 0.897069 0.500000 0.911892
O O10 0.828184 0.707810 0.125846
O O11 0.546324 0.745172 0.695251
O O12 0.444309 0.000000 0.842416
O O13 0.413373 0.820119 0.028736
O O14 0.633513 0.724683 0.734255
O O15 0.662109 0.000000 0.732135
O O16 0.633556 0.500000 0.623115
O O17 0.772762 0.723239 0.383684
O O18 0.117941 0.500000 0.836697
O O19 0.000000 0.265193 0.000000
#
# Coordination Sequence:
#
# PCOD8058793 Si02
#       8
#     4   4   4   4   4   2   4   4
#     4  10  19  31  51  80 113 149 190 225 267 331
#     4  10  20  34  55  84 115 147 190 236 277 327
#     4   9  19  35  55  82 115 149 184 234 290 331
#     4  11  23  40  58  79 114 158 189 224 280 340
#     4  10  21  37  54  79 113 153 188 224 277 337
#     4  10  18  32  52  80 114 152 184 226 278 328
#     4  11  23  38  60  87 109 142 190 239 282 333
#     4   9  18  36  61  86 113 144 182 229 287 342
#
# _framework density 19.49681
#
# number of rings (size 3 to 8) (size 9 to 14) (size 15 to 20)
#    0.000    2.000    1.333    2.400    0.000    6.933 
#    0.000    2.000    0.000    7.600    0.000    0.000 
#    0.000    0.000    0.000    0.000    0.000    0.000 
#
# Total GULP energy -371894.386037 kJ/mol
# GULP energy per Si atom -12396.479535 kJ/mol
# Density = 1.945243 g / cm^3
# Si number density = 19.496810 Si / 1000 Ang^3
#
#
#
# Elastic Constant Matrix: (Units=GPa)
#
#
# Indices 1 2 3 4 5 6 
#
# 1 85.6676 42.0611 47.8512 0.0000 -5.6253 0.0000
# 2 42.0611 83.3869 39.4550 0.0000 -11.0335 0.0000
# 3 47.8512 39.4550 95.9988 0.0000 -17.1095 0.0000
# 4 0.0000 0.0000 0.0000 23.7304 0.0000 -6.5705
# 5 -5.6253 -11.0335 -17.1095 0.0000 30.6263 0.0000
# 6 0.0000 0.0000 0.0000 -6.5705 0.0000 21.6349
#
#
#
# Elastic Compliance Matrix: (Units=1/GPa)
#
#
# Indices 1 2 3 4 5 6 
#
# 1 0.018624 -0.006381 -0.007175 0.000000 -0.002887 0.000000
# 2 -0.006381 0.017204 -0.003325 0.000000 0.003168 0.000000
# 3 -0.007175 -0.003325 0.016560 0.000000 0.006736 0.000000
# 4 0.000000 0.000000 0.000000 0.046009 0.000000 0.013973
# 5 -0.002887 0.003168 0.006736 0.000000 0.037026 0.000000
# 6 0.000000 0.000000 0.000000 0.013973 0.000000 0.050465
#
#
# Mechanical properties :
#
#
# Convention : Reuss Voigt Hill
#
# Bulk Modulus (GPa) = 53.69098 58.19864 55.94481
# Shear Modulus (GPa) = 22.13763 24.24406 23.19084
#
# Velocity S-wave (km/s) = 3.37330 3.53014 3.45261
# Velocity P-wave (km/s) = 6.53990 6.82136 6.68211
#
# Compressibility (1/GPa) = 0.01862510
#
# Stress axis : x y z
#
# Youngs Moduli (GPa) = 53.69297 58.12745 60.38488
#
# Poissons Ratio (x) = 0.37093 0.43328
# Poissons Ratio (y) = 0.34263 0.20079
# Poissons Ratio (z) = 0.38526 0.19328
#
# Static dielectric constant tensor:
#      x y z
#    x 3.730730 0.000000 -0.038980 
#    y 0.000000 3.343760 0.000000 
#    z -0.038980 0.000000 3.608280 
# 
# 
# High freq. dielectric constant tensor:
#      x y z
#    x 1.763850 0.000000 -0.011550 
#    y 0.000000 1.744650 0.000000 
#    z -0.011550 0.000000 1.748030 
# 
# From -- ./inp_files/71306.got.cif
#   From: 2010.06.25/outbox.cif.g09.slc.cpg/sg10_36_cif.got.tgz:71306.got - 2010.06.27 22:07:45.
