data_PCOD8058256
_publ_section_title
;
Structure prediction by ZEFSAII (Michael W. Deem and Ramdas Pophale) SiO2 
 PCOD8058256
Probable space group: P 2/M
;
_chemical_formula_sum "Si O2"
_cell_formula_units_Z 32
_cell_length_a 24.120800
_cell_length_b 9.462800
_cell_length_c 25.335310
_cell_angle_alpha 90.000000
_cell_angle_beta 17.812230
_cell_angle_gamma 90.000000
_cell_volume 1768.947674
_symmetry_space_group_name_H-M "P 2/M"
_symmetry_group_IT_number 10
_symmetry_cell_setting 'monoclinic'
loop_
_space_group_symop_operation_xyz
x,y,z
-x,y,-z
-x,-y,-z
x,-y,z
loop_
_atom_site_type_symbol
_atom_site_label
_atom_site_fract_x
_atom_site_fract_y
_atom_site_fract_z
Si Si1 0.945846 0.337853 0.192554
Si Si2 0.669057 0.337853 0.192544
Si Si3 0.056729 0.163282 0.702107
Si Si4 0.554322 0.167881 0.807616
Si Si5 0.937565 0.831175 0.499998
Si Si6 0.561807 0.332139 0.500003
Si Si7 0.460946 0.836718 0.297891
Si Si8 0.830441 0.832119 0.807619
O O1 0.915444 0.500000 0.237122
O O2 0.996225 0.250484 0.198610
O O3 0.764541 0.277950 0.329225
O O4 0.113131 0.324014 0.000006
O O5 0.610321 0.500000 0.237114
O O6 0.577029 0.277957 0.329209
O O7 0.606559 0.250481 0.198609
O O8 0.266272 0.185531 0.499999
O O9 0.939174 0.223359 0.760030
O O10 0.010183 0.000000 0.754798
O O11 0.735914 0.227408 0.670544
O O12 0.540761 0.223361 0.760033
O O13 0.565595 0.000000 0.795877
O O14 0.378454 0.219027 0.999998
O O15 0.000000 0.771714 0.500000
O O16 0.077009 0.772592 0.329450
O O17 0.937570 0.000000 0.499999
O O18 0.500000 0.266558 0.500000
O O19 0.557800 0.500000 0.499993
O O20 0.519782 0.000000 0.245200
O O21 0.842646 0.000000 0.795880
#
# Coordination Sequence:
#
# PCOD8058256 Si02
#       8
#     4   4   4   4   4   4   4   4
#     4  10  20  33  51  75 100 125 155 194 238 280
#     4  10  20  33  51  75 100 125 155 194 238 280
#     4  10  18  30  50  72  96 128 160 192 236 287
#     4   9  16  26  40  59  85 117 152 189 230 277
#     4   9  16  25  36  54  83 117 154 193 230 272
#     4   9  18  33  51  71  97 127 158 193 232 276
#     4  10  18  30  50  72  96 128 160 192 236 287
#     4   9  16  26  40  59  85 117 152 189 230 277
#
# _framework density 18.089850999999999
#
# number of rings (size 3 to 8) (size 9 to 14) (size 15 to 20)
#    0.000    2.500    2.500    0.750    0.000    2.500 
#    0.000    5.000    0.000    1.500    0.000    1.750 
#    0.000    2.000    0.000    5.250    0.000    5.000 
#
# Total GULP energy -396745.794716 kJ/mol
# GULP energy per Si atom -12398.306085 kJ/mol
# Density = 1.804868 g / cm^3
# Si number density = 18.089851 Si / 1000 Ang^3
#
#
#
# Elastic Constant Matrix: (Units=GPa)
#
#
# Indices 1 2 3 4 5 6 
#
# 1 155.7454 22.8265 78.2772 0.0000 3.7611 0.0000
# 2 22.8265 21.3458 20.5865 0.0000 0.2058 0.0000
# 3 78.2772 20.5865 144.9433 0.0000 -2.7594 0.0000
# 4 0.0000 0.0000 0.0000 13.3422 0.0000 -3.5562
# 5 3.7611 0.2058 -2.7594 0.0000 18.8487 0.0000
# 6 0.0000 0.0000 0.0000 -3.5562 0.0000 -25.4666
#
#
#
# Elastic Compliance Matrix: (Units=1/GPa)
#
#
# Indices 1 2 3 4 5 6 
#
# 1 0.009545 -0.005986 -0.004352 0.000000 -0.002476 0.000000
# 2 -0.005986 0.058094 -0.005022 0.000000 -0.000175 0.000000
# 3 -0.004352 -0.005022 0.010008 0.000000 0.002388 0.000000
# 4 0.000000 0.000000 0.000000 0.072261 0.000000 -0.010091
# 5 -0.002476 -0.000175 0.002388 0.000000 0.053900 0.000000
# 6 0.000000 0.000000 0.000000 -0.010091 0.000000 -0.037858
#
#
# Mechanical properties :
#
#
# Convention : Reuss Voigt Hill
#
# Bulk Modulus (GPa) = 21.30937 62.82390 42.06664
# Shear Modulus (GPa) = 23.55030 14.70113 19.12571
#
# Velocity S-wave (km/s) = 3.61203 2.85383 3.25508
# Velocity P-wave (km/s) = 5.40380 6.75747 6.11818
#
# Compressibility (1/GPa) = 0.04692771
#
# Stress axis : x y z
#
# Youngs Moduli (GPa) = 104.76580 17.21354 99.91889
#
# Poissons Ratio (x) = 0.10305 0.43482
# Poissons Ratio (y) = 0.62717 0.50175
# Poissons Ratio (z) = 0.45592 0.08644
#
# Static dielectric constant tensor:
#      x y z
#    x 3.457470 0.000000 -0.013920 
#    y 0.000000 2.770790 0.000000 
#    z -0.013920 0.000000 3.609290 
# 
# 
# High freq. dielectric constant tensor:
#      x y z
#    x 1.698910 0.000000 -0.002180 
#    y 0.000000 1.631890 0.000000 
#    z -0.002180 0.000000 1.722650 
# 
# From -- ./inp_files/90568.got.cif
#   From: 2010.06.25/outbox.cif.g09.slc.cpg/sg10_46_cif.got.tgz:90568.got - 2010.06.27 22:07:45.
