data_PCOD8058937
_publ_section_title
;
Structure prediction by ZEFSAII (Michael W. Deem and Ramdas Pophale) SiO2 
 PCOD8058937
Probable space group: P 2/M
;
_chemical_formula_sum "Si O2"
_cell_formula_units_Z 28
_cell_length_a 5.253704
_cell_length_b 20.831918
_cell_length_c 13.454361
_cell_angle_alpha 90.000000
_cell_angle_beta 106.814164
_cell_angle_gamma 90.000000
_cell_volume 1409.556243
_symmetry_space_group_name_H-M "P 2/M"
_symmetry_group_IT_number 10
_symmetry_cell_setting 'monoclinic'
loop_
_space_group_symop_operation_xyz
x,y,z
-x,y,-z
-x,-y,-z
x,-y,z
loop_
_atom_site_type_symbol
_atom_site_label
_atom_site_fract_x
_atom_site_fract_y
_atom_site_fract_z
Si Si1 0.731729 0.908831 0.473362
Si Si2 0.450401 0.156242 0.734377
Si Si3 0.703973 0.072497 0.933288
Si Si4 0.884162 0.204417 0.645691
Si Si5 0.446729 0.576117 0.884336
Si Si6 0.143654 0.576112 0.236217
Si Si7 0.197664 0.656502 0.436120
O O1 0.500000 0.948930 0.500000
O O2 0.627467 0.898565 0.351743
O O3 0.802069 0.843751 0.545957
O O4 0.000000 0.950869 0.500000
O O5 0.596658 0.123456 0.842518
O O6 0.658560 0.204630 0.705503
O O7 0.169526 0.189345 0.729881
O O8 0.714687 0.000000 0.890018
O O9 0.500000 0.074543 0.000000
O O10 0.000000 0.093326 0.000000
O O11 0.920430 0.275327 0.608547
O O12 0.471879 0.500000 0.890944
O O13 0.658001 0.602588 0.827290
O O14 0.152995 0.598494 0.822683
O O15 0.500000 0.604905 0.000000
O O16 0.168904 0.500000 0.247819
O O17 0.213192 0.605291 0.349902
O O18 0.500000 0.667299 0.500000
O O19 0.000000 0.629675 0.500000
#
# Coordination Sequence:
#
# PCOD8058937 Si02
#       7
#     4   4   4   4   4   4   4
#     4   8  14  25  44  70  95 119 158 205 251 299
#     4  10  18  32  56  78 104 139 175 223 271 304
#     4  10  21  37  57  83 113 147 189 224 255 316
#     4  10  19  33  54  80 103 134 183 227 269 326
#     4   9  17  33  57  79  99 131 179 230 278 332
#     4  10  21  35  53  81 112 144 186 232 284 346
#     4  12  23  36  55  80 112 150 190 229 275 338
#
# _framework density 19.864408999999998
#
# number of rings (size 3 to 8) (size 9 to 14) (size 15 to 20)
#    0.000    2.143    0.000    5.571    0.000    2.286 
#    0.000    0.000    0.000   16.286    0.000    0.000 
#    0.000    0.000    0.000    0.000    0.000    0.000 
#
# Total GULP energy -346896.220340 kJ/mol
# GULP energy per Si atom -12389.150726 kJ/mol
# Density = 1.981920 g / cm^3
# Si number density = 19.864409 Si / 1000 Ang^3
#
#
#
# Elastic Constant Matrix: (Units=GPa)
#
#
# Indices 1 2 3 4 5 6 
#
# 1 197.6840 18.8994 55.4775 0.0000 2.5056 0.0000
# 2 18.8994 42.2300 32.3328 0.0000 3.4235 0.0000
# 3 55.4775 32.3328 109.5872 0.0000 4.6430 0.0000
# 4 0.0000 0.0000 0.0000 24.3440 0.0000 -11.8023
# 5 2.5056 3.4235 4.6430 0.0000 41.1488 0.0000
# 6 0.0000 0.0000 0.0000 -11.8023 0.0000 32.1675
#
#
#
# Elastic Compliance Matrix: (Units=1/GPa)
#
#
# Indices 1 2 3 4 5 6 
#
# 1 0.005903 -0.000457 -0.002854 0.000000 0.000001 0.000000
# 2 -0.000457 0.030722 -0.008768 0.000000 -0.001539 0.000000
# 3 -0.002854 -0.008768 0.013181 0.000000 -0.000584 0.000000
# 4 0.000000 0.000000 0.000000 0.049966 0.000000 0.018332
# 5 0.000001 -0.001539 -0.000584 0.000000 0.024496 0.000000
# 6 0.000000 0.000000 0.000000 0.018332 0.000000 0.037813
#
#
# Mechanical properties :
#
#
# Convention : Reuss Voigt Hill
#
# Bulk Modulus (GPa) = 38.98668 62.54675 50.76671
# Shear Modulus (GPa) = 25.66892 35.71817 30.69354
#
# Velocity S-wave (km/s) = 3.59863 4.24500 3.93511
# Velocity P-wave (km/s) = 6.07749 7.45533 6.80139
#
# Compressibility (1/GPa) = 0.02564979
#
# Stress axis : x y z
#
# Youngs Moduli (GPa) = 169.40307 32.54989 75.86501
#
# Poissons Ratio (x) = 0.01488 0.21648
# Poissons Ratio (y) = 0.07744 0.66516
# Poissons Ratio (z) = 0.48340 0.28539
#
# Static dielectric constant tensor:
#      x y z
#    x 4.494440 0.000000 -0.020200 
#    y 0.000000 3.143180 0.000000 
#    z -0.020200 0.000000 3.512990 
# 
# 
# High freq. dielectric constant tensor:
#      x y z
#    x 1.813300 0.000000 0.000910 
#    y 0.000000 1.734960 0.000000 
#    z 0.000910 0.000000 1.766570 
# 
# From -- ./inp_files/39764.got.cif
#   From: 2010.06.25/outbox.cif.g09.slc.cpg/sg10_20_cif.got.tgz:39764.got - 2010.06.27 22:07:45.
