data_PCOD8058667
_publ_section_title
;
Structure prediction by ZEFSAII (Michael W. Deem and Ramdas Pophale) SiO2 
 PCOD8058667
Probable space group: P 2/M
;
_chemical_formula_sum "Si O2"
_cell_formula_units_Z 32
_cell_length_a 15.219494
_cell_length_b 9.554319
_cell_length_c 22.728859
_cell_angle_alpha 90.000000
_cell_angle_beta 31.245309
_cell_angle_gamma 90.000000
_cell_volume 1714.338446
_symmetry_space_group_name_H-M "P 2/M"
_symmetry_group_IT_number 10
_symmetry_cell_setting 'monoclinic'
loop_
_space_group_symop_operation_xyz
x,y,z
-x,y,-z
-x,-y,-z
x,-y,z
loop_
_atom_site_type_symbol
_atom_site_label
_atom_site_fract_x
_atom_site_fract_y
_atom_site_fract_z
Si Si1 0.746873 0.839119 0.998842
Si Si2 0.055370 0.837206 0.337625
Si Si3 0.976522 0.837213 0.254331
Si Si4 0.843522 0.661043 0.051759
Si Si5 0.559197 0.340290 0.308405
Si Si6 0.632831 0.165826 0.769259
Si Si7 0.323159 0.662585 0.631645
Si Si8 0.290461 0.837497 0.404965
O O1 0.846803 0.817199 0.881167
O O2 0.749083 0.000000 0.018219
O O3 0.839503 0.749601 0.995119
O O4 0.552589 0.788762 0.101832
O O5 0.226919 0.769803 0.266535
O O6 0.008209 0.772692 0.301120
O O7 0.906979 0.811520 0.469664
O O8 0.086938 0.000000 0.308488
O O9 0.825693 0.753927 0.310269
O O10 0.922919 0.000000 0.286957
O O11 0.871952 0.500000 0.017810
O O12 0.673861 0.682986 0.185745
O O13 0.000000 0.717128 0.000000
O O14 0.496833 0.500000 0.349532
O O15 0.663183 0.299456 0.307209
O O16 0.395552 0.243126 0.394946
O O17 0.665474 0.223320 0.684698
O O18 0.655680 0.000000 0.754404
O O19 0.500000 0.701744 0.500000
O O20 0.278569 0.500000 0.647583
O O21 0.338582 0.000000 0.382677
#
# Coordination Sequence:
#
# PCOD8058667 Si02
#       8
#     4   4   4   4   4   4   4   4
#     4  10  20  34  52  77 107 136 171 216 259 302
#     4   9  18  32  52  78 105 137 175 214 259 311
#     4  10  21  35  52  78 109 139 174 216 261 306
#     4  10  20  34  52  73  99 135 174 210 254 309
#     4  10  20  33  51  76 104 134 169 210 261 313
#     4   9  17  31  52  78 106 136 173 215 259 307
#     4  10  21  37  56  77 104 141 180 214 254 309
#     4  10  18  31  54  80 105 134 172 216 260 307
#
# _framework density 18.666093
#
# number of rings (size 3 to 8) (size 9 to 14) (size 15 to 20)
#    0.000    2.250    1.250    1.875    0.000    4.500 
#    0.000    2.500    0.000    3.750    0.000    1.750 
#    0.000    0.000    0.000    0.000    0.000    0.000 
#
# Total GULP energy -396834.188554 kJ/mol
# GULP energy per Si atom -12401.068392 kJ/mol
# Density = 1.862361 g / cm^3
# Si number density = 18.666093 Si / 1000 Ang^3
#
#
#
# Elastic Constant Matrix: (Units=GPa)
#
#
# Indices 1 2 3 4 5 6 
#
# 1 133.7974 44.1335 53.3193 0.0000 -14.6298 0.0000
# 2 44.1335 43.3675 32.2540 0.0000 -9.4245 0.0000
# 3 53.3193 32.2540 97.5647 0.0000 -9.5766 0.0000
# 4 0.0000 0.0000 0.0000 16.2806 0.0000 6.3404
# 5 -14.6298 -9.4245 -9.5766 0.0000 37.5505 0.0000
# 6 0.0000 0.0000 0.0000 6.3404 0.0000 3.9629
#
#
#
# Elastic Compliance Matrix: (Units=1/GPa)
#
#
# Indices 1 2 3 4 5 6 
#
# 1 0.012100 -0.009524 -0.003319 0.000000 0.001477 0.000000
# 2 -0.009524 0.039107 -0.007307 0.000000 0.004241 0.000000
# 3 -0.003319 -0.007307 0.014536 0.000000 0.000580 0.000000
# 4 0.000000 0.000000 0.000000 0.162962 0.000000 -0.260730
# 5 0.001477 0.004241 0.000580 0.000000 0.028419 0.000000
# 6 0.000000 0.000000 0.000000 -0.260730 0.000000 0.669496
#
#
# Mechanical properties :
#
#
# Convention : Reuss Voigt Hill
#
# Bulk Modulus (GPa) = 39.30429 59.34925 49.32677
# Shear Modulus (GPa) = 5.12610 21.22699 13.17655
#
# Velocity S-wave (km/s) = 1.65897 3.37589 2.65978
# Velocity P-wave (km/s) = 4.97713 6.86001 5.99298
#
# Compressibility (1/GPa) = 0.02544252
#
# Stress axis : x y z
#
# Youngs Moduli (GPa) = 82.64725 25.57075 68.79415
#
# Poissons Ratio (x) = 0.24353 0.22832
# Poissons Ratio (y) = 0.78712 0.50271
# Poissons Ratio (z) = 0.27430 0.18686
#
# Static dielectric constant tensor:
#      x y z
#    x 3.574050 0.000000 0.029740 
#    y 0.000000 3.126150 0.000000 
#    z 0.029740 0.000000 3.514020 
# 
# 
# High freq. dielectric constant tensor:
#      x y z
#    x 1.731170 0.000000 0.000240 
#    y 0.000000 1.686460 0.000000 
#    z 0.000240 0.000000 1.736650 
# 
# From -- ./inp_files/71289.got.cif
#   From: 2010.06.25/outbox.cif.g09.slc.cpg/sg10_36_cif.got.tgz:71289.got - 2010.06.27 22:07:45.
