data_PCOD8058451
_publ_section_title
;
Structure prediction by ZEFSAII (Michael W. Deem and Ramdas Pophale) SiO2 
 PCOD8058451
Probable space group: P 2/M
;
_chemical_formula_sum "Si O2"
_cell_formula_units_Z 28
_cell_length_a 24.677274
_cell_length_b 9.016575
_cell_length_c 19.113014
_cell_angle_alpha 90.000000
_cell_angle_beta 157.729602
_cell_angle_gamma 90.000000
_cell_volume 1611.692079
_symmetry_space_group_name_H-M "P 2/M"
_symmetry_group_IT_number 10
_symmetry_cell_setting 'monoclinic'
loop_
_space_group_symop_operation_xyz
x,y,z
-x,y,-z
-x,-y,-z
x,-y,z
loop_
_atom_site_type_symbol
_atom_site_label
_atom_site_fract_x
_atom_site_fract_y
_atom_site_fract_z
Si Si1 0.072298 0.176211 0.380340
Si Si2 0.839329 0.666623 0.836282
Si Si3 0.028356 0.674443 0.868056
Si Si4 0.604022 0.830417 0.058705
Si Si5 0.626620 0.828635 0.319550
Si Si6 0.761629 0.171492 0.618020
Si Si7 0.104693 0.327529 0.561475
O O1 0.228147 0.235650 0.541583
O O2 0.041211 0.238488 0.419845
O O3 0.953232 0.240285 0.183741
O O4 0.060703 0.000000 0.366669
O O5 0.782588 0.500000 0.758777
O O6 0.734039 0.773169 0.664845
O O7 0.841254 0.709000 0.921499
O O8 0.000000 0.682351 0.000000
O O9 0.017059 0.500000 0.840720
O O10 0.884845 0.728843 0.733249
O O11 0.738592 0.726514 0.230694
O O12 0.656042 0.000000 0.109452
O O13 0.500000 0.820845 0.000000
O O14 0.516906 0.763845 0.887380
O O15 0.625924 0.805939 0.403401
O O16 0.627040 0.000000 0.299359
O O17 0.808523 0.000000 0.674631
O O18 0.111424 0.500000 0.550464
O O19 0.000000 0.294275 0.500000
#
# Coordination Sequence:
#
# PCOD8058451 Si02
#       7
#     4   4   4   4   4   4   4
#     4  10  18  31  49  68  90 119 159 200 240 287
#     4   8  14  23  33  49  80 119 154 187 228 278
#     4   9  16  25  37  56  84 118 153 191 236 282
#     4  10  18  33  55  74  95 125 163 206 246 288
#     4   8  15  27  43  67  93 117 150 198 244 278
#     4   9  15  22  35  56  85 119 154 191 232 278
#     4  11  24  38  50  70 101 131 161 201 246 291
#
# _framework density 17.373045000000001
#
# number of rings (size 3 to 8) (size 9 to 14) (size 15 to 20)
#    0.000    2.714    1.429    3.429    0.000    4.571 
#    0.000    1.429    0.000    0.000    0.000    0.000 
#    0.000    1.143    0.000   12.857    0.000    8.143 
#
# Total GULP energy -346884.693980 kJ/mol
# GULP energy per Si atom -12388.739071 kJ/mol
# Density = 1.733350 g / cm^3
# Si number density = 17.373045 Si / 1000 Ang^3
#
#
#
# Elastic Constant Matrix: (Units=GPa)
#
#
# Indices 1 2 3 4 5 6 
#
# 1 90.4542 54.7798 58.5403 0.0000 -41.0251 0.0000
# 2 54.7798 82.0114 36.8928 0.0000 -23.3633 0.0000
# 3 58.5403 36.8928 64.4953 0.0000 -37.8976 0.0000
# 4 0.0000 0.0000 0.0000 22.1847 0.0000 -12.2117
# 5 -41.0251 -23.3633 -37.8976 0.0000 41.2306 0.0000
# 6 0.0000 0.0000 0.0000 -12.2117 0.0000 28.9351
#
#
#
# Elastic Compliance Matrix: (Units=1/GPa)
#
#
# Indices 1 2 3 4 5 6 
#
# 1 0.035781 -0.012193 -0.018792 0.000000 0.011421 0.000000
# 2 -0.012193 0.020614 -0.002152 0.000000 -0.002429 0.000000
# 3 -0.018792 -0.002152 0.048030 0.000000 0.024230 0.000000
# 4 0.000000 0.000000 0.000000 0.058717 0.000000 0.024781
# 5 0.011421 -0.002429 0.024230 0.000000 0.056513 0.000000
# 6 0.000000 0.000000 0.000000 0.024781 0.000000 0.045019
#
#
# Mechanical properties :
#
#
# Convention : Reuss Voigt Hill
#
# Bulk Modulus (GPa) = 26.21088 59.70962 42.96025
# Shear Modulus (GPa) = 14.54911 24.25326 19.40118
#
# Velocity S-wave (km/s) = 2.89702 3.74040 3.34539
# Velocity P-wave (km/s) = 5.12934 7.28683 6.30111
#
# Compressibility (1/GPa) = 0.03815210
#
# Stress axis : x y z
#
# Youngs Moduli (GPa) = 27.94764 48.51136 20.82027
#
# Poissons Ratio (x) = 0.59150 0.39125
# Poissons Ratio (y) = 0.34077 0.04480
# Poissons Ratio (z) = 0.52518 0.10438
#
# Static dielectric constant tensor:
#      x y z
#    x 3.349960 0.000000 -0.960540 
#    y 0.000000 3.228080 0.000000 
#    z -0.960540 0.000000 3.039210 
# 
# 
# High freq. dielectric constant tensor:
#      x y z
#    x 1.645420 0.000000 -0.063220 
#    y 0.000000 1.668310 0.000000 
#    z -0.063220 0.000000 1.642820 
# 
# From -- ./inp_files/86698.got.cif
#   From: 2010.06.25/outbox.cif.g09.slc.cpg/sg10_44_cif.got.tgz:86698.got - 2010.06.27 22:07:45.
