data_PCOD8058551
_publ_section_title
;
Structure prediction by ZEFSAII (Michael W. Deem and Ramdas Pophale) SiO2 
 PCOD8058551
Probable space group: P 2/M
;
_chemical_formula_sum "Si O2"
_cell_formula_units_Z 28
_cell_length_a 26.031966
_cell_length_b 9.185496
_cell_length_c 10.033574
_cell_angle_alpha 90.000000
_cell_angle_beta 39.320568
_cell_angle_gamma 90.000000
_cell_volume 1520.269522
_symmetry_space_group_name_H-M "P 2/M"
_symmetry_group_IT_number 10
_symmetry_cell_setting 'monoclinic'
loop_
_space_group_symop_operation_xyz
x,y,z
-x,y,-z
-x,-y,-z
x,-y,z
loop_
_atom_site_type_symbol
_atom_site_label
_atom_site_fract_x
_atom_site_fract_y
_atom_site_fract_z
Si Si1 0.657803 0.670270 0.344833
Si Si2 0.092679 0.169089 0.825252
Si Si3 0.908021 0.833024 0.646594
Si Si4 0.499031 0.835548 0.660436
Si Si5 0.342072 0.668673 0.965567
Si Si6 0.812133 0.831678 0.100584
Si Si7 0.171103 0.328659 0.429618
O O1 0.650673 0.500000 0.387316
O O2 0.575637 0.745910 0.561682
O O3 0.731943 0.735057 0.281398
O O4 0.673093 0.705488 0.158855
O O5 0.123474 0.198659 0.912414
O O6 0.150802 0.259250 0.611993
O O7 0.098231 0.000000 0.774622
O O8 0.000000 0.223681 0.000000
O O9 0.890056 0.732295 0.557385
O O10 0.000000 0.808311 0.500000
O O11 0.891343 0.000000 0.640285
O O12 0.853462 0.784533 0.880033
O O13 0.500000 0.831592 0.500000
O O14 0.502985 0.000000 0.707073
O O15 0.416220 0.761205 0.877093
O O16 0.364247 0.500000 0.937614
O O17 0.262871 0.713260 0.207226
O O18 0.786084 0.000000 0.150621
O O19 0.159228 0.500000 0.461248
#
# Coordination Sequence:
#
# PCOD8058551 Si02
#       7
#     4   4   4   4   4   4   4
#     4  10  18  31  51  76 111 147 177 216 272 329
#     4  10  22  41  60  78 106 146 190 231 276 329
#     4  10  20  35  56  80 106 140 180 226 279 327
#     4   9  17  28  47  77 109 140 179 222 262 314
#     4   9  18  32  49  75 111 146 177 214 268 327
#     4  10  20  34  55  80 107 140 184 232 271 321
#     4  11  22  36  55  82 113 144 181 226 273 328
#
# _framework density 18.417788000000002
#
# number of rings (size 3 to 8) (size 9 to 14) (size 15 to 20)
#    0.000    2.143    1.429    2.143    0.000    6.857 
#    0.000    1.429    0.000    0.857    0.000    6.000 
#    0.000    0.000    0.000    0.000    0.000    0.000 
#
# Total GULP energy -347295.992114 kJ/mol
# GULP energy per Si atom -12403.428290 kJ/mol
# Density = 1.837587 g / cm^3
# Si number density = 18.417788 Si / 1000 Ang^3
#
#
#
# Elastic Constant Matrix: (Units=GPa)
#
#
# Indices 1 2 3 4 5 6 
#
# 1 75.7354 39.1184 22.2589 0.0000 -24.7471 0.0000
# 2 39.1184 84.4040 37.2872 0.0000 -18.2375 0.0000
# 3 22.2589 37.2872 68.5605 0.0000 -21.8404 0.0000
# 4 0.0000 0.0000 0.0000 30.7460 0.0000 -3.9441
# 5 -24.7471 -18.2375 -21.8404 0.0000 27.6053 0.0000
# 6 0.0000 0.0000 0.0000 -3.9441 0.0000 24.5700
#
#
#
# Elastic Compliance Matrix: (Units=1/GPa)
#
#
# Indices 1 2 3 4 5 6 
#
# 1 0.021776 -0.007557 0.002231 0.000000 0.016293 0.000000
# 2 -0.007557 0.018709 -0.007944 0.000000 -0.000700 0.000000
# 3 0.002231 -0.007944 0.022925 0.000000 0.014889 0.000000
# 4 0.000000 0.000000 0.000000 0.033208 0.000000 0.005331
# 5 0.016293 -0.000700 0.014889 0.000000 0.062148 0.000000
# 6 0.000000 0.000000 0.000000 0.005331 0.000000 0.041556
#
#
# Mechanical properties :
#
#
# Convention : Reuss Voigt Hill
#
# Bulk Modulus (GPa) = 27.12426 47.33653 37.23040
# Shear Modulus (GPa) = 20.90722 25.25329 23.08026
#
# Velocity S-wave (km/s) = 3.37288 3.70690 3.54383
# Velocity P-wave (km/s) = 5.47061 6.63919 6.08303
#
# Compressibility (1/GPa) = 0.03686737
#
# Stress axis : x y z
#
# Youngs Moduli (GPa) = 45.92314 53.45156 43.62059
#
# Poissons Ratio (x) = 0.40394 -0.09730
# Poissons Ratio (y) = 0.34705 0.34654
# Poissons Ratio (z) = -0.10244 0.42464
#
# Static dielectric constant tensor:
#      x y z
#    x 3.252970 0.000000 -0.225600 
#    y 0.000000 3.424030 0.000000 
#    z -0.225600 0.000000 3.365680 
# 
# 
# High freq. dielectric constant tensor:
#      x y z
#    x 1.703260 0.000000 -0.025350 
#    y 0.000000 1.716550 0.000000 
#    z -0.025350 0.000000 1.703730 
# 
# From -- ./inp_files/36965.got.cif
#   From: 2010.06.25/outbox.cif.g09.slc.cpg/sg10_19_cif.got.tgz:36965.got - 2010.06.27 22:07:45.
