data_PCOD8058556
_publ_section_title
;
Structure prediction by ZEFSAII (Michael W. Deem and Ramdas Pophale) SiO2 
 PCOD8058556
Probable space group: P 2/M
;
_chemical_formula_sum "Si O2"
_cell_formula_units_Z 28
_cell_length_a 19.597034
_cell_length_b 8.767223
_cell_length_c 21.231965
_cell_angle_alpha 90.000000
_cell_angle_beta 22.172786
_cell_angle_gamma 90.000000
_cell_volume 1376.719971
_symmetry_space_group_name_H-M "P 2/M"
_symmetry_group_IT_number 10
_symmetry_cell_setting 'monoclinic'
loop_
_space_group_symop_operation_xyz
x,y,z
-x,y,-z
-x,-y,-z
x,-y,z
loop_
_atom_site_type_symbol
_atom_site_label
_atom_site_fract_x
_atom_site_fract_y
_atom_site_fract_z
Si Si1 0.764474 0.180676 0.807645
Si Si2 0.439133 0.676328 0.481091
Si Si3 0.400015 0.820364 0.314841
Si Si4 0.029000 0.820101 0.686538
Si Si5 0.972122 0.320070 0.182877
Si Si6 0.308008 0.819422 0.838814
Si Si7 0.612025 0.181441 0.813124
O O1 0.930423 0.242462 0.707559
O O2 0.761987 0.238910 0.736518
O O3 0.774502 0.000000 0.797567
O O4 0.582621 0.235286 0.996747
O O5 0.500000 0.701445 0.500000
O O6 0.445564 0.500000 0.455504
O O7 0.581682 0.766460 0.316503
O O8 0.233363 0.739518 0.651217
O O9 0.583788 0.764365 0.190901
O O10 0.363756 0.745519 0.277060
O O11 0.238443 0.776915 0.499937
O O12 0.407646 0.000000 0.298572
O O13 0.955821 0.734861 0.810658
O O14 0.995022 0.000000 0.724619
O O15 0.980454 0.500000 0.169809
O O16 0.106724 0.251707 0.014621
O O17 0.290549 0.000000 0.850662
O O18 0.623119 0.000000 0.799693
#
# Coordination Sequence:
#
# PCOD8058556 Si02
#       7
#     4   4   4   4   4   4   4
#     4   8  14  23  40  65 101 143 183 232 283 335
#     4  10  23  44  66  88 118 154 192 234 280 338
#     4   9  17  28  47  76 111 145 183 234 288 336
#     4  10  18  31  51  78 110 145 189 240 290 334
#     4  11  23  39  61  87 116 154 195 235 282 343
#     4  11  22  38  62  91 122 154 190 237 289 340
#     4   8  13  23  37  64 103 142 182 226 285 338
#
# _framework density 20.338194999999999
#
# number of rings (size 3 to 8) (size 9 to 14) (size 15 to 20)
#    0.000    2.429    1.429    2.571    0.000    4.286 
#    0.000    5.714    0.000    0.000    0.000   11.000 
#    0.000    0.000    0.000    0.000    0.000    0.000 
#
# Total GULP energy -346969.089922 kJ/mol
# GULP energy per Si atom -12391.753211 kJ/mol
# Density = 2.029190 g / cm^3
# Si number density = 20.338195 Si / 1000 Ang^3
#
#
#
# Elastic Constant Matrix: (Units=GPa)
#
#
# Indices 1 2 3 4 5 6 
#
# 1 99.2906 29.3774 50.1353 0.0000 4.6127 0.0000
# 2 29.3774 40.7210 29.0119 0.0000 3.8786 0.0000
# 3 50.1353 29.0119 108.8600 0.0000 4.6199 0.0000
# 4 0.0000 0.0000 0.0000 24.1903 0.0000 2.8117
# 5 4.6127 3.8786 4.6199 0.0000 29.5008 0.0000
# 6 0.0000 0.0000 0.0000 2.8117 0.0000 12.1449
#
#
#
# Elastic Compliance Matrix: (Units=1/GPa)
#
#
# Indices 1 2 3 4 5 6 
#
# 1 0.014625 -0.007052 -0.004831 0.000000 -0.000603 0.000000
# 2 -0.007052 0.033935 -0.005691 0.000000 -0.002468 0.000000
# 3 -0.004831 -0.005691 0.012950 0.000000 -0.000524 0.000000
# 4 0.000000 0.000000 0.000000 0.042482 0.000000 -0.009835
# 5 -0.000603 -0.002468 -0.000524 0.000000 0.034398 0.000000
# 6 0.000000 0.000000 0.000000 -0.009835 0.000000 0.084616
#
#
# Mechanical properties :
#
#
# Convention : Reuss Voigt Hill
#
# Bulk Modulus (GPa) = 37.93351 51.76898 44.85125
# Shear Modulus (GPa) = 18.73073 22.52366 20.62719
#
# Velocity S-wave (km/s) = 3.03803 3.33146 3.18812
# Velocity P-wave (km/s) = 5.56759 6.34882 5.97099
#
# Compressibility (1/GPa) = 0.02636192
#
# Stress axis : x y z
#
# Youngs Moduli (GPa) = 68.37575 29.46836 77.22089
#
# Poissons Ratio (x) = 0.20781 0.37302
# Poissons Ratio (y) = 0.48218 0.43949
# Poissons Ratio (z) = 0.33029 0.16771
#
# Static dielectric constant tensor:
#      x y z
#    x 4.126850 0.000000 -0.130220 
#    y 0.000000 3.125140 0.000000 
#    z -0.130220 0.000000 3.803210 
# 
# 
# High freq. dielectric constant tensor:
#      x y z
#    x 1.808340 0.000000 -0.000640 
#    y 0.000000 1.733340 0.000000 
#    z -0.000640 0.000000 1.797830 
# 
# From -- ./inp_files/90359.got.cif
#   From: 2010.06.25/outbox.cif.g09.slc.cpg/sg10_46_cif.got.tgz:90359.got - 2010.06.27 22:07:45.
