data_PCOD8058757
_publ_section_title
;
Structure prediction by ZEFSAII (Michael W. Deem and Ramdas Pophale) SiO2 
 PCOD8058757
Probable space group: P 2/M
;
_chemical_formula_sum "Si O2"
_cell_formula_units_Z 32
_cell_length_a 25.967549
_cell_length_b 9.081888
_cell_length_c 14.258818
_cell_angle_alpha 90.000000
_cell_angle_beta 144.400562
_cell_angle_gamma 90.000000
_cell_volume 1957.489376
_symmetry_space_group_name_H-M "P 2/M"
_symmetry_group_IT_number 10
_symmetry_cell_setting 'monoclinic'
loop_
_space_group_symop_operation_xyz
x,y,z
-x,y,-z
-x,-y,-z
x,-y,z
loop_
_atom_site_type_symbol
_atom_site_label
_atom_site_fract_x
_atom_site_fract_y
_atom_site_fract_z
Si Si1 0.717846 0.170496 0.766600
Si Si2 0.255912 0.328308 0.552558
Si Si3 0.410678 0.326283 0.921063
Si Si4 0.897555 0.174358 0.946444
Si Si5 0.446407 0.831611 0.159055
Si Si6 0.418583 0.325626 0.313554
Si Si7 0.350078 0.163771 0.535824
Si Si8 0.907345 0.173857 0.748105
O O1 0.817277 0.230551 0.893054
O O2 0.674424 0.268758 0.782967
O O3 0.658051 0.193073 0.586299
O O4 0.718821 0.000000 0.799628
O O5 0.239389 0.500000 0.530419
O O6 0.325126 0.279316 0.734349
O O7 0.294520 0.284176 0.508900
O O8 0.160940 0.249349 0.425443
O O9 0.414398 0.500000 0.945313
O O10 0.500000 0.275324 0.000000
O O11 0.396682 0.243255 0.998418
O O12 0.885390 0.228655 0.821352
O O13 0.894282 0.000000 0.937214
O O14 0.992355 0.225397 0.128277
O O15 0.427259 0.742707 0.224360
O O16 0.548977 0.822813 0.285401
O O17 0.414810 0.000000 0.124631
O O18 0.500000 0.273944 0.500000
O O19 0.416094 0.500000 0.300745
O O20 0.312973 0.000000 0.504627
O O21 0.898412 0.000000 0.724783
#
# Coordination Sequence:
#
# PCOD8058757 Si02
#       8
#     4   4   4   4   4   4   4   4
#     4  10  18  32  51  72  98 131 171 207 242 283
#     4  11  21  31  47  71 100 135 169 199 242 294
#     4  10  21  36  50  68  99 136 166 199 247 298
#     4   8  15  28  49  72  96 130 164 201 246 292
#     4  11  22  35  52  73  96 127 170 215 247 278
#     4  11  23  35  49  71 101 136 167 198 244 298
#     4  10  19  30  48  71  98 130 165 207 245 279
#     4   9  16  30  49  70  98 130 166 201 243 292
#
# _framework density 16.347470000000001
#
# number of rings (size 3 to 8) (size 9 to 14) (size 15 to 20)
#    0.000    2.000    3.750    1.875    0.000    2.750 
#    0.000    1.875    0.000    0.000    0.000    0.875 
#    0.000    7.000    0.000    0.000    0.000    0.000 
#
# Total GULP energy -396731.302426 kJ/mol
# GULP energy per Si atom -12397.853201 kJ/mol
# Density = 1.631026 g / cm^3
# Si number density = 16.347470 Si / 1000 Ang^3
#
#
#
# Elastic Constant Matrix: (Units=GPa)
#
#
# Indices 1 2 3 4 5 6 
#
# 1 85.6032 37.4955 47.4039 0.0000 3.9059 0.0000
# 2 37.4955 56.3893 45.7478 0.0000 -0.5482 0.0000
# 3 47.4039 45.7478 119.1872 0.0000 9.6081 0.0000
# 4 0.0000 0.0000 0.0000 25.0387 0.0000 -2.2735
# 5 3.9059 -0.5482 9.6081 0.0000 24.1578 0.0000
# 6 0.0000 0.0000 0.0000 -2.2735 0.0000 23.9719
#
#
#
# Elastic Compliance Matrix: (Units=1/GPa)
#
#
# Indices 1 2 3 4 5 6 
#
# 1 0.017560 -0.008911 -0.003428 0.000000 -0.001678 0.000000
# 2 -0.008911 0.030795 -0.008728 0.000000 0.005611 0.000000
# 3 -0.003428 -0.008728 0.013508 0.000000 -0.005016 0.000000
# 4 0.000000 0.000000 0.000000 0.040285 0.000000 0.003821
# 5 -0.001678 0.005611 -0.005016 0.000000 0.043788 0.000000
# 6 0.000000 0.000000 0.000000 0.003821 0.000000 0.042078
#
#
# Mechanical properties :
#
#
# Convention : Reuss Voigt Hill
#
# Bulk Modulus (GPa) = 50.69050 58.05271 54.37161
# Shear Modulus (GPa) = 21.12145 23.33585 22.22865
#
# Velocity S-wave (km/s) = 3.59838 3.78231 3.69149
# Velocity P-wave (km/s) = 6.95270 7.39347 7.17647
#
# Compressibility (1/GPa) = 0.01972756
#
# Stress axis : x y z
#
# Youngs Moduli (GPa) = 56.94693 32.47288 74.02885
#
# Poissons Ratio (x) = 0.28938 0.25380
# Poissons Ratio (y) = 0.50747 0.64613
# Poissons Ratio (z) = 0.19524 0.28343
#
# Static dielectric constant tensor:
#      x y z
#    x 2.986490 0.000000 0.230410 
#    y 0.000000 2.972290 0.000000 
#    z 0.230410 0.000000 3.239450 
# 
# 
# High freq. dielectric constant tensor:
#      x y z
#    x 1.605750 0.000000 0.012910 
#    y 0.000000 1.620580 0.000000 
#    z 0.012910 0.000000 1.622340 
# 
# From -- ./inp_files/72569.got.cif
#   From: 2010.06.25/outbox.cif.g09.slc.cpg/sg10_37_cif.got.tgz:72569.got - 2010.06.27 22:07:45.
