data_PCOD8058750
_publ_section_title
;
Structure prediction by ZEFSAII (Michael W. Deem and Ramdas Pophale) SiO2 
 PCOD8058750
Probable space group: P 2/M
;
_chemical_formula_sum "Si O2"
_cell_formula_units_Z 32
_cell_length_a 14.415537
_cell_length_b 13.355815
_cell_length_c 13.663499
_cell_angle_alpha 90.000000
_cell_angle_beta 138.434734
_cell_angle_gamma 90.000000
_cell_volume 1745.364929
_symmetry_space_group_name_H-M "P 2/M"
_symmetry_group_IT_number 10
_symmetry_cell_setting 'monoclinic'
loop_
_space_group_symop_operation_xyz
x,y,z
-x,y,-z
-x,-y,-z
x,-y,z
loop_
_atom_site_type_symbol
_atom_site_label
_atom_site_fract_x
_atom_site_fract_y
_atom_site_fract_z
Si Si1 0.439336 0.613985 0.815481
Si Si2 0.006965 0.695380 0.390226
Si Si3 0.730485 0.613063 0.505073
Si Si4 0.300739 0.192056 0.406691
Si Si5 0.414366 0.117078 0.299687
Si Si6 0.303076 0.698505 0.892653
Si Si7 0.725175 0.887311 0.012904
Si Si8 0.037876 0.888313 0.300087
O O1 0.401725 0.500000 0.813382
O O2 0.394530 0.637500 0.669601
O O3 0.355885 0.686874 0.823151
O O4 0.605287 0.631614 0.960139
O O5 0.858053 0.665158 0.225572
O O6 0.000000 0.680424 0.500000
O O7 0.122166 0.622759 0.434885
O O8 0.045411 0.810823 0.396409
O O9 0.717892 0.500000 0.535818
O O10 0.716135 0.689714 0.583508
O O11 0.334813 0.181216 0.319430
O O12 0.421674 0.143341 0.569195
O O13 0.157472 0.134752 0.315755
O O14 0.351307 0.148129 0.146037
O O15 0.392492 0.000000 0.304674
O O16 0.320838 0.815323 0.934902
O O17 0.680107 0.000000 0.005621
O O18 0.891518 0.879772 0.126821
O O19 0.057269 0.000000 0.358720
#
# Coordination Sequence:
#
# PCOD8058750 Si02
#       8
#     4   4   4   4   4   4   4   4
#     4  10  20  33  51  72  94 129 170 210 250 288
#     4  10  19  32  49  73 101 133 169 203 247 292
#     4  10  21  35  52  74 101 131 167 211 251 295
#     4  10  19  33  53  76 101 128 165 207 254 297
#     4  10  19  33  55  78 101 130 165 205 246 297
#     4  10  18  32  51  70 101 129 164 210 242 289
#     4   9  19  33  50  73 101 134 165 198 242 293
#     4   9  18  32  50  73 103 133 164 204 244 293
#
# _framework density 18.334275000000002
#
# number of rings (size 3 to 8) (size 9 to 14) (size 15 to 20)
#    0.000    2.250    1.250    3.000    0.000    2.000 
#    0.000    4.375    0.000    1.500    0.000    7.875 
#    0.000    0.000    0.000    0.000    0.000    0.000 
#
# Total GULP energy -396787.560742 kJ/mol
# GULP energy per Si atom -12399.611273 kJ/mol
# Density = 1.829255 g / cm^3
# Si number density = 18.334275 Si / 1000 Ang^3
#
#
#
# Elastic Constant Matrix: (Units=GPa)
#
#
# Indices 1 2 3 4 5 6 
#
# 1 52.5964 35.8394 16.0823 0.0000 4.1504 0.0000
# 2 35.8394 101.2490 31.6363 0.0000 -7.4581 0.0000
# 3 16.0823 31.6363 69.2831 0.0000 7.5694 0.0000
# 4 0.0000 0.0000 0.0000 26.0812 0.0000 -0.7264
# 5 4.1504 -7.4581 7.5694 0.0000 24.9557 0.0000
# 6 0.0000 0.0000 0.0000 -0.7264 0.0000 24.5478
#
#
#
# Elastic Compliance Matrix: (Units=1/GPa)
#
#
# Indices 1 2 3 4 5 6 
#
# 1 0.026358 -0.009523 -0.001014 0.000000 -0.006922 0.000000
# 2 -0.009523 0.015656 -0.005815 0.000000 0.008026 0.000000
# 3 -0.001014 -0.005815 0.018095 0.000000 -0.007058 0.000000
# 4 0.000000 0.000000 0.000000 0.038373 0.000000 0.001135
# 5 -0.006922 0.008026 -0.007058 0.000000 0.045762 0.000000
# 6 0.000000 0.000000 0.000000 0.001135 0.000000 0.040770
#
#
# Mechanical properties :
#
#
# Convention : Reuss Voigt Hill
#
# Bulk Modulus (GPa) = 36.48938 43.36049 39.92494
# Shear Modulus (GPa) = 22.04065 24.42164 23.23115
#
# Velocity S-wave (km/s) = 3.47097 3.65365 3.56348
# Velocity P-wave (km/s) = 6.00075 6.44206 6.22532
#
# Compressibility (1/GPa) = 0.02740523
#
# Stress axis : x y z
#
# Youngs Moduli (GPa) = 37.93919 63.87400 55.26322
#
# Poissons Ratio (x) = 0.60828 0.05601
# Poissons Ratio (y) = 0.36130 0.32136
# Poissons Ratio (z) = 0.03845 0.37144
#
# Static dielectric constant tensor:
#      x y z
#    x 3.132270 0.000000 0.244620 
#    y 0.000000 3.439280 0.000000 
#    z 0.244620 0.000000 3.584480 
# 
# 
# High freq. dielectric constant tensor:
#      x y z
#    x 1.686450 0.000000 0.018430 
#    y 0.000000 1.712730 0.000000 
#    z 0.018430 0.000000 1.718130 
# 
# From -- ./inp_files/67310.got.cif
#   From: 2010.06.25/outbox.cif.g09.slc.cpg/sg10_34_cif.got.tgz:67310.got - 2010.06.27 22:07:45.
