data_PCOD8058100
_publ_section_title
;
Structure prediction by ZEFSAII (Michael W. Deem and Ramdas Pophale) SiO2 
 PCOD8058100
Probable space group: P 2/M
;
_chemical_formula_sum "Si O2"
_cell_formula_units_Z 24
_cell_length_a 5.294090
_cell_length_b 13.231914
_cell_length_c 25.567318
_cell_angle_alpha 90.000000
_cell_angle_beta 58.823166
_cell_angle_gamma 90.000000
_cell_volume 1532.345011
_symmetry_space_group_name_H-M "P 2/M"
_symmetry_group_IT_number 10
_symmetry_cell_setting 'monoclinic'
loop_
_space_group_symop_operation_xyz
x,y,z
-x,y,-z
-x,-y,-z
x,-y,z
loop_
_atom_site_type_symbol
_atom_site_label
_atom_site_fract_x
_atom_site_fract_y
_atom_site_fract_z
Si Si1 0.429403 0.700470 0.928241
Si Si2 0.657251 0.120700 0.637096
Si Si3 0.672870 0.120385 0.430853
Si Si4 0.904381 0.383266 0.938249
Si Si5 0.633352 0.881267 0.846630
Si Si6 0.685151 0.881003 0.225958
O O1 0.748183 0.645099 0.900196
O O2 0.474949 0.818694 0.910018
O O3 0.250855 0.645090 0.900198
O O4 0.246902 0.686843 0.001240
O O5 0.492622 0.161510 0.602997
O O6 0.485285 0.165161 0.705880
O O7 0.992379 0.161508 0.602998
O O8 0.656441 0.000000 0.637416
O O9 0.500000 0.161563 0.500000
O O10 0.674015 0.000000 0.430394
O O11 0.855583 0.500000 0.957762
O O12 0.480246 0.847368 0.809053
O O13 0.974372 0.847402 0.809026
O O14 0.593036 0.000000 0.862746
O O15 0.669445 0.000000 0.232200
#
# Coordination Sequence:
#
# PCOD8058100 Si02
#       6
#     4   4   4   4   4   4
#     4  10  18  30  47  66  84 107 132 161 205 248
#     4   9  15  23  34  46  62  90 126 159 200 247
#     4   9  15  21  30  46  66  85 112 159 214 254
#     4  10  19  33  50  68  86 104 129 163 207 248
#     4  10  19  30  42  59  83 108 137 172 205 237
#     4   9  17  28  40  52  71 103 139 171 201 235
#
# _framework density 15.662269
#
# number of rings (size 3 to 8) (size 9 to 14) (size 15 to 20)
#    0.000    2.500    0.000    5.000    0.000    6.000 
#    0.000    3.333    0.000    0.000    0.000    0.000 
#    0.000    0.000    0.000    0.000    0.000    0.000 
#
# Total GULP energy -297403.780211 kJ/mol
# GULP energy per Si atom -12391.824175 kJ/mol
# Density = 1.562662 g / cm^3
# Si number density = 15.662269 Si / 1000 Ang^3
#
#
#
# Elastic Constant Matrix: (Units=GPa)
#
#
# Indices 1 2 3 4 5 6 
#
# 1 177.4631 35.7344 42.7308 0.0000 -1.0246 0.0000
# 2 35.7344 50.3697 44.1572 0.0000 0.0909 0.0000
# 3 42.7308 44.1572 81.0825 0.0000 0.1522 0.0000
# 4 0.0000 0.0000 0.0000 1.5652 0.0000 -0.0879
# 5 -1.0246 0.0909 0.1522 0.0000 13.2459 0.0000
# 6 0.0000 0.0000 0.0000 -0.0879 0.0000 10.6811
#
#
#
# Elastic Compliance Matrix: (Units=1/GPa)
#
#
# Indices 1 2 3 4 5 6 
#
# 1 0.006714 -0.003179 -0.001808 0.000000 0.000562 0.000000
# 2 -0.003179 0.039497 -0.019834 0.000000 -0.000289 0.000000
# 3 -0.001808 -0.019834 0.024088 0.000000 -0.000280 0.000000
# 4 0.000000 0.000000 0.000000 0.639202 0.000000 0.005259
# 5 0.000562 -0.000289 -0.000280 0.000000 0.075543 0.000000
# 6 0.000000 0.000000 0.000000 0.005259 0.000000 0.093667
#
#
# Mechanical properties :
#
#
# Convention : Reuss Voigt Hill
#
# Bulk Modulus (GPa) = 48.41059 61.57336 54.99198
# Shear Modulus (GPa) = 5.34623 17.51797 11.43210
#
# Velocity S-wave (km/s) = 1.84956 3.34800 2.70462
# Velocity P-wave (km/s) = 5.96132 7.37184 6.70378
#
# Compressibility (1/GPa) = 0.02065664
#
# Stress axis : x y z
#
# Youngs Moduli (GPa) = 148.94961 25.31857 41.51479
#
# Poissons Ratio (x) = 0.08049 0.07505
# Poissons Ratio (y) = 0.47353 0.82340
# Poissons Ratio (z) = 0.26928 0.50216
#
# Static dielectric constant tensor:
#      x y z
#    x 4.423590 0.000000 -0.015020 
#    y 0.000000 2.437740 0.000000 
#    z -0.015020 0.000000 2.897210 
# 
# 
# High freq. dielectric constant tensor:
#      x y z
#    x 1.641150 0.000000 -0.000630 
#    y 0.000000 1.526470 0.000000 
#    z -0.000630 0.000000 1.577040 
# 
# From -- ./inp_files/13053.got.cif
#   From: 2010.06.25/outbox.cif.g09.slc.cpg/sg10_7_cif.got.tgz:13053.got - 2010.06.27 22:07:45.
