data_PCOD8058013
_publ_section_title
;
Structure prediction by ZEFSAII (Michael W. Deem and Ramdas Pophale) SiO2 
 PCOD8058013
Probable space group: P 2/M
;
_chemical_formula_sum "Si O2"
_cell_formula_units_Z 32
_cell_length_a 14.147830
_cell_length_b 9.619196
_cell_length_c 24.922711
_cell_angle_alpha 90.000000
_cell_angle_beta 149.836506
_cell_angle_gamma 90.000000
_cell_volume 1704.250028
_symmetry_space_group_name_H-M "P 2/M"
_symmetry_group_IT_number 10
_symmetry_cell_setting 'monoclinic'
loop_
_space_group_symop_operation_xyz
x,y,z
-x,y,-z
-x,-y,-z
x,-y,z
loop_
_atom_site_type_symbol
_atom_site_label
_atom_site_fract_x
_atom_site_fract_y
_atom_site_fract_z
Si Si1 0.788835 0.164762 0.896974
Si Si2 0.497278 0.166233 0.841691
Si Si3 0.873360 0.843989 0.393104
Si Si4 0.611627 0.336783 0.108808
Si Si5 0.582507 0.839302 0.690346
Si Si6 0.184433 0.848391 0.461609
Si Si7 0.037490 0.656278 0.305110
Si Si8 0.353238 0.341926 0.381911
O O1 0.687647 0.206543 0.903278
O O2 0.679428 0.223764 0.791165
O O3 0.791041 0.000000 0.893758
O O4 0.000000 0.226041 0.000000
O O5 0.328758 0.221055 0.720027
O O6 0.486936 0.248118 0.892557
O O7 0.480726 0.000000 0.844155
O O8 0.000000 0.762936 0.500000
O O9 0.986208 0.842234 0.393509
O O10 0.837336 0.000000 0.397349
O O11 0.603321 0.500000 0.119633
O O12 0.825190 0.284499 0.202336
O O13 0.500000 0.305441 0.000000
O O14 0.357227 0.821722 0.587334
O O15 0.643727 0.756743 0.667787
O O16 0.640186 0.000000 0.710554
O O17 0.182905 0.735727 0.414593
O O18 0.210610 0.000000 0.447632
O O19 0.030585 0.500000 0.323124
O O20 0.135637 0.665484 0.295193
O O21 0.500000 0.292342 0.500000
O O22 0.403997 0.500000 0.390168
#
# Coordination Sequence:
#
# PCOD8058013 Si02
#       8
#     4   4   4   4   4   4   4   4
#     4   9  19  36  56  80 112 145 177 218 268 316
#     4  10  19  34  58  83 106 139 181 220 261 314
#     4   9  16  27  47  76 106 134 167 211 262 311
#     4  10  22  39  57  78 108 144 179 220 269 318
#     4  10  20  33  53  81 109 141 180 221 267 317
#     4  10  18  29  49  77 106 132 169 219 264 308
#     4  10  20  35  53  72 101 141 177 211 264 321
#     4  10  20  34  52  75 106 145 182 218 266 322
#
# _framework density 18.776588
#
# number of rings (size 3 to 8) (size 9 to 14) (size 15 to 20)
#    0.000    2.250    2.500    0.750    0.000    5.000 
#    0.000    0.625    0.000    3.750    0.000    0.000 
#    0.000    0.000    0.000    0.000    0.000    0.000 
#
# Total GULP energy -396577.666199 kJ/mol
# GULP energy per Si atom -12393.052069 kJ/mol
# Density = 1.873385 g / cm^3
# Si number density = 18.776588 Si / 1000 Ang^3
#
#
#
# Elastic Constant Matrix: (Units=GPa)
#
#
# Indices 1 2 3 4 5 6 
#
# 1 115.2784 37.8664 59.3403 0.0000 7.7018 0.0000
# 2 37.8664 44.9865 34.8079 0.0000 -5.5224 0.0000
# 3 59.3403 34.8079 119.4485 0.0000 2.6142 0.0000
# 4 0.0000 0.0000 0.0000 61.0918 0.0000 -60.3570
# 5 7.7018 -5.5224 2.6142 0.0000 34.0999 0.0000
# 6 0.0000 0.0000 0.0000 -60.3570 0.0000 105.4715
#
#
#
# Elastic Compliance Matrix: (Units=1/GPa)
#
#
# Indices 1 2 3 4 5 6 
#
# 1 0.014176 -0.009156 -0.004279 0.000000 -0.004357 0.000000
# 2 -0.009156 0.035603 -0.006008 0.000000 0.008294 0.000000
# 3 -0.004279 -0.006008 0.012269 0.000000 -0.000947 0.000000
# 4 0.000000 0.000000 0.000000 0.037662 0.000000 0.021552
# 5 -0.004357 0.008294 -0.000947 0.000000 0.031725 0.000000
# 6 0.000000 0.000000 0.000000 0.021552 0.000000 0.021815
#
#
# Mechanical properties :
#
#
# Convention : Reuss Voigt Hill
#
# Bulk Modulus (GPa) = 43.17450 60.41584 51.79517
# Shear Modulus (GPa) = 25.01804 49.97921 37.49862
#
# Velocity S-wave (km/s) = 3.65417 5.16484 4.47373
# Velocity P-wave (km/s) = 6.39122 8.23490 7.37093
#
# Compressibility (1/GPa) = 0.02316182
#
# Stress axis : x y z
#
# Youngs Moduli (GPa) = 70.54208 28.08790 81.50740
#
# Poissons Ratio (x) = 0.25718 0.34876
# Poissons Ratio (y) = 0.64591 0.48966
# Poissons Ratio (z) = 0.30184 0.16874
#
# Static dielectric constant tensor:
#      x y z
#    x 3.470720 0.000000 0.188450 
#    y 0.000000 3.172570 0.000000 
#    z 0.188450 0.000000 3.604040 
# 
# 
# High freq. dielectric constant tensor:
#      x y z
#    x 1.734160 0.000000 0.011740 
#    y 0.000000 1.690000 0.000000 
#    z 0.011740 0.000000 1.730400 
# 
# From -- ./inp_files/66570.got.cif
#   From: 2010.06.25/outbox.cif.g09.slc.cpg/sg10_34_cif.got.tgz:66570.got - 2010.06.27 22:07:45.
