data_PCOD8058615
_publ_section_title
;
Structure prediction by ZEFSAII (Michael W. Deem and Ramdas Pophale) SiO2 
 PCOD8058615
Probable space group: P 2/M
;
_chemical_formula_sum "Si O2"
_cell_formula_units_Z 32
_cell_length_a 17.637475
_cell_length_b 8.853298
_cell_length_c 23.781801
_cell_angle_alpha 90.000000
_cell_angle_beta 30.632176
_cell_angle_gamma 90.000000
_cell_volume 1892.132232
_symmetry_space_group_name_H-M "P 2/M"
_symmetry_group_IT_number 10
_symmetry_cell_setting 'monoclinic'
loop_
_space_group_symop_operation_xyz
x,y,z
-x,y,-z
-x,-y,-z
x,-y,z
loop_
_atom_site_type_symbol
_atom_site_label
_atom_site_fract_x
_atom_site_fract_y
_atom_site_fract_z
Si Si1 0.453706 0.678312 0.638880
Si Si2 0.228842 0.823215 0.582557
Si Si3 0.909635 0.323013 0.429929
Si Si4 0.630131 0.175488 0.193267
Si Si5 0.678271 0.176562 0.659972
Si Si6 0.207572 0.822613 0.724496
Si Si7 0.119960 0.832856 0.374086
Si Si8 0.956475 0.822476 0.967149
O O1 0.464708 0.500000 0.628512
O O2 0.616962 0.745965 0.531424
O O3 0.377878 0.726904 0.745397
O O4 0.356383 0.738296 0.649095
O O5 0.100502 0.757859 0.623986
O O6 0.179930 0.785785 0.677046
O O7 0.247092 0.000000 0.560355
O O8 0.904693 0.500000 0.424182
O O9 0.769474 0.273139 0.556788
O O10 0.066889 0.279158 0.358777
O O11 0.495956 0.212971 0.236166
O O12 0.628106 0.000000 0.212588
O O13 0.784364 0.216751 0.063309
O O14 0.726234 0.219730 0.693532
O O15 0.714117 0.000000 0.626091
O O16 0.064837 0.757710 0.849642
O O17 0.232167 0.000000 0.718686
O O18 0.000000 0.835024 0.500000
O O19 0.137560 0.000000 0.336597
O O20 0.981836 0.000000 0.952961
O O21 0.000000 0.752508 0.000000
#
# Coordination Sequence:
#
# PCOD8058615 Si02
#       8
#     4   4   4   4   4   4   4   4
#     4  12  23  33  48  72 101 129 162 203 245 287
#     4  11  22  35  51  69  95 131 169 202 240 292
#     4  11  20  29  45  70  99 129 159 196 244 289
#     4  10  18  31  53  74  98 131 164 198 241 290
#     4   9  17  29  47  70  97 131 164 194 234 289
#     4  10  21  37  54  71  92 128 170 205 243 290
#     4   8  15  28  44  65  95 129 163 193 230 287
#     4   9  16  30  54  77  94 119 163 210 244 282
#
# _framework density 16.912137000000001
#
# number of rings (size 3 to 8) (size 9 to 14) (size 15 to 20)
#    0.000    2.000    2.500    3.750    0.000    4.750 
#    0.000    1.250    0.000    0.000    0.000    0.875 
#    0.000    7.000    0.000    0.000    0.000    0.000 
#
# Total GULP energy -396734.816958 kJ/mol
# GULP energy per Si atom -12397.963030 kJ/mol
# Density = 1.687364 g / cm^3
# Si number density = 16.912137 Si / 1000 Ang^3
#
#
#
# Elastic Constant Matrix: (Units=GPa)
#
#
# Indices 1 2 3 4 5 6 
#
# 1 139.1428 44.8795 36.5530 0.0000 -9.7002 0.0000
# 2 44.8795 73.8830 13.3352 0.0000 3.5678 0.0000
# 3 36.5530 13.3352 44.8742 0.0000 2.2699 0.0000
# 4 0.0000 0.0000 0.0000 3.0753 0.0000 -0.5179
# 5 -9.7002 3.5678 2.2699 0.0000 23.6368 0.0000
# 6 0.0000 0.0000 0.0000 -0.5179 0.0000 13.2160
#
#
#
# Elastic Compliance Matrix: (Units=1/GPa)
#
#
# Indices 1 2 3 4 5 6 
#
# 1 0.011676 -0.005948 -0.008070 0.000000 0.006465 0.000000
# 2 -0.005948 0.017405 -0.000071 0.000000 -0.005061 0.000000
# 3 -0.008070 -0.000071 0.029188 0.000000 -0.006104 0.000000
# 4 0.000000 0.000000 0.000000 0.327336 0.000000 0.012827
# 5 0.006465 -0.005061 -0.006104 0.000000 0.046310 0.000000
# 6 0.000000 0.000000 0.000000 0.012827 0.000000 0.076168
#
#
# Mechanical properties :
#
#
# Convention : Reuss Voigt Hill
#
# Bulk Modulus (GPa) = 33.23317 49.71504 41.47410
# Shear Modulus (GPa) = 9.15259 18.86111 14.00685
#
# Velocity S-wave (km/s) = 2.32886 3.34315 2.88099
# Velocity P-wave (km/s) = 5.18889 6.66048 5.97020
#
# Compressibility (1/GPa) = 0.03009042
#
# Stress axis : x y z
#
# Youngs Moduli (GPa) = 85.64464 57.45388 34.26030
#
# Poissons Ratio (x) = 0.34174 0.27649
# Poissons Ratio (y) = 0.50942 0.00244
# Poissons Ratio (z) = 0.69119 0.00409
#
# Static dielectric constant tensor:
#      x y z
#    x 3.552820 0.000000 -0.172940 
#    y 0.000000 3.023340 0.000000 
#    z -0.172940 0.000000 3.053200 
# 
# 
# High freq. dielectric constant tensor:
#      x y z
#    x 1.661630 0.000000 -0.015060 
#    y 0.000000 1.638370 0.000000 
#    z -0.015060 0.000000 1.613330 
# 
# From -- ./inp_files/89937.got.cif
#   From: 2010.06.25/outbox.cif.g09.slc.cpg/sg10_45_cif.got.tgz:89937.got - 2010.06.27 22:07:45.
