data_PCOD8058005
_publ_section_title
;
Structure prediction by ZEFSAII (Michael W. Deem and Ramdas Pophale) SiO2 
 PCOD8058005
Probable space group: P 2/M
;
_chemical_formula_sum "Si O2"
_cell_formula_units_Z 32
_cell_length_a 25.467697
_cell_length_b 9.294369
_cell_length_c 21.211724
_cell_angle_alpha 90.000000
_cell_angle_beta 21.089461
_cell_angle_gamma 90.000000
_cell_volume 1806.662878
_symmetry_space_group_name_H-M "P 2/M"
_symmetry_group_IT_number 10
_symmetry_cell_setting 'monoclinic'
loop_
_space_group_symop_operation_xyz
x,y,z
-x,y,-z
-x,-y,-z
x,-y,z
loop_
_atom_site_type_symbol
_atom_site_label
_atom_site_fract_x
_atom_site_fract_y
_atom_site_fract_z
Si Si1 0.033361 0.667948 0.894963
Si Si2 0.877782 0.664477 0.946788
Si Si3 0.648250 0.830036 0.865632
Si Si4 0.127493 0.164684 0.606180
Si Si5 0.244653 0.830103 0.118708
Si Si6 0.917246 0.164385 0.487406
Si Si7 0.706290 0.668916 0.481808
Si Si8 0.379107 0.335186 0.851301
O O1 0.052391 0.500000 0.885448
O O2 0.900212 0.701393 0.995708
O O3 0.000000 0.743060 0.000000
O O4 0.184554 0.726451 0.695214
O O5 0.929101 0.500000 0.877508
O O6 0.711748 0.687750 0.111373
O O7 0.972161 0.768694 0.797766
O O8 0.657350 0.793685 0.929722
O O9 0.794766 0.762724 0.669478
O O10 0.648836 0.000000 0.853062
O O11 0.500000 0.765380 0.000000
O O12 0.148337 0.178534 0.508636
O O13 0.257869 0.251110 0.493127
O O14 0.131423 0.000000 0.624092
O O15 0.079496 0.766503 0.311815
O O16 0.236864 0.000000 0.114757
O O17 0.321601 0.760403 0.972626
O O18 0.935993 0.000000 0.487407
O O19 0.729859 0.500000 0.466137
O O20 0.541624 0.708683 0.648580
O O21 0.371892 0.500000 0.882312
#
# Coordination Sequence:
#
# PCOD8058005 Si02
#       8
#     4   4   4   4   4   4   4   4
#     4   8  14  28  51  74  96 126 165 201 233 279
#     4   9  17  31  50  72 100 131 161 193 238 290
#     4   9  18  30  46  69  96 124 157 202 252 295
#     4  10  18  29  49  75  99 123 161 206 241 284
#     4  10  19  32  51  71  95 127 163 203 246 289
#     4   9  17  29  45  70  97 121 154 198 248 291
#     4   9  19  33  48  70 102 134 161 194 243 290
#     4  10  20  33  49  71 103 134 162 197 243 296
#
# _framework density 17.712213999999999
#
# number of rings (size 3 to 8) (size 9 to 14) (size 15 to 20)
#    0.000    2.750    1.250    1.500    1.750    2.000 
#    0.000    0.625    0.000   13.125    0.000    0.000 
#    0.000    9.000    0.000    0.000    0.000    0.000 
#
# Total GULP energy -396587.599991 kJ/mol
# GULP energy per Si atom -12393.362500 kJ/mol
# Density = 1.767190 g / cm^3
# Si number density = 17.712214 Si / 1000 Ang^3
#
#
#
# Elastic Constant Matrix: (Units=GPa)
#
#
# Indices 1 2 3 4 5 6 
#
# 1 129.4210 26.7596 81.5241 0.0000 -9.9086 0.0000
# 2 26.7596 33.0825 23.3695 0.0000 -0.9138 0.0000
# 3 81.5241 23.3695 116.5843 0.0000 -16.0306 0.0000
# 4 0.0000 0.0000 0.0000 16.2434 0.0000 -1.1969
# 5 -9.9086 -0.9138 -16.0306 0.0000 33.2707 0.0000
# 6 0.0000 0.0000 0.0000 -1.1969 0.0000 19.3630
#
#
#
# Elastic Compliance Matrix: (Units=1/GPa)
#
#
# Indices 1 2 3 4 5 6 
#
# 1 0.014580 -0.005331 -0.009157 0.000000 -0.000216 0.000000
# 2 -0.005331 0.037375 -0.004114 0.000000 -0.002543 0.000000
# 3 -0.009157 -0.004114 0.016508 0.000000 0.005114 0.000000
# 4 0.000000 0.000000 0.000000 0.061845 0.000000 0.003823
# 5 -0.000216 -0.002543 0.005114 0.000000 0.032386 0.000000
# 6 0.000000 0.000000 0.000000 0.003823 0.000000 0.051881
#
#
# Mechanical properties :
#
#
# Convention : Reuss Voigt Hill
#
# Bulk Modulus (GPa) = 31.98896 60.26604 46.12750
# Shear Modulus (GPa) = 19.06938 23.60439 21.33688
#
# Velocity S-wave (km/s) = 3.28475 3.65452 3.47456
# Velocity P-wave (km/s) = 5.69963 7.20461 6.49585
#
# Compressibility (1/GPa) = 0.03126079
#
# Stress axis : x y z
#
# Youngs Moduli (GPa) = 68.58476 26.75555 60.57558
#
# Poissons Ratio (x) = 0.14265 0.55468
# Poissons Ratio (y) = 0.36565 0.24918
# Poissons Ratio (z) = 0.62801 0.11006
#
# Static dielectric constant tensor:
#      x y z
#    x 3.465570 0.000000 -0.119160 
#    y 0.000000 2.955750 0.000000 
#    z -0.119160 0.000000 3.428390 
# 
# 
# High freq. dielectric constant tensor:
#      x y z
#    x 1.693760 0.000000 -0.011380 
#    y 0.000000 1.639920 0.000000 
#    z -0.011380 0.000000 1.679530 
# 
# From -- ./inp_files/86820.got.cif
#   From: 2010.06.25/outbox.cif.g09.slc.cpg/sg10_44_cif.got.tgz:86820.got - 2010.06.27 22:07:45.
