data_PCOD8058313
_publ_section_title
;
Structure prediction by ZEFSAII (Michael W. Deem and Ramdas Pophale) SiO2 
 PCOD8058313
Probable space group: P 2/M
;
_chemical_formula_sum "Si O2"
_cell_formula_units_Z 32
_cell_length_a 20.496747
_cell_length_b 8.684372
_cell_length_c 26.387285
_cell_angle_alpha 90.000000
_cell_angle_beta 21.327695
_cell_angle_gamma 90.000000
_cell_volume 1708.296319
_symmetry_space_group_name_H-M "P 2/M"
_symmetry_group_IT_number 10
_symmetry_cell_setting 'monoclinic'
loop_
_space_group_symop_operation_xyz
x,y,z
-x,y,-z
-x,-y,-z
x,-y,z
loop_
_atom_site_type_symbol
_atom_site_label
_atom_site_fract_x
_atom_site_fract_y
_atom_site_fract_z
Si Si1 0.300923 0.682738 0.155873
Si Si2 0.192467 0.818532 0.340916
Si Si3 0.638498 0.683222 0.588785
Si Si4 0.538999 0.682408 0.773123
Si Si5 0.981728 0.683123 0.092368
Si Si6 0.718199 0.683152 0.201592
Si Si7 0.133239 0.682990 0.085409
Si Si8 0.019582 0.316270 0.276405
O O1 0.301738 0.500000 0.158084
O O2 0.227779 0.744593 0.261296
O O3 0.171157 0.742944 0.205267
O O4 0.500000 0.745673 0.000000
O O5 0.343684 0.766395 0.270155
O O6 0.000000 0.760160 0.500000
O O7 0.196401 0.000000 0.332085
O O8 0.640696 0.500000 0.585807
O O9 0.603350 0.738559 0.671418
O O10 0.481232 0.747127 0.665395
O O11 0.827347 0.750500 0.432888
O O12 0.559402 0.500000 0.764976
O O13 0.335353 0.736951 0.928570
O O14 0.989176 0.500000 0.087576
O O15 0.794246 0.737597 0.201733
O O16 0.148253 0.744604 0.938576
O O17 0.003789 0.745378 0.133830
O O18 0.714444 0.500000 0.202159
O O19 0.127095 0.500000 0.091805
O O20 0.063644 0.751136 0.188921
O O21 0.015989 0.500000 0.278203
#
# Coordination Sequence:
#
# PCOD8058313 Si02
#       8
#     4   4   4   4   4   4   4   4
#     4  10  20  36  56  76  96 126 169 210 248 296
#     4  11  24  38  51  72 102 131 160 201 253 304
#     4   9  15  24  38  61  88 116 151 191 234 277
#     4  10  18  30  51  71  88 118 162 201 235 282
#     4   8  12  19  33  53  82 117 151 185 221 266
#     4   8  12  19  32  53  82 117 152 184 220 270
#     4   9  15  25  40  63  88 114 149 192 234 271
#     4   9  17  26  39  60  88 114 144 193 242 278
#
# _framework density 18.732113999999999
#
# number of rings (size 3 to 8) (size 9 to 14) (size 15 to 20)
#    0.000    2.750    1.250    2.625    0.000    4.250 
#    0.000    0.625    0.000    3.750    0.000    0.000 
#    0.000    2.000    0.000    0.000    0.000   12.875 
#
# Total GULP energy -396623.398501 kJ/mol
# GULP energy per Si atom -12394.481203 kJ/mol
# Density = 1.868948 g / cm^3
# Si number density = 18.732114 Si / 1000 Ang^3
#
#
#
# Elastic Constant Matrix: (Units=GPa)
#
#
# Indices 1 2 3 4 5 6 
#
# 1 262.1439 70.8857 96.9662 0.0000 24.8840 0.0000
# 2 70.8857 75.9641 4.1049 0.0000 33.8420 0.0000
# 3 96.9662 4.1049 147.1707 0.0000 3.9636 0.0000
# 4 0.0000 0.0000 0.0000 8.7928 0.0000 0.9303
# 5 24.8840 33.8420 3.9636 0.0000 52.9067 0.0000
# 6 0.0000 0.0000 0.0000 0.9303 0.0000 -5.9566
#
#
#
# Elastic Compliance Matrix: (Units=1/GPa)
#
#
# Indices 1 2 3 4 5 6 
#
# 1 0.007393 -0.007346 -0.004709 0.000000 0.001574 0.000000
# 2 -0.007346 0.025715 0.004482 0.000000 -0.013329 0.000000
# 3 -0.004709 0.004482 0.009810 0.000000 -0.001387 0.000000
# 4 0.000000 0.000000 0.000000 0.111881 0.000000 0.017473
# 5 0.001574 -0.013329 -0.001387 0.000000 0.026791 0.000000
# 6 0.000000 0.000000 0.000000 0.017473 0.000000 -0.165153
#
#
# Mechanical properties :
#
#
# Convention : Reuss Voigt Hill
#
# Bulk Modulus (GPa) = 36.00722 92.13245 64.06984
# Shear Modulus (GPa) = 122.42650 32.03671 77.23161
#
# Velocity S-wave (km/s) = 8.09311 4.14001 6.42799
# Velocity P-wave (km/s) = 10.32449 8.49376 9.45354
#
# Compressibility (1/GPa) = 0.02777221
#
# Stress axis : x y z
#
# Youngs Moduli (GPa) = 135.25424 38.88747 101.94008
#
# Poissons Ratio (x) = 0.28567 0.48002
# Poissons Ratio (y) = 0.99359 -0.45688
# Poissons Ratio (z) = 0.63689 -0.17429
#
# Static dielectric constant tensor:
#      x y z
#    x 3.667710 0.000000 -0.070000 
#    y 0.000000 2.709820 0.000000 
#    z -0.070000 0.000000 3.679180 
# 
# 
# High freq. dielectric constant tensor:
#      x y z
#    x 1.748880 0.000000 -0.009350 
#    y 0.000000 1.652370 0.000000 
#    z -0.009350 0.000000 1.726590 
# 
# From -- ./inp_files/87003.got.cif
#   From: 2010.06.25/outbox.cif.g09.slc.cpg/sg10_44_cif.got.tgz:87003.got - 2010.06.27 22:07:45.
