data_PCOD8058311
_publ_section_title
;
Structure prediction by ZEFSAII (Michael W. Deem and Ramdas Pophale) SiO2 
 PCOD8058311
Probable space group: P 2/M
;
_chemical_formula_sum "Si O2"
_cell_formula_units_Z 28
_cell_length_a 19.983695
_cell_length_b 11.436165
_cell_length_c 18.118554
_cell_angle_alpha 90.000000
_cell_angle_beta 21.426324
_cell_angle_gamma 90.000000
_cell_volume 1512.637193
_symmetry_space_group_name_H-M "P 2/M"
_symmetry_group_IT_number 10
_symmetry_cell_setting 'monoclinic'
loop_
_space_group_symop_operation_xyz
x,y,z
-x,y,-z
-x,-y,-z
x,-y,z
loop_
_atom_site_type_symbol
_atom_site_label
_atom_site_fract_x
_atom_site_fract_y
_atom_site_fract_z
Si Si1 0.581576 0.261876 0.773374
Si Si2 0.456414 0.363304 0.624127
Si Si3 0.980824 0.500000 0.606438
Si Si4 0.100038 0.136163 0.472637
Si Si5 0.590367 0.500000 0.827683
Si Si6 0.712833 0.363622 0.491095
Si Si7 0.185411 0.734330 0.152115
Si Si8 0.871548 0.366866 0.943784
O O1 0.706706 0.200565 0.707741
O O2 0.510021 0.387305 0.872065
O O3 0.687598 0.278197 0.587214
O O4 0.380344 0.204416 0.972728
O O5 0.500000 0.303762 0.500000
O O6 0.496582 0.500000 0.576192
O O7 0.586741 0.314655 0.554951
O O8 0.246916 0.335838 0.861924
O O9 0.877251 0.615981 0.740885
O O10 0.000000 0.500000 0.500000
O O11 0.191991 0.500000 0.413784
O O12 0.000000 0.180875 0.500000
O O13 0.962375 0.164725 0.680227
O O14 0.144657 0.000000 0.422228
O O15 0.500000 0.500000 0.000000
O O16 0.670363 0.500000 0.554973
O O17 0.918383 0.348576 0.251093
O O18 0.192589 0.712919 0.057736
O O19 0.833117 0.500000 0.958641
#
# Coordination Sequence:
#
# PCOD8058311 Si02
#       8
#     4   4   2   4   2   4   4   4
#     4  12  23  37  60  87 114 149 190 238 295 345
#     4   9  18  30  46  75 119 161 192 219 261 337
#     4  12  22  36  52  85 122 145 178 233 294 350
#     4  11  27  47  61  77 110 153 199 247 293 342
#     4  12  24  34  54  91 119 142 183 233 295 355
#     4  10  18  31  51  79 115 152 190 226 275 337
#     4  12  22  36  61  85 115 148 189 239 291 347
#     4  10  18  30  50  80 114 152 187 225 279 330
#
# _framework density 18.510719000000002
#
# number of rings (size 3 to 8) (size 9 to 14) (size 15 to 20)
#    0.000    1.143    5.714    1.714    2.000    1.143 
#    0.000    4.286    0.000    0.000    0.000    0.000 
#    0.000    3.429    0.000    0.000    0.000    0.000 
#
# Total GULP energy -346970.078844 kJ/mol
# GULP energy per Si atom -12391.788530 kJ/mol
# Density = 1.846859 g / cm^3
# Si number density = 18.510719 Si / 1000 Ang^3
#
#
#
# Elastic Constant Matrix: (Units=GPa)
#
#
# Indices 1 2 3 4 5 6 
#
# 1 78.5689 15.0117 30.9789 0.0000 5.2470 0.0000
# 2 15.0117 37.6829 11.1468 0.0000 -0.2873 0.0000
# 3 30.9789 11.1468 119.3545 0.0000 -7.1030 0.0000
# 4 0.0000 0.0000 0.0000 8.2554 0.0000 0.6691
# 5 5.2470 -0.2873 -7.1030 0.0000 41.2894 0.0000
# 6 0.0000 0.0000 0.0000 0.6691 0.0000 12.0735
#
#
#
# Elastic Compliance Matrix: (Units=1/GPa)
#
#
# Indices 1 2 3 4 5 6 
#
# 1 0.015306 -0.005035 -0.003658 0.000000 -0.002609 0.000000
# 2 -0.005035 0.028950 -0.001361 0.000000 0.000607 0.000000
# 3 -0.003658 -0.001361 0.009580 0.000000 0.002103 0.000000
# 4 0.000000 0.000000 0.000000 0.121679 0.000000 -0.006744
# 5 -0.002609 0.000607 0.002103 0.000000 0.024917 0.000000
# 6 0.000000 0.000000 0.000000 -0.006744 0.000000 0.083200
#
#
# Mechanical properties :
#
#
# Convention : Reuss Voigt Hill
#
# Bulk Modulus (GPa) = 29.64819 38.87567 34.26193
# Shear Modulus (GPa) = 15.87384 24.22159 20.04771
#
# Velocity S-wave (km/s) = 2.93157 3.62127 3.29452
# Velocity P-wave (km/s) = 5.24503 6.20742 5.74641
#
# Compressibility (1/GPa) = 0.03372887
#
# Stress axis : x y z
#
# Youngs Moduli (GPa) = 65.33271 34.54193 104.38358
#
# Poissons Ratio (x) = 0.17393 0.38182
# Poissons Ratio (y) = 0.32898 0.14203
# Poissons Ratio (z) = 0.23897 0.04700
#
# Static dielectric constant tensor:
#      x y z
#    x 3.549290 0.000000 -0.022120 
#    y 0.000000 2.945850 0.000000 
#    z -0.022120 0.000000 3.631920 
# 
# 
# High freq. dielectric constant tensor:
#      x y z
#    x 1.716050 0.000000 -0.010450 
#    y 0.000000 1.649930 0.000000 
#    z -0.010450 0.000000 1.742200 
# 
# From -- ./inp_files/79539.got.cif
#   From: 2010.06.25/outbox.cif.g09.slc.cpg/sg10_40_cif.got.tgz:79539.got - 2010.06.27 22:07:45.
