data_PCOD8058677
_publ_section_title
;
Structure prediction by ZEFSAII (Michael W. Deem and Ramdas Pophale) SiO2 
 PCOD8058677
Probable space group: P 2/M
;
_chemical_formula_sum "Si O2"
_cell_formula_units_Z 32
_cell_length_a 20.668623
_cell_length_b 8.824150
_cell_length_c 20.317350
_cell_angle_alpha 90.000000
_cell_angle_beta 151.586602
_cell_angle_gamma 90.000000
_cell_volume 1763.206627
_symmetry_space_group_name_H-M "P 2/M"
_symmetry_group_IT_number 10
_symmetry_cell_setting 'monoclinic'
loop_
_space_group_symop_operation_xyz
x,y,z
-x,y,-z
-x,-y,-z
x,-y,z
loop_
_atom_site_type_symbol
_atom_site_label
_atom_site_fract_x
_atom_site_fract_y
_atom_site_fract_z
Si Si1 0.552525 0.678758 0.856780
Si Si2 0.756284 0.823703 0.584489
Si Si3 0.274069 0.823660 0.597068
Si Si4 0.992521 0.179905 0.566810
Si Si5 0.796842 0.179888 0.138575
Si Si6 0.674531 0.177802 0.836240
Si Si7 0.054419 0.176908 0.857455
Si Si8 0.495697 0.677977 0.571463
O O1 0.562852 0.500000 0.861393
O O2 0.400387 0.729239 0.738303
O O3 0.591558 0.748555 0.821377
O O4 0.650441 0.739888 0.002440
O O5 0.743936 0.795170 0.496151
O O6 0.646577 0.725788 0.524594
O O7 0.904510 0.760024 0.740267
O O8 0.734477 0.000000 0.582520
O O9 0.141238 0.760136 0.515622
O O10 0.298111 0.000000 0.633699
O O11 0.000000 0.248318 0.500000
O O12 0.128680 0.229459 0.727621
O O13 0.985579 0.000000 0.558725
O O14 0.888501 0.241833 0.160139
O O15 0.775176 0.000000 0.114346
O O16 0.622719 0.242700 0.721007
O O17 0.645062 0.000000 0.813372
O O18 0.836318 0.212501 0.987183
O O19 0.034138 0.000000 0.828052
O O20 0.500000 0.730744 0.500000
O O21 0.514101 0.500000 0.595302
#
# Coordination Sequence:
#
# PCOD8058677 Si02
#       8
#     4   4   4   4   4   4   4   4
#     4  11  21  32  50  78 109 139 177 223 266 312
#     4  10  18  32  56  81 104 135 178 223 265 314
#     4  10  18  31  54  82 108 138 177 223 268 313
#     4   9  17  31  55  85 112 139 177 226 275 318
#     4   9  16  31  53  77 107 140 175 217 267 318
#     4  10  19  34  57  81 106 137 174 217 268 319
#     4   8  15  29  52  81 105 129 168 220 266 306
#     4  11  24  39  53  75 111 148 179 216 261 312
#
# _framework density 18.148752000000002
#
# number of rings (size 3 to 8) (size 9 to 14) (size 15 to 20)
#    0.000    2.250    2.500    2.625    0.000    1.000 
#    0.000    5.000    0.000    9.000    0.000    0.000 
#    0.000    0.000    0.000    0.000    0.000    0.000 
#
# Total GULP energy -396740.270108 kJ/mol
# GULP energy per Si atom -12398.133441 kJ/mol
# Density = 1.810744 g / cm^3
# Si number density = 18.148752 Si / 1000 Ang^3
#
#
#
# Elastic Constant Matrix: (Units=GPa)
#
#
# Indices 1 2 3 4 5 6 
#
# 1 88.2765 31.1802 59.7030 0.0000 -10.2319 0.0000
# 2 31.1802 64.3432 49.0074 0.0000 -7.4695 0.0000
# 3 59.7030 49.0074 171.4692 0.0000 -6.4437 0.0000
# 4 0.0000 0.0000 0.0000 7.4388 0.0000 -7.2185
# 5 -10.2319 -7.4695 -6.4437 0.0000 26.6830 0.0000
# 6 0.0000 0.0000 0.0000 -7.2185 0.0000 5.1200
#
#
#
# Elastic Compliance Matrix: (Units=1/GPa)
#
#
# Indices 1 2 3 4 5 6 
#
# 1 0.016145 -0.004080 -0.004305 0.000000 0.004009 0.000000
# 2 -0.004080 0.021381 -0.004566 0.000000 0.003318 0.000000
# 3 -0.004305 -0.004566 0.008604 0.000000 -0.000851 0.000000
# 4 0.000000 0.000000 0.000000 -0.365198 0.000000 -0.514877
# 5 0.004009 0.003318 -0.000851 0.000000 0.039738 0.000000
# 6 0.000000 0.000000 0.000000 -0.514877 0.000000 -0.530591
#
#
# Mechanical properties :
#
#
# Convention : Reuss Voigt Hill
#
# Bulk Modulus (GPa) = 49.43188 67.09669 58.26428
# Shear Modulus (GPa) = -6.43271 20.12824 6.84776
#
# Velocity S-wave (km/s) = -1.88471 3.33388 1.94456
# Velocity P-wave (km/s) = 4.74974 7.20211 6.10043
#
# Compressibility (1/GPa) = 0.02022986
#
# Stress axis : x y z
#
# Youngs Moduli (GPa) = 61.93810 46.76959 116.22754
#
# Poissons Ratio (x) = 0.19080 0.50034
# Poissons Ratio (y) = 0.25268 0.53068
# Poissons Ratio (z) = 0.26663 0.21354
#
# Static dielectric constant tensor:
#      x y z
#    x 3.236470 0.000000 0.056690 
#    y 0.000000 3.054700 0.000000 
#    z 0.056690 0.000000 3.754390 
# 
# 
# High freq. dielectric constant tensor:
#      x y z
#    x 1.672850 0.000000 0.005750 
#    y 0.000000 1.675290 0.000000 
#    z 0.005750 0.000000 1.725170 
# 
# From -- ./inp_files/86163.got.cif
#   From: 2010.06.25/outbox.cif.g09.slc.cpg/sg10_44_cif.got.tgz:86163.got - 2010.06.27 22:07:45.
