data_PCOD8058120
_publ_section_title
;
Structure prediction by ZEFSAII (Michael W. Deem and Ramdas Pophale) SiO2 
 PCOD8058120
Probable space group: P 2/M
;
_chemical_formula_sum "Si O2"
_cell_formula_units_Z 24
_cell_length_a 14.719110
_cell_length_b 12.735071
_cell_length_c 14.719112
_cell_angle_alpha 90.000000
_cell_angle_beta 30.680619
_cell_angle_gamma 90.000000
_cell_volume 1407.826952
_symmetry_space_group_name_H-M "P 2/M"
_symmetry_group_IT_number 10
_symmetry_cell_setting 'monoclinic'
loop_
_space_group_symop_operation_xyz
x,y,z
-x,y,-z
-x,-y,-z
x,-y,z
loop_
_atom_site_type_symbol
_atom_site_label
_atom_site_fract_x
_atom_site_fract_y
_atom_site_fract_z
Si Si1 0.690620 0.120666 0.574743
Si Si2 0.074744 0.120666 0.190620
Si Si3 0.492984 0.727099 0.398322
Si Si4 0.504404 0.500000 0.602764
Si Si5 0.552498 0.124626 0.052499
Si Si6 0.101678 0.272901 0.007016
Si Si7 0.897236 0.500000 0.995596
O O1 0.632078 0.184766 0.536572
O O2 0.903840 0.131885 0.403839
O O3 0.636661 0.000000 0.604030
O O4 0.591507 0.164250 0.749670
O O5 0.249670 0.164250 0.091506
O O6 0.036572 0.184766 0.132078
O O7 0.104030 0.000000 0.136661
O O8 0.500000 0.743098 0.500000
O O9 0.407760 0.611866 0.444452
O O10 0.689105 0.738991 0.189105
O O11 0.500000 0.500000 0.500000
O O12 0.309524 0.500000 0.809524
O O13 0.549088 0.000000 0.049088
O O14 0.500000 0.173504 0.000000
O O15 0.055548 0.388134 0.092240
O O16 0.000000 0.256902 0.000000
O O17 0.000000 0.500000 0.000000
#
# Coordination Sequence:
#
# PCOD8058120 Si02
#       7
#     4   4   4   2   4   4   2
#     4  10  20  33  49  73 102 129 163 201 241 296
#     4  10  20  33  49  73 102 129 163 201 241 296
#     4  10  18  30  47  69 100 134 167 202 242 287
#     4   8  16  28  44  66  92 125 166 207 239 277
#     4   9  18  34  54  73  97 129 163 206 252 290
#     4  10  18  30  47  69 100 134 167 202 242 287
#     4   8  16  28  44  66  92 125 166 207 239 277
#
# _framework density 17.047549
#
# number of rings (size 3 to 8) (size 9 to 14) (size 15 to 20)
#    0.000    2.500    1.667    1.000    0.000    2.667 
#    0.000    3.333    0.000    0.000    0.000    2.333 
#    0.000    2.667    0.000    0.000    0.000    0.000 
#
# Total GULP energy -297334.181338 kJ/mol
# GULP energy per Si atom -12388.924222 kJ/mol
# Density = 1.700875 g / cm^3
# Si number density = 17.047549 Si / 1000 Ang^3
#
#
#
# Elastic Constant Matrix: (Units=GPa)
#
#
# Indices 1 2 3 4 5 6 
#
# 1 92.3395 44.7764 42.7445 0.0000 2.0534 0.0000
# 2 44.7764 82.1079 34.8137 0.0000 2.8764 0.0000
# 3 42.7445 34.8137 94.8932 0.0000 -2.7905 0.0000
# 4 0.0000 0.0000 0.0000 10.0342 0.0000 -2.5833
# 5 2.0534 2.8764 -2.7905 0.0000 22.6394 0.0000
# 6 0.0000 0.0000 0.0000 -2.5833 0.0000 1.0860
#
#
#
# Elastic Compliance Matrix: (Units=1/GPa)
#
#
# Indices 1 2 3 4 5 6 
#
# 1 0.016461 -0.006838 -0.004942 0.000000 -0.001233 0.000000
# 2 -0.006838 0.017405 -0.003364 0.000000 -0.002006 0.000000
# 3 -0.004942 -0.003364 0.014075 0.000000 0.002611 0.000000
# 4 0.000000 0.000000 0.000000 0.257119 0.000000 0.611627
# 5 -0.001233 -0.002006 0.002611 0.000000 0.044859 0.000000
# 6 0.000000 0.000000 0.000000 0.611627 0.000000 2.375751
#
#
# Mechanical properties :
#
#
# Convention : Reuss Voigt Hill
#
# Bulk Modulus (GPa) = 56.65065 57.11220 56.88142
# Shear Modulus (GPa) = 1.81039 16.55232 9.18135
#
# Velocity S-wave (km/s) = 1.03163 3.11939 2.32324
# Velocity P-wave (km/s) = 5.89255 6.82265 6.37459
#
# Compressibility (1/GPa) = 0.01765205
#
# Stress axis : x y z
#
# Youngs Moduli (GPa) = 60.75116 57.45581 71.04583
#
# Poissons Ratio (x) = 0.39287 0.35113
# Poissons Ratio (y) = 0.41540 0.23901
# Poissons Ratio (z) = 0.30025 0.19329
#
# Static dielectric constant tensor:
#      x y z
#    x 3.022790 0.000000 -0.105100 
#    y 0.000000 3.532940 0.000000 
#    z -0.105100 0.000000 3.386870 
# 
# 
# High freq. dielectric constant tensor:
#      x y z
#    x 1.620050 0.000000 -0.014310 
#    y 0.000000 1.649420 0.000000 
#    z -0.014310 0.000000 1.669620 
# 
# From -- ./inp_files/32108.got.cif
#   From: 2010.06.25/outbox.cif.g09.slc.cpg/sg10_17_cif.got.tgz:32108.got - 2010.06.27 22:07:45.
