data_PCOD8058975
_publ_section_title
;
Structure prediction by ZEFSAII (Michael W. Deem and Ramdas Pophale) SiO2 
 PCOD8058975
Probable space group: P 2/M
;
_chemical_formula_sum "Si O2"
_cell_formula_units_Z 32
_cell_length_a 9.249995
_cell_length_b 14.162466
_cell_length_c 24.224974
_cell_angle_alpha 90.000000
_cell_angle_beta 150.358572
_cell_angle_gamma 90.000000
_cell_volume 1569.538035
_symmetry_space_group_name_H-M "P 2/M"
_symmetry_group_IT_number 10
_symmetry_cell_setting 'monoclinic'
loop_
_space_group_symop_operation_xyz
x,y,z
-x,y,-z
-x,-y,-z
x,-y,z
loop_
_atom_site_type_symbol
_atom_site_label
_atom_site_fract_x
_atom_site_fract_y
_atom_site_fract_z
Si Si1 0.541036 0.605731 0.640152
Si Si2 0.853854 0.754251 0.814091
Si Si3 0.903890 0.890702 0.191801
Si Si4 0.937691 0.102233 0.328013
Si Si5 0.095656 0.603730 0.748340
Si Si6 0.216404 0.287088 0.444090
Si Si7 0.299853 0.836185 0.120152
Si Si8 0.447556 0.741939 0.062115
O O1 0.445595 0.500000 0.627987
O O2 0.647812 0.667897 0.727293
O O3 0.274448 0.659298 0.520976
O O4 0.792278 0.595055 0.678818
O O5 0.722397 0.797363 0.825677
O O6 0.868831 0.836532 0.772753
O O7 0.181402 0.715149 0.933559
O O8 0.036357 0.880884 0.297304
O O9 0.585738 0.840554 0.086093
O O10 0.868491 0.000000 0.162082
O O11 0.584246 0.097959 0.213170
O O12 0.087719 0.182886 0.414931
O O13 0.050329 0.000000 0.385981
O O14 0.223058 0.500000 0.777806
O O15 0.314804 0.659131 0.861240
O O16 0.042946 0.657763 0.673427
O O17 0.500000 0.278628 0.500000
O O18 0.339165 0.750704 0.089417
O O19 0.000000 0.889438 0.000000
#
# Coordination Sequence:
#
# PCOD8058975 Si02
#       8
#     4   4   4   4   4   4   4   4
#     4  10  21  35  55  86 116 147 185 238 301 346
#     4  11  21  35  56  81 120 154 188 240 287 342
#     4  10  19  33  55  85 116 148 187 234 289 342
#     4  10  20  37  62  87 115 152 195 239 283 335
#     4  10  18  32  58  86 109 143 192 241 289 344
#     4  10  18  35  59  84 117 149 189 240 284 335
#     4   9  20  37  58  81 117 159 193 229 280 342
#     4  10  19  36  55  83 114 152 192 238 287 339
#
# _framework density 20.388165000000001
#
# number of rings (size 3 to 8) (size 9 to 14) (size 15 to 20)
#    0.000    2.000    3.750    1.500    0.000    4.000 
#    0.000    5.625    0.000    3.750    0.000    0.000 
#    0.000    0.000    0.000    0.000    0.000    0.000 
#
# Total GULP energy -396662.382195 kJ/mol
# GULP energy per Si atom -12395.699444 kJ/mol
# Density = 2.034176 g / cm^3
# Si number density = 20.388165 Si / 1000 Ang^3
#
#
#
# Elastic Constant Matrix: (Units=GPa)
#
#
# Indices 1 2 3 4 5 6 
#
# 1 69.2864 40.2763 14.9638 0.0000 -12.9790 0.0000
# 2 40.2763 166.5496 63.9688 0.0000 -15.0391 0.0000
# 3 14.9638 63.9688 83.0342 0.0000 -14.7628 0.0000
# 4 0.0000 0.0000 0.0000 18.0689 0.0000 -2.4940
# 5 -12.9790 -15.0391 -14.7628 0.0000 24.3115 0.0000
# 6 0.0000 0.0000 0.0000 -2.4940 0.0000 4.3668
#
#
#
# Elastic Compliance Matrix: (Units=1/GPa)
#
#
# Indices 1 2 3 4 5 6 
#
# 1 0.018041 -0.004177 0.001367 0.000000 0.007878 0.000000
# 2 -0.004177 0.009540 -0.006663 0.000000 -0.000375 0.000000
# 3 0.001367 -0.006663 0.018303 0.000000 0.007722 0.000000
# 4 0.000000 0.000000 0.000000 0.060080 0.000000 0.034313
# 5 0.007878 -0.000375 0.007722 0.000000 0.049796 0.000000
# 6 0.000000 0.000000 0.000000 0.034313 0.000000 0.248595
#
#
# Mechanical properties :
#
#
# Convention : Reuss Voigt Hill
#
# Bulk Modulus (GPa) = 37.12180 61.92090 49.52135
# Shear Modulus (GPa) = 11.56659 22.66020 17.11339
#
# Velocity S-wave (km/s) = 2.38443 3.33744 2.90035
# Velocity P-wave (km/s) = 5.08210 6.72966 5.96305
#
# Compressibility (1/GPa) = 0.02693835
#
# Stress axis : x y z
#
# Youngs Moduli (GPa) = 55.42879 104.82640 54.63568
#
# Poissons Ratio (x) = 0.43781 -0.07468
# Poissons Ratio (y) = 0.23150 0.36405
# Poissons Ratio (z) = -0.07577 0.69847
#
# Static dielectric constant tensor:
#      x y z
#    x 3.511050 0.000000 -0.027700 
#    y 0.000000 3.769580 0.000000 
#    z -0.027700 0.000000 3.685220 
# 
# 
# High freq. dielectric constant tensor:
#      x y z
#    x 1.771450 0.000000 -0.007100 
#    y 0.000000 1.787740 0.000000 
#    z -0.007100 0.000000 1.791050 
# 
# From -- ./inp_files/88265.got.cif
#   From: 2010.06.25/outbox.cif.g09.slc.cpg/sg10_45_cif.got.tgz:88265.got - 2010.06.27 22:07:45.
