data_PCOD8058987
_publ_section_title
;
Structure prediction by ZEFSAII (Michael W. Deem and Ramdas Pophale) SiO2 
 PCOD8058987
Probable space group: P 2/M
;
_chemical_formula_sum "Si O2"
_cell_formula_units_Z 32
_cell_length_a 15.390462
_cell_length_b 12.107165
_cell_length_c 14.804446
_cell_angle_alpha 90.000000
_cell_angle_beta 37.639455
_cell_angle_gamma 90.000000
_cell_volume 1684.641587
_symmetry_space_group_name_H-M "P 2/M"
_symmetry_group_IT_number 10
_symmetry_cell_setting 'monoclinic'
loop_
_space_group_symop_operation_xyz
x,y,z
-x,y,-z
-x,-y,-z
x,-y,z
loop_
_atom_site_type_symbol
_atom_site_label
_atom_site_fract_x
_atom_site_fract_y
_atom_site_fract_z
Si Si1 0.576825 0.623709 0.163888
Si Si2 0.872261 0.303103 0.984834
Si Si3 0.169688 0.625690 0.790134
Si Si4 0.179234 0.624710 0.298743
Si Si5 0.111808 0.872581 0.179685
Si Si6 0.915776 0.716997 0.442247
Si Si7 0.385626 0.232572 0.027340
Si Si8 0.681406 0.372853 0.505821
O O1 0.539864 0.500000 0.160429
O O2 0.481193 0.651588 0.331110
O O3 0.744619 0.628010 0.045380
O O4 0.534347 0.715902 0.125322
O O5 0.891639 0.188610 0.914811
O O6 0.020847 0.368978 0.857261
O O7 0.831987 0.288664 0.124489
O O8 0.189476 0.500000 0.810029
O O9 0.297380 0.659227 0.617078
O O10 0.196018 0.500000 0.322553
O O11 0.152595 0.713820 0.401131
O O12 0.320056 0.660300 0.130960
O O13 0.046306 0.628658 0.337664
O O14 0.266127 0.856083 0.099011
O O15 0.988793 0.831973 0.350238
O O16 0.086007 0.000000 0.180817
O O17 0.791995 0.694275 0.474246
O O18 0.500000 0.175148 0.000000
O O19 0.721220 0.500000 0.485862
#
# Coordination Sequence:
#
# PCOD8058987 Si02
#       8
#     4   4   4   4   4   4   4   4
#     4  10  20  32  51  81 117 153 180 210 259 325
#     4  10  19  36  54  78 108 143 180 226 270 321
#     4  10  19  32  55  85 117 147 176 212 264 336
#     4  10  19  30  50  79 111 146 176 211 262 331
#     4  10  22  39  58  76  99 137 190 244 279 310
#     4  10  18  33  49  72 106 139 182 222 270 316
#     4  10  21  35  52  78 109 144 181 223 271 321
#     4  10  19  30  50  80 115 150 177 210 262 329
#
# _framework density 18.995138000000001
#
# number of rings (size 3 to 8) (size 9 to 14) (size 15 to 20)
#    0.000    2.000    1.250    4.125    0.000    2.750 
#    0.000    8.125    0.000    6.000    0.000    3.500 
#    0.000    0.000    0.000    0.000    0.000    0.000 
#
# Total GULP energy -396513.661077 kJ/mol
# GULP energy per Si atom -12391.051909 kJ/mol
# Density = 1.895190 g / cm^3
# Si number density = 18.995138 Si / 1000 Ang^3
#
#
#
# Elastic Constant Matrix: (Units=GPa)
#
#
# Indices 1 2 3 4 5 6 
#
# 1 62.5848 20.4640 10.7733 0.0000 9.8128 0.0000
# 2 20.4640 85.6894 35.8913 0.0000 16.4822 0.0000
# 3 10.7733 35.8913 110.0724 0.0000 20.7664 0.0000
# 4 0.0000 0.0000 0.0000 18.1790 0.0000 4.5523
# 5 9.8128 16.4822 20.7664 0.0000 23.5230 0.0000
# 6 0.0000 0.0000 0.0000 4.5523 0.0000 14.0581
#
#
#
# Elastic Compliance Matrix: (Units=1/GPa)
#
#
# Indices 1 2 3 4 5 6 
#
# 1 0.017869 -0.003383 0.000376 0.000000 -0.005416 0.000000
# 2 -0.003383 0.015096 -0.003434 0.000000 -0.006135 0.000000
# 3 0.000376 -0.003434 0.011691 0.000000 -0.008071 0.000000
# 4 0.000000 0.000000 0.000000 0.059863 0.000000 -0.019385
# 5 -0.005416 -0.006135 -0.008071 0.000000 0.056195 0.000000
# 6 0.000000 0.000000 0.000000 -0.019385 0.000000 0.077411
#
#
# Mechanical properties :
#
#
# Convention : Reuss Voigt Hill
#
# Bulk Modulus (GPa) = 31.47267 43.62262 37.54765
# Shear Modulus (GPa) = 19.11332 23.89988 21.50660
#
# Velocity S-wave (km/s) = 3.17554 3.55097 3.36849
# Velocity P-wave (km/s) = 5.48180 6.31091 5.91091
#
# Compressibility (1/GPa) = 0.03177360
#
# Stress axis : x y z
#
# Youngs Moduli (GPa) = 55.96295 66.24109 85.53889
#
# Poissons Ratio (x) = 0.22411 -0.03216
# Poissons Ratio (y) = 0.18933 0.29373
# Poissons Ratio (z) = -0.02104 0.22747
#
# Static dielectric constant tensor:
#      x y z
#    x 3.539740 0.000000 0.102160 
#    y 0.000000 2.905860 0.000000 
#    z 0.102160 0.000000 3.816270 
# 
# 
# High freq. dielectric constant tensor:
#      x y z
#    x 1.738470 0.000000 0.002700 
#    y 0.000000 1.672020 0.000000 
#    z 0.002700 0.000000 1.758630 
# 
# From -- ./inp_files/67307.got.cif
#   From: 2010.06.25/outbox.cif.g09.slc.cpg/sg10_34_cif.got.tgz:67307.got - 2010.06.27 22:07:45.
