data_PCOD8058637
_publ_section_title
;
Structure prediction by ZEFSAII (Michael W. Deem and Ramdas Pophale) SiO2 
 PCOD8058637
Probable space group: P 2/M
;
_chemical_formula_sum "Si O2"
_cell_formula_units_Z 32
_cell_length_a 24.956321
_cell_length_b 8.890828
_cell_length_c 16.303720
_cell_angle_alpha 90.000000
_cell_angle_beta 153.317777
_cell_angle_gamma 90.000000
_cell_volume 1624.412203
_symmetry_space_group_name_H-M "P 2/M"
_symmetry_group_IT_number 10
_symmetry_cell_setting 'monoclinic'
loop_
_space_group_symop_operation_xyz
x,y,z
-x,y,-z
-x,-y,-z
x,-y,z
loop_
_atom_site_type_symbol
_atom_site_label
_atom_site_fract_x
_atom_site_fract_y
_atom_site_fract_z
Si Si1 0.825751 0.823957 0.959579
Si Si2 0.248789 0.174747 0.857864
Si Si3 0.508711 0.179457 0.264102
Si Si4 0.275716 0.821228 0.547586
Si Si5 0.413527 0.821682 0.452109
Si Si6 0.957663 0.177612 0.856774
Si Si7 0.165960 0.174609 0.565301
Si Si8 0.910224 0.677404 0.231198
O O1 0.720362 0.772256 0.754444
O O2 0.813628 0.000000 0.962636
O O3 0.949943 0.780887 0.087787
O O4 0.820135 0.735973 0.037587
O O5 0.240980 0.201557 0.750065
O O6 0.140912 0.264267 0.752417
O O7 0.234123 0.000000 0.860150
O O8 0.376396 0.238255 0.062506
O O9 0.599099 0.240173 0.317107
O O10 0.549975 0.243939 0.409066
O O11 0.510065 0.000000 0.266359
O O12 0.250354 0.767977 0.606133
O O13 0.170734 0.758333 0.345077
O O14 0.275932 0.000000 0.544986
O O15 0.500000 0.756562 0.500000
O O16 0.424685 0.000000 0.471449
O O17 0.949987 0.000000 0.858081
O O18 0.000000 0.252384 0.000000
O O19 0.043091 0.264150 0.398548
O O20 0.132194 0.000000 0.506787
O O21 0.912477 0.500000 0.234978
#
# Coordination Sequence:
#
# PCOD8058637 Si02
#       8
#     4   4   4   4   4   4   4   4
#     4  10  18  31  53  79 109 143 178 218 268 323
#     4  10  21  36  57  81 108 142 180 223 275 331
#     4   9  17  30  50  83 117 142 176 223 270 320
#     4   9  16  28  48  77 114 142 169 217 268 320
#     4   9  16  26  45  76 111 144 180 220 261 308
#     4   9  15  24  44  77 109 137 170 212 262 312
#     4  10  20  36  57  82 109 141 178 222 279 332
#     4  12  24  37  55  79 109 142 183 232 278 324
#
# _framework density 19.699434
#
# number of rings (size 3 to 8) (size 9 to 14) (size 15 to 20)
#    0.000    2.250    1.250    3.000    0.000    7.500 
#    0.000    2.500    0.000    4.500    0.000    1.750 
#    0.000    0.000    0.000    0.000    0.000    0.000 
#
# Total GULP energy -396756.885712 kJ/mol
# GULP energy per Si atom -12398.652679 kJ/mol
# Density = 1.965460 g / cm^3
# Si number density = 19.699434 Si / 1000 Ang^3
#
#
#
# Elastic Constant Matrix: (Units=GPa)
#
#
# Indices 1 2 3 4 5 6 
#
# 1 140.9821 32.7012 54.2389 0.0000 -5.4787 0.0000
# 2 32.7012 39.6176 24.7835 0.0000 -1.0231 0.0000
# 3 54.2389 24.7835 111.6723 0.0000 -4.2413 0.0000
# 4 0.0000 0.0000 0.0000 3.4227 0.0000 0.0794
# 5 -5.4787 -1.0231 -4.2413 0.0000 37.3475 0.0000
# 6 0.0000 0.0000 0.0000 0.0794 0.0000 1.8402
#
#
#
# Elastic Compliance Matrix: (Units=1/GPa)
#
#
# Indices 1 2 3 4 5 6 
#
# 1 0.009821 -0.005946 -0.003417 0.000000 0.000890 0.000000
# 2 -0.005946 0.032911 -0.004434 0.000000 -0.000474 0.000000
# 3 -0.003417 -0.004434 0.011625 0.000000 0.000697 0.000000
# 4 0.000000 0.000000 0.000000 0.292458 0.000000 -0.012622
# 5 0.000890 -0.000474 0.000697 0.000000 0.026972 0.000000
# 6 0.000000 0.000000 0.000000 -0.012622 0.000000 0.543954
#
#
# Mechanical properties :
#
#
# Convention : Reuss Voigt Hill
#
# Bulk Modulus (GPa) = 37.36466 57.30212 47.33339
# Shear Modulus (GPa) = 5.23968 20.55865 12.89916
#
# Velocity S-wave (km/s) = 1.63266 3.23401 2.56168
# Velocity P-wave (km/s) = 4.75002 6.56479 5.72971
#
# Compressibility (1/GPa) = 0.02676325
#
# Stress axis : x y z
#
# Youngs Moduli (GPa) = 101.81756 30.38491 86.02318
#
# Poissons Ratio (x) = 0.18068 0.29392
# Poissons Ratio (y) = 0.60546 0.38141
# Poissons Ratio (z) = 0.34789 0.13472
#
# Static dielectric constant tensor:
#      x y z
#    x 3.862660 0.000000 -0.057660 
#    y 0.000000 2.895530 0.000000 
#    z -0.057660 0.000000 3.786370 
# 
# 
# High freq. dielectric constant tensor:
#      x y z
#    x 1.784310 0.000000 -0.004890 
#    y 0.000000 1.689110 0.000000 
#    z -0.004890 0.000000 1.778980 
# 
# From -- ./inp_files/71701.got.cif
#   From: 2010.06.25/outbox.cif.g09.slc.cpg/sg10_36_cif.got.tgz:71701.got - 2010.06.27 22:07:45.
