data_PCOD8058943
_publ_section_title
;
Structure prediction by ZEFSAII (Michael W. Deem and Ramdas Pophale) SiO2 
 PCOD8058943
Probable space group: P 2/M
;
_chemical_formula_sum "Si O2"
_cell_formula_units_Z 32
_cell_length_a 30.001501
_cell_length_b 9.006628
_cell_length_c 23.595720
_cell_angle_alpha 90.000000
_cell_angle_beta 16.720074
_cell_angle_gamma 90.000000
_cell_volume 1834.308552
_symmetry_space_group_name_H-M "P 2/M"
_symmetry_group_IT_number 10
_symmetry_cell_setting 'monoclinic'
loop_
_space_group_symop_operation_xyz
x,y,z
-x,y,-z
-x,-y,-z
x,-y,z
loop_
_atom_site_type_symbol
_atom_site_label
_atom_site_fract_x
_atom_site_fract_y
_atom_site_fract_z
Si Si1 0.137414 0.836028 0.177694
Si Si2 0.410109 0.169976 0.550938
Si Si3 0.017312 0.821972 0.148264
Si Si4 0.912042 0.673542 0.050399
Si Si5 0.308074 0.176174 0.864341
Si Si6 0.832809 0.162131 0.473928
Si Si7 0.955026 0.673462 0.490829
Si Si8 0.672773 0.177965 0.775468
O O1 0.992071 0.853185 0.313762
O O2 0.098213 0.727438 0.277343
O O3 0.180814 0.000000 0.148924
O O4 0.275486 0.770621 0.969134
O O5 0.500000 0.184088 0.500000
O O6 0.263970 0.275827 0.729665
O O7 0.522252 0.225851 0.363396
O O8 0.356486 0.000000 0.606845
O O9 0.875211 0.761885 0.361851
O O10 0.013273 0.000000 0.150104
O O11 0.997005 0.754849 0.110992
O O12 0.179578 0.763007 0.976651
O O13 0.916263 0.500000 0.033365
O O14 0.000000 0.718692 0.000000
O O15 0.295254 0.000000 0.878838
O O16 0.711423 0.241593 0.664689
O O17 0.764234 0.000000 0.543839
O O18 0.930308 0.500000 0.511062
O O19 0.793995 0.755679 0.672741
O O20 0.000000 0.712035 0.500000
O O21 0.690085 0.000000 0.756083
O O22 0.500000 0.231090 0.000000
#
# Coordination Sequence:
#
# PCOD8058943 Si02
#       8
#     4   4   4   4   4   4   4   4
#     4   8  14  27  48  72  98 126 157 198 245 287
#     4  10  18  32  56  80  98 121 158 202 248 295
#     4   9  15  29  52  73  94 124 160 200 244 289
#     4  11  24  37  47  66 101 137 167 201 239 284
#     4   8  14  27  50  79 102 117 147 205 256 286
#     4   7  12  24  46  74  98 118 149 198 246 285
#     4  10  20  32  47  70 102 137 170 200 233 282
#     4   9  17  31  53  78 100 125 159 203 251 293
#
# _framework density 17.445266
#
# number of rings (size 3 to 8) (size 9 to 14) (size 15 to 20)
#    0.000    3.000    1.250    3.000    0.000    2.500 
#    0.000    6.250    2.750    0.000    0.000    0.000 
#    0.000    0.000    0.000    0.000    0.000    0.000 
#
# Total GULP energy -396433.403546 kJ/mol
# GULP energy per Si atom -12388.543861 kJ/mol
# Density = 1.740556 g / cm^3
# Si number density = 17.445266 Si / 1000 Ang^3
#
#
#
# Elastic Constant Matrix: (Units=GPa)
#
#
# Indices 1 2 3 4 5 6 
#
# 1 100.9508 38.8664 64.3080 0.0000 28.5670 0.0000
# 2 38.8664 39.4596 26.4112 0.0000 9.0181 0.0000
# 3 64.3080 26.4112 125.7117 0.0000 36.9446 0.0000
# 4 0.0000 0.0000 0.0000 5.6116 0.0000 -4.9994
# 5 28.5670 9.0181 36.9446 0.0000 31.0813 0.0000
# 6 0.0000 0.0000 0.0000 -4.9994 0.0000 20.3130
#
#
#
# Elastic Compliance Matrix: (Units=1/GPa)
#
#
# Indices 1 2 3 4 5 6 
#
# 1 0.022066 -0.016145 -0.005090 0.000000 -0.009545 0.000000
# 2 -0.016145 0.041371 -0.001946 0.000000 0.005148 0.000000
# 3 -0.005090 -0.001946 0.014487 0.000000 -0.011977 0.000000
# 4 0.000000 0.000000 0.000000 0.228249 0.000000 0.056177
# 5 -0.009545 0.005148 -0.011977 0.000000 0.053690 0.000000
# 6 0.000000 0.000000 0.000000 0.056177 0.000000 0.063056
#
#
# Mechanical properties :
#
#
# Convention : Reuss Voigt Hill
#
# Bulk Modulus (GPa) = 31.68457 58.36589 45.02523
# Shear Modulus (GPa) = 10.42098 20.50362 15.46230
#
# Velocity S-wave (km/s) = 2.44673 3.43200 2.98036
# Velocity P-wave (km/s) = 5.11700 7.01670 6.14076
#
# Compressibility (1/GPa) = 0.03156110
#
# Stress axis : x y z
#
# Youngs Moduli (GPa) = 45.31917 24.17178 69.02556
#
# Poissons Ratio (x) = 0.39026 0.35137
# Poissons Ratio (y) = 0.73169 0.13429
# Poissons Ratio (z) = 0.23070 0.04703
#
# Static dielectric constant tensor:
#      x y z
#    x 3.082870 0.000000 0.909870 
#    y 0.000000 2.941300 0.000000 
#    z 0.909870 0.000000 2.658980 
# 
# 
# High freq. dielectric constant tensor:
#      x y z
#    x 1.652780 0.000000 0.037280 
#    y 0.000000 1.640950 0.000000 
#    z 0.037280 0.000000 1.676330 
# 
# From -- ./inp_files/86856.got.cif
#   From: 2010.06.25/outbox.cif.g09.slc.cpg/sg10_44_cif.got.tgz:86856.got - 2010.06.27 22:07:45.
