data_PCOD8058436
_publ_section_title
;
Structure prediction by ZEFSAII (Michael W. Deem and Ramdas Pophale) SiO2 
 PCOD8058436
Probable space group: P 2/M
;
_chemical_formula_sum "Si O2"
_cell_formula_units_Z 32
_cell_length_a 20.468465
_cell_length_b 13.094545
_cell_length_c 20.555373
_cell_angle_alpha 90.000000
_cell_angle_beta 159.327379
_cell_angle_gamma 90.000000
_cell_volume 1944.956770
_symmetry_space_group_name_H-M "P 2/M"
_symmetry_group_IT_number 10
_symmetry_cell_setting 'monoclinic'
loop_
_space_group_symop_operation_xyz
x,y,z
-x,y,-z
-x,-y,-z
x,-y,z
loop_
_atom_site_type_symbol
_atom_site_label
_atom_site_fract_x
_atom_site_fract_y
_atom_site_fract_z
Si Si1 0.800565 0.879290 0.624450
Si Si2 0.284741 0.688010 0.788102
Si Si3 0.059422 0.383461 0.457895
Si Si4 0.777054 0.116868 0.193473
Si Si5 0.513483 0.119511 0.831108
Si Si6 0.392680 0.879654 0.221330
Si Si7 0.043776 0.121442 0.969909
Si Si8 0.115248 0.196932 0.433397
O O1 0.590273 0.840463 0.430595
O O2 0.908536 0.827612 0.664948
O O3 0.814513 0.000000 0.625723
O O4 0.884737 0.845817 0.771500
O O5 0.216473 0.663255 0.651981
O O6 0.251964 0.808979 0.771793
O O7 0.149540 0.622779 0.708953
O O8 0.500000 0.657036 0.000000
O O9 0.107620 0.500000 0.486615
O O10 0.068892 0.316618 0.401002
O O11 0.978121 0.127603 0.348688
O O12 0.749052 0.000000 0.190420
O O13 0.624565 0.151304 0.998524
O O14 0.633005 0.150557 0.878449
O O15 0.320234 0.177035 0.650413
O O16 0.471099 0.000000 0.789111
O O17 0.234245 0.830960 0.119229
O O18 0.378218 0.000000 0.215559
O O19 0.055817 0.000000 0.986510
O O20 0.000000 0.168786 0.000000
#
# Coordination Sequence:
#
# PCOD8058436 Si02
#       8
#     4   4   4   4   4   4   4   4
#     4   9  16  26  41  60  83 112 142 170 205 250
#     4  10  20  35  51  67  88 116 144 172 214 264
#     4  10  22  37  51  67  84 106 143 187 224 263
#     4  10  19  29  44  67  92 116 143 175 210 254
#     4   9  16  27  44  65  90 117 144 176 213 254
#     4   8  14  23  35  53  78 111 147 177 202 230
#     4   9  16  24  35  54  83 119 152 175 195 227
#     4  10  18  31  48  65  85 112 146 180 220 262
#
# _framework density 16.452808000000001
#
# number of rings (size 3 to 8) (size 9 to 14) (size 15 to 20)
#    0.000    2.625    0.000    4.125    0.000    3.750 
#    0.000    8.750    0.000    0.000    0.000    0.000 
#    0.000    0.500    0.000    5.500    0.000    2.500 
#
# Total GULP energy -396638.316467 kJ/mol
# GULP energy per Si atom -12394.947390 kJ/mol
# Density = 1.641536 g / cm^3
# Si number density = 16.452808 Si / 1000 Ang^3
#
#
#
# Elastic Constant Matrix: (Units=GPa)
#
#
# Indices 1 2 3 4 5 6 
#
# 1 52.0460 27.3731 21.4418 0.0000 -6.6622 0.0000
# 2 27.3731 64.1513 22.3435 0.0000 -11.2717 0.0000
# 3 21.4418 22.3435 73.3966 0.0000 4.4414 0.0000
# 4 0.0000 0.0000 0.0000 9.2919 0.0000 0.0357
# 5 -6.6622 -11.2717 4.4414 0.0000 23.0841 0.0000
# 6 0.0000 0.0000 0.0000 0.0357 0.0000 9.7401
#
#
#
# Elastic Compliance Matrix: (Units=1/GPa)
#
#
# Indices 1 2 3 4 5 6 
#
# 1 0.026569 -0.008674 -0.005392 0.000000 0.004470 0.000000
# 2 -0.008674 0.022687 -0.004949 0.000000 0.009527 0.000000
# 3 -0.005392 -0.004949 0.017146 0.000000 -0.007272 0.000000
# 4 0.000000 0.000000 0.000000 0.107622 0.000000 -0.000395
# 5 0.004470 0.009527 -0.007272 0.000000 0.050661 0.000000
# 6 0.000000 0.000000 0.000000 -0.000395 0.000000 0.102670
#
#
# Mechanical properties :
#
#
# Convention : Reuss Voigt Hill
#
# Bulk Modulus (GPa) = 35.24423 36.87895 36.06159
# Shear Modulus (GPa) = 13.33897 16.31892 14.82894
#
# Velocity S-wave (km/s) = 2.85044 3.15280 3.00543
# Velocity P-wave (km/s) = 5.68342 5.97639 5.83174
#
# Compressibility (1/GPa) = 0.02837344
#
# Stress axis : x y z
#
# Youngs Moduli (GPa) = 37.63768 44.07881 58.32148
#
# Poissons Ratio (x) = 0.38232 0.31446
# Poissons Ratio (y) = 0.32645 0.28863
# Poissons Ratio (z) = 0.20294 0.21814
#
# Static dielectric constant tensor:
#      x y z
#    x 3.290990 0.000000 0.097060 
#    y 0.000000 2.679830 0.000000 
#    z 0.097060 0.000000 3.311750 
# 
# 
# High freq. dielectric constant tensor:
#      x y z
#    x 1.624500 0.000000 0.008270 
#    y 0.000000 1.572450 0.000000 
#    z 0.008270 0.000000 1.648750 
# 
# From -- ./inp_files/86369.got.cif
#   From: 2010.06.25/outbox.cif.g09.slc.cpg/sg10_44_cif.got.tgz:86369.got - 2010.06.27 22:07:45.
