data_PCOD8058715
_publ_section_title
;
Structure prediction by ZEFSAII (Michael W. Deem and Ramdas Pophale) SiO2 
 PCOD8058715
Probable space group: P 2/M
;
_chemical_formula_sum "Si O2"
_cell_formula_units_Z 22
_cell_length_a 8.145285
_cell_length_b 25.359314
_cell_length_c 5.309582
_cell_angle_alpha 90.000000
_cell_angle_beta 109.024185
_cell_angle_gamma 90.000000
_cell_volume 1036.838269
_symmetry_space_group_name_H-M "P 2/M"
_symmetry_group_IT_number 10
_symmetry_cell_setting 'monoclinic'
loop_
_space_group_symop_operation_xyz
x,y,z
-x,y,-z
-x,-y,-z
x,-y,z
loop_
_atom_site_type_symbol
_atom_site_label
_atom_site_fract_x
_atom_site_fract_y
_atom_site_fract_z
Si Si1 0.791788 0.777405 0.395884
Si Si2 0.308260 0.340291 0.654120
Si Si3 0.387489 0.500000 0.193738
Si Si4 0.611491 0.941278 0.805755
Si Si5 0.700478 0.615592 0.850251
Si Si6 0.202021 0.164250 0.101020
O O1 0.689320 0.722572 0.344662
O O2 0.724327 0.808782 0.608509
O O3 0.000000 0.769000 0.500000
O O4 0.724326 0.808777 0.115777
O O5 0.208471 0.360765 0.354060
O O6 0.499712 0.365811 0.749856
O O7 0.208470 0.360766 0.854375
O O8 0.500000 0.500000 0.500000
O O9 0.272313 0.552678 0.136146
O O10 0.500000 0.500000 0.000000
O O11 0.500000 0.933063 0.500000
O O12 0.761985 0.898031 0.880991
O O13 0.694790 0.000000 0.847439
O O14 0.500000 0.933052 0.000000
O O15 0.000000 0.172725 0.000000
#
# Coordination Sequence:
#
# PCOD8058715 Si02
#       6
#     4   4   2   4   4   4
#     4  10  21  37  55  74 106 145 179 220 262 310
#     4  10  18  32  45  71 103 128 168 206 253 308
#     4  12  16  30  48  70 102 134 160 202 280 312
#     4  10  21  39  59  84 117 145 178 226 283 329
#     4  10  19  30  48  75 101 129 163 216 257 321
#     4  10  21  39  58  81 108 145 194 225 262 326
#
# _framework density 21.218353
#
# number of rings (size 3 to 8) (size 9 to 14) (size 15 to 20)
#    0.000    1.818    3.636    2.182    0.000    0.364 
#   19.636    0.000    0.000    6.545    0.000    7.000 
#    0.000    0.000    0.000    0.000    0.000    0.000 
#
# Total GULP energy -272672.788648 kJ/mol
# GULP energy per Si atom -12394.217666 kJ/mol
# Density = 2.117006 g / cm^3
# Si number density = 21.218353 Si / 1000 Ang^3
#
#
#
# Elastic Constant Matrix: (Units=GPa)
#
#
# Indices 1 2 3 4 5 6 
#
# 1 10.8612 17.6988 17.8144 0.0000 -3.6273 0.0000
# 2 17.6988 205.9630 74.2762 0.0000 -15.9237 0.0000
# 3 17.8144 74.2762 214.8911 0.0000 -53.7686 0.0000
# 4 0.0000 0.0000 0.0000 42.2858 0.0000 -9.4454
# 5 -3.6273 -15.9237 -53.7686 0.0000 17.0654 0.0000
# 6 0.0000 0.0000 0.0000 -9.4454 0.0000 8.7031
#
#
#
# Elastic Compliance Matrix: (Units=1/GPa)
#
#
# Indices 1 2 3 4 5 6 
#
# 1 0.117320 -0.007190 -0.012662 0.000000 -0.021667 0.000000
# 2 -0.007190 0.006048 -0.002196 0.000000 -0.002804 0.000000
# 3 -0.012662 -0.002196 0.024929 0.000000 0.073805 0.000000
# 4 0.000000 0.000000 0.000000 0.031216 0.000000 0.033879
# 5 -0.021667 -0.002804 0.073805 0.000000 0.283915 0.000000
# 6 0.000000 0.000000 0.000000 0.033879 0.000000 0.151670
#
#
# Mechanical properties :
#
#
# Convention : Reuss Voigt Hill
#
# Bulk Modulus (GPa) = 9.59686 72.36602 40.98144
# Shear Modulus (GPa) = 7.20535 35.07260 21.13897
#
# Velocity S-wave (km/s) = 1.84477 4.07004 3.15978
# Velocity P-wave (km/s) = 3.01169 7.50110 5.71562
#
# Compressibility (1/GPa) = 0.10420071
#
# Stress axis : x y z
#
# Youngs Moduli (GPa) = 8.52369 165.33539 40.11374
#
# Poissons Ratio (x) = 1.18884 0.50792
# Poissons Ratio (y) = 0.06129 0.08809
# Poissons Ratio (z) = 0.10793 0.36308
#
# Static dielectric constant tensor:
#      x y z
#    x 3.238370 0.000000 -0.654980 
#    y 0.000000 4.063440 0.000000 
#    z -0.654980 0.000000 5.567050 
# 
# 
# High freq. dielectric constant tensor:
#      x y z
#    x 1.771560 0.000000 -0.026980 
#    y 0.000000 1.847470 0.000000 
#    z -0.026980 0.000000 1.867490 
# 
# From -- ./inp_files/4799.got.cif
#   From: 2010.06.25/outbox.cif.g09.slc.cpg/sg10_3_cif.got.tgz:4799.got - 2010.06.27 22:07:45.
