data_PCOD8058381
_publ_section_title
;
Structure prediction by ZEFSAII (Michael W. Deem and Ramdas Pophale) SiO2 
 PCOD8058381
Probable space group: P 2/M
;
_chemical_formula_sum "Si O2"
_cell_formula_units_Z 26
_cell_length_a 11.409465
_cell_length_b 17.382443
_cell_length_c 14.957222
_cell_angle_alpha 90.000000
_cell_angle_beta 150.853865
_cell_angle_gamma 90.000000
_cell_volume 1444.742959
_symmetry_space_group_name_H-M "P 2/M"
_symmetry_group_IT_number 10
_symmetry_cell_setting 'monoclinic'
loop_
_space_group_symop_operation_xyz
x,y,z
-x,y,-z
-x,-y,-z
x,-y,z
loop_
_atom_site_type_symbol
_atom_site_label
_atom_site_fract_x
_atom_site_fract_y
_atom_site_fract_z
Si Si1 0.919602 0.412145 0.541074
Si Si2 0.334068 0.085157 0.472921
Si Si3 0.000000 0.298414 0.000000
Si Si4 0.048984 0.800001 0.860025
Si Si5 0.361391 0.412693 0.156345
Si Si6 0.254476 0.087013 0.119294
Si Si7 0.730545 0.338181 0.091196
O O1 0.007921 0.500000 0.602033
O O2 0.637244 0.403971 0.366487
O O3 0.000000 0.375104 0.500000
O O4 0.041105 0.369035 0.703683
O O5 0.500000 0.070780 0.500000
O O6 0.512490 0.113384 0.669934
O O7 0.146180 0.152882 0.327718
O O8 0.217008 0.000000 0.416397
O O9 0.936034 0.246635 0.870001
O O10 0.774633 0.353159 0.870203
O O11 0.196500 0.745959 0.892692
O O12 0.248044 0.859672 0.028214
O O13 0.272554 0.500000 0.114548
O O14 0.324111 0.394626 0.027299
O O15 0.284223 0.000000 0.107510
O O16 0.000000 0.097668 0.000000
O O17 0.500000 0.332681 0.000000
#
# Coordination Sequence:
#
# PCOD8058381 Si02
#       7
#     4   4   2   4   4   4   4
#     4  10  20  36  59  82 103 136 185 241 278 308
#     4  10  18  30  53  80 107 142 181 219 260 312
#     4  10  21  36  53  82 118 152 176 210 285 346
#     4  11  21  34  52  78 117 145 171 221 273 330
#     4  10  21  38  59  78 109 146 185 232 271 326
#     4  10  18  32  53  78 106 138 181 219 252 311
#     4  11  23  37  55  83 107 140 186 229 279 326
#
# _framework density 17.996282000000001
#
# number of rings (size 3 to 8) (size 9 to 14) (size 15 to 20)
#    0.000    1.692    3.846    1.154    0.000    4.308 
#    0.000    2.308    0.000   10.154    0.000    2.154 
#    0.000    0.000    0.000    0.000    0.000    0.000 
#
# Total GULP energy -322292.889058 kJ/mol
# GULP energy per Si atom -12395.880348 kJ/mol
# Density = 1.795532 g / cm^3
# Si number density = 17.996282 Si / 1000 Ang^3
#
#
#
# Elastic Constant Matrix: (Units=GPa)
#
#
# Indices 1 2 3 4 5 6 
#
# 1 63.4512 35.9638 33.7726 0.0000 -2.6921 0.0000
# 2 35.9638 118.9566 73.8860 0.0000 -3.4750 0.0000
# 3 33.7726 73.8860 140.0771 0.0000 -16.1290 0.0000
# 4 0.0000 0.0000 0.0000 35.8843 0.0000 0.0841
# 5 -2.6921 -3.4750 -16.1290 0.0000 22.2418 0.0000
# 6 0.0000 0.0000 0.0000 0.0841 0.0000 38.9817
#
#
#
# Elastic Compliance Matrix: (Units=1/GPa)
#
#
# Indices 1 2 3 4 5 6 
#
# 1 0.019535 -0.004430 -0.002380 0.000000 -0.000053 0.000000
# 2 -0.004430 0.013704 -0.006520 0.000000 -0.003123 0.000000
# 3 -0.002380 -0.006520 0.012004 0.000000 0.007398 0.000000
# 4 0.000000 0.000000 0.000000 0.027867 0.000000 -0.000060
# 5 -0.000053 -0.003123 0.007398 0.000000 0.049831 0.000000
# 6 0.000000 0.000000 0.000000 -0.000060 0.000000 0.025653
#
#
# Mechanical properties :
#
#
# Convention : Reuss Voigt Hill
#
# Bulk Modulus (GPa) = 53.80881 67.74774 60.77828
# Shear Modulus (GPa) = 27.55618 31.34572 29.45095
#
# Velocity S-wave (km/s) = 3.91732 4.17800 4.04976
# Velocity P-wave (km/s) = 7.10108 7.81034 7.46414
#
# Compressibility (1/GPa) = 0.01858432
#
# Stress axis : x y z
#
# Youngs Moduli (GPa) = 51.18993 72.97077 83.30821
#
# Poissons Ratio (x) = 0.32323 0.19824
# Poissons Ratio (y) = 0.22675 0.54318
# Poissons Ratio (z) = 0.12181 0.47578
#
# Static dielectric constant tensor:
#      x y z
#    x 3.080900 0.000000 -0.146920 
#    y 0.000000 3.573710 0.000000 
#    z -0.146920 0.000000 3.256590 
# 
# 
# High freq. dielectric constant tensor:
#      x y z
#    x 1.660850 0.000000 -0.011510 
#    y 0.000000 1.711910 0.000000 
#    z -0.011510 0.000000 1.707070 
# 
# From -- ./inp_files/65283.got.cif
#   From: 2010.06.25/outbox.cif.g09.slc.cpg/sg10_33_cif.got.tgz:65283.got - 2010.06.27 22:07:45.
