data_PCOD8058446
_publ_section_title
;
Structure prediction by ZEFSAII (Michael W. Deem and Ramdas Pophale) SiO2 
 PCOD8058446
Probable space group: P 2/M
;
_chemical_formula_sum "Si O2"
_cell_formula_units_Z 20
_cell_length_a 14.300067
_cell_length_b 7.742381
_cell_length_c 14.226150
_cell_angle_alpha 90.000000
_cell_angle_beta 134.109235
_cell_angle_gamma 90.000000
_cell_volume 1130.922853
_symmetry_space_group_name_H-M "P 2/M"
_symmetry_group_IT_number 10
_symmetry_cell_setting 'monoclinic'
loop_
_space_group_symop_operation_xyz
x,y,z
-x,y,-z
-x,-y,-z
x,-y,z
loop_
_atom_site_type_symbol
_atom_site_label
_atom_site_fract_x
_atom_site_fract_y
_atom_site_fract_z
Si Si1 0.638001 0.696677 0.131325
Si Si2 0.695078 0.500000 0.701911
Si Si3 0.416666 0.804183 0.716415
Si Si4 0.595346 0.500000 0.427456
Si Si5 0.151837 0.799874 0.094935
Si Si6 0.300115 0.200057 0.016703
O O1 0.625677 0.500000 0.153414
O O2 0.674916 0.796943 0.253601
O O3 0.500000 0.773158 0.000000
O O4 0.735288 0.716659 0.110122
O O5 0.681634 0.500000 0.580867
O O6 0.557002 0.500000 0.656379
O O7 0.771540 0.674703 0.781523
O O8 0.364951 0.673494 0.601162
O O9 0.561154 0.736928 0.845343
O O10 0.417006 0.000000 0.676696
O O11 0.188588 0.750853 0.013284
O O12 0.189510 0.000000 0.143018
O O13 0.000000 0.767000 0.000000
O O14 0.307040 0.000000 0.002480
#
# Coordination Sequence:
#
# PCOD8058446 Si02
#       6
#     4   2   4   2   4   4
#     4   9  16  24  43  70 101 133 161 199 252 311
#     4  11  23  36  53  73 105 138 176 215 251 297
#     4  10  18  31  48  70 104 138 167 202 251 307
#     4  11  22  34  50  76 103 142 177 204 251 304
#     4  10  21  37  56  77 102 135 174 214 257 301
#     4   9  17  28  45  72 102 131 165 204 253 308
#
# _framework density 17.684671000000002
#
# number of rings (size 3 to 8) (size 9 to 14) (size 15 to 20)
#    0.000    2.200    3.000    0.900    2.800    3.200 
#    0.000    2.000    0.000    0.000    0.000    2.800 
#    0.000    6.400    0.000    0.000    0.000    0.000 
#
# Total GULP energy -247874.681815 kJ/mol
# GULP energy per Si atom -12393.734091 kJ/mol
# Density = 1.764442 g / cm^3
# Si number density = 17.684671 Si / 1000 Ang^3
#
#
#
# Elastic Constant Matrix: (Units=GPa)
#
#
# Indices 1 2 3 4 5 6 
#
# 1 103.8050 37.7139 54.4076 0.0000 -25.9639 0.0000
# 2 37.7139 103.8178 57.5609 0.0000 -16.8907 0.0000
# 3 54.4076 57.5609 87.5171 0.0000 -27.1949 0.0000
# 4 0.0000 0.0000 0.0000 18.4102 0.0000 -7.0783
# 5 -25.9639 -16.8907 -27.1949 0.0000 28.8916 0.0000
# 6 0.0000 0.0000 0.0000 -7.0783 0.0000 23.0318
#
#
#
# Elastic Compliance Matrix: (Units=1/GPa)
#
#
# Indices 1 2 3 4 5 6 
#
# 1 0.015179 -0.000546 -0.006979 0.000000 0.006752 0.000000
# 2 -0.000546 0.015192 -0.009957 0.000000 -0.000982 0.000000
# 3 -0.006979 -0.009957 0.026228 0.000000 0.012594 0.000000
# 4 0.000000 0.000000 0.000000 0.061596 0.000000 0.018930
# 5 0.006752 -0.000982 0.012594 0.000000 0.051961 0.000000
# 6 0.000000 0.000000 0.000000 0.018930 0.000000 0.049236
#
#
# Mechanical properties :
#
#
# Convention : Reuss Voigt Hill
#
# Bulk Modulus (GPa) = 46.22523 66.05609 56.14066
# Shear Modulus (GPa) = 19.11561 23.76389 21.43975
#
# Velocity S-wave (km/s) = 3.29129 3.66971 3.48564
# Velocity P-wave (km/s) = 6.37486 7.44237 6.92920
#
# Compressibility (1/GPa) = 0.02163321
#
# Stress axis : x y z
#
# Youngs Moduli (GPa) = 65.88243 65.82575 38.12772
#
# Poissons Ratio (x) = 0.03594 0.26609
# Poissons Ratio (y) = 0.03597 0.37965
# Poissons Ratio (z) = 0.45979 0.65545
#
# Static dielectric constant tensor:
#      x y z
#    x 3.362860 0.000000 -0.418980 
#    y 0.000000 3.321990 0.000000 
#    z -0.418980 0.000000 2.953810 
# 
# 
# High freq. dielectric constant tensor:
#      x y z
#    x 1.671530 0.000000 -0.048950 
#    y 0.000000 1.699440 0.000000 
#    z -0.048950 0.000000 1.633600 
# 
# From -- ./inp_files/33658.got.cif
#   From: 2010.06.25/outbox.cif.g09.slc.cpg/sg10_17_cif.got.tgz:33658.got - 2010.06.27 22:07:45.
