data_PCOD8058642
_publ_section_title
;
Structure prediction by ZEFSAII (Michael W. Deem and Ramdas Pophale) SiO2 
 PCOD8058642
Probable space group: P 2/M
;
_chemical_formula_sum "Si O2"
_cell_formula_units_Z 28
_cell_length_a 22.103075
_cell_length_b 11.689406
_cell_length_c 11.586600
_cell_angle_alpha 90.000000
_cell_angle_beta 30.569790
_cell_angle_gamma 90.000000
_cell_volume 1522.533448
_symmetry_space_group_name_H-M "P 2/M"
_symmetry_group_IT_number 10
_symmetry_cell_setting 'monoclinic'
loop_
_space_group_symop_operation_xyz
x,y,z
-x,y,-z
-x,-y,-z
x,-y,z
loop_
_atom_site_type_symbol
_atom_site_label
_atom_site_fract_x
_atom_site_fract_y
_atom_site_fract_z
Si Si1 0.677304 0.134983 0.435483
Si Si2 0.120230 0.128319 0.732280
Si Si3 0.251024 0.744495 0.153973
Si Si4 0.546317 0.134459 0.050897
Si Si5 0.202377 0.500000 0.184118
Si Si6 0.973890 0.500000 0.718500
Si Si7 0.971478 0.746309 0.330706
Si Si8 0.217411 0.864575 0.974084
O O1 0.778183 0.184853 0.354847
O O2 0.548836 0.170548 0.694828
O O3 0.693746 0.000000 0.410212
O O4 0.698496 0.178268 0.269839
O O5 0.107515 0.209487 0.644245
O O6 0.155741 0.000000 0.632702
O O7 0.000000 0.122948 0.000000
O O8 0.282517 0.611291 0.079513
O O9 0.112724 0.751189 0.418254
O O10 0.270160 0.813127 0.004369
O O11 0.334732 0.795276 0.116527
O O12 0.574759 0.000000 0.008571
O O13 0.500000 0.168865 0.000000
O O14 0.082774 0.500000 0.452926
O O15 0.156135 0.500000 0.127966
O O16 0.984476 0.617675 0.773679
O O17 0.082690 0.827433 0.172025
O O18 0.219675 0.000000 0.982050
#
# Coordination Sequence:
#
# PCOD8058642 Si02
#       8
#     4   4   4   4   2   2   4   4
#     4   9  19  35  53  76 112 151 179 210 263 331
#     4  10  18  31  53  80 109 143 178 214 269 326
#     4  11  22  35  56  81 106 143 184 226 269 317
#     4  10  21  38  58  81 109 142 180 221 267 320
#     4   9  18  36  55  74 105 146 186 217 268 328
#     4   9  18  34  53  75 106 149 182 216 274 323
#     4  11  20  33  54  80 111 141 180 227 268 321
#     4  11  21  32  52  83 113 141 174 221 276 325
#
# _framework density 18.390401000000001
#
# number of rings (size 3 to 8) (size 9 to 14) (size 15 to 20)
#    0.000    1.857    2.857    2.143    0.000    4.571 
#    0.000    2.857    0.000    3.429    0.000    0.000 
#    0.000    0.000    0.000    0.000    0.000    0.000 
#
# Total GULP energy -347141.482643 kJ/mol
# GULP energy per Si atom -12397.910094 kJ/mol
# Density = 1.834854 g / cm^3
# Si number density = 18.390401 Si / 1000 Ang^3
#
#
#
# Elastic Constant Matrix: (Units=GPa)
#
#
# Indices 1 2 3 4 5 6 
#
# 1 105.7665 52.3016 25.1276 0.0000 5.1743 0.0000
# 2 52.3016 105.4823 26.1991 0.0000 3.1316 0.0000
# 3 25.1276 26.1991 74.3533 0.0000 5.4632 0.0000
# 4 0.0000 0.0000 0.0000 16.0996 0.0000 -37.7328
# 5 5.1743 3.1316 5.4632 0.0000 30.5391 0.0000
# 6 0.0000 0.0000 0.0000 -37.7328 0.0000 217.9724
#
#
#
# Elastic Compliance Matrix: (Units=1/GPa)
#
#
# Indices 1 2 3 4 5 6 
#
# 1 0.012919 -0.005817 -0.002229 0.000000 -0.001194 0.000000
# 2 -0.005817 0.013014 -0.002629 0.000000 0.000121 0.000000
# 3 -0.002229 -0.002629 0.015282 0.000000 -0.002087 0.000000
# 4 0.000000 0.000000 0.000000 0.104518 0.000000 0.018093
# 5 -0.001194 0.000121 -0.002087 0.000000 0.033308 0.000000
# 6 0.000000 0.000000 0.000000 0.018093 0.000000 0.007720
#
#
# Mechanical properties :
#
#
# Convention : Reuss Voigt Hill
#
# Bulk Modulus (GPa) = 50.33561 54.76208 52.54884
# Shear Modulus (GPa) = 23.28498 65.05380 44.16939
#
# Velocity S-wave (km/s) = 3.56216 5.95404 4.90610
# Velocity P-wave (km/s) = 6.65948 8.78121 7.79289
#
# Compressibility (1/GPa) = 0.01986665
#
# Stress axis : x y z
#
# Youngs Moduli (GPa) = 77.40518 76.84241 65.43627
#
# Poissons Ratio (x) = 0.44697 0.14584
# Poissons Ratio (y) = 0.45024 0.17201
# Poissons Ratio (z) = 0.17251 0.20199
#
# Static dielectric constant tensor:
#      x y z
#    x 3.454810 0.000000 0.126980 
#    y 0.000000 3.415130 0.000000 
#    z 0.126980 0.000000 3.359200 
# 
# 
# High freq. dielectric constant tensor:
#      x y z
#    x 1.715200 0.000000 0.002900 
#    y 0.000000 1.692050 0.000000 
#    z 0.002900 0.000000 1.702240 
# 
# From -- ./inp_files/55851.got.cif
#   From: 2010.06.25/outbox.cif.g09.slc.cpg/sg10_28_cif.got.tgz:55851.got - 2010.06.27 22:07:45.
