data_PCOD8058179
_publ_section_title
;
Structure prediction by ZEFSAII (Michael W. Deem and Ramdas Pophale) SiO2 
 PCOD8058179
Probable space group: P 2/M
;
_chemical_formula_sum "Si O2"
_cell_formula_units_Z 32
_cell_length_a 25.538919
_cell_length_b 8.830631
_cell_length_c 20.806362
_cell_angle_alpha 90.000000
_cell_angle_beta 22.325035
_cell_angle_gamma 90.000000
_cell_volume 1782.437889
_symmetry_space_group_name_H-M "P 2/M"
_symmetry_group_IT_number 10
_symmetry_cell_setting 'monoclinic'
loop_
_space_group_symop_operation_xyz
x,y,z
-x,y,-z
-x,-y,-z
x,-y,z
loop_
_atom_site_type_symbol
_atom_site_label
_atom_site_fract_x
_atom_site_fract_y
_atom_site_fract_z
Si Si1 0.355778 0.178946 0.829009
Si Si2 0.360831 0.175431 0.348208
Si Si3 0.058867 0.820252 0.367248
Si Si4 0.087435 0.679311 0.090515
Si Si5 0.363068 0.677371 0.480789
Si Si6 0.662363 0.177432 0.004466
Si Si7 0.067472 0.678959 0.859072
Si Si8 0.079785 0.175553 0.605697
O O1 0.507470 0.234525 0.635745
O O2 0.348042 0.000000 0.831184
O O3 0.241451 0.253908 0.913532
O O4 0.329304 0.236492 0.931856
O O5 0.330965 0.276511 0.444059
O O6 0.243129 0.205526 0.429071
O O7 0.363481 0.000000 0.367488
O O8 0.511059 0.218099 0.147496
O O9 0.958743 0.772928 0.422431
O O10 0.000000 0.748286 0.500000
O O11 0.212854 0.752553 0.179331
O O12 0.064558 0.000000 0.367740
O O13 0.095631 0.500000 0.080392
O O14 0.008659 0.744683 0.117532
O O15 0.007855 0.729629 0.244520
O O16 0.393800 0.500000 0.447979
O O17 0.228967 0.721298 0.674736
O O18 0.686851 0.000000 0.978189
O O19 0.048014 0.500000 0.880685
O O20 0.000000 0.749555 0.000000
O O21 0.042163 0.000000 0.659330
#
# Coordination Sequence:
#
# PCOD8058179 Si02
#       8
#     4   4   4   4   4   4   4   4
#     4  10  19  33  52  75 105 136 166 209 260 304
#     4   9  17  28  46  70 100 131 163 205 256 306
#     4   9  16  27  45  69  98 133 172 210 250 300
#     4  11  20  32  53  80 102 128 172 217 253 300
#     4  10  18  31  52  78 103 130 170 213 253 298
#     4   8  14  26  43  66  94 126 160 197 246 296
#     4   9  19  35  53  75 106 138 168 208 258 307
#     4  10  18  30  48  72 100 132 169 210 259 300
#
# _framework density 17.952939000000001
#
# number of rings (size 3 to 8) (size 9 to 14) (size 15 to 20)
#    0.000    2.500    2.500    1.875    0.000    0.000 
#    0.000    1.250    0.000   13.875    0.000    0.000 
#    0.000    3.250    0.000    0.000    0.000    0.000 
#
# Total GULP energy -396671.046686 kJ/mol
# GULP energy per Si atom -12395.970209 kJ/mol
# Density = 1.791208 g / cm^3
# Si number density = 17.952939 Si / 1000 Ang^3
#
#
#
# Elastic Constant Matrix: (Units=GPa)
#
#
# Indices 1 2 3 4 5 6 
#
# 1 97.4604 25.3448 66.1601 0.0000 -11.4545 0.0000
# 2 25.3448 41.7834 27.9008 0.0000 -5.2878 0.0000
# 3 66.1601 27.9008 144.9380 0.0000 -12.0007 0.0000
# 4 0.0000 0.0000 0.0000 22.1227 0.0000 -4.4533
# 5 -11.4545 -5.2878 -12.0007 0.0000 33.1753 0.0000
# 6 0.0000 0.0000 0.0000 -4.4533 0.0000 17.7958
#
#
#
# Elastic Compliance Matrix: (Units=1/GPa)
#
#
# Indices 1 2 3 4 5 6 
#
# 1 0.016096 -0.005370 -0.006107 0.000000 0.002492 0.000000
# 2 -0.005370 0.029464 -0.003078 0.000000 0.001729 0.000000
# 3 -0.006107 -0.003078 0.010375 0.000000 0.001154 0.000000
# 4 0.000000 0.000000 0.000000 0.047600 0.000000 0.011912
# 5 0.002492 0.001729 0.001154 0.000000 0.031696 0.000000
# 6 0.000000 0.000000 0.000000 0.011912 0.000000 0.059174
#
#
# Mechanical properties :
#
#
# Convention : Reuss Voigt Hill
#
# Bulk Modulus (GPa) = 37.27745 58.11036 47.69391
# Shear Modulus (GPa) = 21.50939 25.60383 23.55661
#
# Velocity S-wave (km/s) = 3.46511 3.78055 3.62626
# Velocity P-wave (km/s) = 6.06782 7.17602 6.64506
#
# Compressibility (1/GPa) = 0.02682587
#
# Stress axis : x y z
#
# Youngs Moduli (GPa) = 62.12819 33.93973 96.38327
#
# Poissons Ratio (x) = 0.18225 0.58863
# Poissons Ratio (y) = 0.33362 0.29662
# Poissons Ratio (z) = 0.37943 0.10445
#
# Static dielectric constant tensor:
#      x y z
#    x 3.375880 0.000000 -0.184040 
#    y 0.000000 3.004250 0.000000 
#    z -0.184040 0.000000 3.693270 
# 
# 
# High freq. dielectric constant tensor:
#      x y z
#    x 1.677270 0.000000 -0.025450 
#    y 0.000000 1.662040 0.000000 
#    z -0.025450 0.000000 1.703600 
# 
# From -- ./inp_files/86887.got.cif
#   From: 2010.06.25/outbox.cif.g09.slc.cpg/sg10_44_cif.got.tgz:86887.got - 2010.06.27 22:07:45.
