data_PCOD8058705
_publ_section_title
;
Structure prediction by ZEFSAII (Michael W. Deem and Ramdas Pophale) SiO2 
 PCOD8058705
Probable space group: P 2/M
;
_chemical_formula_sum "Si O2"
_cell_formula_units_Z 32
_cell_length_a 28.615126
_cell_length_b 8.892732
_cell_length_c 12.150753
_cell_angle_alpha 90.000000
_cell_angle_beta 145.573688
_cell_angle_gamma 90.000000
_cell_volume 1748.027565
_symmetry_space_group_name_H-M "P 2/M"
_symmetry_group_IT_number 10
_symmetry_cell_setting 'monoclinic'
loop_
_space_group_symop_operation_xyz
x,y,z
-x,y,-z
-x,-y,-z
x,-y,z
loop_
_atom_site_type_symbol
_atom_site_label
_atom_site_fract_x
_atom_site_fract_y
_atom_site_fract_z
Si Si1 0.967192 0.174682 0.815111
Si Si2 0.732334 0.326178 0.548812
Si Si3 0.285000 0.178254 0.930336
Si Si4 0.242248 0.325718 0.065870
Si Si5 0.794832 0.675029 0.434199
Si Si6 0.531944 0.176216 0.677012
Si Si7 0.116948 0.672976 0.008096
Si Si8 0.631167 0.175475 0.525064
O O1 0.887187 0.273288 0.637522
O O2 0.036833 0.222176 0.862316
O O3 0.945773 0.000000 0.758712
O O4 0.000000 0.212199 0.000000
O O5 0.716288 0.500000 0.545060
O O6 0.737815 0.294386 0.430101
O O7 0.656218 0.232545 0.452269
O O8 0.817280 0.274993 0.771823
O O9 0.243319 0.230602 0.737751
O O10 0.282233 0.000000 0.929762
O O11 0.233216 0.242728 0.932086
O O12 0.378812 0.243069 0.116833
O O13 0.260801 0.500000 0.082149
O O14 0.317844 0.258430 0.281369
O O15 0.156291 0.303123 0.964045
O O16 0.796108 0.500000 0.406214
O O17 0.500000 0.247748 0.500000
O O18 0.465847 0.210601 0.644956
O O19 0.543507 0.000000 0.681498
O O20 0.091349 0.500000 0.977472
O O21 0.650028 0.000000 0.572650
#
# Coordination Sequence:
#
# PCOD8058705 Si02
#       8
#     4   4   4   4   4   4   4   4
#     4  11  22  35  56  88 116 140 184 237 275 320
#     4   9  19  35  54  79 112 148 184 226 278 333
#     4  11  22  38  59  82 113 149 188 235 280 330
#     4  10  20  35  54  82 116 148 185 225 277 337
#     4  11  23  40  59  79 113 155 188 223 280 344
#     4   9  17  33  55  82 113 145 185 229 281 335
#     4   9  18  34  56  81 110 146 183 225 275 330
#     4  10  18  31  56  84 110 144 186 234 280 323
#
# _framework density 18.306346999999999
#
# number of rings (size 3 to 8) (size 9 to 14) (size 15 to 20)
#    0.000    2.000    2.500    2.625    0.000    4.000 
#    0.000    4.375    0.000    7.500    0.000    0.000 
#    0.000    0.000    0.000    0.000    0.000    0.000 
#
# Total GULP energy -396848.137088 kJ/mol
# GULP energy per Si atom -12401.504284 kJ/mol
# Density = 1.826468 g / cm^3
# Si number density = 18.306347 Si / 1000 Ang^3
#
#
#
# Elastic Constant Matrix: (Units=GPa)
#
#
# Indices 1 2 3 4 5 6 
#
# 1 119.0729 51.2309 42.9734 0.0000 0.5493 0.0000
# 2 51.2309 77.8260 26.8512 0.0000 0.2035 0.0000
# 3 42.9734 26.8512 63.7405 0.0000 -2.3894 0.0000
# 4 0.0000 0.0000 0.0000 11.4065 0.0000 -2.3194
# 5 0.5493 0.2035 -2.3894 0.0000 27.0592 0.0000
# 6 0.0000 0.0000 0.0000 -2.3194 0.0000 31.6181
#
#
#
# Elastic Compliance Matrix: (Units=1/GPa)
#
#
# Indices 1 2 3 4 5 6 
#
# 1 0.013603 -0.006761 -0.006353 0.000000 -0.000786 0.000000
# 2 -0.006761 0.018407 -0.003206 0.000000 -0.000284 0.000000
# 3 -0.006353 -0.003206 0.021399 0.000000 0.002043 0.000000
# 4 0.000000 0.000000 0.000000 0.088997 0.000000 0.006529
# 5 -0.000786 -0.000284 0.002043 0.000000 0.037154 0.000000
# 6 0.000000 0.000000 0.000000 0.006529 0.000000 0.032106
#
#
# Mechanical properties :
#
#
# Convention : Reuss Voigt Hill
#
# Bulk Modulus (GPa) = 48.14909 55.86114 52.00512
# Shear Modulus (GPa) = 19.90211 23.32236 21.61223
#
# Velocity S-wave (km/s) = 3.30080 3.57319 3.43969
# Velocity P-wave (km/s) = 6.39422 6.89960 6.65171
#
# Compressibility (1/GPa) = 0.02076882
#
# Stress axis : x y z
#
# Youngs Moduli (GPa) = 73.51097 54.32788 46.73141
#
# Poissons Ratio (x) = 0.36731 0.29687
# Poissons Ratio (y) = 0.49700 0.14984
# Poissons Ratio (z) = 0.46699 0.17420
#
# Static dielectric constant tensor:
#      x y z
#    x 3.590630 0.000000 0.063990 
#    y 0.000000 3.335620 0.000000 
#    z 0.063990 0.000000 3.179360 
# 
# 
# High freq. dielectric constant tensor:
#      x y z
#    x 1.723270 0.000000 0.006860 
#    y 0.000000 1.708660 0.000000 
#    z 0.006860 0.000000 1.680810 
# 
# From -- ./inp_files/58372.got.cif
#   From: 2010.06.25/outbox.cif.g09.slc.cpg/sg10_30_cif.got.tgz:58372.got - 2010.06.27 22:07:45.
