data_PCOD8058229
_publ_section_title
;
Structure prediction by ZEFSAII (Michael W. Deem and Ramdas Pophale) SiO2 
 PCOD8058229
Probable space group: P 2/M
;
_chemical_formula_sum "Si O2"
_cell_formula_units_Z 32
_cell_length_a 18.346062
_cell_length_b 13.418620
_cell_length_c 19.772857
_cell_angle_alpha 90.000000
_cell_angle_beta 157.293512
_cell_angle_gamma 90.000000
_cell_volume 1878.967468
_symmetry_space_group_name_H-M "P 2/M"
_symmetry_group_IT_number 10
_symmetry_cell_setting 'monoclinic'
loop_
_space_group_symop_operation_xyz
x,y,z
-x,y,-z
-x,-y,-z
x,-y,z
loop_
_atom_site_type_symbol
_atom_site_label
_atom_site_fract_x
_atom_site_fract_y
_atom_site_fract_z
Si Si1 0.870194 0.798027 0.453906
Si Si2 0.073479 0.887014 0.753017
Si Si3 0.023133 0.300820 0.791152
Si Si4 0.220818 0.382020 0.304909
Si Si5 0.625756 0.617526 0.701501
Si Si6 0.197945 0.386447 0.518884
Si Si7 0.500556 0.115964 0.923968
Si Si8 0.375419 0.617054 0.150166
O O1 0.877584 0.684169 0.486145
O O2 0.654908 0.826737 0.253334
O O3 0.000000 0.808895 0.500000
O O4 0.954682 0.871036 0.582980
O O5 0.997224 0.813786 0.746288
O O6 0.042411 0.000000 0.750879
O O7 0.293681 0.864116 0.930350
O O8 0.939380 0.319407 0.794084
O O9 0.925767 0.374436 0.654362
O O10 0.244837 0.327022 0.984153
O O11 0.185317 0.500000 0.284958
O O12 0.219929 0.354011 0.223930
O O13 0.418740 0.344169 0.504361
O O14 0.608197 0.500000 0.689376
O O15 0.679222 0.657626 0.821422
O O16 0.183857 0.500000 0.532246
O O17 0.410197 0.355566 0.682364
O O18 0.446607 0.000000 0.877495
O O19 0.500000 0.157367 0.000000
O O20 0.338663 0.500000 0.113353
#
# Coordination Sequence:
#
# PCOD8058229 Si02
#       8
#     4   4   4   4   4   4   4   4
#     4  11  21  34  55  77  98 127 164 200 241 298
#     4  10  22  37  52  75 100 123 158 205 255 297
#     4  11  20  31  51  72  96 132 168 199 240 294
#     4   9  15  27  46  71 103 133 162 196 239 283
#     4   8  15  26  44  71 103 133 160 199 241 278
#     4  10  21  35  48  68 103 138 167 197 233 281
#     4  10  19  33  55  77  98 119 146 200 264 302
#     4  10  18  30  49  73 101 132 166 200 237 282
#
# _framework density 17.030631
#
# number of rings (size 3 to 8) (size 9 to 14) (size 15 to 20)
#    0.000    2.125    2.500    3.000    0.000    1.250 
#    0.000    1.875    0.000    0.375    0.000    3.500 
#    0.000    0.000    0.000    0.000    0.000    0.000 
#
# Total GULP energy -396727.746296 kJ/mol
# GULP energy per Si atom -12397.742072 kJ/mol
# Density = 1.699187 g / cm^3
# Si number density = 17.030631 Si / 1000 Ang^3
#
#
#
# Elastic Constant Matrix: (Units=GPa)
#
#
# Indices 1 2 3 4 5 6 
#
# 1 55.9148 30.1141 14.6994 0.0000 3.7169 0.0000
# 2 30.1141 65.8320 22.9122 0.0000 3.3656 0.0000
# 3 14.6994 22.9122 107.9801 0.0000 -2.1986 0.0000
# 4 0.0000 0.0000 0.0000 18.9520 0.0000 2.8654
# 5 3.7169 3.3656 -2.1986 0.0000 14.0430 0.0000
# 6 0.0000 0.0000 0.0000 2.8654 0.0000 16.0176
#
#
#
# Elastic Compliance Matrix: (Units=1/GPa)
#
#
# Indices 1 2 3 4 5 6 
#
# 1 0.024056 -0.010396 -0.001151 0.000000 -0.004056 0.000000
# 2 -0.010396 0.021181 -0.003137 0.000000 -0.002816 0.000000
# 3 -0.001151 -0.003137 0.010137 0.000000 0.002644 0.000000
# 4 0.000000 0.000000 0.000000 0.054232 0.000000 -0.009701
# 5 -0.004056 -0.002816 0.002644 0.000000 0.073372 0.000000
# 6 0.000000 0.000000 0.000000 -0.009701 0.000000 0.064167
#
#
# Mechanical properties :
#
#
# Convention : Reuss Voigt Hill
#
# Bulk Modulus (GPa) = 38.45230 40.57536 39.51383
# Shear Modulus (GPa) = 17.53275 20.60261 19.06768
#
# Velocity S-wave (km/s) = 3.21204 3.48190 3.34969
# Velocity P-wave (km/s) = 6.03188 6.32784 6.18163
#
# Compressibility (1/GPa) = 0.02600624
#
# Stress axis : x y z
#
# Youngs Moduli (GPa) = 41.57047 47.21149 98.64782
#
# Poissons Ratio (x) = 0.49080 0.11358
# Poissons Ratio (y) = 0.43216 0.30942
# Poissons Ratio (z) = 0.04786 0.14808
#
# Static dielectric constant tensor:
#      x y z
#    x 3.229130 0.000000 -0.082600 
#    y 0.000000 2.877390 0.000000 
#    z -0.082600 0.000000 3.349360 
# 
# 
# High freq. dielectric constant tensor:
#      x y z
#    x 1.651480 0.000000 -0.000840 
#    y 0.000000 1.616430 0.000000 
#    z -0.000840 0.000000 1.673570 
# 
# From -- ./inp_files/86310.got.cif
#   From: 2010.06.25/outbox.cif.g09.slc.cpg/sg10_44_cif.got.tgz:86310.got - 2010.06.27 22:07:45.
