data_PCOD8058294
_publ_section_title
;
Structure prediction by ZEFSAII (Michael W. Deem and Ramdas Pophale) SiO2 
 PCOD8058294
Probable space group: P 2/M
;
_chemical_formula_sum "Si O2"
_cell_formula_units_Z 24
_cell_length_a 22.791274
_cell_length_b 13.970373
_cell_length_c 13.980961
_cell_angle_alpha 90.000000
_cell_angle_beta 162.242761
_cell_angle_gamma 90.000000
_cell_volume 1357.661730
_symmetry_space_group_name_H-M "P 2/M"
_symmetry_group_IT_number 10
_symmetry_cell_setting 'monoclinic'
loop_
_space_group_symop_operation_xyz
x,y,z
-x,y,-z
-x,-y,-z
x,-y,z
loop_
_atom_site_type_symbol
_atom_site_label
_atom_site_fract_x
_atom_site_fract_y
_atom_site_fract_z
Si Si1 0.830139 0.608073 0.660275
Si Si2 0.981921 0.890712 0.316181
Si Si3 0.330229 0.606559 0.160474
Si Si4 0.579232 0.720516 0.409631
Si Si5 0.313521 0.109274 0.979318
Si Si6 0.918519 0.720507 0.088195
O O1 0.767450 0.500000 0.534920
O O2 0.650682 0.664811 0.426562
O O3 0.000000 0.602319 0.000000
O O4 0.900958 0.664861 0.676790
O O5 0.786234 0.874717 0.072491
O O6 0.163915 0.864885 0.663936
O O7 0.993839 0.000000 0.299383
O O8 0.983932 0.824831 0.225309
O O9 0.500000 0.601582 0.500000
O O10 0.265243 0.500000 0.030449
O O11 0.402091 0.660489 0.177639
O O12 0.148937 0.660489 0.924433
O O13 0.749679 0.733877 0.749715
O O14 0.501274 0.824818 0.259950
O O15 0.382850 0.000000 0.077346
#
# Coordination Sequence:
#
# PCOD8058294 Si02
#       6
#     4   4   4   4   4   4
#     4   9  18  32  50  73 104 138 165 195 244 299
#     4   9  18  33  52  73  99 131 163 200 252 304
#     4   9  16  26  44  71  98 122 157 203 242 281
#     4  10  18  30  50  76 100 127 165 206 244 284
#     4   9  18  33  52  73  99 131 163 200 252 304
#     4  10  18  30  50  76 100 127 165 206 244 284
#
# _framework density 17.677451999999999
#
# number of rings (size 3 to 8) (size 9 to 14) (size 15 to 20)
#    0.000    2.667    1.667    2.000    0.000    4.667 
#    0.000    3.333    0.000   11.000    0.000    0.000 
#    0.000    0.000    0.000    0.000    0.000    0.000 
#
# Total GULP energy -297596.688369 kJ/mol
# GULP energy per Si atom -12399.862015 kJ/mol
# Density = 1.763722 g / cm^3
# Si number density = 17.677452 Si / 1000 Ang^3
#
#
#
# Elastic Constant Matrix: (Units=GPa)
#
#
# Indices 1 2 3 4 5 6 
#
# 1 111.9209 70.0462 36.0814 0.0000 27.3216 0.0000
# 2 70.0462 150.2154 48.9873 0.0000 12.2278 0.0000
# 3 36.0814 48.9873 41.3784 0.0000 13.6908 0.0000
# 4 0.0000 0.0000 0.0000 12.6808 0.0000 10.5210
# 5 27.3216 12.2278 13.6908 0.0000 22.3429 0.0000
# 6 0.0000 0.0000 0.0000 10.5210 0.0000 30.7492
#
#
#
# Elastic Compliance Matrix: (Units=1/GPa)
#
#
# Indices 1 2 3 4 5 6 
#
# 1 0.017603 -0.005930 -0.002861 0.000000 -0.016527 0.000000
# 2 -0.005930 0.012947 -0.012808 0.000000 0.008014 0.000000
# 3 -0.002861 -0.012808 0.048101 0.000000 -0.018966 0.000000
# 4 0.000000 0.000000 0.000000 0.110120 0.000000 -0.037678
# 5 -0.016527 0.008014 -0.018966 0.000000 0.072203 0.000000
# 6 0.000000 0.000000 0.000000 -0.037678 0.000000 0.045413
#
#
# Mechanical properties :
#
#
# Convention : Reuss Voigt Hill
#
# Bulk Modulus (GPa) = 28.20696 68.19384 48.20040
# Shear Modulus (GPa) = 13.83500 23.04790 18.44145
#
# Velocity S-wave (km/s) = 2.80060 3.61474 3.23339
# Velocity P-wave (km/s) = 5.14285 7.48881 6.42383
#
# Compressibility (1/GPa) = 0.03545225
#
# Stress axis : x y z
#
# Youngs Moduli (GPa) = 56.80831 77.23800 20.78965
#
# Poissons Ratio (x) = 0.45803 0.05947
# Poissons Ratio (y) = 0.33688 0.26628
# Poissons Ratio (z) = 0.16251 0.98930
#
# Static dielectric constant tensor:
#      x y z
#    x 3.191260 0.000000 0.176750 
#    y 0.000000 3.403660 0.000000 
#    z 0.176750 0.000000 2.886790 
# 
# 
# High freq. dielectric constant tensor:
#      x y z
#    x 1.668250 0.000000 0.012860 
#    y 0.000000 1.697900 0.000000 
#    z 0.012860 0.000000 1.646090 
# 
# From -- ./inp_files/18915.got.cif
#   From: 2010.06.25/outbox.cif.g09.slc.cpg/sg10_10_cif.got.tgz:18915.got - 2010.06.27 22:07:45.
