data_PCOD8058603
_publ_section_title
;
Structure prediction by ZEFSAII (Michael W. Deem and Ramdas Pophale) SiO2 
 PCOD8058603
Probable space group: P 2/M
;
_chemical_formula_sum "Si O2"
_cell_formula_units_Z 30
_cell_length_a 25.086192
_cell_length_b 14.050946
_cell_length_c 9.954412
_cell_angle_alpha 90.000000
_cell_angle_beta 26.363510
_cell_angle_gamma 90.000000
_cell_volume 1558.124324
_symmetry_space_group_name_H-M "P 2/M"
_symmetry_group_IT_number 10
_symmetry_cell_setting 'monoclinic'
loop_
_space_group_symop_operation_xyz
x,y,z
-x,y,-z
-x,-y,-z
x,-y,z
loop_
_atom_site_type_symbol
_atom_site_label
_atom_site_fract_x
_atom_site_fract_y
_atom_site_fract_z
Si Si1 0.500000 0.758633 0.000000
Si Si2 0.264098 0.293080 0.395636
Si Si3 0.277703 0.893800 0.218886
Si Si4 0.774050 0.107671 0.968559
Si Si5 0.174309 0.389193 0.348283
Si Si6 0.865859 0.299344 0.826559
Si Si7 0.896924 0.388099 0.025003
Si Si8 0.450516 0.893865 0.347638
O O1 0.605334 0.695070 0.828865
O O2 0.566534 0.823002 0.738609
O O3 0.233861 0.182555 0.428547
O O4 0.267133 0.352186 0.250370
O O5 0.156779 0.334040 0.726544
O O6 0.243987 0.000000 0.346478
O O7 0.219221 0.874954 0.206112
O O8 0.419784 0.883270 0.878565
O O9 0.641620 0.128208 0.324660
O O10 0.816051 0.000000 0.908537
O O11 0.860287 0.184266 0.846043
O O12 0.191771 0.500000 0.287607
O O13 0.211221 0.338424 0.124916
O O14 0.038068 0.364456 0.700159
O O15 0.000000 0.335133 0.500000
O O16 0.825044 0.347678 0.057820
O O17 0.873037 0.500000 0.093626
O O18 0.429915 0.000000 0.337040
#
# Coordination Sequence:
#
# PCOD8058603 Si02
#       8
#     2   4   4   4   4   4   4   4
#     4  10  21  32  49  80 114 146 172 214 272 324
#     4  11  20  35  55  81 110 143 177 219 272 320
#     4   9  18  32  52  79 109 140 178 222 261 305
#     4  10  18  31  52  79 109 144 179 213 258 315
#     4  10  20  37  60  81 101 135 184 232 273 316
#     4  10  20  35  55  82 109 139 173 222 275 320
#     4  10  21  37  59  83 106 134 180 235 275 311
#     4   9  17  30  50  75 104 140 184 223 255 298
#
# _framework density 19.253919
#
# number of rings (size 3 to 8) (size 9 to 14) (size 15 to 20)
#    0.000    2.133    1.333    2.600    0.000    5.067 
#    0.000    2.000    0.000    2.400    0.000    3.733 
#    0.000    0.000    0.000    0.000    0.000    0.000 
#
# Total GULP energy -371937.011731 kJ/mol
# GULP energy per Si atom -12397.900391 kJ/mol
# Density = 1.921010 g / cm^3
# Si number density = 19.253919 Si / 1000 Ang^3
#
#
#
# Elastic Constant Matrix: (Units=GPa)
#
#
# Indices 1 2 3 4 5 6 
#
# 1 96.8897 41.1726 18.2444 0.0000 9.9812 0.0000
# 2 41.1726 112.0991 28.9691 0.0000 7.7096 0.0000
# 3 18.2444 28.9691 27.6563 0.0000 9.2659 0.0000
# 4 0.0000 0.0000 0.0000 27.8956 0.0000 5.7025
# 5 9.9812 7.7096 9.2659 0.0000 23.7960 0.0000
# 6 0.0000 0.0000 0.0000 5.7025 0.0000 32.5549
#
#
#
# Elastic Compliance Matrix: (Units=1/GPa)
#
#
# Indices 1 2 3 4 5 6 
#
# 1 0.012827 -0.003528 -0.003848 0.000000 -0.002739 0.000000
# 2 -0.003528 0.013231 -0.012180 0.000000 0.001936 0.000000
# 3 -0.003848 -0.012180 0.057033 0.000000 -0.016647 0.000000
# 4 0.000000 0.000000 0.000000 0.037179 0.000000 -0.006513
# 5 -0.002739 0.001936 -0.016647 0.000000 0.049028 0.000000
# 6 0.000000 0.000000 0.000000 -0.006513 0.000000 0.031858
#
#
# Mechanical properties :
#
#
# Convention : Reuss Voigt Hill
#
# Bulk Modulus (GPa) = 22.73918 45.93523 34.33721
# Shear Modulus (GPa) = 19.61331 26.73326 23.17329
#
# Velocity S-wave (km/s) = 3.19512 3.73024 3.47300
# Velocity P-wave (km/s) = 5.04455 6.51631 5.82709
#
# Compressibility (1/GPa) = 0.04397696
#
# Stress axis : x y z
#
# Youngs Moduli (GPa) = 77.95961 75.57945 17.53379
#
# Poissons Ratio (x) = 0.26667 0.06748
# Poissons Ratio (y) = 0.27507 0.21357
# Poissons Ratio (z) = 0.30002 0.92057
#
# Static dielectric constant tensor:
#      x y z
#    x 3.641370 0.000000 0.176270 
#    y 0.000000 3.620400 0.000000 
#    z 0.176270 0.000000 3.244640 
# 
# 
# High freq. dielectric constant tensor:
#      x y z
#    x 1.753460 0.000000 0.017560 
#    y 0.000000 1.753460 0.000000 
#    z 0.017560 0.000000 1.716780 
# 
# From -- ./inp_files/36295.got.cif
#   From: 2010.06.25/outbox.cif.g09.slc.cpg/sg10_19_cif.got.tgz:36295.got - 2010.06.27 22:07:45.
