data_PCOD8058753
_publ_section_title
;
Structure prediction by ZEFSAII (Michael W. Deem and Ramdas Pophale) SiO2 
 PCOD8058753
Probable space group: P 2/M
;
_chemical_formula_sum "Si O2"
_cell_formula_units_Z 24
_cell_length_a 11.916424
_cell_length_b 8.621172
_cell_length_c 20.711294
_cell_angle_alpha 90.000000
_cell_angle_beta 38.724864
_cell_angle_gamma 90.000000
_cell_volume 1331.077154
_symmetry_space_group_name_H-M "P 2/M"
_symmetry_group_IT_number 10
_symmetry_cell_setting 'monoclinic'
loop_
_space_group_symop_operation_xyz
x,y,z
-x,y,-z
-x,-y,-z
x,-y,z
loop_
_atom_site_type_symbol
_atom_site_label
_atom_site_fract_x
_atom_site_fract_y
_atom_site_fract_z
Si Si1 0.949713 0.178180 0.418731
Si Si2 0.618813 0.184311 0.385971
Si Si3 0.647787 0.182797 0.882529
Si Si4 0.029446 0.318956 0.724469
Si Si5 0.415053 0.177800 0.350355
Si Si6 0.678055 0.318424 0.732504
O O1 0.904722 0.284175 0.377447
O O2 0.794854 0.198898 0.540309
O O3 0.136813 0.229535 0.365655
O O4 0.961676 0.000000 0.389864
O O5 0.500000 0.243788 0.500000
O O6 0.816960 0.257225 0.296709
O O7 0.529521 0.241318 0.359257
O O8 0.632564 0.000000 0.382702
O O9 0.599171 0.264045 0.836468
O O10 0.841868 0.232817 0.822179
O O11 0.644084 0.000000 0.873347
O O12 0.500000 0.237630 0.000000
O O13 0.999749 0.500000 0.748334
O O14 0.455603 0.274620 0.266642
O O15 0.464593 0.000000 0.314758
O O16 0.713255 0.500000 0.719322
#
# Coordination Sequence:
#
# PCOD8058753 Si02
#       6
#     4   4   4   4   4   4
#     4  10  18  32  51  71 101 143 186 219 253 304
#     4  10  19  35  54  74 104 148 193 222 251 299
#     4  10  21  39  63  83 100 131 177 224 267 317
#     4  11  21  32  51  81 113 141 172 218 272 318
#     4  10  20  33  51  72 102 146 186 219 253 301
#     4  11  22  33  49  77 110 138 168 215 274 324
#
# _framework density 18.03051
#
# number of rings (size 3 to 8) (size 9 to 14) (size 15 to 20)
#    0.000    1.667    1.667    6.500    0.000    5.667 
#    0.000    0.000    0.000    1.000    0.000    7.000 
#    0.000    0.000    0.000    0.000    0.000    0.000 
#
# Total GULP energy -297594.320995 kJ/mol
# GULP energy per Si atom -12399.763375 kJ/mol
# Density = 1.798947 g / cm^3
# Si number density = 18.030510 Si / 1000 Ang^3
#
#
#
# Elastic Constant Matrix: (Units=GPa)
#
#
# Indices 1 2 3 4 5 6 
#
# 1 131.1659 25.4543 55.6272 0.0000 14.6445 0.0000
# 2 25.4543 44.4996 26.7194 0.0000 1.6250 0.0000
# 3 55.6272 26.7194 88.4861 0.0000 5.8490 0.0000
# 4 0.0000 0.0000 0.0000 0.6645 0.0000 1.4394
# 5 14.6445 1.6250 5.8490 0.0000 15.6791 0.0000
# 6 0.0000 0.0000 0.0000 1.4394 0.0000 23.3810
#
#
#
# Elastic Compliance Matrix: (Units=1/GPa)
#
#
# Indices 1 2 3 4 5 6 
#
# 1 0.011598 -0.002788 -0.005897 0.000000 -0.008343 0.000000
# 2 -0.002788 0.028120 -0.006888 0.000000 0.002259 0.000000
# 3 -0.005897 -0.006888 0.017099 0.000000 -0.000156 0.000000
# 4 0.000000 0.000000 0.000000 1.736557 0.000000 -0.106911
# 5 -0.008343 0.002259 -0.000156 0.000000 0.071396 0.000000
# 6 0.000000 0.000000 0.000000 -0.106911 0.000000 0.049352
#
#
# Mechanical properties :
#
#
# Convention : Reuss Voigt Hill
#
# Bulk Modulus (GPa) = 38.95624 53.30595 46.13109
# Shear Modulus (GPa) = 2.55908 18.36828 10.46368
#
# Velocity S-wave (km/s) = 1.19264 3.19522 2.41162
# Velocity P-wave (km/s) = 4.85275 6.57580 5.77885
#
# Compressibility (1/GPa) = 0.02566983
#
# Stress axis : x y z
#
# Youngs Moduli (GPa) = 86.22420 35.56166 58.48334
#
# Poissons Ratio (x) = 0.09915 0.34491
# Poissons Ratio (y) = 0.24041 0.40282
# Poissons Ratio (z) = 0.50851 0.24494
#
# Static dielectric constant tensor:
#      x y z
#    x 3.470820 0.000000 0.011070 
#    y 0.000000 3.295900 0.000000 
#    z 0.011070 0.000000 3.117920 
# 
# 
# High freq. dielectric constant tensor:
#      x y z
#    x 1.703550 0.000000 0.006230 
#    y 0.000000 1.700890 0.000000 
#    z 0.006230 0.000000 1.661750 
# 
# From -- ./inp_files/48878.got.cif
#   From: 2010.06.25/outbox.cif.g09.slc.cpg/sg10_25_cif.got.tgz:48878.got - 2010.06.27 22:07:45.
