data_PCOD8058935
_publ_section_title
;
Structure prediction by ZEFSAII (Michael W. Deem and Ramdas Pophale) SiO2 
 PCOD8058935
Probable space group: P 2/M
;
_chemical_formula_sum "Si O2"
_cell_formula_units_Z 30
_cell_length_a 11.325383
_cell_length_b 14.485433
_cell_length_c 18.526816
_cell_angle_alpha 90.000000
_cell_angle_beta 31.762660
_cell_angle_gamma 90.000000
_cell_volume 1599.935727
_symmetry_space_group_name_H-M "P 2/M"
_symmetry_group_IT_number 10
_symmetry_cell_setting 'monoclinic'
loop_
_space_group_symop_operation_xyz
x,y,z
-x,y,-z
-x,-y,-z
x,-y,z
loop_
_atom_site_type_symbol
_atom_site_label
_atom_site_fract_x
_atom_site_fract_y
_atom_site_fract_z
Si Si1 0.990968 0.894741 0.402198
Si Si2 0.500000 0.783492 0.000000
Si Si3 0.325612 0.262536 0.235603
Si Si4 0.324028 0.214874 0.658333
Si Si5 0.381829 0.759841 0.361995
Si Si6 0.761339 0.401822 0.347189
Si Si7 0.051038 0.102988 0.210960
Si Si8 0.079620 0.393600 0.577894
O O1 0.811323 0.838401 0.543149
O O2 0.225429 0.840769 0.283172
O O3 0.918016 0.894474 0.356261
O O4 0.016014 0.000000 0.417954
O O5 0.534146 0.720172 0.910684
O O6 0.717183 0.843074 0.905571
O O7 0.471327 0.261111 0.234147
O O8 0.141695 0.343680 0.337450
O O9 0.500000 0.208724 0.500000
O O10 0.432141 0.200018 0.680627
O O11 0.199584 0.314684 0.724478
O O12 0.125514 0.141248 0.755264
O O13 0.294096 0.662144 0.437672
O O14 0.500000 0.407753 0.500000
O O15 0.833314 0.500000 0.273651
O O16 0.911960 0.387056 0.340162
O O17 0.113690 0.000000 0.155025
O O18 0.086473 0.500000 0.547754
#
# Coordination Sequence:
#
# PCOD8058935 Si02
#       8
#     4   2   4   4   4   4   4   4
#     4   9  17  31  51  76 106 136 168 214 273 329
#     4  10  21  42  59  68 100 148 195 238 259 304
#     4  10  22  35  52  75 102 141 189 227 264 310
#     4  11  18  32  52  79 118 143 168 216 277 336
#     4  11  20  31  49  81 114 140 169 215 276 335
#     4   9  15  25  45  73 107 143 170 194 244 320
#     4  10  20  34  57  82 104 143 188 224 267 323
#     4  10  18  32  55  84 115 143 173 219 277 331
#
# _framework density 18.750754000000001
#
# number of rings (size 3 to 8) (size 9 to 14) (size 15 to 20)
#    0.000    2.000    4.000    3.400    0.000    3.467 
#    0.000    1.000    0.000    1.600    0.000    0.000 
#    0.000    5.333    0.000    0.000    0.000    0.000 
#
# Total GULP energy -371692.478803 kJ/mol
# GULP energy per Si atom -12389.749293 kJ/mol
# Density = 1.870808 g / cm^3
# Si number density = 18.750754 Si / 1000 Ang^3
#
#
#
# Elastic Constant Matrix: (Units=GPa)
#
#
# Indices 1 2 3 4 5 6 
#
# 1 116.4590 0.0831 32.3602 0.0000 1.9795 0.0000
# 2 0.0831 84.1349 9.4209 0.0000 -1.6675 0.0000
# 3 32.3602 9.4209 48.8180 0.0000 4.2975 0.0000
# 4 0.0000 0.0000 0.0000 12.7974 0.0000 -5.4255
# 5 1.9795 -1.6675 4.2975 0.0000 24.4241 0.0000
# 6 0.0000 0.0000 0.0000 -5.4255 0.0000 16.1179
#
#
#
# Elastic Compliance Matrix: (Units=1/GPa)
#
#
# Indices 1 2 3 4 5 6 
#
# 1 0.010582 0.000806 -0.007211 0.000000 0.000466 0.000000
# 2 0.000806 0.012248 -0.003013 0.000000 0.001301 0.000000
# 3 -0.007211 -0.003013 0.026219 0.000000 -0.004234 0.000000
# 4 0.000000 0.000000 0.000000 0.091149 0.000000 0.030682
# 5 0.000466 0.001301 -0.004234 0.000000 0.041739 0.000000
# 6 0.000000 0.000000 0.000000 0.030682 0.000000 0.072371
#
#
# Mechanical properties :
#
#
# Convention : Reuss Voigt Hill
#
# Bulk Modulus (GPa) = 33.09785 37.01561 35.05673
# Shear Modulus (GPa) = 17.65454 24.50438 21.07946
#
# Velocity S-wave (km/s) = 3.07178 3.61896 3.35654
# Velocity P-wave (km/s) = 5.50190 6.10297 5.81021
#
# Compressibility (1/GPa) = 0.03021344
#
# Stress axis : x y z
#
# Youngs Moduli (GPa) = 94.50038 81.64606 38.14101
#
# Poissons Ratio (x) = -0.06583 0.27504
# Poissons Ratio (y) = -0.07619 0.11490
# Poissons Ratio (z) = 0.68146 0.24597
#
# Static dielectric constant tensor:
#      x y z
#    x 3.544550 0.000000 0.050640 
#    y 0.000000 3.741840 0.000000 
#    z 0.050640 0.000000 3.013870 
# 
# 
# High freq. dielectric constant tensor:
#      x y z
#    x 1.735640 0.000000 -0.005460 
#    y 0.000000 1.735180 0.000000 
#    z -0.005460 0.000000 1.661930 
# 
# From -- ./inp_files/84109.got.cif
#   From: 2010.06.25/outbox.cif.g09.slc.cpg/sg10_43_cif.got.tgz:84109.got - 2010.06.27 22:07:45.
