data_PCOD8058911
_publ_section_title
;
Structure prediction by ZEFSAII (Michael W. Deem and Ramdas Pophale) SiO2 
 PCOD8058911
Probable space group: P 2/M
;
_chemical_formula_sum "Si O2"
_cell_formula_units_Z 28
_cell_length_a 31.788902
_cell_length_b 9.264178
_cell_length_c 9.722221
_cell_angle_alpha 90.000000
_cell_angle_beta 146.702784
_cell_angle_gamma 90.000000
_cell_volume 1571.832177
_symmetry_space_group_name_H-M "P 2/M"
_symmetry_group_IT_number 10
_symmetry_cell_setting 'monoclinic'
loop_
_space_group_symop_operation_xyz
x,y,z
-x,y,-z
-x,-y,-z
x,-y,z
loop_
_atom_site_type_symbol
_atom_site_label
_atom_site_fract_x
_atom_site_fract_y
_atom_site_fract_z
Si Si1 0.041900 0.338043 0.470291
Si Si2 0.635769 0.327987 0.525869
Si Si3 0.950517 0.832433 0.997923
Si Si4 0.192098 0.330053 0.316249
Si Si5 0.635871 0.670602 0.217210
Si Si6 0.499414 0.672426 0.342523
Si Si7 0.804506 0.328893 0.985353
O O1 0.043366 0.500000 0.410045
O O2 0.000000 0.345506 0.500000
O O3 0.997350 0.228516 0.253523
O O4 0.128573 0.276467 0.728996
O O5 0.632850 0.500000 0.515501
O O6 0.618820 0.269740 0.324776
O O7 0.573852 0.267720 0.464846
O O8 0.720539 0.274837 0.805189
O O9 0.935366 0.000000 0.980717
O O10 0.868670 0.753842 0.755314
O O11 0.000000 0.800546 0.000000
O O12 0.177349 0.500000 0.291529
O O13 0.278443 0.288586 0.598070
O O14 0.179225 0.275636 0.125065
O O15 0.627516 0.500000 0.201185
O O16 0.575324 0.733158 0.941673
O O17 0.500000 0.732837 0.500000
O O18 0.499261 0.500000 0.344193
O O19 0.805169 0.500000 0.981531
#
# Coordination Sequence:
#
# PCOD8058911 Si02
#       7
#     4   4   4   4   4   4   4
#     4  10  18  32  55  77  98 125 163 206 251 295
#     4   8  13  22  37  55  84 123 156 182 221 280
#     4  11  24  38  49  68 101 135 167 201 244 297
#     4   9  16  31  52  71  94 123 163 207 243 285
#     4   8  14  24  41  61  82 118 159 190 228 283
#     4   9  15  22  32  54  92 126 150 183 230 279
#     4   8  14  26  45  70  94 119 156 203 243 281
#
# _framework density 17.813606
#
# number of rings (size 3 to 8) (size 9 to 14) (size 15 to 20)
#    0.000    3.000    1.429    2.571    0.000    3.143 
#    2.571    0.000    0.000    0.000    0.000    0.000 
#    0.000   10.857    0.000    0.000    0.000    0.571 
#
# Total GULP energy -346992.388239 kJ/mol
# GULP energy per Si atom -12392.585294 kJ/mol
# Density = 1.777306 g / cm^3
# Si number density = 17.813606 Si / 1000 Ang^3
#
#
#
# Elastic Constant Matrix: (Units=GPa)
#
#
# Indices 1 2 3 4 5 6 
#
# 1 124.6735 39.6778 78.3699 0.0000 20.3067 0.0000
# 2 39.6778 27.2339 15.2488 0.0000 7.7252 0.0000
# 3 78.3699 15.2488 123.1641 0.0000 23.7981 0.0000
# 4 0.0000 0.0000 0.0000 6.8746 0.0000 -1.0660
# 5 20.3067 7.7252 23.7981 0.0000 29.0231 0.0000
# 6 0.0000 0.0000 0.0000 -1.0660 0.0000 15.2087
#
#
#
# Elastic Compliance Matrix: (Units=1/GPa)
#
#
# Indices 1 2 3 4 5 6 
#
# 1 0.025415 -0.030156 -0.012540 0.000000 0.000527 0.000000
# 2 -0.030156 0.076747 0.011356 0.000000 -0.008640 0.000000
# 3 -0.012540 0.011356 0.016138 0.000000 -0.007482 0.000000
# 4 0.000000 0.000000 0.000000 0.147061 0.000000 0.010308
# 5 0.000527 -0.008640 -0.007482 0.000000 0.042521 0.000000
# 6 0.000000 0.000000 0.000000 0.010308 0.000000 0.066474
#
#
# Mechanical properties :
#
#
# Convention : Reuss Voigt Hill
#
# Bulk Modulus (GPa) = 17.97920 60.18496 39.08208
# Shear Modulus (GPa) = 10.97511 19.67295 15.32403
#
# Velocity S-wave (km/s) = 2.48485 3.32682 2.93617
# Velocity P-wave (km/s) = 4.28340 6.97254 5.78635
#
# Compressibility (1/GPa) = 0.05561984
#
# Stress axis : x y z
#
# Youngs Moduli (GPa) = 39.34688 13.02991 61.96507
#
# Poissons Ratio (x) = 0.39293 0.77704
# Poissons Ratio (y) = 1.18654 -0.70367
# Poissons Ratio (z) = 0.49341 -0.14797
#
# Static dielectric constant tensor:
#      x y z
#    x 3.395030 0.000000 0.377130 
#    y 0.000000 2.676330 0.000000 
#    z 0.377130 0.000000 3.570280 
# 
# 
# High freq. dielectric constant tensor:
#      x y z
#    x 1.685550 0.000000 0.019760 
#    y 0.000000 1.615710 0.000000 
#    z 0.019760 0.000000 1.699600 
# 
# From -- ./inp_files/38020.got.cif
#   From: 2010.06.25/outbox.cif.g09.slc.cpg/sg10_20_cif.got.tgz:38020.got - 2010.06.27 22:07:45.
