data_PCOD8058422
_publ_section_title
;
Structure prediction by ZEFSAII (Michael W. Deem and Ramdas Pophale) SiO2 
 PCOD8058422
Probable space group: P 2/M
;
_chemical_formula_sum "Si O2"
_cell_formula_units_Z 20
_cell_length_a 14.025127
_cell_length_b 13.899776
_cell_length_c 5.354854
_cell_angle_alpha 90.000000
_cell_angle_beta 95.573062
_cell_angle_gamma 90.000000
_cell_volume 1038.973654
_symmetry_space_group_name_H-M "P 2/M"
_symmetry_group_IT_number 10
_symmetry_cell_setting 'monoclinic'
loop_
_space_group_symop_operation_xyz
x,y,z
-x,y,-z
-x,-y,-z
x,-y,z
loop_
_atom_site_type_symbol
_atom_site_label
_atom_site_fract_x
_atom_site_fract_y
_atom_site_fract_z
Si Si1 0.109319 0.614570 0.543302
Si Si2 0.390127 0.192637 0.697029
Si Si3 0.605426 0.605589 0.133534
Si Si4 0.795862 0.389742 0.930798
Si Si5 0.395705 0.886579 0.201016
O O1 0.118049 0.500000 0.548933
O O2 0.166592 0.657865 0.317514
O O3 0.000000 0.649027 0.500000
O O4 0.155939 0.657511 0.808833
O O5 0.381872 0.308395 0.664478
O O6 0.500002 0.160190 0.748556
O O7 0.340419 0.143397 0.442596
O O8 0.340828 0.156688 0.944168
O O9 0.623482 0.500000 0.265582
O O10 0.500000 0.610885 0.000000
O O11 0.680721 0.619867 0.925721
O O12 0.829088 0.500000 0.931372
O O13 0.404556 0.000000 0.177452
#
# Coordination Sequence:
#
# PCOD8058422 Si02
#       5
#     4   4   4   4   4
#     4   9  16  29  48  66  83 106 147 206 257 291
#     4  10  18  31  46  66  86 118 162 201 233 288
#     4  10  20  35  48  65  99 142 178 207 224 260
#     4   9  18  30  44  65  88 117 158 198 239 278
#     4  10  18  31  49  67  85 108 158 215 251 287
#
# _framework density 19.249765
#
# number of rings (size 3 to 8) (size 9 to 14) (size 15 to 20)
#    0.000    2.400    2.000    3.600    0.000    4.000 
#    0.000    5.000    0.000    0.000    0.000    0.000 
#    0.000    0.000    0.000    0.000    0.000  116.000 
#
# Total GULP energy -247767.403988 kJ/mol
# GULP energy per Si atom -12388.370199 kJ/mol
# Density = 1.920595 g / cm^3
# Si number density = 19.249765 Si / 1000 Ang^3
#
#
#
# Elastic Constant Matrix: (Units=GPa)
#
#
# Indices 1 2 3 4 5 6 
#
# 1 87.1582 -2.1654 33.6893 0.0000 -14.0864 0.0000
# 2 -2.1654 118.4742 32.8747 0.0000 -6.5094 0.0000
# 3 33.6893 32.8747 176.3602 0.0000 -5.4517 0.0000
# 4 0.0000 0.0000 0.0000 19.8602 0.0000 -4.0321
# 5 -14.0864 -6.5094 -5.4517 0.0000 11.5965 0.0000
# 6 0.0000 0.0000 0.0000 -4.0321 0.0000 -1.5172
#
#
#
# Elastic Compliance Matrix: (Units=1/GPa)
#
#
# Indices 1 2 3 4 5 6 
#
# 1 0.015660 0.002101 -0.002799 0.000000 0.018885 0.000000
# 2 0.002101 0.009397 -0.001939 0.000000 0.006915 0.000000
# 3 -0.002799 -0.001939 0.006522 0.000000 -0.001422 0.000000
# 4 0.000000 0.000000 0.000000 0.032706 0.000000 -0.086918
# 5 0.018885 0.006915 -0.001422 0.000000 0.112386 0.000000
# 6 0.000000 0.000000 0.000000 -0.086918 0.000000 -0.428118
#
#
# Mechanical properties :
#
#
# Convention : Reuss Voigt Hill
#
# Bulk Modulus (GPa) = 38.01752 56.75445 47.38599
# Shear Modulus (GPa) = -21.06120 27.16083 3.04982
#
# Velocity S-wave (km/s) = -3.31131 3.76036 1.26007
# Velocity P-wave (km/s) = 2.27438 6.95708 5.17560
#
# Compressibility (1/GPa) = 0.02630366
#
# Stress axis : x y z
#
# Youngs Moduli (GPa) = 63.85792 106.41622 153.31696
#
# Poissons Ratio (x) = -0.22353 0.42916
# Poissons Ratio (y) = -0.13414 0.29731
# Poissons Ratio (z) = 0.17875 0.20636
#
# Static dielectric constant tensor:
#      x y z
#    x 3.193670 0.000000 0.096470 
#    y 0.000000 3.358880 0.000000 
#    z 0.096470 0.000000 6.276200 
# 
# 
# High freq. dielectric constant tensor:
#      x y z
#    x 1.693150 0.000000 -0.006640 
#    y 0.000000 1.704250 0.000000 
#    z -0.006640 0.000000 1.770490 
# 
# From -- ./inp_files/6720.got.cif
#   From: 2010.06.25/outbox.cif.g09.slc.cpg/sg10_4_cif.got.tgz:6720.got - 2010.06.27 22:07:45.
