data_PCOD8058493
_publ_section_title
;
Structure prediction by ZEFSAII (Michael W. Deem and Ramdas Pophale) SiO2 
 PCOD8058493
Probable space group: P 2/M
;
_chemical_formula_sum "Si O2"
_cell_formula_units_Z 28
_cell_length_a 19.298964
_cell_length_b 8.627348
_cell_length_c 14.437639
_cell_angle_alpha 90.000000
_cell_angle_beta 41.821245
_cell_angle_gamma 90.000000
_cell_volume 1602.908906
_symmetry_space_group_name_H-M "P 2/M"
_symmetry_group_IT_number 10
_symmetry_cell_setting 'monoclinic'
loop_
_space_group_symop_operation_xyz
x,y,z
-x,y,-z
-x,-y,-z
x,-y,z
loop_
_atom_site_type_symbol
_atom_site_label
_atom_site_fract_x
_atom_site_fract_y
_atom_site_fract_z
Si Si1 0.615229 0.680759 0.477542
Si Si2 0.499512 0.183063 0.103917
Si Si3 0.696678 0.182675 0.016896
Si Si4 0.889280 0.319001 0.515853
Si Si5 0.609760 0.181273 0.294780
Si Si6 0.689708 0.320145 0.600519
Si Si7 0.106936 0.816620 0.289955
O O1 0.620542 0.500000 0.450426
O O2 0.496745 0.727149 0.615425
O O3 0.659949 0.771139 0.343240
O O4 0.684701 0.725761 0.497157
O O5 0.597350 0.254576 0.062240
O O6 0.392502 0.222849 0.259967
O O7 0.510071 0.000000 0.089549
O O8 0.500000 0.253471 0.000000
O O9 0.689139 0.225710 0.133228
O O10 0.695714 0.000000 0.003247
O O11 0.803507 0.247974 0.867655
O O12 0.891941 0.500000 0.537451
O O13 0.804414 0.279664 0.522474
O O14 0.861976 0.225617 0.636129
O O15 0.000531 0.266258 0.365559
O O16 0.583456 0.000000 0.319744
O O17 0.662399 0.500000 0.640970
O O18 0.092195 0.000000 0.296842
#
# Coordination Sequence:
#
# PCOD8058493 Si02
#       7
#     4   4   4   4   4   4   4
#     4  10  19  32  48  71  99 129 165 204 240 288
#     4  10  19  31  48  71 100 132 162 196 242 294
#     4   9  18  31  48  73 102 127 158 202 247 292
#     4  10  20  35  51  72 100 131 167 206 245 287
#     4  10  18  31  50  72  98 130 161 199 248 295
#     4  10  21  34  49  70 101 134 163 201 246 290
#     4  10  19  34  54  75  97 128 168 207 244 287
#
# _framework density 17.468242
#
# number of rings (size 3 to 8) (size 9 to 14) (size 15 to 20)
#    0.000    2.143    1.429    4.286    0.000    3.143 
#    0.000    4.286    0.000    0.857    0.000    6.000 
#    0.000    0.000    0.000    0.000    0.000    0.000 
#
# Total GULP energy -347179.586341 kJ/mol
# GULP energy per Si atom -12399.270941 kJ/mol
# Density = 1.742848 g / cm^3
# Si number density = 17.468242 Si / 1000 Ang^3
#
#
#
# Elastic Constant Matrix: (Units=GPa)
#
#
# Indices 1 2 3 4 5 6 
#
# 1 127.7732 15.4910 73.3606 0.0000 7.6495 0.0000
# 2 15.4910 22.7277 15.2198 0.0000 2.1089 0.0000
# 3 73.3606 15.2198 130.0937 0.0000 8.7276 0.0000
# 4 0.0000 0.0000 0.0000 3.0370 0.0000 -4.5994
# 5 7.6495 2.1089 8.7276 0.0000 26.6025 0.0000
# 6 0.0000 0.0000 0.0000 -4.5994 0.0000 20.7751
#
#
#
# Elastic Compliance Matrix: (Units=1/GPa)
#
#
# Indices 1 2 3 4 5 6 
#
# 1 0.011918 -0.003874 -0.006194 0.000000 -0.001088 0.000000
# 2 -0.003874 0.049102 -0.003449 0.000000 -0.001647 0.000000
# 3 -0.006194 -0.003449 0.011703 0.000000 -0.001785 0.000000
# 4 0.000000 0.000000 0.000000 0.495353 0.000000 0.109667
# 5 -0.001088 -0.001647 -0.001785 0.000000 0.038619 0.000000
# 6 0.000000 0.000000 0.000000 0.109667 0.000000 0.072414
#
#
# Mechanical properties :
#
#
# Convention : Reuss Voigt Hill
#
# Bulk Modulus (GPa) = 21.88773 54.30415 38.09594
# Shear Modulus (GPa) = 6.93122 21.85115 14.39119
#
# Velocity S-wave (km/s) = 1.99412 3.54065 2.87339
# Velocity P-wave (km/s) = 4.22602 6.91880 5.73276
#
# Compressibility (1/GPa) = 0.04568771
#
# Stress axis : x y z
#
# Youngs Moduli (GPa) = 83.91006 20.36557 85.44820
#
# Poissons Ratio (x) = 0.07890 0.52928
# Poissons Ratio (y) = 0.32507 0.29475
# Poissons Ratio (z) = 0.51975 0.07025
#
# Static dielectric constant tensor:
#      x y z
#    x 3.449440 0.000000 0.123680 
#    y 0.000000 3.165700 0.000000 
#    z 0.123680 0.000000 3.306680 
# 
# 
# High freq. dielectric constant tensor:
#      x y z
#    x 1.671490 0.000000 0.011630 
#    y 0.000000 1.669880 0.000000 
#    z 0.011630 0.000000 1.663620 
# 
# From -- ./inp_files/68599.got.cif
#   From: 2010.06.25/outbox.cif.g09.slc.cpg/sg10_35_cif.got.tgz:68599.got - 2010.06.27 22:07:45.
