data_PCOD8058114
_publ_section_title
;
Structure prediction by ZEFSAII (Michael W. Deem and Ramdas Pophale) SiO2 
 PCOD8058114
Probable space group: P 2/M
;
_chemical_formula_sum "Si O2"
_cell_formula_units_Z 24
_cell_length_a 14.183482
_cell_length_b 8.700095
_cell_length_c 21.684681
_cell_angle_alpha 90.000000
_cell_angle_beta 31.695170
_cell_angle_gamma 90.000000
_cell_volume 1405.885339
_symmetry_space_group_name_H-M "P 2/M"
_symmetry_group_IT_number 10
_symmetry_cell_setting 'monoclinic'
loop_
_space_group_symop_operation_xyz
x,y,z
-x,y,-z
-x,-y,-z
x,-y,z
loop_
_atom_site_type_symbol
_atom_site_label
_atom_site_fract_x
_atom_site_fract_y
_atom_site_fract_z
Si Si1 0.495679 0.678390 0.072799
Si Si2 0.571905 0.681304 0.254049
Si Si3 0.793499 0.180421 0.554840
Si Si4 0.726469 0.178148 0.045901
Si Si5 0.157616 0.678543 0.341108
Si Si6 0.932794 0.330048 0.106873
O O1 0.547814 0.500000 0.050311
O O2 0.642410 0.778205 0.027176
O O3 0.296201 0.710450 0.209152
O O4 0.500000 0.733034 0.000000
O O5 0.540165 0.500000 0.271993
O O6 0.390280 0.766656 0.375697
O O7 0.626295 0.726061 0.154361
O O8 0.726360 0.728897 0.217578
O O9 0.782443 0.224553 0.632879
O O10 0.960836 0.265576 0.428983
O O11 0.819191 0.000000 0.533313
O O12 0.699546 0.000000 0.075041
O O13 0.939894 0.216385 0.925192
O O14 0.151884 0.500000 0.362779
O O15 0.941282 0.500000 0.132250
O O16 0.000000 0.340032 0.000000
#
# Coordination Sequence:
#
# PCOD8058114 Si02
#       6
#     4   4   4   4   4   4
#     4  10  21  36  53  70  92 128 170 205 236 278
#     4  10  18  30  47  68  95 129 163 193 234 288
#     4  11  20  29  46  71 100 127 156 196 242 289
#     4  11  20  29  45  69  98 127 156 198 244 286
#     4  10  19  32  49  67  93 128 163 197 237 287
#     4   8  16  29  45  64  91 126 160 193 231 284
#
# _framework density 17.071093999999999
#
# number of rings (size 3 to 8) (size 9 to 14) (size 15 to 20)
#    0.000    2.000    1.667    6.000    0.000    4.667 
#    0.000    0.000    0.000    0.000    0.000    1.167 
#    0.000    9.333    0.000    0.000    0.000    0.000 
#
# Total GULP energy -297567.822052 kJ/mol
# GULP energy per Si atom -12398.659252 kJ/mol
# Density = 1.703224 g / cm^3
# Si number density = 17.071094 Si / 1000 Ang^3
#
#
#
# Elastic Constant Matrix: (Units=GPa)
#
#
# Indices 1 2 3 4 5 6 
#
# 1 76.9972 29.6779 50.6691 0.0000 -21.2560 0.0000
# 2 29.6779 71.0960 25.5712 0.0000 -10.1978 0.0000
# 3 50.6691 25.5712 90.9575 0.0000 -21.7902 0.0000
# 4 0.0000 0.0000 0.0000 12.0814 0.0000 -8.1470
# 5 -21.2560 -10.1978 -21.7902 0.0000 33.7835 0.0000
# 6 0.0000 0.0000 0.0000 -8.1470 0.0000 14.4802
#
#
#
# Elastic Compliance Matrix: (Units=1/GPa)
#
#
# Indices 1 2 3 4 5 6 
#
# 1 0.023416 -0.005226 -0.009963 0.000000 0.006729 0.000000
# 2 -0.005226 0.016957 -0.001677 0.000000 0.000749 0.000000
# 3 -0.009963 -0.001677 0.018206 0.000000 0.004968 0.000000
# 4 0.000000 0.000000 0.000000 0.133374 0.000000 0.075040
# 5 0.006729 0.000749 0.004968 0.000000 0.037265 0.000000
# 6 0.000000 0.000000 0.000000 0.075040 0.000000 0.111280
#
#
# Mechanical properties :
#
#
# Convention : Reuss Voigt Hill
#
# Bulk Modulus (GPa) = 40.24458 50.09856 45.17157
# Shear Modulus (GPa) = 13.07154 20.94451 17.00803
#
# Velocity S-wave (km/s) = 2.77015 3.50651 3.15986
# Velocity P-wave (km/s) = 5.81872 6.76793 6.31120
#
# Compressibility (1/GPa) = 0.02484807
#
# Stress axis : x y z
#
# Youngs Moduli (GPa) = 42.70655 58.97096 54.92843
#
# Poissons Ratio (x) = 0.30818 0.54723
# Poissons Ratio (y) = 0.22318 0.09209
# Poissons Ratio (z) = 0.42547 0.09887
#
# Static dielectric constant tensor:
#      x y z
#    x 3.158740 0.000000 -0.566450 
#    y 0.000000 3.194380 0.000000 
#    z -0.566450 0.000000 3.325010 
# 
# 
# High freq. dielectric constant tensor:
#      x y z
#    x 1.627410 0.000000 -0.047310 
#    y 0.000000 1.665520 0.000000 
#    z -0.047310 0.000000 1.639570 
# 
# From -- ./inp_files/63100.got.cif
#   From: 2010.06.25/outbox.cif.g09.slc.cpg/sg10_32_cif.got.tgz:63100.got - 2010.06.27 22:07:45.
