data_PCOD8058980
_publ_section_title
;
Structure prediction by ZEFSAII (Michael W. Deem and Ramdas Pophale) SiO2 
 PCOD8058980
Probable space group: P 2/M
;
_chemical_formula_sum "Si O2"
_cell_formula_units_Z 28
_cell_length_a 13.612904
_cell_length_b 18.894138
_cell_length_c 8.443905
_cell_angle_alpha 90.000000
_cell_angle_beta 41.992359
_cell_angle_gamma 90.000000
_cell_volume 1453.007198
_symmetry_space_group_name_H-M "P 2/M"
_symmetry_group_IT_number 10
_symmetry_cell_setting 'monoclinic'
loop_
_space_group_symop_operation_xyz
x,y,z
-x,y,-z
-x,-y,-z
x,-y,z
loop_
_atom_site_type_symbol
_atom_site_label
_atom_site_fract_x
_atom_site_fract_y
_atom_site_fract_z
Si Si1 0.946124 0.834093 0.894699
Si Si2 0.750328 0.804640 0.629820
Si Si3 0.867184 0.418490 0.775370
Si Si4 0.631163 0.674145 0.953513
Si Si5 0.149980 0.686593 0.912175
Si Si6 0.573739 0.257785 0.566682
Si Si7 0.834310 0.921198 0.757588
O O1 0.846737 0.891201 0.921649
O O2 0.086041 0.805980 0.631483
O O3 0.840777 0.766861 0.036535
O O4 0.000000 0.865108 0.000000
O O5 0.733269 0.735883 0.759317
O O6 0.632218 0.800516 0.625681
O O7 0.730747 0.874081 0.765295
O O8 0.870237 0.500000 0.823004
O O9 0.720901 0.398629 0.855989
O O10 0.000000 0.399375 0.500000
O O11 0.858038 0.370965 0.941955
O O12 0.500000 0.653423 0.000000
O O13 0.564812 0.698545 0.200248
O O14 0.296179 0.684519 0.626574
O O15 0.000000 0.674346 0.000000
O O16 0.500000 0.220910 0.500000
O O17 0.000000 0.923481 0.500000
O O18 0.766027 0.000000 0.843942
#
# Coordination Sequence:
#
# PCOD8058980 Si02
#       7
#     4   4   4   4   4   4   4
#     4  10  18  32  59  90 117 147 196 248 295 337
#     4  10  19  35  58  86 114 153 196 244 295 349
#     4  11  24  40  59  85 120 160 197 238 292 356
#     4  10  22  38  61  86 114 152 200 244 297 351
#     4  11  21  38  62  87 118 149 194 248 297 350
#     4  11  21  37  59  91 113 146 193 258 302 342
#     4   9  19  33  53  85 124 158 193 240 295 352
#
# _framework density 19.270379999999999
#
# number of rings (size 3 to 8) (size 9 to 14) (size 15 to 20)
#    0.000    1.714    4.286    1.714    2.000    2.000 
#    0.000    1.429    0.000    4.286    0.000    0.000 
#    0.000    0.000    0.000    0.000    0.000    0.000 
#
# Total GULP energy -346927.623298 kJ/mol
# GULP energy per Si atom -12390.272261 kJ/mol
# Density = 1.922652 g / cm^3
# Si number density = 19.270380 Si / 1000 Ang^3
#
#
#
# Elastic Constant Matrix: (Units=GPa)
#
#
# Indices 1 2 3 4 5 6 
#
# 1 125.9475 60.8482 36.4772 0.0000 19.0520 0.0000
# 2 60.8482 92.3395 26.7921 0.0000 15.6009 0.0000
# 3 36.4772 26.7921 91.0182 0.0000 9.3957 0.0000
# 4 0.0000 0.0000 0.0000 16.1769 0.0000 5.8273
# 5 19.0520 15.6009 9.3957 0.0000 31.1189 0.0000
# 6 0.0000 0.0000 0.0000 5.8273 0.0000 21.5619
#
#
#
# Elastic Compliance Matrix: (Units=1/GPa)
#
#
# Indices 1 2 3 4 5 6 
#
# 1 0.012577 -0.006943 -0.002644 0.000000 -0.003421 0.000000
# 2 -0.006943 0.016493 -0.001711 0.000000 -0.003501 0.000000
# 3 -0.002644 -0.001711 0.012690 0.000000 -0.001355 0.000000
# 4 0.000000 0.000000 0.000000 0.068484 0.000000 -0.018508
# 5 -0.003421 -0.003501 -0.001355 0.000000 0.036394 0.000000
# 6 0.000000 0.000000 0.000000 -0.018508 0.000000 0.051380
#
#
# Mechanical properties :
#
#
# Convention : Reuss Voigt Hill
#
# Bulk Modulus (GPa) = 52.17882 61.94889 57.06386
# Shear Modulus (GPa) = 22.02638 26.11739 24.07188
#
# Velocity S-wave (km/s) = 3.38452 3.68545 3.53819
# Velocity P-wave (km/s) = 6.51224 7.09416 6.80942
#
# Compressibility (1/GPa) = 0.01916486
#
# Stress axis : x y z
#
# Youngs Moduli (GPa) = 79.50843 60.63335 78.80324
#
# Poissons Ratio (x) = 0.42097 0.20833
# Poissons Ratio (y) = 0.55201 0.13482
# Poissons Ratio (z) = 0.21020 0.10374
#
# Static dielectric constant tensor:
#      x y z
#    x 3.735080 0.000000 -0.168530 
#    y 0.000000 3.408100 0.000000 
#    z -0.168530 0.000000 2.125660 
# 
# 
# High freq. dielectric constant tensor:
#      x y z
#    x 1.764520 0.000000 0.007580 
#    y 0.000000 1.709700 0.000000 
#    z 0.007580 0.000000 1.758400 
# 
# From -- ./inp_files/30070.got.cif
#   From: 2010.06.25/outbox.cif.g09.slc.cpg/sg10_16_cif.got.tgz:30070.got - 2010.06.27 22:07:45.
