data_PCOD8058159
_publ_section_title
;
Structure prediction by ZEFSAII (Michael W. Deem and Ramdas Pophale) SiO2 
 PCOD8058159
Probable space group: P 2/M
;
_chemical_formula_sum "Si O2"
_cell_formula_units_Z 32
_cell_length_a 15.298662
_cell_length_b 9.085554
_cell_length_c 14.189865
_cell_angle_alpha 90.000000
_cell_angle_beta 86.646845
_cell_angle_gamma 90.000000
_cell_volume 1968.969418
_symmetry_space_group_name_H-M "P 2/M"
_symmetry_group_IT_number 10
_symmetry_cell_setting 'monoclinic'
loop_
_space_group_symop_operation_xyz
x,y,z
-x,y,-z
-x,-y,-z
x,-y,z
loop_
_atom_site_type_symbol
_atom_site_label
_atom_site_fract_x
_atom_site_fract_y
_atom_site_fract_z
Si Si1 0.981675 0.833998 0.111459
Si Si2 0.398497 0.325604 0.613420
Si Si3 0.345201 0.827421 0.796420
Si Si4 0.596832 0.326231 0.594820
Si Si5 0.323893 0.674012 0.219505
Si Si6 0.151002 0.329642 0.127856
Si Si7 0.478528 0.828578 0.106241
Si Si8 0.811026 0.328292 0.091119
O O1 0.895038 0.739980 0.139104
O O2 0.064662 0.762936 0.159268
O O3 0.968208 0.000000 0.148881
O O4 0.000000 0.830151 0.000000
O O5 0.389301 0.500000 0.630641
O O6 0.338519 0.240075 0.692065
O O7 0.498355 0.269322 0.618740
O O8 0.366957 0.278107 0.510136
O O9 0.440557 0.791233 0.831361
O O10 0.275411 0.751210 0.867959
O O11 0.325661 0.000000 0.794450
O O12 0.591193 0.500000 0.595527
O O13 0.659775 0.268639 0.674515
O O14 0.335112 0.500000 0.211582
O O15 0.226656 0.721458 0.195001
O O16 0.393456 0.742536 0.144515
O O17 0.126928 0.500000 0.141750
O O18 0.183944 0.298431 0.020349
O O19 0.455679 0.000000 0.108576
O O20 0.500000 0.774219 0.000000
O O21 0.806894 0.500000 0.115424
#
# Coordination Sequence:
#
# PCOD8058159 Si02
#       8
#     4   4   4   4   4   4   4   4
#     4   9  17  30  48  68  91 121 154 189 229 271
#     4   9  16  30  49  66  87 118 155 193 235 275
#     4  11  21  31  44  66  93 122 157 194 231 273
#     4   8  15  28  48  69  88 115 153 196 234 271
#     4  10  18  30  48  69  91 119 157 194 226 266
#     4   9  18  30  46  70  96 121 153 192 229 268
#     4  10  21  33  42  58  91 130 160 187 223 268
#     4  10  19  31  47  67  93 124 156 191 229 270
#
# _framework density 16.252155999999999
#
# number of rings (size 3 to 8) (size 9 to 14) (size 15 to 20)
#    0.000    2.500    1.250    2.625    0.000    3.250 
#    0.000    1.875    0.000    0.000    0.000    0.875 
#    0.000    7.000    0.000    0.000    0.000    0.000 
#
# Total GULP energy -396756.959637 kJ/mol
# GULP energy per Si atom -12398.654989 kJ/mol
# Density = 1.621517 g / cm^3
# Si number density = 16.252156 Si / 1000 Ang^3
#
#
#
# Elastic Constant Matrix: (Units=GPa)
#
#
# Indices 1 2 3 4 5 6 
#
# 1 63.0879 32.1907 24.1265 0.0000 24.4607 0.0000
# 2 32.1907 64.6551 25.4645 0.0000 6.1608 0.0000
# 3 24.1265 25.4645 78.4225 0.0000 19.5065 0.0000
# 4 0.0000 0.0000 0.0000 15.5142 0.0000 0.1319
# 5 24.4607 6.1608 19.5065 0.0000 19.6325 0.0000
# 6 0.0000 0.0000 0.0000 0.1319 0.0000 22.7429
#
#
#
# Elastic Compliance Matrix: (Units=1/GPa)
#
#
# Indices 1 2 3 4 5 6 
#
# 1 0.045658 -0.019898 0.006656 0.000000 -0.057256 0.000000
# 2 -0.019898 0.026407 -0.008711 0.000000 0.025160 0.000000
# 3 0.006656 -0.008711 0.019811 0.000000 -0.025243 0.000000
# 4 0.000000 0.000000 0.000000 0.064460 0.000000 -0.000374
# 5 -0.057256 0.025160 -0.025243 0.000000 0.139459 0.000000
# 6 0.000000 0.000000 0.000000 -0.000374 0.000000 0.043972
#
#
# Mechanical properties :
#
#
# Convention : Reuss Voigt Hill
#
# Bulk Modulus (GPa) = 20.84646 41.08099 30.96372
# Shear Modulus (GPa) = 12.51052 19.87018 16.19035
#
# Velocity S-wave (km/s) = 2.77749 3.50039 3.15968
# Velocity P-wave (km/s) = 4.81048 6.45516 5.69253
#
# Compressibility (1/GPa) = 0.04796977
#
# Stress axis : x y z
#
# Youngs Moduli (GPa) = 21.90196 37.86858 50.47627
#
# Poissons Ratio (x) = 0.75351 -0.33597
# Poissons Ratio (y) = 0.43581 0.43971
# Poissons Ratio (z) = -0.14578 0.32988
#
# Static dielectric constant tensor:
#      x y z
#    x 3.052820 0.000000 0.203480 
#    y 0.000000 3.001450 0.000000 
#    z 0.203480 0.000000 3.165310 
# 
# 
# High freq. dielectric constant tensor:
#      x y z
#    x 1.612610 0.000000 0.008030 
#    y 0.000000 1.620220 0.000000 
#    z 0.008030 0.000000 1.607090 
# 
# From -- ./inp_files/65985.got.cif
#   From: 2010.06.25/outbox.cif.g09.slc.cpg/sg10_33_cif.got.tgz:65985.got - 2010.06.27 22:07:45.
