data_PCOD8058739
_publ_section_title
;
Structure prediction by ZEFSAII (Michael W. Deem and Ramdas Pophale) SiO2 
 PCOD8058739
Probable space group: P 2/M
;
_chemical_formula_sum "Si O2"
_cell_formula_units_Z 32
_cell_length_a 19.060272
_cell_length_b 22.594376
_cell_length_c 13.404955
_cell_angle_alpha 90.000000
_cell_angle_beta 18.192336
_cell_angle_gamma 90.000000
_cell_volume 1802.347873
_symmetry_space_group_name_H-M "P 2/M"
_symmetry_group_IT_number 10
_symmetry_cell_setting 'monoclinic'
loop_
_space_group_symop_operation_xyz
x,y,z
-x,y,-z
-x,-y,-z
x,-y,z
loop_
_atom_site_type_symbol
_atom_site_label
_atom_site_fract_x
_atom_site_fract_y
_atom_site_fract_z
Si Si1 0.452295 0.713948 0.806228
Si Si2 0.035351 0.147898 0.609472
Si Si3 0.355311 0.638230 0.284699
Si Si4 0.024553 0.723643 0.244963
Si Si5 0.335331 0.065965 0.315867
Si Si6 0.986980 0.566053 0.899178
Si Si7 0.368848 0.845427 0.977562
Si Si8 0.286526 0.676214 0.726988
O O1 0.468726 0.672504 0.880888
O O2 0.478426 0.782533 0.801560
O O3 0.668793 0.693667 0.447732
O O4 0.216032 0.704080 0.067016
O O5 0.103054 0.094651 0.591427
O O6 0.026484 0.207663 0.683257
O O7 0.221758 0.161450 0.274930
O O8 0.793111 0.131240 0.891608
O O9 0.212405 0.590073 0.540400
O O10 0.196309 0.684421 0.439789
O O11 0.500000 0.607459 0.000000
O O12 0.086820 0.714510 0.044312
O O13 0.438171 0.105779 0.265825
O O14 0.288241 0.000000 0.420834
O O15 0.500000 0.062738 0.000000
O O16 0.940872 0.500000 0.920321
O O17 0.000000 0.565498 0.000000
O O18 0.771938 0.607642 0.170349
O O19 0.500000 0.695366 0.500000
#
# Coordination Sequence:
#
# PCOD8058739 Si02
#       8
#     4   4   4   4   4   4   4   4
#     4  10  18  32  50  74 105 128 157 207 251 298
#     4   9  16  28  41  64  93 123 150 191 243 293
#     4  11  21  32  52  76 100 134 167 203 256 302
#     4   9  19  31  49  76 102 127 164 201 250 308
#     4   9  17  28  41  60  88 122 162 199 229 279
#     4  10  20  36  54  72  99 134 172 208 243 292
#     4   9  17  26  43  64  92 123 152 187 245 297
#     4   9  18  33  53  78  98 126 165 205 248 295
#
# _framework density 17.754618000000001
#
# number of rings (size 3 to 8) (size 9 to 14) (size 15 to 20)
#    0.000    2.500    1.250    1.500    0.000    3.500 
#    0.000    2.500    0.000    0.000    0.000    5.250 
#    0.000    5.000    0.000    0.000    0.000    0.000 
#
# Total GULP energy -396508.385668 kJ/mol
# GULP energy per Si atom -12390.887052 kJ/mol
# Density = 1.771421 g / cm^3
# Si number density = 17.754618 Si / 1000 Ang^3
#
#
#
# Elastic Constant Matrix: (Units=GPa)
#
#
# Indices 1 2 3 4 5 6 
#
# 1 70.8337 41.6348 26.8035 0.0000 0.1124 0.0000
# 2 41.6348 120.8732 34.6018 0.0000 0.7198 0.0000
# 3 26.8035 34.6018 62.7804 0.0000 10.6722 0.0000
# 4 0.0000 0.0000 0.0000 -5.6445 0.0000 18.8692
# 5 0.1124 0.7198 10.6722 0.0000 23.5302 0.0000
# 6 0.0000 0.0000 0.0000 18.8692 0.0000 7.8532
#
#
#
# Elastic Compliance Matrix: (Units=1/GPa)
#
#
# Indices 1 2 3 4 5 6 
#
# 1 0.019283 -0.004948 -0.005977 0.000000 0.002770 0.000000
# 2 -0.004948 0.011212 -0.004348 0.000000 0.001653 0.000000
# 3 -0.005977 -0.004348 0.022591 0.000000 -0.010085 0.000000
# 4 0.000000 0.000000 0.000000 -0.019615 0.000000 0.047129
# 5 0.002770 0.001653 -0.010085 0.000000 0.047009 0.000000
# 6 0.000000 0.000000 0.000000 0.047129 0.000000 0.014098
#
#
# Mechanical properties :
#
#
# Convention : Reuss Voigt Hill
#
# Bulk Modulus (GPa) = 44.36332 51.17418 47.76875
# Shear Modulus (GPa) = 37.69675 15.24424 26.47050
#
# Velocity S-wave (km/s) = 4.61283 2.93338 3.86542
# Velocity P-wave (km/s) = 7.30836 6.35284 6.84728
#
# Compressibility (1/GPa) = 0.02254115
#
# Stress axis : x y z
#
# Youngs Moduli (GPa) = 51.85960 89.18799 44.26510
#
# Poissons Ratio (x) = 0.44126 0.26456
# Poissons Ratio (y) = 0.25658 0.19248
# Poissons Ratio (z) = 0.30995 0.38782
#
# Static dielectric constant tensor:
#      x y z
#    x 3.358490 0.000000 -0.023570 
#    y 0.000000 3.406970 0.000000 
#    z -0.023570 0.000000 3.445900 
# 
# 
# High freq. dielectric constant tensor:
#      x y z
#    x 1.688110 0.000000 -0.009530 
#    y 0.000000 1.673620 0.000000 
#    z -0.009530 0.000000 1.670890 
# 
# From -- ./inp_files/54262.got.cif
#   From: 2010.06.25/outbox.cif.g09.slc.cpg/sg10_28_cif.got.tgz:54262.got - 2010.06.27 22:07:45.
