data_PCOD8058530
_publ_section_title
;
Structure prediction by ZEFSAII (Michael W. Deem and Ramdas Pophale) SiO2 
 PCOD8058530
Probable space group: P 2/M
;
_chemical_formula_sum "Si O2"
_cell_formula_units_Z 32
_cell_length_a 12.860540
_cell_length_b 9.340130
_cell_length_c 15.334454
_cell_angle_alpha 90.000000
_cell_angle_beta 112.330886
_cell_angle_gamma 90.000000
_cell_volume 1703.823243
_symmetry_space_group_name_H-M "P 2/M"
_symmetry_group_IT_number 10
_symmetry_cell_setting 'monoclinic'
loop_
_space_group_symop_operation_xyz
x,y,z
-x,y,-z
-x,-y,-z
x,-y,z
loop_
_atom_site_type_symbol
_atom_site_label
_atom_site_fract_x
_atom_site_fract_y
_atom_site_fract_z
Si Si1 0.011028 0.835236 0.100310
Si Si2 0.991723 0.171106 0.399574
Si Si3 0.525053 0.834889 0.251999
Si Si4 0.428075 0.331635 0.061410
Si Si5 0.417714 0.169413 0.398822
Si Si6 0.759979 0.164165 0.073269
Si Si7 0.837879 0.828935 0.693924
Si Si8 0.240742 0.164948 0.737167
O O1 0.893139 0.816358 0.110856
O O2 0.106598 0.770978 0.196778
O O3 0.043019 0.000000 0.095053
O O4 0.000000 0.762075 0.000000
O O5 0.873644 0.238982 0.330383
O O6 0.000000 0.231534 0.500000
O O7 0.090642 0.225926 0.366859
O O8 0.992161 0.000000 0.400976
O O9 0.483196 0.730069 0.164838
O O10 0.472050 0.784461 0.325180
O O11 0.660055 0.815423 0.301590
O O12 0.494384 0.000000 0.220409
O O13 0.416799 0.500000 0.067220
O O14 0.500000 0.286238 0.000000
O O15 0.303900 0.263040 0.016398
O O16 0.500000 0.233765 0.500000
O O17 0.289624 0.229453 0.359755
O O18 0.413116 0.000000 0.408187
O O19 0.721534 0.222057 0.156055
O O20 0.724789 0.000000 0.044481
O O21 0.839562 0.000000 0.697726
O O22 0.210484 0.000000 0.742259
#
# Coordination Sequence:
#
# PCOD8058530 Si02
#       8
#     4   4   4   4   4   4   4   4
#     4   9  17  27  43  69  98 128 163 206 251 297
#     4   9  16  24  39  62  95 136 163 194 251 304
#     4  10  20  33  52  75 102 136 174 210 253 307
#     4  11  23  36  50  73 105 136 169 212 263 312
#     4   9  19  31  45  70 106 141 169 208 259 303
#     4  10  18  31  51  73 101 132 168 210 253 302
#     4   9  16  27  39  61  97 131 166 202 244 300
#     4   9  16  27  43  68  97 126 165 208 246 293
#
# _framework density 18.781291
#
# number of rings (size 3 to 8) (size 9 to 14) (size 15 to 20)
#    0.000    2.500    2.500    0.375    3.500    0.500 
#    0.000    0.000    0.000    0.750    0.000    0.000 
#    0.000    2.250    0.000    0.000    0.000    0.000 
#
# Total GULP energy -396541.425147 kJ/mol
# GULP energy per Si atom -12391.919536 kJ/mol
# Density = 1.873854 g / cm^3
# Si number density = 18.781291 Si / 1000 Ang^3
#
#
#
# Elastic Constant Matrix: (Units=GPa)
#
#
# Indices 1 2 3 4 5 6 
#
# 1 134.0294 19.7594 81.1351 0.0000 1.9040 0.0000
# 2 19.7594 27.7792 27.7436 0.0000 3.2007 0.0000
# 3 81.1351 27.7436 154.0707 0.0000 2.4788 0.0000
# 4 0.0000 0.0000 0.0000 3.6855 0.0000 -4.0756
# 5 1.9040 3.2007 2.4788 0.0000 36.5656 0.0000
# 6 0.0000 0.0000 0.0000 -4.0756 0.0000 3.8308
#
#
#
# Elastic Compliance Matrix: (Units=1/GPa)
#
#
# Indices 1 2 3 4 5 6 
#
# 1 0.011094 -0.002508 -0.005391 0.000000 0.000007 0.000000
# 2 -0.002508 0.044863 -0.006704 0.000000 -0.003342 0.000000
# 3 -0.005391 -0.006704 0.010534 0.000000 0.000153 0.000000
# 4 0.000000 0.000000 0.000000 -1.537308 0.000000 -1.635526
# 5 0.000007 -0.003342 0.000153 0.000000 0.027630 0.000000
# 6 0.000000 0.000000 0.000000 -1.635526 0.000000 -1.478977
#
#
# Mechanical properties :
#
#
# Convention : Reuss Voigt Hill
#
# Bulk Modulus (GPa) = 26.82038 63.68396 45.25217
# Shear Modulus (GPa) = -1.73579 21.29912 9.78166
#
# Velocity S-wave (km/s) = -0.96240 3.37123 2.28462
# Velocity P-wave (km/s) = 3.61613 7.00967 5.57727
#
# Compressibility (1/GPa) = 0.03728508
#
# Stress axis : x y z
#
# Youngs Moduli (GPa) = 90.13905 22.29033 94.93093
#
# Poissons Ratio (x) = 0.05591 0.51174
# Poissons Ratio (y) = 0.22609 0.63640
# Poissons Ratio (z) = 0.48591 0.14943
#
# Static dielectric constant tensor:
#      x y z
#    x 3.647770 0.000000 0.041550 
#    y 0.000000 2.659490 0.000000 
#    z 0.041550 0.000000 3.700850 
# 
# 
# High freq. dielectric constant tensor:
#      x y z
#    x 1.743140 0.000000 0.003590 
#    y 0.000000 1.637830 0.000000 
#    z 0.003590 0.000000 1.742370 
# 
# From -- ./inp_files/64410.got.cif
#   From: 2010.06.25/outbox.cif.g09.slc.cpg/sg10_33_cif.got.tgz:64410.got - 2010.06.27 22:07:45.
