data_PCOD8058622
_publ_section_title
;
Structure prediction by ZEFSAII (Michael W. Deem and Ramdas Pophale) SiO2 
 PCOD8058622
Probable space group: P 2/M
;
_chemical_formula_sum "Si O2"
_cell_formula_units_Z 24
_cell_length_a 5.192995
_cell_length_b 27.438430
_cell_length_c 9.757031
_cell_angle_alpha 90.000000
_cell_angle_beta 122.342303
_cell_angle_gamma 90.000000
_cell_volume 1174.581709
_symmetry_space_group_name_H-M "P 2/M"
_symmetry_group_IT_number 10
_symmetry_cell_setting 'monoclinic'
loop_
_space_group_symop_operation_xyz
x,y,z
-x,y,-z
-x,-y,-z
x,-y,z
loop_
_atom_site_type_symbol
_atom_site_label
_atom_site_fract_x
_atom_site_fract_y
_atom_site_fract_z
Si Si1 0.591924 0.101881 0.684210
Si Si2 0.644829 0.691044 0.391065
Si Si3 0.910944 0.443704 0.163063
Si Si4 0.768018 0.056007 0.181175
Si Si5 0.355055 0.798391 0.605577
Si Si6 0.560485 0.402055 0.808107
O O1 0.500000 0.098563 0.500000
O O2 0.362108 0.067807 0.704823
O O3 0.541644 0.157086 0.728889
O O4 0.945776 0.087255 0.792027
O O5 0.500000 0.686454 0.500000
O O6 0.607195 0.745318 0.313121
O O7 0.477134 0.654728 0.238361
O O8 0.000000 0.677708 0.500000
O O9 0.854410 0.500000 0.111605
O O10 0.767063 0.428504 0.267669
O O11 0.267475 0.430029 0.266973
O O12 0.752212 0.410014 0.001926
O O13 0.871773 0.000000 0.208668
O O14 0.500000 0.067301 0.000000
O O15 0.500000 0.790875 0.500000
O O16 0.000000 0.813723 0.500000
#
# Coordination Sequence:
#
# PCOD8058622 Si02
#       6
#     4   4   4   4   4   4
#     4  11  21  37  63  89 112 148 203 253 279 328
#     4  10  20  34  54  79 107 140 173 211 267 335
#     4  10  19  33  55  74  97 137 179 221 262 309
#     4  11  24  40  58  83 123 163 190 227 300 366
#     4   9  18  34  56  82 107 140 182 226 277 325
#     4  10  18  31  53  76  99 130 174 217 255 310
#
# _framework density 20.432808000000001
#
# number of rings (size 3 to 8) (size 9 to 14) (size 15 to 20)
#    0.000    1.833    0.000    7.000    0.000    3.333 
#    0.000    0.000   11.000   17.000    0.000    0.000 
#    0.000    0.000    0.000    0.000    0.000    0.000 
#
# Total GULP energy -297342.879332 kJ/mol
# GULP energy per Si atom -12389.286639 kJ/mol
# Density = 2.038630 g / cm^3
# Si number density = 20.432808 Si / 1000 Ang^3
#
#
#
# Elastic Constant Matrix: (Units=GPa)
#
#
# Indices 1 2 3 4 5 6 
#
# 1 193.2642 66.6318 23.6643 0.0000 24.3551 0.0000
# 2 66.6318 181.9153 64.5642 0.0000 19.8520 0.0000
# 3 23.6643 64.5642 41.6670 0.0000 6.2676 0.0000
# 4 0.0000 0.0000 0.0000 28.0803 0.0000 3.2452
# 5 24.3551 19.8520 6.2676 0.0000 21.3031 0.0000
# 6 0.0000 0.0000 0.0000 3.2452 0.0000 21.0780
#
#
#
# Elastic Compliance Matrix: (Units=1/GPa)
#
#
# Indices 1 2 3 4 5 6 
#
# 1 0.006511 -0.001662 -0.000247 0.000000 -0.005823 0.000000
# 2 -0.001662 0.013441 -0.019132 0.000000 -0.004997 0.000000
# 3 -0.000247 -0.019132 0.053426 0.000000 0.002393 0.000000
# 4 0.000000 0.000000 0.000000 0.036257 0.000000 -0.005582
# 5 -0.005823 -0.004997 0.002393 0.000000 0.057551 0.000000
# 6 0.000000 0.000000 0.000000 -0.005582 0.000000 0.048302
#
#
# Mechanical properties :
#
#
# Convention : Reuss Voigt Hill
#
# Bulk Modulus (GPa) = 31.95265 80.72967 56.34116
# Shear Modulus (GPa) = 18.65645 31.55804 25.10724
#
# Velocity S-wave (km/s) = 3.02497 3.93425 3.50919
# Velocity P-wave (km/s) = 5.27944 7.76102 6.63724
#
# Compressibility (1/GPa) = 0.03129631
#
# Stress axis : x y z
#
# Youngs Moduli (GPa) = 153.58039 74.39717 18.71743
#
# Poissons Ratio (x) = 0.12363 0.00463
# Poissons Ratio (y) = 0.25522 0.35811
# Poissons Ratio (z) = 0.03795 1.42339
#
# Static dielectric constant tensor:
#      x y z
#    x 6.503030 0.000000 0.294900 
#    y 0.000000 4.113010 0.000000 
#    z 0.294900 0.000000 3.117410 
# 
# 
# High freq. dielectric constant tensor:
#      x y z
#    x 1.842430 0.000000 0.012340 
#    y 0.000000 1.809590 0.000000 
#    z 0.012340 0.000000 1.733740 
# 
# From -- ./inp_files/39981.got.cif
#   From: 2010.06.25/outbox.cif.g09.slc.cpg/sg10_20_cif.got.tgz:39981.got - 2010.06.27 22:07:45.
