data_PCOD8058889
_publ_section_title
;
Structure prediction by ZEFSAII (Michael W. Deem and Ramdas Pophale) SiO2 
 PCOD8058889
Probable space group: P 2/M
;
_chemical_formula_sum "Si O2"
_cell_formula_units_Z 28
_cell_length_a 28.821737
_cell_length_b 9.019417
_cell_length_c 9.953601
_cell_angle_alpha 90.000000
_cell_angle_beta 145.338460
_cell_angle_gamma 90.000000
_cell_volume 1471.577350
_symmetry_space_group_name_H-M "P 2/M"
_symmetry_group_IT_number 10
_symmetry_cell_setting 'monoclinic'
loop_
_space_group_symop_operation_xyz
x,y,z
-x,y,-z
-x,-y,-z
x,-y,z
loop_
_atom_site_type_symbol
_atom_site_label
_atom_site_fract_x
_atom_site_fract_y
_atom_site_fract_z
Si Si1 0.690833 0.170995 0.440805
Si Si2 0.424225 0.173923 0.585042
Si Si3 0.984863 0.667247 0.621804
Si Si4 0.143096 0.170892 0.027459
Si Si5 0.659596 0.328657 0.860546
Si Si6 0.590380 0.329463 0.988451
Si Si7 0.175282 0.174167 0.798621
O O1 0.638764 0.211578 0.447676
O O2 0.785495 0.203897 0.696817
O O3 0.677464 0.000000 0.369549
O O4 0.665936 0.274400 0.258012
O O5 0.397246 0.258276 0.387629
O O6 0.512496 0.230630 0.841297
O O7 0.426985 0.000000 0.560729
O O8 0.972382 0.500000 0.642630
O O9 0.904416 0.761141 0.465854
O O10 0.000000 0.675314 0.500000
O O11 0.064034 0.735499 0.883690
O O12 0.116955 0.000000 0.964695
O O13 0.174675 0.214931 0.954627
O O14 0.675054 0.500000 0.863154
O O15 0.611656 0.308140 0.884285
O O16 0.745695 0.246978 0.078912
O O17 0.571555 0.500000 0.977059
O O18 0.178667 0.000000 0.781671
#
# Coordination Sequence:
#
# PCOD8058889 Si02
#       7
#     4   4   4   4   4   4   4
#     4  10  21  38  58  82 111 144 184 230 274 324
#     4  11  22  39  61  84 107 140 187 233 277 326
#     4   9  17  28  46  78 113 143 177 218 269 323
#     4   9  17  32  52  78 110 141 178 224 271 320
#     4  11  23  38  56  80 114 147 182 229 276 327
#     4  11  25  40  54  80 113 148 185 225 278 331
#     4  10  18  32  54  80 109 143 183 224 272 323
#
# _framework density 19.027201999999999
#
# number of rings (size 3 to 8) (size 9 to 14) (size 15 to 20)
#    0.000    1.857    1.429    3.000    0.000    9.714 
#    0.000    0.000    0.000    0.857    0.000    6.000 
#    0.000    0.000    0.000    0.000    0.000    0.000 
#
# Total GULP energy -347327.596741 kJ/mol
# GULP energy per Si atom -12404.557026 kJ/mol
# Density = 1.898390 g / cm^3
# Si number density = 19.027202 Si / 1000 Ang^3
#
#
#
# Elastic Constant Matrix: (Units=GPa)
#
#
# Indices 1 2 3 4 5 6 
#
# 1 22.5307 28.7805 27.1373 0.0000 5.0214 0.0000
# 2 28.7805 101.4833 45.1461 0.0000 3.8942 0.0000
# 3 27.1373 45.1461 106.5784 0.0000 11.7265 0.0000
# 4 0.0000 0.0000 0.0000 19.6680 0.0000 1.2993
# 5 5.0214 3.8942 11.7265 0.0000 31.6082 0.0000
# 6 0.0000 0.0000 0.0000 1.2993 0.0000 27.1187
#
#
#
# Elastic Compliance Matrix: (Units=1/GPa)
#
#
# Indices 1 2 3 4 5 6 
#
# 1 0.084570 -0.017831 -0.013286 0.000000 -0.006309 0.000000
# 2 -0.017831 0.015907 -0.002392 0.000000 0.001760 0.000000
# 3 -0.013286 -0.002392 0.014089 0.000000 -0.002822 0.000000
# 4 0.000000 0.000000 0.000000 0.051005 0.000000 -0.002444
# 5 -0.006309 0.001760 -0.002822 0.000000 0.033470 0.000000
# 6 0.000000 0.000000 0.000000 -0.002444 0.000000 0.036992
#
#
# Mechanical properties :
#
#
# Convention : Reuss Voigt Hill
#
# Bulk Modulus (GPa) = 21.03114 48.08004 34.55559
# Shear Modulus (GPa) = 15.67882 24.31420 19.99651
#
# Velocity S-wave (km/s) = 2.87369 3.57860 3.24534
# Velocity P-wave (km/s) = 4.69979 6.51146 5.67834
#
# Compressibility (1/GPa) = 0.04754854
#
# Stress axis : x y z
#
# Youngs Moduli (GPa) = 11.82448 62.86459 70.97613
#
# Poissons Ratio (x) = 1.12097 0.94299
# Poissons Ratio (y) = 0.21085 0.16975
# Poissons Ratio (z) = 0.15710 0.15035
#
# Static dielectric constant tensor:
#      x y z
#    x 3.221850 0.000000 0.221520 
#    y 0.000000 3.580400 0.000000 
#    z 0.221520 0.000000 3.578590 
# 
# 
# High freq. dielectric constant tensor:
#      x y z
#    x 1.712020 0.000000 0.022370 
#    y 0.000000 1.750070 0.000000 
#    z 0.022370 0.000000 1.745450 
# 
# From -- ./inp_files/37249.got.cif
#   From: 2010.06.25/outbox.cif.g09.slc.cpg/sg10_19_cif.got.tgz:37249.got - 2010.06.27 22:07:45.
