data_PCOD8058412
_publ_section_title
;
Structure prediction by ZEFSAII (Michael W. Deem and Ramdas Pophale) SiO2 
 PCOD8058412
Probable space group: P 2/M
;
_chemical_formula_sum "Si O2"
_cell_formula_units_Z 20
_cell_length_a 15.657068
_cell_length_b 7.714347
_cell_length_c 22.552407
_cell_angle_alpha 90.000000
_cell_angle_beta 156.839516
_cell_angle_gamma 90.000000
_cell_volume 1071.359392
_symmetry_space_group_name_H-M "P 2/M"
_symmetry_group_IT_number 10
_symmetry_cell_setting 'monoclinic'
loop_
_space_group_symop_operation_xyz
x,y,z
-x,y,-z
-x,-y,-z
x,-y,z
loop_
_atom_site_type_symbol
_atom_site_label
_atom_site_fract_x
_atom_site_fract_y
_atom_site_fract_z
Si Si1 0.774796 0.294865 0.329085
Si Si2 0.266212 0.294651 0.830564
Si Si3 0.320232 0.805034 0.080609
Si Si4 0.986481 0.806086 0.221084
Si Si5 0.931903 0.500000 0.024549
Si Si6 0.756619 0.500000 0.666561
O O1 0.750328 0.500000 0.315987
O O2 0.772250 0.227589 0.260244
O O3 0.579167 0.214981 0.242335
O O4 0.000000 0.229532 0.500000
O O5 0.250297 0.500000 0.825815
O O6 0.081531 0.212645 0.754078
O O7 0.500000 0.226031 0.000000
O O8 0.264017 0.000000 0.066073
O O9 0.223971 0.766414 0.953876
O O10 0.214535 0.670666 0.059029
O O11 0.173467 0.671416 0.324172
O O12 0.076019 0.000000 0.267124
O O13 0.142786 0.500000 0.202567
O O14 0.000000 0.500000 0.000000
O O15 0.500000 0.500000 0.500000
#
# Coordination Sequence:
#
# PCOD8058412 Si02
#       6
#     4   4   4   4   2   2
#     4  10  20  34  53  83 120 156 183 221 273 325
#     4  10  18  30  56  84 113 148 190 224 257 324
#     4  10  20  36  60  84 111 148 189 225 271 333
#     4  10  20  35  59  87 112 145 187 227 272 330
#     4  10  22  42  64  82 106 142 188 236 283 330
#     4  10  22  42  62  83 110 142 180 235 293 332
#
# _framework density 18.667871999999999
#
# number of rings (size 3 to 8) (size 9 to 14) (size 15 to 20)
#    0.000    2.000    4.000    0.000    0.000    2.400 
#    3.600    0.000    0.000    0.000    0.000    0.000 
#    0.000    0.000    0.000    0.000    0.000    0.000 
#
# Total GULP energy -248030.629631 kJ/mol
# GULP energy per Si atom -12401.531482 kJ/mol
# Density = 1.862538 g / cm^3
# Si number density = 18.667872 Si / 1000 Ang^3
#
#
#
# Elastic Constant Matrix: (Units=GPa)
#
#
# Indices 1 2 3 4 5 6 
#
# 1 139.8406 54.6235 59.7837 0.0000 8.4809 0.0000
# 2 54.6235 109.1571 52.9056 0.0000 12.8612 0.0000
# 3 59.7837 52.9056 136.8347 0.0000 11.7461 0.0000
# 4 0.0000 0.0000 0.0000 9.5746 0.0000 -4.9553
# 5 8.4809 12.8612 11.7461 0.0000 28.0545 0.0000
# 6 0.0000 0.0000 0.0000 -4.9553 0.0000 8.0327
#
#
#
# Elastic Compliance Matrix: (Units=1/GPa)
#
#
# Indices 1 2 3 4 5 6 
#
# 1 0.009754 -0.003451 -0.002915 0.000000 -0.000146 0.000000
# 2 -0.003451 0.012830 -0.003151 0.000000 -0.003519 0.000000
# 3 -0.002915 -0.003151 0.009958 0.000000 -0.001844 0.000000
# 4 0.000000 0.000000 0.000000 0.153428 0.000000 0.094649
# 5 -0.000146 -0.003519 -0.001844 0.000000 0.038074 0.000000
# 6 0.000000 0.000000 0.000000 0.094649 0.000000 0.182880
#
#
# Mechanical properties :
#
#
# Convention : Reuss Voigt Hill
#
# Bulk Modulus (GPa) = 74.02512 80.05089 77.03800
# Shear Modulus (GPa) = 11.61548 23.70032 17.65790
#
# Velocity S-wave (km/s) = 2.49714 3.56698 3.07888
# Velocity P-wave (km/s) = 6.93211 7.74204 7.34824
#
# Compressibility (1/GPa) = 0.01350893
#
# Stress axis : x y z
#
# Youngs Moduli (GPa) = 102.52228 77.94397 100.42238
#
# Poissons Ratio (x) = 0.26899 0.29270
# Poissons Ratio (y) = 0.35382 0.31639
# Poissons Ratio (z) = 0.29882 0.24557
#
# Static dielectric constant tensor:
#      x y z
#    x 3.277720 0.000000 -0.079570 
#    y 0.000000 3.490290 0.000000 
#    z -0.079570 0.000000 3.271980 
# 
# 
# High freq. dielectric constant tensor:
#      x y z
#    x 1.710440 0.000000 0.002220 
#    y 0.000000 1.734470 0.000000 
#    z 0.002220 0.000000 1.705830 
# 
# From -- ./inp_files/31456.got.cif
#   From: 2010.06.25/outbox.cif.g09.slc.cpg/sg10_16_cif.got.tgz:31456.got - 2010.06.27 22:07:45.
