data_PCOD8058456
_publ_section_title
;
Structure prediction by ZEFSAII (Michael W. Deem and Ramdas Pophale) SiO2 
 PCOD8058456
Probable space group: P 2/M
;
_chemical_formula_sum "Si O2"
_cell_formula_units_Z 32
_cell_length_a 28.116023
_cell_length_b 8.600020
_cell_length_c 20.088410
_cell_angle_alpha 90.000000
_cell_angle_beta 21.074626
_cell_angle_gamma 90.000000
_cell_volume 1746.621481
_symmetry_space_group_name_H-M "P 2/M"
_symmetry_group_IT_number 10
_symmetry_cell_setting 'monoclinic'
loop_
_space_group_symop_operation_xyz
x,y,z
-x,y,-z
-x,-y,-z
x,-y,z
loop_
_atom_site_type_symbol
_atom_site_label
_atom_site_fract_x
_atom_site_fract_y
_atom_site_fract_z
Si Si1 0.163188 0.820410 0.438345
Si Si2 0.612450 0.313836 0.304323
Si Si3 0.407915 0.681747 0.059344
Si Si4 0.444217 0.819049 0.257326
Si Si5 0.820317 0.685045 0.439870
Si Si6 0.897822 0.329461 0.777746
Si Si7 0.104806 0.670467 0.061085
Si Si8 0.394801 0.684167 0.837481
O O1 0.269832 0.774852 0.243051
O O2 0.197233 0.720022 0.459103
O O3 0.016224 0.785291 0.601548
O O4 0.173583 0.000000 0.443402
O O5 0.500000 0.246891 0.500000
O O6 0.620303 0.500000 0.297184
O O7 0.581261 0.261751 0.269847
O O8 0.756759 0.245515 0.140187
O O9 0.377593 0.500000 0.102376
O O10 0.500000 0.736217 0.000000
O O11 0.478448 0.719660 0.898284
O O12 0.290329 0.771440 0.458497
O O13 0.500231 0.778974 0.256538
O O14 0.459385 0.000000 0.221633
O O15 0.809741 0.500000 0.444368
O O16 0.964174 0.750998 0.226188
O O17 0.926205 0.500000 0.709754
O O18 0.891490 0.345968 0.864790
O O19 0.753052 0.269440 0.943928
O O20 0.102895 0.500000 0.030579
O O21 0.416776 0.500000 0.816465
#
# Coordination Sequence:
#
# PCOD8058456 Si02
#       8
#     4   4   4   4   4   4   4   4
#     4  11  20  30  49  76 103 127 162 216 264 297
#     4   8  13  25  51  85 111 129 158 206 255 293
#     4  11  22  36  54  72  96 133 173 212 256 307
#     4  12  24  35  50  73 102 133 169 216 262 303
#     4  10  18  31  49  69  97 135 176 210 248 301
#     4   8  15  30  50  69  95 133 172 206 245 299
#     4   7  12  23  43  72 101 127 160 204 246 288
#     4   9  18  34  54  76 104 138 172 205 248 307
#
# _framework density 18.321086000000001
#
# number of rings (size 3 to 8) (size 9 to 14) (size 15 to 20)
#    0.000    2.500    1.250    5.250    0.000    1.000 
#    0.000    0.625    0.000    4.875    0.000    5.250 
#    0.000    0.000    0.000    0.000    0.000    0.000 
#
# Total GULP energy -396550.555466 kJ/mol
# GULP energy per Si atom -12392.204858 kJ/mol
# Density = 1.827939 g / cm^3
# Si number density = 18.321086 Si / 1000 Ang^3
#
#
#
# Elastic Constant Matrix: (Units=GPa)
#
#
# Indices 1 2 3 4 5 6 
#
# 1 64.6903 13.2430 49.9865 0.0000 -12.5478 0.0000
# 2 13.2430 50.7379 24.8613 0.0000 -4.5789 0.0000
# 3 49.9865 24.8613 161.7743 0.0000 -13.0298 0.0000
# 4 0.0000 0.0000 0.0000 7.1240 0.0000 -4.7837
# 5 -12.5478 -4.5789 -13.0298 0.0000 27.2764 0.0000
# 6 0.0000 0.0000 0.0000 -4.7837 0.0000 12.6743
#
#
#
# Elastic Compliance Matrix: (Units=1/GPa)
#
#
# Indices 1 2 3 4 5 6 
#
# 1 0.021740 -0.002201 -0.005828 0.000000 0.006848 0.000000
# 2 -0.002201 0.021653 -0.002534 0.000000 0.001412 0.000000
# 3 -0.005828 -0.002534 0.008446 0.000000 0.000929 0.000000
# 4 0.000000 0.000000 0.000000 0.188023 0.000000 0.070967
# 5 0.006848 0.001412 0.000929 0.000000 0.040492 0.000000
# 6 0.000000 0.000000 0.000000 0.070967 0.000000 0.105685
#
#
# Mechanical properties :
#
#
# Convention : Reuss Voigt Hill
#
# Bulk Modulus (GPa) = 32.55808 50.37600 41.46704
# Shear Modulus (GPa) = 11.97884 22.02239 17.00062
#
# Velocity S-wave (km/s) = 2.55978 3.47078 3.04949
# Velocity P-wave (km/s) = 5.15228 6.60437 5.92299
#
# Compressibility (1/GPa) = 0.03071435
#
# Stress axis : x y z
#
# Youngs Moduli (GPa) = 45.99790 46.18400 118.39470
#
# Poissons Ratio (x) = 0.10164 0.68997
# Poissons Ratio (y) = 0.10123 0.29999
# Poissons Ratio (z) = 0.26806 0.11702
#
# Static dielectric constant tensor:
#      x y z
#    x 3.030200 0.000000 -0.263750 
#    y 0.000000 3.067020 0.000000 
#    z -0.263750 0.000000 3.966680 
# 
# 
# High freq. dielectric constant tensor:
#      x y z
#    x 1.661820 0.000000 -0.021290 
#    y 0.000000 1.683470 0.000000 
#    z -0.021290 0.000000 1.727450 
# 
# From -- ./inp_files/86827.got.cif
#   From: 2010.06.25/outbox.cif.g09.slc.cpg/sg10_44_cif.got.tgz:86827.got - 2010.06.27 22:07:45.
