data_PCOD8058951
_publ_section_title
;
Structure prediction by ZEFSAII (Michael W. Deem and Ramdas Pophale) SiO2 
 PCOD8058951
Probable space group: P 2/M
;
_chemical_formula_sum "Si O2"
_cell_formula_units_Z 32
_cell_length_a 11.048803
_cell_length_b 9.487305
_cell_length_c 21.466566
_cell_angle_alpha 90.000000
_cell_angle_beta 130.360691
_cell_angle_gamma 90.000000
_cell_volume 1714.611880
_symmetry_space_group_name_H-M "P 2/M"
_symmetry_group_IT_number 10
_symmetry_cell_setting 'monoclinic'
loop_
_space_group_symop_operation_xyz
x,y,z
-x,y,-z
-x,-y,-z
x,-y,z
loop_
_atom_site_type_symbol
_atom_site_label
_atom_site_fract_x
_atom_site_fract_y
_atom_site_fract_z
Si Si1 0.913938 0.834336 0.154673
Si Si2 0.164697 0.158524 0.408726
Si Si3 0.834315 0.337171 0.472871
Si Si4 0.521047 0.337236 0.177328
Si Si5 0.811511 0.159671 0.252828
Si Si6 0.499766 0.658258 0.690812
Si Si7 0.747415 0.166413 0.700560
Si Si8 0.384537 0.165153 0.018814
O O1 0.832022 0.778379 0.190114
O O2 0.094995 0.777715 0.209310
O O3 0.928707 0.000000 0.169435
O O4 0.798889 0.796097 0.058836
O O5 0.220501 0.259735 0.482282
O O6 0.236880 0.208729 0.366789
O O7 0.974758 0.163022 0.344256
O O8 0.223092 0.000000 0.442627
O O9 0.860088 0.500000 0.498295
O O10 0.689975 0.313524 0.376400
O O11 0.000000 0.275814 0.500000
O O12 0.538296 0.500000 0.163056
O O13 0.691537 0.266638 0.244910
O O14 0.439268 0.323516 0.217795
O O15 0.421583 0.254546 0.092261
O O16 0.741968 0.000000 0.228640
O O17 0.535808 0.500000 0.679861
O O18 0.592349 0.763447 0.676964
O O19 0.728708 0.000000 0.701509
O O20 0.402886 0.000000 0.040154
O O21 0.500000 0.205957 0.000000
#
# Coordination Sequence:
#
# PCOD8058951 Si02
#       8
#     4   4   4   4   4   4   4   4
#     4   8  15  31  54  79 106 135 171 215 261 315
#     4   9  19  34  56  85 111 136 175 229 276 312
#     4  10  21  38  58  79 109 146 182 217 264 326
#     4  11  22  34  50  76 111 143 179 225 270 315
#     4   9  16  31  53  77 107 141 173 211 267 328
#     4  10  23  40  54  73 106 148 185 221 265 318
#     4   9  19  37  59  80 105 140 183 226 263 311
#     4  10  18  32  56  82 109 141 174 214 270 329
#
# _framework density 18.663115999999999
#
# number of rings (size 3 to 8) (size 9 to 14) (size 15 to 20)
#    0.000    2.500    1.250    2.625    0.000    4.500 
#    0.000    5.625    0.000    3.750    0.000    0.000 
#    0.000    0.000    0.000    0.000    0.000    0.000 
#
# Total GULP energy -396633.081626 kJ/mol
# GULP energy per Si atom -12394.783801 kJ/mol
# Density = 1.862064 g / cm^3
# Si number density = 18.663116 Si / 1000 Ang^3
#
#
#
# Elastic Constant Matrix: (Units=GPa)
#
#
# Indices 1 2 3 4 5 6 
#
# 1 90.4251 41.0627 37.8072 0.0000 -1.0633 0.0000
# 2 41.0627 68.2084 45.7254 0.0000 -8.3336 0.0000
# 3 37.8072 45.7254 97.6239 0.0000 -10.4105 0.0000
# 4 0.0000 0.0000 0.0000 7.9428 0.0000 -25.5673
# 5 -1.0633 -8.3336 -10.4105 0.0000 21.9555 0.0000
# 6 0.0000 0.0000 0.0000 -25.5673 0.0000 3.0611
#
#
#
# Elastic Compliance Matrix: (Units=1/GPa)
#
#
# Indices 1 2 3 4 5 6 
#
# 1 0.015859 -0.008183 -0.002695 0.000000 -0.003616 0.000000
# 2 -0.008183 0.025859 -0.008361 0.000000 0.005454 0.000000
# 3 -0.002695 -0.008361 0.015642 0.000000 0.004113 0.000000
# 4 0.000000 0.000000 0.000000 -0.004864 0.000000 -0.040623
# 5 -0.003616 0.005454 0.004113 0.000000 0.049392 0.000000
# 6 0.000000 0.000000 0.000000 -0.040623 0.000000 -0.012620
#
#
# Mechanical properties :
#
#
# Convention : Reuss Voigt Hill
#
# Bulk Modulus (GPa) = 52.95973 56.16088 54.56030
# Shear Modulus (GPa) = 37.30284 15.36936 26.33610
#
# Velocity S-wave (km/s) = 4.47558 2.87281 3.76058
# Velocity P-wave (km/s) = 7.42604 6.41571 6.93929
#
# Compressibility (1/GPa) = 0.01888227
#
# Stress axis : x y z
#
# Youngs Moduli (GPa) = 63.05660 38.67197 63.93145
#
# Poissons Ratio (x) = 0.31644 0.17227
# Poissons Ratio (y) = 0.51596 0.53454
# Poissons Ratio (z) = 0.16992 0.32334
#
# Static dielectric constant tensor:
#      x y z
#    x 3.249770 0.000000 0.107880 
#    y 0.000000 3.241700 0.000000 
#    z 0.107880 0.000000 3.511160 
# 
# 
# High freq. dielectric constant tensor:
#      x y z
#    x 1.706350 0.000000 0.004230 
#    y 0.000000 1.705570 0.000000 
#    z 0.004230 0.000000 1.730990 
# 
# From -- ./inp_files/83623.got.cif
#   From: 2010.06.25/outbox.cif.g09.slc.cpg/sg10_42_cif.got.tgz:83623.got - 2010.06.27 22:07:45.
