data_PCOD8058754
_publ_section_title
;
Structure prediction by ZEFSAII (Michael W. Deem and Ramdas Pophale) SiO2 
 PCOD8058754
Probable space group: P 2/M
;
_chemical_formula_sum "Si O2"
_cell_formula_units_Z 32
_cell_length_a 14.238750
_cell_length_b 8.810059
_cell_length_c 15.562523
_cell_angle_alpha 90.000000
_cell_angle_beta 89.708486
_cell_angle_gamma 90.000000
_cell_volume 1952.203409
_symmetry_space_group_name_H-M "P 2/M"
_symmetry_group_IT_number 10
_symmetry_cell_setting 'monoclinic'
loop_
_space_group_symop_operation_xyz
x,y,z
-x,y,-z
-x,-y,-z
x,-y,z
loop_
_atom_site_type_symbol
_atom_site_label
_atom_site_fract_x
_atom_site_fract_y
_atom_site_fract_z
Si Si1 0.604318 0.822548 0.823752
Si Si2 0.388796 0.667167 0.004408
Si Si3 0.394721 0.319566 0.495717
Si Si4 0.901294 0.180255 0.406433
Si Si5 0.094130 0.322654 0.409852
Si Si6 0.277452 0.319980 0.659533
Si Si7 0.402995 0.320466 0.817847
Si Si8 0.711291 0.676331 0.672721
O O1 0.641797 0.777205 0.918449
O O2 0.504627 0.750394 0.800004
O O3 0.682537 0.770178 0.756123
O O4 0.592157 0.000000 0.820478
O O5 0.345347 0.500000 0.021656
O O6 0.500000 0.654356 0.000000
O O7 0.358489 0.729884 0.910275
O O8 0.500000 0.253469 0.500000
O O9 0.396138 0.500000 0.496922
O O10 0.337297 0.260891 0.578142
O O11 0.346018 0.260891 0.409080
O O12 0.877490 0.250216 0.499313
O O13 0.822556 0.235680 0.339877
O O14 0.001660 0.241682 0.372668
O O15 0.904344 0.000000 0.412561
O O16 0.074802 0.500000 0.424986
O O17 0.178165 0.297196 0.342531
O O18 0.261643 0.500000 0.656797
O O19 0.331370 0.267859 0.744911
O O20 0.418713 0.500000 0.816440
O O21 0.688228 0.500000 0.687927
#
# Coordination Sequence:
#
# PCOD8058754 Si02
#       8
#     4   4   4   4   4   4   4   4
#     4  11  21  30  45  70 101 133 160 195 242 292
#     4   8  15  30  49  69  92 122 162 204 241 276
#     4   9  16  27  45  67  91 122 160 197 230 266
#     4  11  21  32  48  71 100 126 152 196 251 292
#     4  10  19  34  54  70  88 121 168 208 239 279
#     4  10  18  32  51  71  94 125 166 201 233 282
#     4   9  18  32  52  72  94 127 166 206 238 273
#     4  10  19  32  49  69  92 125 165 203 237 274
#
# _framework density 16.391734
#
# number of rings (size 3 to 8) (size 9 to 14) (size 15 to 20)
#    0.000    2.250    1.250    4.875    0.000    5.750 
#    0.000    0.000    0.000    1.500    0.000    0.875 
#    0.000    7.000    0.000    0.000    0.000    0.000 
#
# Total GULP energy -396759.830969 kJ/mol
# GULP energy per Si atom -12398.744718 kJ/mol
# Density = 1.635443 g / cm^3
# Si number density = 16.391734 Si / 1000 Ang^3
#
#
#
# Elastic Constant Matrix: (Units=GPa)
#
#
# Indices 1 2 3 4 5 6 
#
# 1 94.2047 34.3629 54.4558 0.0000 0.7656 0.0000
# 2 34.3629 70.2104 37.4886 0.0000 -0.8074 0.0000
# 3 54.4558 37.4886 121.6226 0.0000 1.7453 0.0000
# 4 0.0000 0.0000 0.0000 7.3657 0.0000 2.1688
# 5 0.7656 -0.8074 1.7453 0.0000 13.5434 0.0000
# 6 0.0000 0.0000 0.0000 2.1688 0.0000 11.4296
#
#
#
# Elastic Compliance Matrix: (Units=1/GPa)
#
#
# Indices 1 2 3 4 5 6 
#
# 1 0.015493 -0.004653 -0.005496 0.000000 -0.000445 0.000000
# 2 -0.004653 0.018485 -0.003641 0.000000 0.001834 0.000000
# 3 -0.005496 -0.003641 0.011826 0.000000 -0.001430 0.000000
# 4 0.000000 0.000000 0.000000 0.143799 0.000000 -0.027286
# 5 -0.000445 0.001834 -0.001430 0.000000 0.074156 0.000000
# 6 0.000000 0.000000 0.000000 -0.027286 0.000000 0.092670
#
#
# Mechanical properties :
#
#
# Convention : Reuss Voigt Hill
#
# Bulk Modulus (GPa) = 54.87298 59.85026 57.36162
# Shear Modulus (GPa) = 12.81773 17.11643 14.96708
#
# Velocity S-wave (km/s) = 2.79939 3.23493 3.02501
# Velocity P-wave (km/s) = 6.63306 7.10948 6.87540
#
# Compressibility (1/GPa) = 0.01822391
#
# Stress axis : x y z
#
# Youngs Moduli (GPa) = 64.54375 54.09684 84.56035
#
# Poissons Ratio (x) = 0.25172 0.46478
# Poissons Ratio (y) = 0.30034 0.30786
# Poissons Ratio (z) = 0.35476 0.19695
#
# Static dielectric constant tensor:
#      x y z
#    x 3.062030 0.000000 0.111510 
#    y 0.000000 2.931750 0.000000 
#    z 0.111510 0.000000 3.321320 
# 
# 
# High freq. dielectric constant tensor:
#      x y z
#    x 1.613300 0.000000 0.001570 
#    y 0.000000 1.618780 0.000000 
#    z 0.001570 0.000000 1.621680 
# 
# From -- ./inp_files/66038.got.cif
#   From: 2010.06.25/outbox.cif.g09.slc.cpg/sg10_34_cif.got.tgz:66038.got - 2010.06.27 22:07:45.
