data_PCOD8058497
_publ_section_title
;
Structure prediction by ZEFSAII (Michael W. Deem and Ramdas Pophale) SiO2 
 PCOD8058497
Probable space group: P 2/M
;
_chemical_formula_sum "Si O2"
_cell_formula_units_Z 32
_cell_length_a 11.660784
_cell_length_b 9.123637
_cell_length_c 21.200213
_cell_angle_alpha 90.000000
_cell_angle_beta 52.291518
_cell_angle_gamma 90.000000
_cell_volume 1784.372289
_symmetry_space_group_name_H-M "P 2/M"
_symmetry_group_IT_number 10
_symmetry_cell_setting 'monoclinic'
loop_
_space_group_symop_operation_xyz
x,y,z
-x,y,-z
-x,-y,-z
x,-y,z
loop_
_atom_site_type_symbol
_atom_site_label
_atom_site_fract_x
_atom_site_fract_y
_atom_site_fract_z
Si Si1 0.167681 0.330145 0.453228
Si Si2 0.936238 0.669545 0.090303
Si Si3 0.668750 0.829580 0.710401
Si Si4 0.831544 0.330705 0.404032
Si Si5 0.652063 0.170721 0.220613
Si Si6 0.853919 0.673705 0.748895
Si Si7 0.050701 0.834863 0.166567
Si Si8 0.271547 0.838514 0.672034
O O1 0.197685 0.500000 0.426421
O O2 0.261906 0.227018 0.377511
O O3 0.211978 0.292489 0.509996
O O4 0.000000 0.293833 0.500000
O O5 0.927694 0.500000 0.113169
O O6 0.774881 0.735811 0.144638
O O7 0.043962 0.752821 0.101882
O O8 0.000000 0.690782 0.000000
O O9 0.496887 0.804094 0.765753
O O10 0.723737 0.738606 0.751572
O O11 0.707850 0.000000 0.705318
O O12 0.819886 0.500000 0.393717
O O13 0.715988 0.257355 0.395407
O O14 0.996805 0.280515 0.336057
O O15 0.634575 0.221458 0.300184
O O16 0.699667 0.000000 0.204610
O O17 0.836130 0.500000 0.760514
O O18 0.844663 0.745096 0.821467
O O19 0.892892 0.837897 0.249549
O O20 0.110716 0.000000 0.137059
O O21 0.323895 0.000000 0.635357
#
# Coordination Sequence:
#
# PCOD8058497 Si02
#       8
#     4   4   4   4   4   4   4   4
#     4  10  19  34  49  67  98 135 174 217 266 315
#     4  10  20  34  56  86 112 134 166 207 251 302
#     4  11  22  34  50  74 102 135 177 219 262 310
#     4   9  17  29  47  69  94 125 167 215 260 306
#     4   9  20  37  53  73 104 139 173 209 253 313
#     4  10  18  31  50  73 102 137 174 214 261 305
#     4   9  17  30  50  78 107 135 170 209 250 299
#     4   8  15  29  48  68  93 126 165 208 252 297
#
# _framework density 17.933477
#
# number of rings (size 3 to 8) (size 9 to 14) (size 15 to 20)
#    0.000    2.500    1.250    2.250    0.000    6.250 
#    0.000    0.625    0.000    4.500    0.000    5.250 
#    0.000    0.000    0.000    0.000    0.000    0.000 
#
# Total GULP energy -396752.938111 kJ/mol
# GULP energy per Si atom -12398.529316 kJ/mol
# Density = 1.789266 g / cm^3
# Si number density = 17.933477 Si / 1000 Ang^3
#
#
#
# Elastic Constant Matrix: (Units=GPa)
#
#
# Indices 1 2 3 4 5 6 
#
# 1 101.3595 59.1117 41.8117 0.0000 22.3022 0.0000
# 2 59.1117 107.4564 49.6333 0.0000 15.4362 0.0000
# 3 41.8117 49.6333 67.0594 0.0000 16.4925 0.0000
# 4 0.0000 0.0000 0.0000 22.0469 0.0000 10.8745
# 5 22.3022 15.4362 16.4925 0.0000 21.0309 0.0000
# 6 0.0000 0.0000 0.0000 10.8745 0.0000 29.7392
#
#
#
# Elastic Compliance Matrix: (Units=1/GPa)
#
#
# Indices 1 2 3 4 5 6 
#
# 1 0.017474 -0.006450 -0.003380 0.000000 -0.011146 0.000000
# 2 -0.006450 0.016645 -0.008642 0.000000 0.001401 0.000000
# 3 -0.003380 -0.008642 0.025986 0.000000 -0.010451 0.000000
# 4 0.000000 0.000000 0.000000 0.055339 0.000000 -0.020235
# 5 -0.011146 0.001401 -0.010451 0.000000 0.066536 0.000000
# 6 0.000000 0.000000 0.000000 -0.020235 0.000000 0.041025
#
#
# Mechanical properties :
#
#
# Convention : Reuss Voigt Hill
#
# Bulk Modulus (GPa) = 43.17689 64.10983 53.64336
# Shear Modulus (GPa) = 18.67964 22.91797 20.79880
#
# Velocity S-wave (km/s) = 3.23090 3.57871 3.40924
# Velocity P-wave (km/s) = 6.16820 7.27341 6.74349
#
# Compressibility (1/GPa) = 0.02316054
#
# Stress axis : x y z
#
# Youngs Moduli (GPa) = 57.22691 60.07791 38.48163
#
# Poissons Ratio (x) = 0.38752 0.13007
# Poissons Ratio (y) = 0.36913 0.33257
# Poissons Ratio (z) = 0.19343 0.51921
#
# Static dielectric constant tensor:
#      x y z
#    x 3.433460 0.000000 0.315160 
#    y 0.000000 3.433840 0.000000 
#    z 0.315160 0.000000 3.060310 
# 
# 
# High freq. dielectric constant tensor:
#      x y z
#    x 1.691050 0.000000 0.030910 
#    y 0.000000 1.701470 0.000000 
#    z 0.030910 0.000000 1.661160 
# 
# From -- ./inp_files/83354.got.cif
#   From: 2010.06.25/outbox.cif.g09.slc.cpg/sg10_42_cif.got.tgz:83354.got - 2010.06.27 22:07:45.
