data_PCOD8058322
_publ_section_title
;
Structure prediction by ZEFSAII (Michael W. Deem and Ramdas Pophale) SiO2 
 PCOD8058322
Probable space group: P 2/M
;
_chemical_formula_sum "Si O2"
_cell_formula_units_Z 28
_cell_length_a 22.173538
_cell_length_b 8.489244
_cell_length_c 18.341294
_cell_angle_alpha 90.000000
_cell_angle_beta 154.383623
_cell_angle_gamma 90.000000
_cell_volume 1492.666966
_symmetry_space_group_name_H-M "P 2/M"
_symmetry_group_IT_number 10
_symmetry_cell_setting 'monoclinic'
loop_
_space_group_symop_operation_xyz
x,y,z
-x,y,-z
-x,-y,-z
x,-y,z
loop_
_atom_site_type_symbol
_atom_site_label
_atom_site_fract_x
_atom_site_fract_y
_atom_site_fract_z
Si Si1 0.865652 0.183738 0.558227
Si Si2 0.413261 0.185997 0.166982
Si Si3 0.958101 0.812530 0.874670
Si Si4 0.435755 0.682003 0.033583
Si Si5 0.134139 0.815420 0.932802
Si Si6 0.697424 0.181281 0.240998
Si Si7 0.295682 0.316378 0.485342
O O1 0.832729 0.224075 0.437894
O O2 0.763908 0.282926 0.499303
O O3 0.026071 0.226990 0.749814
O O4 0.835935 0.000000 0.542614
O O5 0.556690 0.229052 0.363284
O O6 0.402266 0.000000 0.142500
O O7 0.394533 0.272263 0.069757
O O8 0.286516 0.251382 0.079334
O O9 0.806936 0.744996 0.689463
O O10 0.073408 0.747402 0.942825
O O11 0.948386 0.000000 0.861423
O O12 0.000000 0.750573 0.000000
O O13 0.478662 0.500000 0.076908
O O14 0.306553 0.714542 0.837019
O O15 0.563206 0.788816 0.145480
O O16 0.146930 0.000000 0.956307
O O17 0.700900 0.000000 0.221230
O O18 0.321195 0.500000 0.503563
#
# Coordination Sequence:
#
# PCOD8058322 Si02
#       7
#     4   4   4   4   4   4   4
#     4   9  17  33  55  77 101 132 178 226 264 310
#     4  11  20  34  53  74 105 141 179 218 258 310
#     4   9  18  37  63  86 107 133 170 214 258 308
#     4  11  21  31  46  71 106 138 175 223 269 312
#     4   8  17  33  55  81 104 132 172 218 263 307
#     4  10  18  30  51  75 100 134 178 222 271 316
#     4  11  21  32  52  80 109 139 174 212 257 311
#
# _framework density 18.758371
#
# number of rings (size 3 to 8) (size 9 to 14) (size 15 to 20)
#    0.000    2.143    1.429    5.143    0.000    0.857 
#    0.000    7.143    0.000    8.571    0.000    0.000 
#    0.000    0.000    0.000    0.000    0.000    0.000 
#
# Total GULP energy -347121.364759 kJ/mol
# GULP energy per Si atom -12397.191599 kJ/mol
# Density = 1.871568 g / cm^3
# Si number density = 18.758371 Si / 1000 Ang^3
#
#
#
# Elastic Constant Matrix: (Units=GPa)
#
#
# Indices 1 2 3 4 5 6 
#
# 1 98.8249 14.2583 71.3383 0.0000 -13.2775 0.0000
# 2 14.2583 48.4284 18.6633 0.0000 -5.0444 0.0000
# 3 71.3383 18.6633 134.4462 0.0000 -5.2590 0.0000
# 4 0.0000 0.0000 0.0000 9.0890 0.0000 -7.2589
# 5 -13.2775 -5.0444 -5.2590 0.0000 36.9855 0.0000
# 6 0.0000 0.0000 0.0000 -7.2589 0.0000 9.9530
#
#
#
# Elastic Compliance Matrix: (Units=1/GPa)
#
#
# Indices 1 2 3 4 5 6 
#
# 1 0.017311 -0.001193 -0.008832 0.000000 0.004796 0.000000
# 2 -0.001193 0.022142 -0.002352 0.000000 0.002257 0.000000
# 3 -0.008832 -0.002352 0.012383 0.000000 -0.001731 0.000000
# 4 0.000000 0.000000 0.000000 0.263505 0.000000 0.192178
# 5 0.004796 0.002257 -0.001731 0.000000 0.028821 0.000000
# 6 0.000000 0.000000 0.000000 0.192178 0.000000 0.240630
#
#
# Mechanical properties :
#
#
# Convention : Reuss Voigt Hill
#
# Bulk Modulus (GPa) = 36.92663 54.46883 45.69773
# Shear Modulus (GPa) = 8.08310 23.03483 15.55896
#
# Velocity S-wave (km/s) = 2.07808 3.50805 2.88313
# Velocity P-wave (km/s) = 5.04837 6.74601 5.95797
#
# Compressibility (1/GPa) = 0.02708073
#
# Stress axis : x y z
#
# Youngs Moduli (GPa) = 57.76663 45.16311 80.75503
#
# Poissons Ratio (x) = 0.05390 0.71324
# Poissons Ratio (y) = 0.06894 0.18995
# Poissons Ratio (z) = 0.51020 0.10623
#
# Static dielectric constant tensor:
#      x y z
#    x 3.497540 0.000000 -0.147940 
#    y 0.000000 3.249290 0.000000 
#    z -0.147940 0.000000 3.685680 
# 
# 
# High freq. dielectric constant tensor:
#      x y z
#    x 1.703270 0.000000 -0.017080 
#    y 0.000000 1.716120 0.000000 
#    z -0.017080 0.000000 1.729200 
# 
# From -- ./inp_files/86531.got.cif
#   From: 2010.06.25/outbox.cif.g09.slc.cpg/sg10_44_cif.got.tgz:86531.got - 2010.06.27 22:07:45.
