data_PCOD8058195
_publ_section_title
;
Structure prediction by ZEFSAII (Michael W. Deem and Ramdas Pophale) SiO2 
 PCOD8058195
Probable space group: P 2/M
;
_chemical_formula_sum "Si O2"
_cell_formula_units_Z 30
_cell_length_a 13.418644
_cell_length_b 9.928590
_cell_length_c 13.379889
_cell_angle_alpha 90.000000
_cell_angle_beta 115.870912
_cell_angle_gamma 90.000000
_cell_volume 1603.927648
_symmetry_space_group_name_H-M "P 2/M"
_symmetry_group_IT_number 10
_symmetry_cell_setting 'monoclinic'
loop_
_space_group_symop_operation_xyz
x,y,z
-x,y,-z
-x,-y,-z
x,-y,z
loop_
_atom_site_type_symbol
_atom_site_label
_atom_site_fract_x
_atom_site_fract_y
_atom_site_fract_z
Si Si1 0.172983 0.659472 0.752971
Si Si2 0.927715 0.347169 0.632736
Si Si3 0.269041 0.653972 0.593946
Si Si4 0.000000 0.254491 0.000000
Si Si5 0.549017 0.157075 0.413910
Si Si6 0.860919 0.146678 0.766779
Si Si7 0.654074 0.849268 0.811824
Si Si8 0.218588 0.653569 0.994899
O O1 0.167519 0.500000 0.751111
O O2 0.260772 0.704330 0.705898
O O3 0.208529 0.711677 0.877823
O O4 0.050389 0.714317 0.671833
O O5 0.934970 0.500000 0.675909
O O6 0.857487 0.339934 0.500615
O O7 0.864502 0.264059 0.688892
O O8 0.313873 0.500000 0.605943
O O9 0.344189 0.752339 0.561402
O O10 0.899896 0.343856 0.000664
O O11 0.046154 0.160227 0.107373
O O12 0.500000 0.198836 0.500000
O O13 0.463811 0.188628 0.287167
O O14 0.583163 0.000000 0.430147
O O15 0.739253 0.156034 0.758493
O O16 0.878026 0.000000 0.723963
O O17 0.651791 0.000000 0.857356
O O18 0.687474 0.743643 0.911791
O O19 0.260699 0.500000 0.013556
#
# Coordination Sequence:
#
# PCOD8058195 Si02
#       8
#     4   4   4   2   4   4   4   4
#     4   9  18  35  54  78 111 148 179 210 264 325
#     4  10  19  33  53  79 109 143 178 217 265 319
#     4  10  21  36  58  82 107 139 181 227 267 315
#     4  10  18  30  48  76 108 144 178 216 260 316
#     4  10  21  40  62  80 105 141 178 222 276 325
#     4  10  19  31  50  76 106 140 179 217 260 315
#     4   9  20  36  53  76 108 143 177 219 273 323
#     4  10  19  32  54  80 109 143 181 221 261 313
#
# _framework density 18.704084999999999
#
# number of rings (size 3 to 8) (size 9 to 14) (size 15 to 20)
#    0.000    2.267    1.333    1.600    0.000    6.667 
#    0.000    2.000    0.000    5.600    0.000    0.000 
#    0.000    0.000    0.000    0.000    0.000    0.000 
#
# Total GULP energy -371909.989660 kJ/mol
# GULP energy per Si atom -12396.999655 kJ/mol
# Density = 1.866151 g / cm^3
# Si number density = 18.704085 Si / 1000 Ang^3
#
#
#
# Elastic Constant Matrix: (Units=GPa)
#
#
# Indices 1 2 3 4 5 6 
#
# 1 68.9329 40.1806 43.5854 0.0000 -5.9093 0.0000
# 2 40.1806 82.9567 42.5075 0.0000 -6.2485 0.0000
# 3 43.5854 42.5075 94.4673 0.0000 -12.6142 0.0000
# 4 0.0000 0.0000 0.0000 23.0440 0.0000 0.3168
# 5 -5.9093 -6.2485 -12.6142 0.0000 30.3645 0.0000
# 6 0.0000 0.0000 0.0000 0.3168 0.0000 12.1891
#
#
#
# Elastic Compliance Matrix: (Units=1/GPa)
#
#
# Indices 1 2 3 4 5 6 
#
# 1 0.023699 -0.007638 -0.007508 0.000000 -0.000079 0.000000
# 2 -0.007638 0.018131 -0.004589 0.000000 0.000338 0.000000
# 3 -0.007508 -0.004589 0.016721 0.000000 0.004541 0.000000
# 4 0.000000 0.000000 0.000000 0.043411 0.000000 -0.001128
# 5 -0.000079 0.000338 0.004541 0.000000 0.034874 0.000000
# 6 0.000000 0.000000 0.000000 -0.001128 0.000000 0.082070
#
#
# Mechanical properties :
#
#
# Convention : Reuss Voigt Hill
#
# Bulk Modulus (GPa) = 52.40791 55.43377 53.92084
# Shear Modulus (GPa) = 18.88667 21.12506 20.00587
#
# Velocity S-wave (km/s) = 3.18112 3.36435 3.27402
# Velocity P-wave (km/s) = 6.44772 6.69279 6.57140
#
# Compressibility (1/GPa) = 0.01908109
#
# Stress axis : x y z
#
# Youngs Moduli (GPa) = 42.19507 55.15445 59.80405
#
# Poissons Ratio (x) = 0.42125 0.44903
# Poissons Ratio (y) = 0.32227 0.27446
# Poissons Ratio (z) = 0.31681 0.25312
#
# Static dielectric constant tensor:
#      x y z
#    x 3.281190 0.000000 -0.043170 
#    y 0.000000 3.313510 0.000000 
#    z -0.043170 0.000000 3.598480 
# 
# 
# High freq. dielectric constant tensor:
#      x y z
#    x 1.707290 0.000000 0.002710 
#    y 0.000000 1.710980 0.000000 
#    z 0.002710 0.000000 1.733720 
# 
# From -- ./inp_files/63863.got.cif
#   From: 2010.06.25/outbox.cif.g09.slc.cpg/sg10_32_cif.got.tgz:63863.got - 2010.06.27 22:07:45.
