data_PCOD8058149
_publ_section_title
;
Structure prediction by ZEFSAII (Michael W. Deem and Ramdas Pophale) SiO2 
 PCOD8058149
Probable space group: P 2/M
;
_chemical_formula_sum "Si O2"
_cell_formula_units_Z 24
_cell_length_a 19.234351
_cell_length_b 8.981553
_cell_length_c 16.603257
_cell_angle_alpha 90.000000
_cell_angle_beta 148.877330
_cell_angle_gamma 90.000000
_cell_volume 1482.536319
_symmetry_space_group_name_H-M "P 2/M"
_symmetry_group_IT_number 10
_symmetry_cell_setting 'monoclinic'
loop_
_space_group_symop_operation_xyz
x,y,z
-x,y,-z
-x,-y,-z
x,-y,z
loop_
_atom_site_type_symbol
_atom_site_label
_atom_site_fract_x
_atom_site_fract_y
_atom_site_fract_z
Si Si1 0.441179 0.331598 0.189444
Si Si2 0.696424 0.824402 0.409195
Si Si3 0.803467 0.674760 0.945724
Si Si4 0.450784 0.330947 0.866730
Si Si5 0.156865 0.167601 0.173497
Si Si6 0.893310 0.324580 0.717572
O O1 0.471874 0.500000 0.248999
O O2 0.569967 0.228655 0.339865
O O3 0.305446 0.272424 0.096179
O O4 0.426305 0.328248 0.076705
O O5 0.672225 0.765211 0.293405
O O6 0.832665 0.751864 0.578043
O O7 0.710138 0.000000 0.423408
O O8 0.797785 0.500000 0.922923
O O9 0.767495 0.757363 0.826838
O O10 0.949685 0.719493 0.124206
O O11 0.400262 0.500000 0.831168
O O12 0.500000 0.260281 0.000000
O O13 0.184493 0.261753 0.281353
O O14 0.210835 0.000000 0.239146
O O15 0.000000 0.168860 0.000000
O O16 0.871283 0.500000 0.691731
#
# Coordination Sequence:
#
# PCOD8058149 Si02
#       6
#     4   4   4   4   4   4
#     4   8  16  31  48  69  94 118 151 191 229 271
#     4  10  19  30  46  70  97 122 151 187 230 273
#     4   9  17  30  49  69  91 121 157 194 229 268
#     4   8  15  30  52  72  91 118 151 186 224 272
#     4   9  17  28  43  65  93 123 155 190 228 271
#     4  10  18  30  48  68  91 123 160 192 226 268
#
# _framework density 16.188472999999998
#
# number of rings (size 3 to 8) (size 9 to 14) (size 15 to 20)
#    1.000    2.000    0.000    2.000    0.000    3.667 
#    0.000    0.833    0.000    6.000    0.000    7.000 
#    0.000    0.000    0.000    0.000    0.000    0.000 
#
# Total GULP energy -297362.966857 kJ/mol
# GULP energy per Si atom -12390.123619 kJ/mol
# Density = 1.615163 g / cm^3
# Si number density = 16.188473 Si / 1000 Ang^3
#
#
#
# Elastic Constant Matrix: (Units=GPa)
#
#
# Indices 1 2 3 4 5 6 
#
# 1 31.6872 5.0056 0.9283 0.0000 -1.1548 0.0000
# 2 5.0056 76.7334 26.2737 0.0000 -5.7377 0.0000
# 3 0.9283 26.2737 56.5063 0.0000 -12.3577 0.0000
# 4 0.0000 0.0000 0.0000 21.5180 0.0000 -2.3777
# 5 -1.1548 -5.7377 -12.3577 0.0000 22.8989 0.0000
# 6 0.0000 0.0000 0.0000 -2.3777 0.0000 15.1982
#
#
#
# Elastic Compliance Matrix: (Units=1/GPa)
#
#
# Indices 1 2 3 4 5 6 
#
# 1 0.031946 -0.002265 0.000858 0.000000 0.001506 0.000000
# 2 -0.002265 0.015660 -0.007269 0.000000 -0.000113 0.000000
# 3 0.000858 -0.007269 0.023441 0.000000 0.010872 0.000000
# 4 0.000000 0.000000 0.000000 0.047290 0.000000 0.007398
# 5 0.001506 -0.000113 0.010872 0.000000 0.049585 0.000000
# 6 0.000000 0.000000 0.000000 0.007398 0.000000 0.066955
#
#
# Mechanical properties :
#
#
# Convention : Reuss Voigt Hill
#
# Bulk Modulus (GPa) = 18.62396 25.48247 22.05322
# Shear Modulus (GPa) = 18.50976 20.77098 19.64037
#
# Velocity S-wave (km/s) = 3.38508 3.58589 3.48693
# Velocity P-wave (km/s) = 5.17762 5.73760 5.46479
#
# Compressibility (1/GPa) = 0.05369426
#
# Stress axis : x y z
#
# Youngs Moduli (GPa) = 31.30280 63.85538 42.66100
#
# Poissons Ratio (x) = 0.14463 -0.03659
# Poissons Ratio (y) = 0.07090 0.31011
# Poissons Ratio (z) = -0.02685 0.46417
#
# Static dielectric constant tensor:
#      x y z
#    x 2.970040 0.000000 -0.102340 
#    y 0.000000 3.035410 0.000000 
#    z -0.102340 0.000000 2.888720 
# 
# 
# High freq. dielectric constant tensor:
#      x y z
#    x 1.597890 0.000000 -0.012980 
#    y 0.000000 1.625900 0.000000 
#    z -0.012980 0.000000 1.599780 
# 
# From -- ./inp_files/74184.got.cif
#   From: 2010.06.25/outbox.cif.g09.slc.cpg/sg10_38_cif.got.tgz:74184.got - 2010.06.27 22:07:45.
