data_PCOD8058893
_publ_section_title
;
Structure prediction by ZEFSAII (Michael W. Deem and Ramdas Pophale) SiO2 
 PCOD8058893
Probable space group: P 2/M
;
_chemical_formula_sum "Si O2"
_cell_formula_units_Z 32
_cell_length_a 11.905622
_cell_length_b 8.869497
_cell_length_c 28.667500
_cell_angle_alpha 90.000000
_cell_angle_beta 31.283515
_cell_angle_gamma 90.000000
_cell_volume 1571.943205
_symmetry_space_group_name_H-M "P 2/M"
_symmetry_group_IT_number 10
_symmetry_cell_setting 'monoclinic'
loop_
_space_group_symop_operation_xyz
x,y,z
-x,y,-z
-x,-y,-z
x,-y,z
loop_
_atom_site_type_symbol
_atom_site_label
_atom_site_fract_x
_atom_site_fract_y
_atom_site_fract_z
Si Si1 0.635314 0.177244 0.407644
Si Si2 0.158080 0.324251 0.338788
Si Si3 0.297205 0.673031 0.468599
Si Si4 0.553431 0.327498 0.683519
Si Si5 0.865056 0.177383 0.002345
Si Si6 0.922577 0.679557 0.162682
Si Si7 0.413353 0.326677 0.157103
Si Si8 0.042415 0.676435 0.222781
O O1 0.500000 0.240634 0.500000
O O2 0.501289 0.226346 0.410028
O O3 0.874400 0.246133 0.318072
O O4 0.661107 0.000000 0.401686
O O5 0.139543 0.500000 0.358215
O O6 0.330716 0.249109 0.313269
O O7 0.232427 0.295011 0.260240
O O8 0.918984 0.256235 0.431654
O O9 0.337890 0.500000 0.469581
O O10 0.282711 0.685829 0.417935
O O11 0.502969 0.500000 0.713791
O O12 0.319948 0.253734 0.756008
O O13 0.613250 0.218298 0.096818
O O14 0.892347 0.000000 0.986842
O O15 0.940633 0.258052 0.928668
O O16 0.000000 0.233438 0.000000
O O17 0.932732 0.500000 0.157804
O O18 0.020287 0.736742 0.177527
O O19 0.493754 0.500000 0.130156
O O20 0.288739 0.290944 0.152790
O O21 0.991175 0.500000 0.243322
#
# Coordination Sequence:
#
# PCOD8058893 Si02
#       8
#     4   4   4   4   4   4   4   4
#     4  11  23  36  52  78 116 162 204 240 283 343
#     4   9  17  29  52  85 115 147 189 239 293 344
#     4  10  18  32  54  81 112 147 192 245 291 339
#     4   9  16  29  52  84 116 146 185 234 291 346
#     4  11  25  43  62  87 118 154 195 237 289 354
#     4  10  20  37  62  89 118 152 193 245 299 349
#     4  10  21  38  61  88 117 150 192 242 294 347
#     4  10  21  39  62  90 118 149 195 245 295 347
#
# _framework density 20.356968999999999
#
# number of rings (size 3 to 8) (size 9 to 14) (size 15 to 20)
#    0.000    2.000    1.250    2.625    0.000    7.000 
#    0.000    3.125    0.000    2.250    0.000    0.000 
#    0.000    0.000    0.000    0.000    0.000    0.000 
#
# Total GULP energy -396731.476217 kJ/mol
# GULP energy per Si atom -12397.858632 kJ/mol
# Density = 2.031064 g / cm^3
# Si number density = 20.356969 Si / 1000 Ang^3
#
#
#
# Elastic Constant Matrix: (Units=GPa)
#
#
# Indices 1 2 3 4 5 6 
#
# 1 114.3949 21.0936 31.7842 0.0000 -9.2020 0.0000
# 2 21.0936 29.9770 16.0461 0.0000 -0.5139 0.0000
# 3 31.7842 16.0461 91.8803 0.0000 -6.5631 0.0000
# 4 0.0000 0.0000 0.0000 19.8266 0.0000 0.3004
# 5 -9.2020 -0.5139 -6.5631 0.0000 36.1787 0.0000
# 6 0.0000 0.0000 0.0000 0.3004 0.0000 14.8285
#
#
#
# Elastic Compliance Matrix: (Units=1/GPa)
#
#
# Indices 1 2 3 4 5 6 
#
# 1 0.010750 -0.006200 -0.002479 0.000000 0.002197 0.000000
# 2 -0.006200 0.040390 -0.005046 0.000000 -0.001919 0.000000
# 3 -0.002479 -0.005046 0.012738 0.000000 0.001608 0.000000
# 4 0.000000 0.000000 0.000000 0.050453 0.000000 -0.001022
# 5 0.002197 -0.001919 0.001608 0.000000 0.028464 0.000000
# 6 0.000000 0.000000 0.000000 -0.001022 0.000000 0.067459
#
#
# Mechanical properties :
#
#
# Convention : Reuss Voigt Hill
#
# Bulk Modulus (GPa) = 27.45196 41.56667 34.50932
# Shear Modulus (GPa) = 20.01236 25.32196 22.66716
#
# Velocity S-wave (km/s) = 3.13880 3.53072 3.34051
# Velocity P-wave (km/s) = 5.16243 6.08970 5.64514
#
# Compressibility (1/GPa) = 0.03642727
#
# Stress axis : x y z
#
# Youngs Moduli (GPa) = 93.01982 24.75880 78.50832
#
# Poissons Ratio (x) = 0.15350 0.19464
# Poissons Ratio (y) = 0.57671 0.39616
# Poissons Ratio (z) = 0.23062 0.12493
#
# Static dielectric constant tensor:
#      x y z
#    x 3.934950 0.000000 -0.060470 
#    y 0.000000 3.234180 0.000000 
#    z -0.060470 0.000000 3.682720 
# 
# 
# High freq. dielectric constant tensor:
#      x y z
#    x 1.811710 0.000000 -0.001880 
#    y 0.000000 1.746080 0.000000 
#    z -0.001880 0.000000 1.799120 
# 
# From -- ./inp_files/58147.got.cif
#   From: 2010.06.25/outbox.cif.g09.slc.cpg/sg10_30_cif.got.tgz:58147.got - 2010.06.27 22:07:45.
