data_PCOD8058212
_publ_section_title
;
Structure prediction by ZEFSAII (Michael W. Deem and Ramdas Pophale) SiO2 
 PCOD8058212
Probable space group: P 2/M
;
_chemical_formula_sum "Si O2"
_cell_formula_units_Z 32
_cell_length_a 19.763689
_cell_length_b 9.296094
_cell_length_c 19.763689
_cell_angle_alpha 90.000000
_cell_angle_beta 30.357696
_cell_angle_gamma 90.000000
_cell_volume 1835.139199
_symmetry_space_group_name_H-M "P 2/M"
_symmetry_group_IT_number 10
_symmetry_cell_setting 'monoclinic'
loop_
_space_group_symop_operation_xyz
x,y,z
-x,y,-z
-x,-y,-z
x,-y,z
loop_
_atom_site_type_symbol
_atom_site_label
_atom_site_fract_x
_atom_site_fract_y
_atom_site_fract_z
Si Si1 0.039571 0.829094 0.539571
Si Si2 0.420147 0.670998 0.632867
Si Si3 0.332170 0.170661 0.329750
Si Si4 0.504988 0.667400 0.706347
Si Si5 0.539044 0.170883 0.039044
Si Si6 0.867133 0.329002 0.079853
Si Si7 0.793653 0.667400 0.995012
Si Si8 0.170250 0.170661 0.167830
O O1 0.185618 0.774229 0.435356
O O2 0.000000 0.765940 0.500000
O O3 0.935356 0.774229 0.685618
O O4 0.037426 0.000000 0.537426
O O5 0.500000 0.737102 0.500000
O O6 0.415387 0.500000 0.632321
O O7 0.496730 0.716087 0.635263
O O8 0.266929 0.729525 0.766929
O O9 0.376140 0.241887 0.362339
O O10 0.432182 0.226349 0.185525
O O11 0.336565 0.000000 0.334842
O O12 0.540153 0.500000 0.681812
O O13 0.364313 0.701293 0.864313
O O14 0.537304 0.000000 0.037304
O O15 0.500000 0.236043 0.000000
O O16 0.685525 0.226349 0.932182
O O17 0.867679 0.500000 0.084613
O O18 0.864737 0.283913 0.003270
O O19 0.000000 0.262898 0.000000
O O20 0.818188 0.500000 0.959847
O O21 0.862339 0.758113 0.876140
O O22 0.165158 0.000000 0.163435
#
# Coordination Sequence:
#
# PCOD8058212 Si02
#       8
#     4   4   4   4   4   4   4   4
#     4   9  18  32  49  69  94 123 154 194 241 277
#     4   8  14  26  44  65  89 118 152 187 222 263
#     4  10  18  30  49  71  93 120 155 192 231 276
#     4   9  17  30  48  70  98 126 150 187 236 276
#     4   9  16  26  45  71  90 109 150 198 223 253
#     4   8  14  26  44  65  89 118 152 187 222 263
#     4   9  17  30  48  70  98 126 150 187 236 276
#     4  10  18  30  49  71  93 120 155 192 231 276
#
# _framework density 17.437369
#
# number of rings (size 3 to 8) (size 9 to 14) (size 15 to 20)
#    0.000    3.000    1.250    2.250    0.000    3.000 
#    2.250    0.625    0.000    5.250    0.000    0.000 
#    0.000    0.000    0.000    0.000    0.000    0.000 
#
# Total GULP energy -396699.652474 kJ/mol
# GULP energy per Si atom -12396.864140 kJ/mol
# Density = 1.739768 g / cm^3
# Si number density = 17.437369 Si / 1000 Ang^3
#
#
#
# Elastic Constant Matrix: (Units=GPa)
#
#
# Indices 1 2 3 4 5 6 
#
# 1 163.9439 28.8166 94.4689 0.0000 -2.2443 0.0000
# 2 28.8166 19.4632 22.8886 0.0000 1.7113 0.0000
# 3 94.4689 22.8886 151.4649 0.0000 5.8468 0.0000
# 4 0.0000 0.0000 0.0000 13.0085 0.0000 2.8155
# 5 -2.2443 1.7113 5.8468 0.0000 36.2891 0.0000
# 6 0.0000 0.0000 0.0000 2.8155 0.0000 22.7617
#
#
#
# Elastic Compliance Matrix: (Units=1/GPa)
#
#
# Indices 1 2 3 4 5 6 
#
# 1 0.011039 -0.010135 -0.005432 0.000000 0.002036 0.000000
# 2 -0.010135 0.071862 -0.004411 0.000000 -0.003305 0.000000
# 3 -0.005432 -0.004411 0.010728 0.000000 -0.001856 0.000000
# 4 0.000000 0.000000 0.000000 0.078987 0.000000 -0.009770
# 5 0.002036 -0.003305 -0.001856 0.000000 0.028137 0.000000
# 6 0.000000 0.000000 0.000000 -0.009770 0.000000 0.045142
#
#
# Mechanical properties :
#
#
# Convention : Reuss Voigt Hill
#
# Bulk Modulus (GPa) = 18.63102 69.69115 44.16108
# Shear Modulus (GPa) = 16.46128 26.99173 21.72651
#
# Velocity S-wave (km/s) = 3.07583 3.93864 3.53367
# Velocity P-wave (km/s) = 4.82929 7.79340 6.48302
#
# Compressibility (1/GPa) = 0.05367394
#
# Stress axis : x y z
#
# Youngs Moduli (GPa) = 90.58700 13.91557 93.21054
#
# Poissons Ratio (x) = 0.14103 0.50633
# Poissons Ratio (y) = 0.91810 0.41112
# Poissons Ratio (z) = 0.49208 0.06138
#
# Static dielectric constant tensor:
#      x y z
#    x 3.425900 0.000000 -0.002670 
#    y 0.000000 2.660140 0.000000 
#    z -0.002670 0.000000 3.435140 
# 
# 
# High freq. dielectric constant tensor:
#      x y z
#    x 1.685260 0.000000 0.003500 
#    y 0.000000 1.613470 0.000000 
#    z 0.003500 0.000000 1.673140 
# 
# From -- ./inp_files/86125.got.cif
#   From: 2010.06.25/outbox.cif.g09.slc.cpg/sg10_44_cif.got.tgz:86125.got - 2010.06.27 22:07:45.
