data_PCOD8058572
_publ_section_title
;
Structure prediction by ZEFSAII (Michael W. Deem and Ramdas Pophale) SiO2 
 PCOD8058572
Probable space group: P 2/M
;
_chemical_formula_sum "Si O2"
_cell_formula_units_Z 32
_cell_length_a 11.564399
_cell_length_b 8.992843
_cell_length_c 20.833526
_cell_angle_alpha 90.000000
_cell_angle_beta 127.473948
_cell_angle_gamma 90.000000
_cell_volume 1719.495192
_symmetry_space_group_name_H-M "P 2/M"
_symmetry_group_IT_number 10
_symmetry_cell_setting 'monoclinic'
loop_
_space_group_symop_operation_xyz
x,y,z
-x,y,-z
-x,-y,-z
x,-y,z
loop_
_atom_site_type_symbol
_atom_site_label
_atom_site_fract_x
_atom_site_fract_y
_atom_site_fract_z
Si Si1 0.550577 0.171400 0.327226
Si Si2 0.048612 0.324127 0.117995
Si Si3 0.091312 0.824842 0.266023
Si Si4 0.179272 0.822830 0.742026
Si Si5 0.873751 0.829809 0.416263
Si Si6 0.407744 0.824331 0.408971
Si Si7 0.216197 0.325233 0.050963
Si Si8 0.467087 0.324378 0.814274
O O1 0.721522 0.184063 0.402087
O O2 0.466408 0.237269 0.360483
O O3 0.515855 0.266946 0.252653
O O4 0.508401 0.000000 0.298670
O O5 0.058298 0.500000 0.131708
O O6 0.100612 0.246631 0.199857
O O7 0.155364 0.263936 0.098168
O O8 0.883677 0.272682 0.042741
O O9 0.236214 0.782328 0.356044
O O10 0.945695 0.766564 0.252058
O O11 0.083700 0.000000 0.254832
O O12 0.136538 0.758659 0.657733
O O13 0.336528 0.751101 0.810746
O O14 0.197236 0.000000 0.748544
O O15 0.000000 0.748188 0.500000
O O16 0.920227 0.000000 0.421433
O O17 0.500000 0.755727 0.500000
O O18 0.431679 0.000000 0.416978
O O19 0.197914 0.500000 0.050196
O O20 0.384445 0.279960 0.097960
O O21 0.442841 0.500000 0.804175
#
# Coordination Sequence:
#
# PCOD8058572 Si02
#       8
#     4   4   4   4   4   4   4   4
#     4   9  17  29  46  71 100 125 157 199 245 291
#     4   9  17  33  55  76  99 129 163 197 242 296
#     4  10  20  33  49  72 105 133 160 201 248 294
#     4   9  19  33  47  68  98 132 165 201 245 291
#     4   8  14  24  43  66  85 115 161 202 231 268
#     4   9  18  30  48  75 101 128 164 204 241 283
#     4   8  16  31  53  78  99 123 162 207 241 284
#     4  10  18  31  52  74  96 124 163 206 246 287
#
# _framework density 18.610112999999998
#
# number of rings (size 3 to 8) (size 9 to 14) (size 15 to 20)
#    0.000    3.000    0.000    2.625    1.750    0.500 
#    0.000    3.750    0.000   11.250    0.000    0.000 
#    0.000    0.000    0.000    0.000    0.000    0.000 
#
# Total GULP energy -396566.022839 kJ/mol
# GULP energy per Si atom -12392.688214 kJ/mol
# Density = 1.856776 g / cm^3
# Si number density = 18.610113 Si / 1000 Ang^3
#
#
#
# Elastic Constant Matrix: (Units=GPa)
#
#
# Indices 1 2 3 4 5 6 
#
# 1 100.8239 21.0738 41.6970 0.0000 13.7211 0.0000
# 2 21.0738 27.0746 22.2373 0.0000 7.1222 0.0000
# 3 41.6970 22.2373 103.5927 0.0000 20.8681 0.0000
# 4 0.0000 0.0000 0.0000 -1.2934 0.0000 -9.2458
# 5 13.7211 7.1222 20.8681 0.0000 30.6812 0.0000
# 6 0.0000 0.0000 0.0000 -9.2458 0.0000 16.9398
#
#
#
# Elastic Compliance Matrix: (Units=1/GPa)
#
#
# Indices 1 2 3 4 5 6 
#
# 1 0.013008 -0.006843 -0.003378 0.000000 -0.001932 0.000000
# 2 -0.006843 0.048977 -0.007052 0.000000 -0.003513 0.000000
# 3 -0.003378 -0.007052 0.013781 0.000000 -0.006225 0.000000
# 4 0.000000 0.000000 0.000000 -0.157735 0.000000 -0.086092
# 5 -0.001932 -0.003513 -0.006225 0.000000 0.038507 0.000000
# 6 0.000000 0.000000 0.000000 -0.086092 0.000000 0.012044
#
#
# Mechanical properties :
#
#
# Convention : Reuss Voigt Hill
#
# Bulk Modulus (GPa) = 24.25926 44.61194 34.43560
# Shear Modulus (GPa) = 296.45386 19.03108 157.74247
#
# Velocity S-wave (km/s) = 12.63499 3.20131 9.21660
# Velocity P-wave (km/s) = 15.03067 6.13909 11.48063
#
# Compressibility (1/GPa) = 0.04122138
#
# Stress axis : x y z
#
# Youngs Moduli (GPa) = 76.87346 20.41787 72.56556
#
# Poissons Ratio (x) = 0.13971 0.24513
# Poissons Ratio (y) = 0.52601 0.51170
# Poissons Ratio (z) = 0.25968 0.14398
#
# Static dielectric constant tensor:
#      x y z
#    x 3.581050 0.000000 0.261890 
#    y 0.000000 2.966900 0.000000 
#    z 0.261890 0.000000 3.655790 
# 
# 
# High freq. dielectric constant tensor:
#      x y z
#    x 1.723750 0.000000 0.017520 
#    y 0.000000 1.674150 0.000000 
#    z 0.017520 0.000000 1.724080 
# 
# From -- ./inp_files/54826.got.cif
#   From: 2010.06.25/outbox.cif.g09.slc.cpg/sg10_28_cif.got.tgz:54826.got - 2010.06.27 22:07:45.
