data_PCOD8058619
_publ_section_title
;
Structure prediction by ZEFSAII (Michael W. Deem and Ramdas Pophale) SiO2 
 PCOD8058619
Probable space group: P 2/M
;
_chemical_formula_sum "Si O2"
_cell_formula_units_Z 32
_cell_length_a 20.178907
_cell_length_b 8.334993
_cell_length_c 25.915242
_cell_angle_alpha 90.000000
_cell_angle_beta 158.347208
_cell_angle_gamma 90.000000
_cell_volume 1608.282191
_symmetry_space_group_name_H-M "P 2/M"
_symmetry_group_IT_number 10
_symmetry_cell_setting 'monoclinic'
loop_
_space_group_symop_operation_xyz
x,y,z
-x,y,-z
-x,-y,-z
x,-y,z
loop_
_atom_site_type_symbol
_atom_site_label
_atom_site_fract_x
_atom_site_fract_y
_atom_site_fract_z
Si Si1 0.302982 0.811022 0.116078
Si Si2 0.048035 0.685919 0.091479
Si Si3 0.402626 0.809181 0.587855
Si Si4 0.136747 0.808350 0.556727
Si Si5 0.476782 0.810622 0.136062
Si Si6 0.038751 0.191138 0.373570
Si Si7 0.356573 0.808398 0.938672
Si Si8 0.573490 0.187769 0.606810
O O1 0.461957 0.750671 0.269046
O O2 0.345342 0.766391 0.087700
O O3 0.271104 0.000000 0.100462
O O4 0.121990 0.714752 0.995519
O O5 0.099711 0.500000 0.126737
O O6 0.215378 0.781825 0.235518
O O7 0.000000 0.752586 0.000000
O O8 0.199524 0.748021 0.452279
O O9 0.467830 0.738375 0.579854
O O10 0.405799 0.000000 0.589512
O O11 0.329670 0.736895 0.711009
O O12 0.079177 0.741783 0.459615
O O13 0.000000 0.742117 0.500000
O O14 0.140581 0.000000 0.558381
O O15 0.494526 0.000000 0.143374
O O16 0.408902 0.739432 0.032694
O O17 0.843890 0.258823 0.216633
O O18 0.035196 0.000000 0.370853
O O19 0.355513 0.000000 0.936990
O O20 0.500000 0.745096 0.000000
O O21 0.500000 0.264426 0.500000
O O22 0.536567 0.000000 0.579166
#
# Coordination Sequence:
#
# PCOD8058619 Si02
#       8
#     4   4   4   4   4   4   4   4
#     4  10  18  31  53  75  99 132 174 223 264 302
#     4  11  23  37  55  79 106 140 178 214 266 326
#     4   9  16  28  46  68  95 126 163 213 261 299
#     4   9  14  20  32  51  78 114 154 190 228 287
#     4   9  16  25  38  61  88 122 167 204 245 301
#     4   9  15  23  35  52  79 119 159 192 238 292
#     4   9  16  24  34  54  91 134 165 196 244 301
#     4  10  21  36  56  81 106 135 176 219 263 315
#
# _framework density 19.897006999999999
#
# number of rings (size 3 to 8) (size 9 to 14) (size 15 to 20)
#    0.000    2.500    2.500    1.125    0.000    4.750 
#    0.000    3.750    0.000    0.000    0.000    0.000 
#    0.000    1.000    0.000    0.000    0.000    0.250 
#
# Total GULP energy -396702.637680 kJ/mol
# GULP energy per Si atom -12396.957428 kJ/mol
# Density = 1.985172 g / cm^3
# Si number density = 19.897007 Si / 1000 Ang^3
#
#
#
# Elastic Constant Matrix: (Units=GPa)
#
#
# Indices 1 2 3 4 5 6 
#
# 1 178.8283 7.1670 96.4605 0.0000 -6.2406 0.0000
# 2 7.1670 5.6290 0.4824 0.0000 -1.2931 0.0000
# 3 96.4605 0.4824 176.2177 0.0000 -2.3011 0.0000
# 4 0.0000 0.0000 0.0000 2.6027 0.0000 -2.2519
# 5 -6.2406 -1.2931 -2.3011 0.0000 46.1497 0.0000
# 6 0.0000 0.0000 0.0000 -2.2519 0.0000 2.8776
#
#
#
# Elastic Compliance Matrix: (Units=1/GPa)
#
#
# Indices 1 2 3 4 5 6 
#
# 1 0.008525 -0.010312 -0.004630 0.000000 0.000633 0.000000
# 2 -0.010312 0.191307 0.005176 0.000000 0.004224 0.000000
# 3 -0.004630 0.005176 0.008194 0.000000 -0.000072 0.000000
# 4 0.000000 0.000000 0.000000 1.189939 0.000000 0.931213
# 5 0.000633 0.004224 -0.000072 0.000000 0.021869 0.000000
# 6 0.000000 0.000000 0.000000 0.931213 0.000000 1.076254
#
#
# Mechanical properties :
#
#
# Convention : Reuss Voigt Hill
#
# Bulk Modulus (GPa) = 5.30520 63.21055 34.25788
# Shear Modulus (GPa) = 1.93915 27.43033 14.68474
#
# Velocity S-wave (km/s) = 0.98829 3.71700 2.71963
# Velocity P-wave (km/s) = 1.99359 7.08938 5.20738
#
# Compressibility (1/GPa) = 0.18849425
#
# Stress axis : x y z
#
# Youngs Moduli (GPa) = 117.30651 5.22721 122.03990
#
# Poissons Ratio (x) = 0.05390 0.56503
# Poissons Ratio (y) = 1.20963 -0.63168
# Poissons Ratio (z) = 0.54311 -0.02706
#
# Static dielectric constant tensor:
#      x y z
#    x 3.944570 0.000000 -0.029210 
#    y 0.000000 2.801360 0.000000 
#    z -0.029210 0.000000 3.780800 
# 
# 
# High freq. dielectric constant tensor:
#      x y z
#    x 1.791730 0.000000 0.004860 
#    y 0.000000 1.700300 0.000000 
#    z 0.004860 0.000000 1.783980 
# 
# From -- ./inp_files/93734.got.cif
#   From: 2010.06.25/outbox.cif.g09.slc.cpg/sg10_47_cif.got.tgz:93734.got - 2010.06.27 22:07:45.
