data_PCOD8058404
_publ_section_title
;
Structure prediction by ZEFSAII (Michael W. Deem and Ramdas Pophale) SiO2 
 PCOD8058404
Probable space group: P 2/M
;
_chemical_formula_sum "Si O2"
_cell_formula_units_Z 32
_cell_length_a 16.285761
_cell_length_b 9.378221
_cell_length_c 24.944548
_cell_angle_alpha 90.000000
_cell_angle_beta 25.686719
_cell_angle_gamma 90.000000
_cell_volume 1651.366128
_symmetry_space_group_name_H-M "P 2/M"
_symmetry_group_IT_number 10
_symmetry_cell_setting 'monoclinic'
loop_
_space_group_symop_operation_xyz
x,y,z
-x,y,-z
-x,-y,-z
x,-y,z
loop_
_atom_site_type_symbol
_atom_site_label
_atom_site_fract_x
_atom_site_fract_y
_atom_site_fract_z
Si Si1 0.541004 0.164187 0.842445
Si Si2 0.879111 0.843279 0.709546
Si Si3 0.945043 0.657131 0.251188
Si Si4 0.325490 0.251646 0.070907
Si Si5 0.945753 0.663888 0.128150
Si Si6 0.372454 0.665698 0.844398
Si Si7 0.761450 0.167991 0.447576
Si Si8 0.386524 0.831530 0.729993
O O1 0.745270 0.227256 0.742753
O O2 0.477358 0.269843 0.833751
O O3 0.553021 0.000000 0.815287
O O4 0.396135 0.166452 0.977398
O O5 0.765839 0.856577 0.832484
O O6 0.083728 0.769488 0.600264
O O7 0.920010 0.000000 0.663672
O O8 0.855718 0.500000 0.305822
O O9 0.957997 0.711561 0.182633
O O10 0.800438 0.760091 0.367341
O O11 0.156884 0.644154 0.151254
O O12 0.500000 0.331400 0.000000
O O13 0.877357 0.500000 0.162329
O O14 0.806812 0.769537 0.179297
O O15 0.148270 0.683632 0.981635
O O16 0.428610 0.500000 0.805899
O O17 0.442127 0.753395 0.752081
O O18 0.551340 0.203294 0.590461
O O19 0.794032 0.000000 0.421278
O O20 0.365563 0.000000 0.752520
#
# Coordination Sequence:
#
# PCOD8058404 Si02
#       8
#     4   4   4   4   4   4   4   4
#     4  10  18  30  54  85 113 145 188 230 271 327
#     4   8  15  30  52  80 113 149 183 220 274 331
#     4  10  20  35  55  84 117 150 187 223 270 337
#     4   9  16  28  49  81 118 150 181 222 274 325
#     4  10  22  40  59  82 115 149 181 224 284 343
#     4  11  23  40  59  81 115 151 184 227 284 340
#     4   9  20  39  59  81 114 149 186 234 281 327
#     4  11  24  41  61  84 106 140 194 244 284 327
#
# _framework density 19.377896
#
# number of rings (size 3 to 8) (size 9 to 14) (size 15 to 20)
#    0.000    2.250    1.250    1.500    0.000    6.750 
#    0.000    8.125    0.000    3.750    0.000    0.000 
#    0.000    0.000    0.000    0.000    0.000    0.000 
#
# Total GULP energy -396515.194019 kJ/mol
# GULP energy per Si atom -12391.099813 kJ/mol
# Density = 1.933379 g / cm^3
# Si number density = 19.377896 Si / 1000 Ang^3
#
#
#
# Elastic Constant Matrix: (Units=GPa)
#
#
# Indices 1 2 3 4 5 6 
#
# 1 86.6636 32.4231 7.5810 0.0000 3.9177 0.0000
# 2 32.4231 80.4792 22.5542 0.0000 7.1345 0.0000
# 3 7.5810 22.5542 40.2099 0.0000 10.2383 0.0000
# 4 0.0000 0.0000 0.0000 23.9908 0.0000 3.3849
# 5 3.9177 7.1345 10.2383 0.0000 21.8286 0.0000
# 6 0.0000 0.0000 0.0000 3.3849 0.0000 21.4517
#
#
#
# Elastic Compliance Matrix: (Units=1/GPa)
#
#
# Indices 1 2 3 4 5 6 
#
# 1 0.013618 -0.005635 0.000848 0.000000 -0.001000 0.000000
# 2 -0.005635 0.017097 -0.008361 0.000000 -0.000655 0.000000
# 3 0.000848 -0.008361 0.032640 0.000000 -0.012729 0.000000
# 4 0.000000 0.000000 0.000000 0.042632 0.000000 -0.006727
# 5 -0.001000 -0.000655 -0.012729 0.000000 0.052175 0.000000
# 6 0.000000 0.000000 0.000000 -0.006727 0.000000 0.047678
#
#
# Mechanical properties :
#
#
# Convention : Reuss Voigt Hill
#
# Bulk Modulus (GPa) = 26.98363 36.94104 31.96233
# Shear Modulus (GPa) = 20.45076 23.10717 21.77897
#
# Velocity S-wave (km/s) = 3.25216 3.45693 3.35611
# Velocity P-wave (km/s) = 5.29691 5.91935 5.61676
#
# Compressibility (1/GPa) = 0.03705951
#
# Stress axis : x y z
#
# Youngs Moduli (GPa) = 73.43080 58.48946 30.63711
#
# Poissons Ratio (x) = 0.32962 -0.02598
# Poissons Ratio (y) = 0.41382 0.25614
# Poissons Ratio (z) = -0.06228 0.48901
#
# Static dielectric constant tensor:
#      x y z
#    x 3.665780 0.000000 -0.134810 
#    y 0.000000 3.301130 0.000000 
#    z -0.134810 0.000000 3.501880 
# 
# 
# High freq. dielectric constant tensor:
#      x y z
#    x 1.762500 0.000000 -0.009370 
#    y 0.000000 1.734030 0.000000 
#    z -0.009370 0.000000 1.742220 
# 
# From -- ./inp_files/89497.got.cif
#   From: 2010.06.25/outbox.cif.g09.slc.cpg/sg10_45_cif.got.tgz:89497.got - 2010.06.27 22:07:45.
