data_PCOD8058558
_publ_section_title
;
Structure prediction by ZEFSAII (Michael W. Deem and Ramdas Pophale) SiO2 
 PCOD8058558
Probable space group: P 2/M
;
_chemical_formula_sum "Si O2"
_cell_formula_units_Z 30
_cell_length_a 12.747047
_cell_length_b 14.917036
_cell_length_c 18.891862
_cell_angle_alpha 90.000000
_cell_angle_beta 26.371770
_cell_angle_gamma 90.000000
_cell_volume 1595.656421
_symmetry_space_group_name_H-M "P 2/M"
_symmetry_group_IT_number 10
_symmetry_cell_setting 'monoclinic'
loop_
_space_group_symop_operation_xyz
x,y,z
-x,y,-z
-x,-y,-z
x,-y,z
loop_
_atom_site_type_symbol
_atom_site_label
_atom_site_fract_x
_atom_site_fract_y
_atom_site_fract_z
Si Si1 0.937128 0.896544 0.824248
Si Si2 0.514009 0.103953 0.175427
Si Si3 0.640702 0.396414 0.817952
Si Si4 0.729407 0.258354 0.404570
Si Si5 0.188679 0.898552 0.249878
Si Si6 0.000000 0.320133 0.500000
Si Si7 0.261142 0.195530 0.447690
Si Si8 0.145498 0.606406 0.166096
O O1 0.775364 0.866514 0.853605
O O2 0.164670 0.833324 0.692424
O O3 0.018708 0.000000 0.765190
O O4 0.783821 0.885629 0.987889
O O5 0.345626 0.149367 0.216109
O O6 0.479387 0.160510 0.268369
O O7 0.450541 0.000000 0.227873
O O8 0.626560 0.500000 0.842978
O O9 0.778706 0.378468 0.661728
O O10 0.784650 0.357423 0.797952
O O11 0.365645 0.364899 0.981710
O O12 0.500000 0.286562 0.500000
O O13 0.649963 0.241621 0.533944
O O14 0.913568 0.339326 0.283622
O O15 0.909648 0.888867 0.433580
O O16 0.272683 0.000000 0.204472
O O17 0.904070 0.264746 0.492750
O O18 0.088600 0.500000 0.196961
#
# Coordination Sequence:
#
# PCOD8058558 Si02
#       8
#     4   4   4   4   4   2   4   4
#     4   9  20  35  54  79 108 148 194 236 280 332
#     4  10  18  31  51  78 112 145 179 233 293 344
#     4   9  19  35  58  87 119 145 171 222 287 349
#     4  11  24  41  58  78 110 155 201 239 276 327
#     4   9  16  29  47  74 112 145 175 219 279 346
#     4  12  19  30  53  90 120 144 166 220 287 352
#     4  11  21  31  48  82 111 145 186 224 283 335
#     4   9  19  38  61  87 113 146 189 230 278 334
#
# _framework density 18.801038999999999
#
# number of rings (size 3 to 8) (size 9 to 14) (size 15 to 20)
#    0.000    2.133    2.667    1.800    1.867    3.733 
#    2.400    0.667    0.000    1.600    0.000    1.867 
#    0.000    0.000    0.000    0.000    0.000    0.000 
#
# Total GULP energy -371785.680581 kJ/mol
# GULP energy per Si atom -12392.856019 kJ/mol
# Density = 1.875825 g / cm^3
# Si number density = 18.801039 Si / 1000 Ang^3
#
#
#
# Elastic Constant Matrix: (Units=GPa)
#
#
# Indices 1 2 3 4 5 6 
#
# 1 88.0691 30.8126 58.1867 0.0000 -7.0605 0.0000
# 2 30.8126 57.9117 46.5462 0.0000 -5.6931 0.0000
# 3 58.1867 46.5462 128.4038 0.0000 13.4122 0.0000
# 4 0.0000 0.0000 0.0000 8.0011 0.0000 -9.1526
# 5 -7.0605 -5.6931 13.4122 0.0000 33.3993 0.0000
# 6 0.0000 0.0000 0.0000 -9.1526 0.0000 13.9164
#
#
#
# Elastic Compliance Matrix: (Units=1/GPa)
#
#
# Indices 1 2 3 4 5 6 
#
# 1 0.018007 -0.002582 -0.007907 0.000000 0.006542 0.000000
# 2 -0.002582 0.026996 -0.009435 0.000000 0.007845 0.000000
# 3 -0.007907 -0.009435 0.015796 0.000000 -0.009623 0.000000
# 4 0.000000 0.000000 0.000000 0.504647 0.000000 0.331899
# 5 0.006542 0.007845 -0.009623 0.000000 0.036525 0.000000
# 6 0.000000 0.000000 0.000000 0.331899 0.000000 0.290143
#
#
# Mechanical properties :
#
#
# Convention : Reuss Voigt Hill
#
# Bulk Modulus (GPa) = 47.73231 60.60839 54.17035
# Shear Modulus (GPa) = 5.32511 20.31930 12.82221
#
# Velocity S-wave (km/s) = 1.68478 3.29105 2.61434
# Velocity P-wave (km/s) = 5.40628 6.83725 6.16344
#
# Compressibility (1/GPa) = 0.02095017
#
# Stress axis : x y z
#
# Youngs Moduli (GPa) = 55.53468 37.04187 63.30518
#
# Poissons Ratio (x) = 0.09566 0.50055
# Poissons Ratio (y) = 0.14342 0.59731
# Poissons Ratio (z) = 0.43911 0.34950
#
# Static dielectric constant tensor:
#      x y z
#    x 3.101050 0.000000 0.261140 
#    y 0.000000 3.362720 0.000000 
#    z 0.261140 0.000000 3.632130 
# 
# 
# High freq. dielectric constant tensor:
#      x y z
#    x 1.684710 0.000000 0.023870 
#    y 0.000000 1.724650 0.000000 
#    z 0.023870 0.000000 1.734140 
# 
# From -- ./inp_files/76904.got.cif
#   From: 2010.06.25/outbox.cif.g09.slc.cpg/sg10_39_cif.got.tgz:76904.got - 2010.06.27 22:07:45.
