data_PCOD8058887
_publ_section_title
;
Structure prediction by ZEFSAII (Michael W. Deem and Ramdas Pophale) SiO2 
 PCOD8058887
Probable space group: P 2/M
;
_chemical_formula_sum "Si O2"
_cell_formula_units_Z 24
_cell_length_a 18.515916
_cell_length_b 10.268220
_cell_length_c 9.923678
_cell_angle_alpha 90.000000
_cell_angle_beta 133.308065
_cell_angle_gamma 90.000000
_cell_volume 1372.938899
_symmetry_space_group_name_H-M "P 2/M"
_symmetry_group_IT_number 10
_symmetry_cell_setting 'monoclinic'
loop_
_space_group_symop_operation_xyz
x,y,z
-x,y,-z
-x,-y,-z
x,-y,z
loop_
_atom_site_type_symbol
_atom_site_label
_atom_site_fract_x
_atom_site_fract_y
_atom_site_fract_z
Si Si1 0.409611 0.652255 0.790799
Si Si2 0.202556 0.733008 0.205631
Si Si3 0.582385 0.651209 0.505146
Si Si4 0.931199 0.500000 0.542705
Si Si5 0.926518 0.500000 0.030021
Si Si6 0.114497 0.000000 0.042573
Si Si7 0.190687 0.264495 0.505175
Si Si8 0.087388 0.000000 0.327140
O O1 0.385444 0.500000 0.784114
O O2 0.447393 0.676816 0.687475
O O3 0.308692 0.733748 0.691093
O O4 0.500000 0.700930 0.000000
O O5 0.318556 0.725312 0.329519
O O6 0.177448 0.870022 0.106133
O O7 0.176153 0.706278 0.328395
O O8 0.142100 0.625886 0.047872
O O9 0.500000 0.708066 0.500000
O O10 0.600565 0.500000 0.555462
O O11 0.862739 0.371139 0.468878
O O12 0.000000 0.500000 0.500000
O O13 0.009262 0.500000 0.758051
O O14 0.000000 0.500000 0.000000
O O15 0.085808 0.000000 0.163171
O O16 0.032537 0.000000 0.815486
O O17 0.141083 0.123200 0.465857
#
# Coordination Sequence:
#
# PCOD8058887 Si02
#       8
#     4   4   4   2   2   2   4   2
#     4   9  17  31  53  75  99 135 172 213 261 310
#     4  10  18  32  54  80 105 139 173 218 262 307
#     4   9  17  31  49  76 107 130 166 217 266 306
#     4  12  24  36  49  80 110 136 171 224 262 308
#     4  12  20  32  57  78 102 136 177 214 258 314
#     4   9  18  28  47  84 110 130 177 217 256 309
#     4  10  18  35  54  76 107 137 176 216 263 308
#     4   9  18  30  54  76 104 142 173 218 257 302
#
# _framework density 17.480748999999999
#
# number of rings (size 3 to 8) (size 9 to 14) (size 15 to 20)
#    0.000    2.167    3.333    1.000    2.333    0.000 
#    3.000    1.250    0.000    0.000    0.000    0.000 
#    0.000    0.000    0.000    0.000    0.000    0.000 
#
# Total GULP energy -297402.850627 kJ/mol
# GULP energy per Si atom -12391.785443 kJ/mol
# Density = 1.744096 g / cm^3
# Si number density = 17.480749 Si / 1000 Ang^3
#
#
#
# Elastic Constant Matrix: (Units=GPa)
#
#
# Indices 1 2 3 4 5 6 
#
# 1 111.4755 54.0149 48.8349 0.0000 9.1465 0.0000
# 2 54.0149 118.5649 49.5570 0.0000 18.9320 0.0000
# 3 48.8349 49.5570 116.6978 0.0000 25.6199 0.0000
# 4 0.0000 0.0000 0.0000 24.0413 0.0000 6.9877
# 5 9.1465 18.9320 25.6199 0.0000 23.0388 0.0000
# 6 0.0000 0.0000 0.0000 6.9877 0.0000 18.4110
#
#
#
# Elastic Compliance Matrix: (Units=1/GPa)
#
#
# Indices 1 2 3 4 5 6 
#
# 1 0.012728 -0.004614 -0.004088 0.000000 0.003285 0.000000
# 2 -0.004614 0.012334 -0.001963 0.000000 -0.006121 0.000000
# 3 -0.004088 -0.001963 0.013763 0.000000 -0.012069 0.000000
# 4 0.000000 0.000000 0.000000 0.046753 0.000000 -0.017744
# 5 0.003285 -0.006121 -0.012069 0.000000 0.060552 0.000000
# 6 0.000000 0.000000 0.000000 -0.017744 0.000000 0.061050
#
#
# Mechanical properties :
#
#
# Convention : Reuss Voigt Hill
#
# Bulk Modulus (GPa) = 57.16099 72.39465 64.77782
# Shear Modulus (GPa) = 21.33640 26.05363 23.69502
#
# Velocity S-wave (km/s) = 3.49745 3.86478 3.68570
# Velocity P-wave (km/s) = 7.00571 7.83704 7.43301
#
# Compressibility (1/GPa) = 0.01749445
#
# Stress axis : x y z
#
# Youngs Moduli (GPa) = 78.56906 81.07539 72.65815
#
# Poissons Ratio (x) = 0.37410 0.29701
# Poissons Ratio (y) = 0.36254 0.14264
# Poissons Ratio (z) = 0.32117 0.15917
#
# Static dielectric constant tensor:
#      x y z
#    x 3.128620 0.000000 0.244400 
#    y 0.000000 3.227300 0.000000 
#    z 0.244400 0.000000 3.220930 
# 
# 
# High freq. dielectric constant tensor:
#      x y z
#    x 1.655510 0.000000 0.026700 
#    y 0.000000 1.664010 0.000000 
#    z 0.026700 0.000000 1.670290 
# 
# From -- ./inp_files/32278.got.cif
#   From: 2010.06.25/outbox.cif.g09.slc.cpg/sg10_17_cif.got.tgz:32278.got - 2010.06.27 22:07:45.
