data_PCOD8058816
_publ_section_title
;
Structure prediction by ZEFSAII (Michael W. Deem and Ramdas Pophale) SiO2 
 PCOD8058816
Probable space group: P 2/M
;
_chemical_formula_sum "Si O2"
_cell_formula_units_Z 28
_cell_length_a 28.607438
_cell_length_b 8.578053
_cell_length_c 9.708341
_cell_angle_alpha 90.000000
_cell_angle_beta 38.772797
_cell_angle_gamma 90.000000
_cell_volume 1491.932468
_symmetry_space_group_name_H-M "P 2/M"
_symmetry_group_IT_number 10
_symmetry_cell_setting 'monoclinic'
loop_
_space_group_symop_operation_xyz
x,y,z
-x,y,-z
-x,-y,-z
x,-y,z
loop_
_atom_site_type_symbol
_atom_site_label
_atom_site_fract_x
_atom_site_fract_y
_atom_site_fract_z
Si Si1 0.951510 0.681534 0.292166
Si Si2 0.694732 0.683066 0.818900
Si Si3 0.810274 0.317140 0.776934
Si Si4 0.901001 0.182170 0.125555
Si Si5 0.253563 0.684408 0.589752
Si Si6 0.415570 0.684235 0.701736
Si Si7 0.296307 0.817821 0.769943
O O1 0.971669 0.500000 0.241236
O O2 0.897148 0.718264 0.546431
O O3 0.908489 0.723913 0.250542
O O4 0.027329 0.779795 0.135247
O O5 0.701599 0.500000 0.791925
O O6 0.762531 0.745742 0.756842
O O7 0.702396 0.749893 0.646638
O O8 0.616834 0.729257 0.072448
O O9 0.795664 0.500000 0.833617
O O10 0.782027 0.227944 0.977323
O O11 0.827318 0.235495 0.215154
O O12 0.898731 0.000000 0.162976
O O13 0.242839 0.500000 0.609709
O O14 0.301808 0.732568 0.610628
O O15 0.500000 0.745758 0.500000
O O16 0.410726 0.500000 0.687371
O O17 0.367541 0.766486 0.694459
O O18 0.298456 0.000000 0.739755
#
# Coordination Sequence:
#
# PCOD8058816 Si02
#       7
#     4   4   4   4   4   4   4
#     4  10  18  32  53  76 103 141 189 229 267 318
#     4   8  15  30  55  83 103 131 179 225 260 303
#     4   9  17  34  56  78 102 137 188 231 264 317
#     4  11  21  31  47  77 113 142 177 227 281 322
#     4  11  20  36  56  76 106 146 187 225 265 319
#     4   9  18  37  63  87 109 137 177 220 260 314
#     4  11  23  36  53  81 114 144 174 217 277 330
#
# _framework density 18.767606000000001
#
# number of rings (size 3 to 8) (size 9 to 14) (size 15 to 20)
#    0.000    2.143    1.429    5.143    0.000    1.429 
#    0.000    2.143    0.000    8.571    0.000    0.000 
#    0.000    0.000    0.000    0.000    0.000    0.000 
#
# Total GULP energy -347134.771077 kJ/mol
# GULP energy per Si atom -12397.670396 kJ/mol
# Density = 1.872489 g / cm^3
# Si number density = 18.767606 Si / 1000 Ang^3
#
#
#
# Elastic Constant Matrix: (Units=GPa)
#
#
# Indices 1 2 3 4 5 6 
#
# 1 74.5599 20.2932 54.8811 0.0000 10.2521 0.0000
# 2 20.2932 56.3899 32.8564 0.0000 -1.8563 0.0000
# 3 54.8811 32.8564 130.8094 0.0000 0.9358 0.0000
# 4 0.0000 0.0000 0.0000 9.8572 0.0000 -1.8374
# 5 10.2521 -1.8563 0.9358 0.0000 31.6045 0.0000
# 6 0.0000 0.0000 0.0000 -1.8374 0.0000 19.7563
#
#
#
# Elastic Compliance Matrix: (Units=1/GPa)
#
#
# Indices 1 2 3 4 5 6 
#
# 1 0.021102 -0.003148 -0.008014 0.000000 -0.006793 0.000000
# 2 -0.003148 0.021304 -0.004047 0.000000 0.002392 0.000000
# 3 -0.008014 -0.004047 0.012009 0.000000 0.002006 0.000000
# 4 0.000000 0.000000 0.000000 0.103238 0.000000 0.009601
# 5 -0.006793 0.002392 0.002006 0.000000 0.033926 0.000000
# 6 0.000000 0.000000 0.000000 0.009601 0.000000 0.051510
#
#
# Mechanical properties :
#
#
# Convention : Reuss Voigt Hill
#
# Bulk Modulus (GPa) = 41.67398 53.09117 47.38258
# Shear Modulus (GPa) = 17.76165 22.49215 20.12690
#
# Velocity S-wave (km/s) = 3.07970 3.46563 3.27835
# Velocity P-wave (km/s) = 5.90758 6.66065 6.29539
#
# Compressibility (1/GPa) = 0.02399579
#
# Stress axis : x y z
#
# Youngs Moduli (GPa) = 47.38979 46.94050 83.26974
#
# Poissons Ratio (x) = 0.14777 0.66731
# Poissons Ratio (y) = 0.14919 0.33702
# Poissons Ratio (z) = 0.37977 0.18998
#
# Static dielectric constant tensor:
#      x y z
#    x 3.207180 0.000000 0.034120 
#    y 0.000000 3.246780 0.000000 
#    z 0.034120 0.000000 3.780990 
# 
# 
# High freq. dielectric constant tensor:
#      x y z
#    x 1.698680 0.000000 0.001670 
#    y 0.000000 1.717330 0.000000 
#    z 0.001670 0.000000 1.736230 
# 
# From -- ./inp_files/37092.got.cif
#   From: 2010.06.25/outbox.cif.g09.slc.cpg/sg10_19_cif.got.tgz:37092.got - 2010.06.27 22:07:45.
