data_PCOD8058746
_publ_section_title
;
Structure prediction by ZEFSAII (Michael W. Deem and Ramdas Pophale) SiO2 
 PCOD8058746
Probable space group: P 2/M
;
_chemical_formula_sum "Si O2"
_cell_formula_units_Z 32
_cell_length_a 19.833482
_cell_length_b 8.799244
_cell_length_c 14.384468
_cell_angle_alpha 90.000000
_cell_angle_beta 46.865923
_cell_angle_gamma 90.000000
_cell_volume 1831.958651
_symmetry_space_group_name_H-M "P 2/M"
_symmetry_group_IT_number 10
_symmetry_cell_setting 'monoclinic'
loop_
_space_group_symop_operation_xyz
x,y,z
-x,y,-z
-x,-y,-z
x,-y,z
loop_
_atom_site_type_symbol
_atom_site_label
_atom_site_fract_x
_atom_site_fract_y
_atom_site_fract_z
Si Si1 0.166389 0.826050 0.541130
Si Si2 0.016472 0.181131 0.380471
Si Si3 0.688569 0.320874 0.472368
Si Si4 0.553466 0.180833 0.745626
Si Si5 0.604925 0.819685 0.378172
Si Si6 0.306818 0.826749 0.242489
Si Si7 0.781930 0.818102 0.857217
Si Si8 0.640965 0.179823 0.137990
O O1 0.211874 0.727711 0.580382
O O2 0.222755 0.810721 0.392891
O O3 0.063798 0.764161 0.614472
O O4 0.164234 0.000000 0.577085
O O5 0.113325 0.242949 0.247759
O O6 0.000000 0.246400 0.500000
O O7 0.015544 0.000000 0.386818
O O8 0.680962 0.500000 0.481275
O O9 0.605188 0.249508 0.608793
O O10 0.677634 0.259735 0.378185
O O11 0.600473 0.243018 0.797008
O O12 0.446952 0.230561 0.841620
O O13 0.567010 0.000000 0.725529
O O14 0.500000 0.770709 0.500000
O O15 0.632447 0.756092 0.250161
O O16 0.615851 0.000000 0.375519
O O17 0.277223 0.748522 0.173520
O O18 0.328761 0.000000 0.198345
O O19 0.782770 0.000000 0.850235
O O20 0.733574 0.761974 0.998473
O O21 0.641343 0.000000 0.144147
#
# Coordination Sequence:
#
# PCOD8058746 Si02
#       8
#     4   4   4   4   4   4   4   4
#     4   9  16  28  47  71  98 128 155 184 233 289
#     4   9  14  23  43  72 103 128 151 188 238 280
#     4  11  21  31  47  72  95 118 156 206 242 272
#     4   9  16  29  45  66  96 132 161 183 228 284
#     4  10  18  32  51  68  92 126 158 192 239 291
#     4   8  13  21  38  64  97 127 151 182 219 268
#     4   9  15  23  38  70 104 125 153 195 233 270
#     4   9  17  27  42  65  96 128 157 192 234 278
#
# _framework density 17.467641
#
# number of rings (size 3 to 8) (size 9 to 14) (size 15 to 20)
#    0.000    2.750    2.500    1.875    0.000    0.750 
#    0.000    2.500    0.000    1.125    0.000   17.500 
#    0.000    0.000    0.000    0.000    0.000    0.000 
#
# Total GULP energy -396550.569186 kJ/mol
# GULP energy per Si atom -12392.205287 kJ/mol
# Density = 1.742788 g / cm^3
# Si number density = 17.467641 Si / 1000 Ang^3
#
#
#
# Elastic Constant Matrix: (Units=GPa)
#
#
# Indices 1 2 3 4 5 6 
#
# 1 128.1302 17.9007 67.8248 0.0000 -6.0384 0.0000
# 2 17.9007 25.0034 9.8886 0.0000 -1.5213 0.0000
# 3 67.8248 9.8886 111.9511 0.0000 -8.0280 0.0000
# 4 0.0000 0.0000 0.0000 2.1414 0.0000 -1.4046
# 5 -6.0384 -1.5213 -8.0280 0.0000 24.7130 0.0000
# 6 0.0000 0.0000 0.0000 -1.4046 0.0000 3.9536
#
#
#
# Elastic Compliance Matrix: (Units=1/GPa)
#
#
# Indices 1 2 3 4 5 6 
#
# 1 0.012325 -0.006070 -0.006902 0.000000 0.000396 0.000000
# 2 -0.006070 0.044479 -0.000165 0.000000 0.001201 0.000000
# 3 -0.006902 -0.000165 0.013317 0.000000 0.002629 0.000000
# 4 0.000000 0.000000 0.000000 0.608859 0.000000 0.216308
# 5 0.000396 0.001201 0.002629 0.000000 0.041489 0.000000
# 6 0.000000 0.000000 0.000000 0.216308 0.000000 0.329781
#
#
# Mechanical properties :
#
#
# Convention : Reuss Voigt Hill
#
# Bulk Modulus (GPa) = 22.80723 50.70144 36.75433
# Shear Modulus (GPa) = 4.58236 17.45965 11.02101
#
# Velocity S-wave (km/s) = 1.62143 3.16498 2.51457
# Velocity P-wave (km/s) = 4.07315 6.51499 5.43303
#
# Compressibility (1/GPa) = 0.04384575
#
# Stress axis : x y z
#
# Youngs Moduli (GPa) = 81.13599 22.48274 75.08953
#
# Poissons Ratio (x) = 0.13647 0.51830
# Poissons Ratio (y) = 0.49249 0.01241
# Poissons Ratio (z) = 0.56004 0.00372
#
# Static dielectric constant tensor:
#      x y z
#    x 3.580210 0.000000 -0.046410 
#    y 0.000000 2.665170 0.000000 
#    z -0.046410 0.000000 3.264270 
# 
# 
# High freq. dielectric constant tensor:
#      x y z
#    x 1.688590 0.000000 -0.001880 
#    y 0.000000 1.612420 0.000000 
#    z -0.001880 0.000000 1.651630 
# 
# From -- ./inp_files/69963.got.cif
#   From: 2010.06.25/outbox.cif.g09.slc.cpg/sg10_35_cif.got.tgz:69963.got - 2010.06.27 22:07:45.
