data_PCOD8058251
_publ_section_title
;
Structure prediction by ZEFSAII (Michael W. Deem and Ramdas Pophale) SiO2 
 PCOD8058251
Probable space group: P 2/M
;
_chemical_formula_sum "Si O2"
_cell_formula_units_Z 28
_cell_length_a 17.134010
_cell_length_b 9.156637
_cell_length_c 20.442588
_cell_angle_alpha 90.000000
_cell_angle_beta 28.369128
_cell_angle_gamma 90.000000
_cell_volume 1523.918629
_symmetry_space_group_name_H-M "P 2/M"
_symmetry_group_IT_number 10
_symmetry_cell_setting 'monoclinic'
loop_
_space_group_symop_operation_xyz
x,y,z
-x,y,-z
-x,-y,-z
x,-y,z
loop_
_atom_site_type_symbol
_atom_site_label
_atom_site_fract_x
_atom_site_fract_y
_atom_site_fract_z
Si Si1 0.839179 0.169091 0.927490
Si Si2 0.118415 0.829886 0.466859
Si Si3 0.424079 0.331518 0.388430
Si Si4 0.991810 0.326526 0.081460
Si Si5 0.099001 0.173442 0.628973
Si Si6 0.633153 0.669531 0.355432
Si Si7 0.480022 0.167079 0.217963
O O1 0.876864 0.252137 0.967463
O O2 0.946581 0.226138 0.786629
O O3 0.877601 0.000000 0.911280
O O4 0.645089 0.193066 0.053315
O O5 0.077052 0.769325 0.570200
O O6 0.309221 0.800093 0.305531
O O7 0.000000 0.754202 0.500000
O O8 0.079259 0.000000 0.497001
O O9 0.373633 0.500000 0.420447
O O10 0.266149 0.245033 0.532850
O O11 0.580281 0.307605 0.319739
O O12 0.487955 0.274523 0.272743
O O13 0.015672 0.500000 0.068817
O O14 0.813671 0.268439 0.236292
O O15 0.000000 0.276378 0.000000
O O16 0.118648 0.000000 0.615931
O O17 0.500000 0.748879 0.500000
O O18 0.640593 0.500000 0.368046
O O19 0.474350 0.000000 0.247734
#
# Coordination Sequence:
#
# PCOD8058251 Si02
#       7
#     4   4   4   4   4   4   4
#     4  10  20  33  48  69  99 132 162 194 239 291
#     4   8  14  28  51  74  95 123 158 193 232 281
#     4  10  18  30  50  71  90 120 163 202 239 286
#     4  10  20  33  48  66  91 125 164 206 245 277
#     4   9  18  32  49  71 100 129 157 195 240 285
#     4   9  17  28  42  62  87 114 149 196 241 274
#     4   9  18  32  49  69  96 126 154 190 235 282
#
# _framework density 18.373684000000001
#
# number of rings (size 3 to 8) (size 9 to 14) (size 15 to 20)
#    0.000    2.714    0.000    3.000    0.000    3.714 
#    0.000    2.143    0.000   15.000    0.000    0.000 
#    0.000   10.286    0.000    0.000    0.000    0.000 
#
# Total GULP energy -346953.818134 kJ/mol
# GULP energy per Si atom -12391.207791 kJ/mol
# Density = 1.833186 g / cm^3
# Si number density = 18.373684 Si / 1000 Ang^3
#
#
#
# Elastic Constant Matrix: (Units=GPa)
#
#
# Indices 1 2 3 4 5 6 
#
# 1 74.7422 19.0862 40.4940 0.0000 -12.9347 0.0000
# 2 19.0862 29.4277 14.6596 0.0000 -2.3587 0.0000
# 3 40.4940 14.6596 121.5900 0.0000 -12.6661 0.0000
# 4 0.0000 0.0000 0.0000 15.9883 0.0000 1.8013
# 5 -12.9347 -2.3587 -12.6661 0.0000 25.3281 0.0000
# 6 0.0000 0.0000 0.0000 1.8013 0.0000 12.8894
#
#
#
# Elastic Compliance Matrix: (Units=1/GPa)
#
#
# Indices 1 2 3 4 5 6 
#
# 1 0.019571 -0.009846 -0.004626 0.000000 0.006764 0.000000
# 2 -0.009846 0.041145 -0.001905 0.000000 -0.002150 0.000000
# 3 -0.004626 -0.001905 0.010265 0.000000 0.002593 0.000000
# 4 0.000000 0.000000 0.000000 0.063546 0.000000 -0.008880
# 5 0.006764 -0.002150 0.002593 0.000000 0.044033 0.000000
# 6 0.000000 0.000000 0.000000 -0.008880 0.000000 0.078824
#
#
# Mechanical properties :
#
#
# Convention : Reuss Voigt Hill
#
# Bulk Modulus (GPa) = 26.16115 41.58214 33.87165
# Shear Modulus (GPa) = 16.50818 20.94251 18.72534
#
# Velocity S-wave (km/s) = 3.00070 3.37977 3.19586
# Velocity P-wave (km/s) = 5.12590 6.15719 5.66506
#
# Compressibility (1/GPa) = 0.03822462
#
# Stress axis : x y z
#
# Youngs Moduli (GPa) = 51.09715 24.30448 97.41978
#
# Poissons Ratio (x) = 0.23931 0.45066
# Poissons Ratio (y) = 0.50313 0.18562
# Poissons Ratio (z) = 0.23637 0.04631
#
# Static dielectric constant tensor:
#      x y z
#    x 3.425100 0.000000 -0.105970 
#    y 0.000000 3.056820 0.000000 
#    z -0.105970 0.000000 3.785040 
# 
# 
# High freq. dielectric constant tensor:
#      x y z
#    x 1.694840 0.000000 -0.010720 
#    y 0.000000 1.676580 0.000000 
#    z -0.010720 0.000000 1.726950 
# 
# From -- ./inp_files/37939.got.cif
#   From: 2010.06.25/outbox.cif.g09.slc.cpg/sg10_19_cif.got.tgz:37939.got - 2010.06.27 22:07:45.
