data_PCOD8058151
_publ_section_title
;
Structure prediction by ZEFSAII (Michael W. Deem and Ramdas Pophale) SiO2 
 PCOD8058151
Probable space group: P 2/M
;
_chemical_formula_sum "Si O2"
_cell_formula_units_Z 32
_cell_length_a 20.690451
_cell_length_b 13.521296
_cell_length_c 24.336596
_cell_angle_alpha 90.000000
_cell_angle_beta 16.441947
_cell_angle_gamma 90.000000
_cell_volume 1927.088300
_symmetry_space_group_name_H-M "P 2/M"
_symmetry_group_IT_number 10
_symmetry_cell_setting 'monoclinic'
loop_
_space_group_symop_operation_xyz
x,y,z
-x,y,-z
-x,-y,-z
x,-y,z
loop_
_atom_site_type_symbol
_atom_site_label
_atom_site_fract_x
_atom_site_fract_y
_atom_site_fract_z
Si Si1 0.703122 0.612464 0.905731
Si Si2 0.202573 0.883163 0.376210
Si Si3 0.491914 0.884331 0.336038
Si Si4 0.096878 0.114456 0.582678
Si Si5 0.865597 0.884394 0.946188
Si Si6 0.305267 0.802705 0.026668
Si Si7 0.378376 0.882462 0.545551
Si Si8 0.173561 0.388216 0.313996
O O1 0.781492 0.500000 0.855945
O O2 0.825910 0.652517 0.749493
O O3 0.765357 0.688686 0.903621
O O4 0.430993 0.615736 0.124446
O O5 0.432385 0.825433 0.171731
O O6 0.000000 0.855997 0.500000
O O7 0.124218 0.841840 0.499340
O O8 0.254349 0.000000 0.333471
O O9 0.729392 0.862088 0.112900
O O10 0.506422 0.842948 0.386414
O O11 0.281370 0.835950 0.473805
O O12 0.441378 0.000000 0.382006
O O13 0.154312 0.000000 0.530787
O O14 0.843610 0.128368 0.812042
O O15 0.747147 0.824263 0.993937
O O16 0.859430 0.000000 0.935117
O O17 0.118340 0.846131 0.752488
O O18 0.500000 0.835342 0.500000
O O19 0.385632 0.000000 0.544892
O O20 0.086769 0.500000 0.379550
O O21 0.000000 0.334713 0.500000
#
# Coordination Sequence:
#
# PCOD8058151 Si02
#       8
#     4   4   4   4   4   4   4   4
#     4   9  20  33  46  70  94 112 149 201 244 290
#     4  10  22  36  47  66  95 122 160 211 244 268
#     4   9  16  28  46  65  90 122 156 190 222 267
#     4  10  19  32  49  67  88 120 162 199 232 276
#     4  10  18  30  48  68  92 127 163 187 221 276
#     4  12  21  31  51  68  88 127 164 192 239 292
#     4   9  17  28  44  69  98 124 153 189 224 265
#     4   8  15  33  54  64  80 112 144 188 252 302
#
# _framework density 16.605362
#
# number of rings (size 3 to 8) (size 9 to 14) (size 15 to 20)
#    0.000    2.375    2.500    1.875    0.000    4.500 
#    0.000    4.375    0.000    0.000    0.000    0.000 
#    0.000    0.500    0.000    1.250    0.000    0.250 
#
# Total GULP energy -396555.394402 kJ/mol
# GULP energy per Si atom -12392.356075 kJ/mol
# Density = 1.656757 g / cm^3
# Si number density = 16.605362 Si / 1000 Ang^3
#
#
#
# Elastic Constant Matrix: (Units=GPa)
#
#
# Indices 1 2 3 4 5 6 
#
# 1 129.1021 28.5335 49.7939 0.0000 11.8392 0.0000
# 2 28.5335 37.7280 13.4866 0.0000 1.8710 0.0000
# 3 49.7939 13.4866 103.1987 0.0000 17.5932 0.0000
# 4 0.0000 0.0000 0.0000 10.5365 0.0000 3.2684
# 5 11.8392 1.8710 17.5932 0.0000 29.9268 0.0000
# 6 0.0000 0.0000 0.0000 3.2684 0.0000 9.3218
#
#
#
# Elastic Compliance Matrix: (Units=1/GPa)
#
#
# Indices 1 2 3 4 5 6 
#
# 1 0.010977 -0.006740 -0.004164 0.000000 -0.001473 0.000000
# 2 -0.006740 0.031948 -0.001153 0.000000 0.001347 0.000000
# 3 -0.004164 -0.001153 0.012844 0.000000 -0.005831 0.000000
# 4 0.000000 0.000000 0.000000 0.106489 0.000000 -0.037337
# 5 -0.001473 0.001347 -0.005831 0.000000 0.037341 0.000000
# 6 0.000000 0.000000 0.000000 -0.037337 0.000000 0.120366
#
#
# Mechanical properties :
#
#
# Convention : Reuss Voigt Hill
#
# Bulk Modulus (GPa) = 31.59067 50.40633 40.99850
# Shear Modulus (GPa) = 14.09915 21.83802 17.96858
#
# Velocity S-wave (km/s) = 2.91704 3.63039 3.29309
# Velocity P-wave (km/s) = 5.51464 6.92779 6.26121
#
# Compressibility (1/GPa) = 0.03165492
#
# Stress axis : x y z
#
# Youngs Moduli (GPa) = 91.10219 31.30074 77.85661
#
# Poissons Ratio (x) = 0.21096 0.32423
# Poissons Ratio (y) = 0.61402 0.08975
# Poissons Ratio (z) = 0.37939 0.03608
#
# Static dielectric constant tensor:
#      x y z
#    x 3.302430 0.000000 0.185000 
#    y 0.000000 2.772960 0.000000 
#    z 0.185000 0.000000 3.271530 
# 
# 
# High freq. dielectric constant tensor:
#      x y z
#    x 1.630460 0.000000 0.019560 
#    y 0.000000 1.581700 0.000000 
#    z 0.019560 0.000000 1.654480 
# 
# From -- ./inp_files/79712.got.cif
#   From: 2010.06.25/outbox.cif.g09.slc.cpg/sg10_40_cif.got.tgz:79712.got - 2010.06.27 22:07:45.
