data_PCOD8058307
_publ_section_title
;
Structure prediction by ZEFSAII (Michael W. Deem and Ramdas Pophale) SiO2 
 PCOD8058307
Probable space group: P 2/M
;
_chemical_formula_sum "Si O2"
_cell_formula_units_Z 28
_cell_length_a 12.083811
_cell_length_b 9.116494
_cell_length_c 13.851375
_cell_angle_alpha 90.000000
_cell_angle_beta 108.595666
_cell_angle_gamma 90.000000
_cell_volume 1446.231928
_symmetry_space_group_name_H-M "P 2/M"
_symmetry_group_IT_number 10
_symmetry_cell_setting 'monoclinic'
loop_
_space_group_symop_operation_xyz
x,y,z
-x,y,-z
-x,-y,-z
x,-y,z
loop_
_atom_site_type_symbol
_atom_site_label
_atom_site_fract_x
_atom_site_fract_y
_atom_site_fract_z
Si Si1 0.761006 0.171951 0.291530
Si Si2 0.464971 0.825931 0.883300
Si Si3 0.187152 0.672376 0.307767
Si Si4 0.671733 0.174184 0.804310
Si Si5 0.877367 0.166830 0.989859
Si Si6 0.961907 0.835076 0.212339
Si Si7 0.868631 0.672687 0.488937
O O1 0.660873 0.230368 0.190290
O O2 0.889704 0.208168 0.286392
O O3 0.766636 0.255268 0.395020
O O4 0.741477 0.000000 0.304130
O O5 0.552115 0.775207 0.821734
O O6 0.467061 0.000000 0.893810
O O7 0.500000 0.761643 0.000000
O O8 0.199705 0.500000 0.298280
O O9 0.301813 0.748803 0.291838
O O10 0.169699 0.718424 0.413987
O O11 0.070356 0.728528 0.221112
O O12 0.672978 0.000000 0.789698
O O13 0.768426 0.238156 0.905682
O O14 0.863323 0.174353 0.101124
O O15 0.883346 0.000000 0.953125
O O16 0.000000 0.246342 0.000000
O O17 0.012493 0.000000 0.233473
O O18 0.863475 0.500000 0.472237
O O19 0.000000 0.729442 0.500000
#
# Coordination Sequence:
#
# PCOD8058307 Si02
#       7
#     4   4   4   4   4   4   4
#     4  10  20  33  56  87 111 137 183 235 273 318
#     4   9  18  35  59  87 116 146 182 224 273 328
#     4  11  22  35  52  76 108 141 180 227 275 328
#     4  10  19  34  56  78 109 149 182 221 271 324
#     4   9  15  25  45  74 104 135 173 208 253 324
#     4  10  18  30  50  78 110 139 173 218 271 326
#     4  10  21  38  56  76 108 150 187 224 281 340
#
# _framework density 19.360655999999999
#
# number of rings (size 3 to 8) (size 9 to 14) (size 15 to 20)
#    0.000    2.143    2.857    1.286    0.000    4.857 
#    0.000    2.857    0.000    7.714    0.000    0.000 
#    0.000    0.000    0.000    0.000    0.000    0.000 
#
# Total GULP energy -346911.401797 kJ/mol
# GULP energy per Si atom -12389.692921 kJ/mol
# Density = 1.931659 g / cm^3
# Si number density = 19.360656 Si / 1000 Ang^3
#
#
#
# Elastic Constant Matrix: (Units=GPa)
#
#
# Indices 1 2 3 4 5 6 
#
# 1 94.5376 32.1812 51.4189 0.0000 -18.0030 0.0000
# 2 32.1812 33.5981 26.8726 0.0000 -8.5340 0.0000
# 3 51.4189 26.8726 102.3471 0.0000 -7.3472 0.0000
# 4 0.0000 0.0000 0.0000 10.3831 0.0000 -6.1440
# 5 -18.0030 -8.5340 -7.3472 0.0000 34.5895 0.0000
# 6 0.0000 0.0000 0.0000 -6.1440 0.0000 18.2904
#
#
#
# Elastic Compliance Matrix: (Units=1/GPa)
#
#
# Indices 1 2 3 4 5 6 
#
# 1 0.018984 -0.011952 -0.005993 0.000000 0.005659 0.000000
# 2 -0.011952 0.047111 -0.006070 0.000000 0.004113 0.000000
# 3 -0.005993 -0.006070 0.014261 0.000000 -0.001587 0.000000
# 4 0.000000 0.000000 0.000000 0.120203 0.000000 0.040378
# 5 0.005659 0.004113 -0.001587 0.000000 0.032533 0.000000
# 6 0.000000 0.000000 0.000000 0.040378 0.000000 0.068237
#
#
# Mechanical properties :
#
#
# Convention : Reuss Voigt Hill
#
# Bulk Modulus (GPa) = 30.93448 50.15869 40.54658
# Shear Modulus (GPa) = 13.88367 20.65327 17.26847
#
# Velocity S-wave (km/s) = 2.68079 3.26968 2.98977
# Velocity P-wave (km/s) = 5.05914 6.34178 5.73642
#
# Compressibility (1/GPa) = 0.03232638
#
# Stress axis : x y z
#
# Youngs Moduli (GPa) = 52.67715 21.22629 70.12068
#
# Poissons Ratio (x) = 0.25371 0.42022
# Poissons Ratio (y) = 0.62962 0.42560
# Poissons Ratio (z) = 0.31568 0.12883
#
# Static dielectric constant tensor:
#      x y z
#    x 3.612880 0.000000 -0.127170 
#    y 0.000000 3.080470 0.000000 
#    z -0.127170 0.000000 3.657720 
# 
# 
# High freq. dielectric constant tensor:
#      x y z
#    x 1.748350 0.000000 -0.014870 
#    y 0.000000 1.703330 0.000000 
#    z -0.014870 0.000000 1.759170 
# 
# From -- ./inp_files/50099.got.cif
#   From: 2010.06.25/outbox.cif.g09.slc.cpg/sg10_26_cif.got.tgz:50099.got - 2010.06.27 22:07:45.
