data_PCOD8058933
_publ_section_title
;
Structure prediction by ZEFSAII (Michael W. Deem and Ramdas Pophale) SiO2 
 PCOD8058933
Probable space group: P 2/M
;
_chemical_formula_sum "Si O2"
_cell_formula_units_Z 28
_cell_length_a 25.329015
_cell_length_b 8.703112
_cell_length_c 21.390261
_cell_angle_alpha 90.000000
_cell_angle_beta 16.569097
_cell_angle_gamma 90.000000
_cell_volume 1344.667769
_symmetry_space_group_name_H-M "P 2/M"
_symmetry_group_IT_number 10
_symmetry_cell_setting 'monoclinic'
loop_
_space_group_symop_operation_xyz
x,y,z
-x,y,-z
-x,-y,-z
x,-y,z
loop_
_atom_site_type_symbol
_atom_site_label
_atom_site_fract_x
_atom_site_fract_y
_atom_site_fract_z
Si Si1 0.279352 0.326140 0.143825
Si Si2 0.018649 0.683707 0.270532
Si Si3 0.138482 0.328554 0.428495
Si Si4 0.568854 0.178760 0.353057
Si Si5 0.396852 0.819226 0.890151
Si Si6 0.666914 0.319262 0.488316
Si Si7 0.989369 0.180841 0.851788
O O1 0.359281 0.500000 0.054264
O O2 0.268534 0.251068 0.226862
O O3 0.072920 0.330224 0.352615
O O4 0.401671 0.222964 0.958500
O O5 0.040011 0.500000 0.250031
O O6 0.866840 0.742674 0.495218
O O7 0.949724 0.737221 0.281598
O O8 0.216491 0.759242 0.059081
O O9 0.216407 0.500000 0.344237
O O10 0.500000 0.219149 0.500000
O O11 0.448531 0.276019 0.441663
O O12 0.542906 0.000000 0.366450
O O13 0.782480 0.228478 0.105760
O O14 0.572169 0.741699 0.658908
O O15 0.408556 0.000000 0.868289
O O16 0.688577 0.500000 0.467215
O O17 0.870845 0.242186 0.253583
O O18 0.009201 0.000000 0.821495
#
# Coordination Sequence:
#
# PCOD8058933 Si02
#       7
#     4   4   4   4   4   4   4
#     4   8  13  25  44  70 105 149 199 247 299 358
#     4  10  18  32  55  83 116 157 204 251 303 360
#     4   7  12  23  43  71 106 148 195 246 298 359
#     4  10  23  45  71  97 128 164 199 240 298 366
#     4  11  20  32  52  81 117 157 202 253 310 363
#     4  12  25  41  64  92 125 164 208 256 301 355
#     4  11  23  40  64  93 127 164 204 250 302 360
#
# _framework density 20.822987999999999
#
# number of rings (size 3 to 8) (size 9 to 14) (size 15 to 20)
#    0.000    2.143    1.429    5.143    0.000    1.429 
#    0.000    9.286    0.000    0.857    0.000    6.000 
#    0.000    0.000    0.000    0.000    0.000    0.000 
#
# Total GULP energy -346980.888910 kJ/mol
# GULP energy per Si atom -12392.174604 kJ/mol
# Density = 2.077559 g / cm^3
# Si number density = 20.822988 Si / 1000 Ang^3
#
#
#
# Elastic Constant Matrix: (Units=GPa)
#
#
# Indices 1 2 3 4 5 6 
#
# 1 113.0807 99.5116 86.3678 0.0000 9.4444 0.0000
# 2 99.5116 257.5756 64.1501 0.0000 -30.8331 0.0000
# 3 86.3678 64.1501 87.7947 0.0000 -2.6521 0.0000
# 4 0.0000 0.0000 0.0000 20.7121 0.0000 2.4863
# 5 9.4444 -30.8331 -2.6521 0.0000 40.9860 0.0000
# 6 0.0000 0.0000 0.0000 2.4863 0.0000 28.8768
#
#
#
# Elastic Compliance Matrix: (Units=1/GPa)
#
#
# Indices 1 2 3 4 5 6 
#
# 1 0.071623 -0.016907 -0.059104 0.000000 -0.033047 0.000000
# 2 -0.016907 0.009246 0.010224 0.000000 0.011513 0.000000
# 3 -0.059104 0.010224 0.062830 0.000000 0.025376 0.000000
# 4 0.000000 0.000000 0.000000 0.048785 0.000000 -0.004200
# 5 -0.033047 0.011513 0.025376 0.000000 0.042317 0.000000
# 6 0.000000 0.000000 0.000000 -0.004200 0.000000 0.034992
#
#
# Mechanical properties :
#
#
# Convention : Reuss Voigt Hill
#
# Bulk Modulus (GPa) = 82.47267 106.50111 94.48689
# Shear Modulus (GPa) = 12.33328 32.00975 22.17151
#
# Velocity S-wave (km/s) = 2.43634 3.92501 3.26661
# Velocity P-wave (km/s) = 6.89977 8.47336 7.72673
#
# Compressibility (1/GPa) = 0.01212523
#
# Stress axis : x y z
#
# Youngs Moduli (GPa) = 13.96196 108.15528 15.91607
#
# Poissons Ratio (x) = 1.82855 0.94070
# Poissons Ratio (y) = 0.23605 -0.16272
# Poissons Ratio (z) = 0.82521 -1.10576
#
# Static dielectric constant tensor:
#      x y z
#    x 3.990750 0.000000 0.372160 
#    y 0.000000 3.548320 0.000000 
#    z 0.372160 0.000000 3.795640 
# 
# 
# High freq. dielectric constant tensor:
#      x y z
#    x 1.818210 0.000000 0.018020 
#    y 0.000000 1.791840 0.000000 
#    z 0.018020 0.000000 1.806610 
# 
# From -- ./inp_files/86448.got.cif
#   From: 2010.06.25/outbox.cif.g09.slc.cpg/sg10_44_cif.got.tgz:86448.got - 2010.06.27 22:07:45.
