data_PCOD8058525
_publ_section_title
;
Structure prediction by ZEFSAII (Michael W. Deem and Ramdas Pophale) SiO2 
 PCOD8058525
Probable space group: P 2/M
;
_chemical_formula_sum "Si O2"
_cell_formula_units_Z 32
_cell_length_a 12.724658
_cell_length_b 8.824578
_cell_length_c 21.330657
_cell_angle_alpha 90.000000
_cell_angle_beta 53.149564
_cell_angle_gamma 90.000000
_cell_volume 1916.659131
_symmetry_space_group_name_H-M "P 2/M"
_symmetry_group_IT_number 10
_symmetry_cell_setting 'monoclinic'
loop_
_space_group_symop_operation_xyz
x,y,z
-x,y,-z
-x,-y,-z
x,-y,z
loop_
_atom_site_type_symbol
_atom_site_label
_atom_site_fract_x
_atom_site_fract_y
_atom_site_fract_z
Si Si1 0.505179 0.321762 0.186629
Si Si2 0.890097 0.676981 0.822077
Si Si3 0.192519 0.679325 0.920042
Si Si4 0.131762 0.667490 0.492975
Si Si5 0.975939 0.179511 0.915376
Si Si6 0.721875 0.822540 0.663162
Si Si7 0.591776 0.320017 0.912302
Si Si8 0.052232 0.677049 0.337804
O O1 0.481802 0.500000 0.198059
O O2 0.656134 0.278989 0.143459
O O3 0.421282 0.245224 0.271691
O O4 0.458669 0.256419 0.136082
O O5 0.897526 0.500000 0.837112
O O6 0.740099 0.732767 0.871283
O O7 0.962189 0.710942 0.730513
O O8 0.964787 0.775672 0.846887
O O9 0.168297 0.500000 0.928878
O O10 0.113277 0.756168 0.891876
O O11 0.144448 0.745793 0.003628
O O12 0.194807 0.500000 0.474585
O O13 0.236669 0.777184 0.422601
O O14 0.000000 0.662645 0.500000
O O15 0.084889 0.724656 0.578860
O O16 0.972635 0.000000 0.925064
O O17 0.823984 0.765041 0.678523
O O18 0.714196 0.000000 0.669814
O O19 0.582349 0.500000 0.914865
O O20 0.500000 0.252591 0.000000
O O21 0.081327 0.500000 0.339606
#
# Coordination Sequence:
#
# PCOD8058525 Si02
#       8
#     4   4   4   4   4   4   4   4
#     4  10  19  33  52  72  95 126 165 207 245 283
#     4  10  18  31  51  71  97 129 168 205 237 287
#     4  10  20  36  58  75  90 122 173 216 245 284
#     4   8  15  28  46  65  90 126 168 203 238 280
#     4  11  22  35  51  72 103 131 158 203 256 297
#     4  11  20  28  43  69 103 134 159 193 241 299
#     4   9  16  27  46  70  94 122 157 198 241 282
#     4   9  17  31  49  68  93 130 169 208 241 277
#
# _framework density 16.695716999999998
#
# number of rings (size 3 to 8) (size 9 to 14) (size 15 to 20)
#    0.000    2.250    1.250    4.875    0.000    5.750 
#    0.000    0.000    0.000    1.500    0.000    0.875 
#    0.000    7.000    0.000    0.000    0.000    0.000 
#
# Total GULP energy -396761.729555 kJ/mol
# GULP energy per Si atom -12398.804049 kJ/mol
# Density = 1.665772 g / cm^3
# Si number density = 16.695717 Si / 1000 Ang^3
#
#
#
# Elastic Constant Matrix: (Units=GPa)
#
#
# Indices 1 2 3 4 5 6 
#
# 1 79.2347 39.6211 61.7511 0.0000 0.2009 0.0000
# 2 39.6211 72.9252 44.6247 0.0000 -4.3824 0.0000
# 3 61.7511 44.6247 148.4399 0.0000 -1.9059 0.0000
# 4 0.0000 0.0000 0.0000 10.4144 0.0000 2.7735
# 5 0.2009 -4.3824 -1.9059 0.0000 20.0727 0.0000
# 6 0.0000 0.0000 0.0000 2.7735 0.0000 11.1826
#
#
#
# Elastic Compliance Matrix: (Units=1/GPa)
#
#
# Indices 1 2 3 4 5 6 
#
# 1 0.021825 -0.007888 -0.006741 0.000000 -0.002581 0.000000
# 2 -0.007888 0.019862 -0.002636 0.000000 0.004165 0.000000
# 3 -0.006741 -0.002636 0.010340 0.000000 0.000474 0.000000
# 4 0.000000 0.000000 0.000000 0.102812 0.000000 -0.025499
# 5 -0.002581 0.004165 0.000474 0.000000 0.050799 0.000000
# 6 0.000000 0.000000 0.000000 -0.025499 0.000000 0.095749
#
#
# Mechanical properties :
#
#
# Convention : Reuss Voigt Hill
#
# Bulk Modulus (GPa) = 57.15508 65.84373 61.49940
# Shear Modulus (GPa) = 14.63062 18.64079 16.63571
#
# Velocity S-wave (km/s) = 2.96346 3.34503 3.16001
# Velocity P-wave (km/s) = 6.78360 7.37849 7.08729
#
# Compressibility (1/GPa) = 0.01749626
#
# Stress axis : x y z
#
# Youngs Moduli (GPa) = 45.81832 50.34833 96.71557
#
# Poissons Ratio (x) = 0.39715 0.65198
# Poissons Ratio (y) = 0.36141 0.25494
# Poissons Ratio (z) = 0.30887 0.13272
#
# Static dielectric constant tensor:
#      x y z
#    x 2.876830 0.000000 0.011750 
#    y 0.000000 2.964610 0.000000 
#    z 0.011750 0.000000 3.558900 
# 
# 
# High freq. dielectric constant tensor:
#      x y z
#    x 1.606130 0.000000 -0.000620 
#    y 0.000000 1.630260 0.000000 
#    z -0.000620 0.000000 1.654460 
# 
# From -- ./inp_files/83369.got.cif
#   From: 2010.06.25/outbox.cif.g09.slc.cpg/sg10_42_cif.got.tgz:83369.got - 2010.06.27 22:07:45.
