data_PCOD8058367
_publ_section_title
;
Structure prediction by ZEFSAII (Michael W. Deem and Ramdas Pophale) SiO2 
 PCOD8058367
Probable space group: P 2/M
;
_chemical_formula_sum "Si O2"
_cell_formula_units_Z 32
_cell_length_a 11.149348
_cell_length_b 8.615155
_cell_length_c 21.977017
_cell_angle_alpha 90.000000
_cell_angle_beta 130.247518
_cell_angle_gamma 90.000000
_cell_volume 1611.217145
_symmetry_space_group_name_H-M "P 2/M"
_symmetry_group_IT_number 10
_symmetry_cell_setting 'monoclinic'
loop_
_space_group_symop_operation_xyz
x,y,z
-x,y,-z
-x,-y,-z
x,-y,z
loop_
_atom_site_type_symbol
_atom_site_label
_atom_site_fract_x
_atom_site_fract_y
_atom_site_fract_z
Si Si1 0.928735 0.819997 0.158905
Si Si2 0.129322 0.182681 0.391653
Si Si3 0.830909 0.316121 0.469666
Si Si4 0.481514 0.325282 0.164275
Si Si5 0.835030 0.325779 0.247325
Si Si6 0.488547 0.684333 0.693727
Si Si7 0.761399 0.317634 0.696810
Si Si8 0.372918 0.182435 0.006029
O O1 0.838302 0.794527 0.192803
O O2 0.088806 0.721137 0.211063
O O3 0.971961 0.000000 0.165368
O O4 0.805066 0.761515 0.067155
O O5 0.213600 0.234892 0.481089
O O6 0.228506 0.232366 0.364742
O O7 0.961839 0.270225 0.338255
O O8 0.104570 0.000000 0.381621
O O9 0.831770 0.500000 0.479520
O O10 0.690439 0.262983 0.378491
O O11 0.000000 0.258038 0.500000
O O12 0.416242 0.500000 0.135277
O O13 0.668480 0.324534 0.223910
O O14 0.446838 0.253266 0.219732
O O15 0.406711 0.223569 0.086681
O O16 0.878841 0.500000 0.239238
O O17 0.494064 0.500000 0.699565
O O18 0.605551 0.744246 0.679503
O O19 0.753214 0.500000 0.682541
O O20 0.380071 0.000000 0.999848
O O21 0.500000 0.257376 0.000000
#
# Coordination Sequence:
#
# PCOD8058367 Si02
#       8
#     4   4   4   4   4   4   4   4
#     4  10  19  33  53  77 110 144 179 224 271 322
#     4  11  22  35  54  82 115 146 183 227 272 320
#     4  10  20  38  63  86 113 144 179 222 274 330
#     4  10  20  34  55  82 110 139 182 230 276 326
#     4  10  18  30  52  81 110 141 180 223 273 329
#     4   9  20  38  58  81 108 143 183 230 277 322
#     4  10  20  37  59  79 106 145 192 230 268 320
#     4  10  20  34  52  79 115 148 178 217 276 336
#
# _framework density 19.860761
#
# number of rings (size 3 to 8) (size 9 to 14) (size 15 to 20)
#    0.000    2.000    1.250    4.500    0.000    4.500 
#    0.000    6.250    0.000    3.750    0.000    0.000 
#    0.000    0.000    0.000    0.000    0.000    0.000 
#
# Total GULP energy -396671.878418 kJ/mol
# GULP energy per Si atom -12395.996201 kJ/mol
# Density = 1.981556 g / cm^3
# Si number density = 19.860761 Si / 1000 Ang^3
#
#
#
# Elastic Constant Matrix: (Units=GPa)
#
#
# Indices 1 2 3 4 5 6 
#
# 1 97.5163 14.3058 47.1836 0.0000 -1.0707 0.0000
# 2 14.3058 34.5541 10.5476 0.0000 4.9937 0.0000
# 3 47.1836 10.5476 128.4248 0.0000 -10.7538 0.0000
# 4 0.0000 0.0000 0.0000 25.7634 0.0000 0.3833
# 5 -1.0707 4.9937 -10.7538 0.0000 22.5544 0.0000
# 6 0.0000 0.0000 0.0000 0.3833 0.0000 9.6005
#
#
#
# Elastic Compliance Matrix: (Units=1/GPa)
#
#
# Indices 1 2 3 4 5 6 
#
# 1 0.013004 -0.003910 -0.004513 0.000000 -0.000669 0.000000
# 2 -0.003910 0.032335 -0.001911 0.000000 -0.008256 0.000000
# 3 -0.004513 -0.001911 0.010019 0.000000 0.004986 0.000000
# 4 0.000000 0.000000 0.000000 0.038838 0.000000 -0.001551
# 5 -0.000669 -0.008256 0.004986 0.000000 0.048511 0.000000
# 6 0.000000 0.000000 0.000000 -0.001551 0.000000 0.104223
#
#
# Mechanical properties :
#
#
# Convention : Reuss Voigt Hill
#
# Bulk Modulus (GPa) = 28.82472 44.95213 36.88843
# Shear Modulus (GPa) = 17.91083 24.14753 21.02918
#
# Velocity S-wave (km/s) = 3.00629 3.49067 3.25750
# Velocity P-wave (km/s) = 5.15706 6.23933 5.72383
#
# Compressibility (1/GPa) = 0.03469244
#
# Stress axis : x y z
#
# Youngs Moduli (GPa) = 76.89686 30.92608 99.80981
#
# Poissons Ratio (x) = 0.12092 0.45042
# Poissons Ratio (y) = 0.30066 0.19069
# Poissons Ratio (z) = 0.34702 0.05908
#
# Static dielectric constant tensor:
#      x y z
#    x 3.606870 0.000000 0.056950 
#    y 0.000000 3.401840 0.000000 
#    z 0.056950 0.000000 3.749300 
# 
# 
# High freq. dielectric constant tensor:
#      x y z
#    x 1.759120 0.000000 0.000630 
#    y 0.000000 1.756010 0.000000 
#    z 0.000630 0.000000 1.781390 
# 
# From -- ./inp_files/83622.got.cif
#   From: 2010.06.25/outbox.cif.g09.slc.cpg/sg10_42_cif.got.tgz:83622.got - 2010.06.27 22:07:45.
