data_PCOD8058912
_publ_section_title
;
Structure prediction by ZEFSAII (Michael W. Deem and Ramdas Pophale) SiO2 
 PCOD8058912
Probable space group: P 2/M
;
_chemical_formula_sum "Si O2"
_cell_formula_units_Z 32
_cell_length_a 20.911983
_cell_length_b 8.946636
_cell_length_c 26.367200
_cell_angle_alpha 90.000000
_cell_angle_beta 158.771780
_cell_angle_gamma 90.000000
_cell_volume 1786.191440
_symmetry_space_group_name_H-M "P 2/M"
_symmetry_group_IT_number 10
_symmetry_cell_setting 'monoclinic'
loop_
_space_group_symop_operation_xyz
x,y,z
-x,y,-z
-x,-y,-z
x,-y,z
loop_
_atom_site_type_symbol
_atom_site_label
_atom_site_fract_x
_atom_site_fract_y
_atom_site_fract_z
Si Si1 0.024146 0.676544 0.599816
Si Si2 0.949163 0.172396 0.119882
Si Si3 0.277782 0.324628 0.697491
Si Si4 0.651961 0.170997 0.976079
Si Si5 0.468314 0.175939 0.418378
Si Si6 0.046191 0.177087 0.723873
Si Si7 0.203623 0.676530 0.384282
Si Si8 0.078007 0.176256 0.108577
O O1 0.027925 0.500000 0.614027
O O2 0.836693 0.725064 0.436291
O O3 0.060860 0.768686 0.677444
O O4 0.179014 0.724287 0.675770
O O5 0.950835 0.216764 0.061949
O O6 0.088045 0.277232 0.250553
O O7 0.010800 0.000000 0.173345
O O8 0.753924 0.195421 0.998185
O O9 0.293934 0.500000 0.708527
O O10 0.472917 0.261173 0.840876
O O11 0.600519 0.000000 0.946335
O O12 0.777235 0.225858 0.114871
O O13 0.500000 0.217509 0.500000
O O14 0.599285 0.263382 0.477961
O O15 0.274369 0.237170 0.262041
O O16 0.491403 0.000000 0.426068
O O17 0.875325 0.252040 0.622949
O O18 0.022802 0.000000 0.709127
O O19 0.205299 0.500000 0.391731
O O20 0.088630 0.000000 0.109948
O O21 0.000000 0.250865 0.000000
#
# Coordination Sequence:
#
# PCOD8058912 Si02
#       8
#     4   4   4   4   4   4   4   4
#     4   9  19  37  57  79 108 144 179 217 260 310
#     4   9  17  34  54  74 105 140 177 218 264 313
#     4   9  19  36  57  78 108 146 181 212 257 321
#     4   9  19  33  52  78 108 138 178 227 268 311
#     4  10  18  32  55  78 101 136 178 218 259 309
#     4  10  21  37  56  80 109 140 176 223 270 314
#     4  11  21  33  53  79 107 137 176 220 265 316
#     4   9  17  31  53  77 102 135 175 217 261 310
#
# _framework density 17.915213000000001
#
# number of rings (size 3 to 8) (size 9 to 14) (size 15 to 20)
#    0.000    2.500    1.250    3.000    0.000    4.250 
#    2.250    3.750    0.000    1.500    0.000    0.000 
#    0.000    0.000    0.000    0.000    0.000    0.000 
#
# Total GULP energy -396744.775130 kJ/mol
# GULP energy per Si atom -12398.274223 kJ/mol
# Density = 1.787444 g / cm^3
# Si number density = 17.915213 Si / 1000 Ang^3
#
#
#
# Elastic Constant Matrix: (Units=GPa)
#
#
# Indices 1 2 3 4 5 6 
#
# 1 129.9381 37.3820 77.9590 0.0000 -2.8410 0.0000
# 2 37.3820 51.1887 33.6136 0.0000 3.4737 0.0000
# 3 77.9590 33.6136 127.8462 0.0000 6.1930 0.0000
# 4 0.0000 0.0000 0.0000 25.7232 0.0000 0.2587
# 5 -2.8410 3.4737 6.1930 0.0000 28.6275 0.0000
# 6 0.0000 0.0000 0.0000 0.2587 0.0000 12.2321
#
#
#
# Elastic Compliance Matrix: (Units=1/GPa)
#
#
# Indices 1 2 3 4 5 6 
#
# 1 0.013559 -0.005559 -0.006977 0.000000 0.003530 0.000000
# 2 -0.005559 0.025959 -0.003290 0.000000 -0.002990 0.000000
# 3 -0.006977 -0.003290 0.013093 0.000000 -0.003126 0.000000
# 4 0.000000 0.000000 0.000000 0.038884 0.000000 -0.000822
# 5 0.003530 -0.002990 -0.003126 0.000000 0.036321 0.000000
# 6 0.000000 0.000000 0.000000 -0.000822 0.000000 0.081769
#
#
# Mechanical properties :
#
#
# Convention : Reuss Voigt Hill
#
# Bulk Modulus (GPa) = 47.71717 67.43136 57.57426
# Shear Modulus (GPa) = 20.14313 23.98446 22.06379
#
# Velocity S-wave (km/s) = 3.35678 3.66290 3.51318
# Velocity P-wave (km/s) = 6.45886 7.45721 6.97592
#
# Compressibility (1/GPa) = 0.02095682
#
# Stress axis : x y z
#
# Youngs Moduli (GPa) = 73.75377 38.52232 76.37684
#
# Poissons Ratio (x) = 0.21416 0.53289
# Poissons Ratio (y) = 0.41003 0.25130
# Poissons Ratio (z) = 0.51459 0.12675
#
# Static dielectric constant tensor:
#      x y z
#    x 3.495430 0.000000 0.073440 
#    y 0.000000 3.081970 0.000000 
#    z 0.073440 0.000000 3.576330 
# 
# 
# High freq. dielectric constant tensor:
#      x y z
#    x 1.700470 0.000000 0.007540 
#    y 0.000000 1.674330 0.000000 
#    z 0.007540 0.000000 1.687700 
# 
# From -- ./inp_files/93746.got.cif
#   From: 2010.06.25/outbox.cif.g09.slc.cpg/sg10_47_cif.got.tgz:93746.got - 2010.06.27 22:07:45.
