data_PCOD8058924
_publ_section_title
;
Structure prediction by ZEFSAII (Michael W. Deem and Ramdas Pophale) SiO2 
 PCOD8058924
Probable space group: P 2/M
;
_chemical_formula_sum "Si O2"
_cell_formula_units_Z 28
_cell_length_a 8.646177
_cell_length_b 19.126407
_cell_length_c 13.498900
_cell_angle_alpha 90.000000
_cell_angle_beta 135.266248
_cell_angle_gamma 90.000000
_cell_volume 1571.134500
_symmetry_space_group_name_H-M "P 2/M"
_symmetry_group_IT_number 10
_symmetry_cell_setting 'monoclinic'
loop_
_space_group_symop_operation_xyz
x,y,z
-x,y,-z
-x,-y,-z
x,-y,z
loop_
_atom_site_type_symbol
_atom_site_label
_atom_site_fract_x
_atom_site_fract_y
_atom_site_fract_z
Si Si1 0.083079 0.296669 0.702256
Si Si2 0.252556 0.075736 0.860504
Si Si3 0.234818 0.423632 0.655333
Si Si4 0.220327 0.159510 0.656145
Si Si5 0.645459 0.219955 0.787495
Si Si6 0.897039 0.788442 0.096442
Si Si7 0.408623 0.338759 0.565716
O O1 0.219062 0.367669 0.738654
O O2 0.200631 0.236455 0.693667
O O3 0.098941 0.276314 0.824786
O O4 0.829254 0.302405 0.554078
O O5 0.242762 0.096660 0.741971
O O6 0.155958 0.137031 0.882014
O O7 0.131838 0.000000 0.820496
O O8 0.500000 0.064480 0.000000
O O9 0.309456 0.500000 0.730509
O O10 0.396839 0.402210 0.638877
O O11 0.000000 0.430268 0.500000
O O12 0.444175 0.163907 0.692207
O O13 0.000000 0.140056 0.500000
O O14 0.579911 0.286780 0.693718
O O15 0.864628 0.192010 0.836661
O O16 0.714554 0.235489 0.933206
O O17 0.500000 0.363894 0.500000
#
# Coordination Sequence:
#
# PCOD8058924 Si02
#       7
#     4   4   4   4   4   4   4
#     4  10  18  32  55  82 105 142 180 228 276 311
#     4  10  21  38  56  79 111 148 187 226 270 330
#     4   9  18  32  51  78 112 143 182 227 269 326
#     4  11  19  33  58  81 108 141 182 234 269 321
#     4  11  20  35  53  86 109 138 184 225 279 329
#     4  10  22  35  56  82 112 142 180 232 276 325
#     4  11  19  32  53  81 113 139 179 226 279 323
#
# _framework density 17.821517
#
# number of rings (size 3 to 8) (size 9 to 14) (size 15 to 20)
#    0.000    1.714    5.714    0.429    0.000    0.571 
#    0.000    2.143    0.000    2.571    0.000    2.000 
#    0.000    0.000    0.000    0.000    0.000    0.000 
#
# Total GULP energy -346897.475172 kJ/mol
# GULP energy per Si atom -12389.195542 kJ/mol
# Density = 1.778095 g / cm^3
# Si number density = 17.821517 Si / 1000 Ang^3
#
#
#
# Elastic Constant Matrix: (Units=GPa)
#
#
# Indices 1 2 3 4 5 6 
#
# 1 102.5572 42.1155 38.8629 0.0000 -2.9944 0.0000
# 2 42.1155 120.7691 38.7070 0.0000 -12.6075 0.0000
# 3 38.8629 38.7070 89.3936 0.0000 -2.5692 0.0000
# 4 0.0000 0.0000 0.0000 9.9642 0.0000 -3.9441
# 5 -2.9944 -12.6075 -2.5692 0.0000 28.7991 0.0000
# 6 0.0000 0.0000 0.0000 -3.9441 0.0000 13.0198
#
#
#
# Elastic Compliance Matrix: (Units=1/GPa)
#
#
# Indices 1 2 3 4 5 6 
#
# 1 0.012581 -0.003105 -0.004137 0.000000 -0.000420 0.000000
# 2 -0.003105 0.010826 -0.003219 0.000000 0.004129 0.000000
# 3 -0.004137 -0.003219 0.014363 0.000000 -0.000558 0.000000
# 4 0.000000 0.000000 0.000000 0.114033 0.000000 0.034544
# 5 -0.000420 0.004129 -0.000558 0.000000 0.036437 0.000000
# 6 0.000000 0.000000 0.000000 0.034544 0.000000 0.087270
#
#
# Mechanical properties :
#
#
# Convention : Reuss Voigt Hill
#
# Bulk Modulus (GPa) = 59.35648 61.34343 60.34996
# Shear Modulus (GPa) = 16.55360 23.22559 19.88959
#
# Velocity S-wave (km/s) = 3.05102 3.61395 3.34435
# Velocity P-wave (km/s) = 6.76683 7.20485 6.98927
#
# Compressibility (1/GPa) = 0.01684736
#
# Stress axis : x y z
#
# Youngs Moduli (GPa) = 79.48294 92.37087 69.62456
#
# Poissons Ratio (x) = 0.28685 0.28804
# Poissons Ratio (y) = 0.24683 0.22411
# Poissons Ratio (z) = 0.32883 0.29733
#
# Static dielectric constant tensor:
#      x y z
#    x 3.497230 0.000000 -0.044380 
#    y 0.000000 4.065000 0.000000 
#    z -0.044380 0.000000 3.340390 
# 
# 
# High freq. dielectric constant tensor:
#      x y z
#    x 1.696490 0.000000 0.001500 
#    y 0.000000 1.669240 0.000000 
#    z 0.001500 0.000000 1.684210 
# 
# From -- ./inp_files/19948.got.cif
#   From: 2010.06.25/outbox.cif.g09.slc.cpg/sg10_10_cif.got.tgz:19948.got - 2010.06.27 22:07:45.
