data_PCOD8058685
_publ_section_title
;
Structure prediction by ZEFSAII (Michael W. Deem and Ramdas Pophale) SiO2 
 PCOD8058685
Probable space group: P 2/M
;
_chemical_formula_sum "Si O2"
_cell_formula_units_Z 32
_cell_length_a 14.582909
_cell_length_b 20.543936
_cell_length_c 9.706706
_cell_angle_alpha 90.000000
_cell_angle_beta 137.946645
_cell_angle_gamma 90.000000
_cell_volume 1947.867126
_symmetry_space_group_name_H-M "P 2/M"
_symmetry_group_IT_number 10
_symmetry_cell_setting 'monoclinic'
loop_
_space_group_symop_operation_xyz
x,y,z
-x,y,-z
-x,-y,-z
x,-y,z
loop_
_atom_site_type_symbol
_atom_site_label
_atom_site_fract_x
_atom_site_fract_y
_atom_site_fract_z
Si Si1 0.486355 0.846314 0.330407
Si Si2 0.513645 0.653686 0.169593
Si Si3 0.621880 0.575728 0.533444
Si Si4 0.843271 0.179383 0.342743
Si Si5 0.717060 0.265585 0.967088
Si Si6 0.378120 0.924272 0.966556
Si Si7 0.282940 0.765585 0.532912
Si Si8 0.843271 0.320617 0.842743
O O1 0.500000 0.873281 0.500000
O O2 0.389291 0.783193 0.223925
O O3 0.634636 0.826778 0.436881
O O4 0.422016 0.904222 0.169076
O O5 0.577984 0.595778 0.330924
O O6 0.365363 0.673222 0.063119
O O7 0.610709 0.716807 0.276075
O O8 0.500000 0.626719 0.000000
O O9 0.500000 0.595138 0.500000
O O10 0.656601 0.500000 0.576410
O O11 0.756329 0.613846 0.729979
O O12 0.756329 0.113846 0.229979
O O13 0.822643 0.209369 0.470815
O O14 0.000000 0.159585 0.500000
O O15 0.801759 0.232082 0.182652
O O16 0.822643 0.290632 0.970815
O O17 0.343399 0.000000 0.923590
O O18 0.500000 0.904862 0.000000
O O19 0.198241 0.732082 0.317348
O O20 0.000000 0.340415 0.000000
#
# Coordination Sequence:
#
# PCOD8058685 Si02
#       8
#     4   4   4   4   4   4   4   4
#     4  10  18  31  55  77 103 134 165 214 255 299
#     4  10  18  31  55  77 103 134 165 214 255 299
#     4  10  21  36  54  75 100 136 181 214 244 295
#     4  11  21  34  53  78 108 137 165 207 259 308
#     4  10  19  31  50  82 106 130 168 203 260 312
#     4  10  21  36  54  75 100 136 181 214 244 295
#     4  10  19  31  50  82 106 130 168 203 260 312
#     4  11  21  34  53  78 108 137 165 207 259 308
#
# _framework density 16.428225000000001
#
# number of rings (size 3 to 8) (size 9 to 14) (size 15 to 20)
#    0.000    1.750    5.000    0.750    0.000    1.000 
#    0.000    0.000    0.000    0.000    0.000    1.750 
#    0.000    0.000    0.000    0.000    0.000    0.000 
#
# Total GULP energy -396931.023887 kJ/mol
# GULP energy per Si atom -12404.094496 kJ/mol
# Density = 1.639083 g / cm^3
# Si number density = 16.428225 Si / 1000 Ang^3
#
#
#
# Elastic Constant Matrix: (Units=GPa)
#
#
# Indices 1 2 3 4 5 6 
#
# 1 131.3690 49.0073 56.4922 0.0000 1.6500 0.0000
# 2 49.0073 73.7234 37.3911 0.0000 5.5084 0.0000
# 3 56.4922 37.3911 81.8503 0.0000 2.7580 0.0000
# 4 0.0000 0.0000 0.0000 10.3002 0.0000 -2.5002
# 5 1.6500 5.5084 2.7580 0.0000 38.5053 0.0000
# 6 0.0000 0.0000 0.0000 -2.5002 0.0000 14.8779
#
#
#
# Elastic Compliance Matrix: (Units=1/GPa)
#
#
# Indices 1 2 3 4 5 6 
#
# 1 0.012081 -0.004996 -0.006078 0.000000 0.000632 0.000000
# 2 -0.004996 0.019868 -0.005553 0.000000 -0.002230 0.000000
# 3 -0.006078 -0.005553 0.018959 0.000000 -0.000303 0.000000
# 4 0.000000 0.000000 0.000000 0.101214 0.000000 0.017009
# 5 0.000632 -0.002230 -0.000303 0.000000 0.026284 0.000000
# 6 0.000000 0.000000 0.000000 0.017009 0.000000 0.070072
#
#
# Mechanical properties :
#
#
# Convention : Reuss Voigt Hill
#
# Bulk Modulus (GPa) = 56.63855 63.63602 60.13729
# Shear Modulus (GPa) = 17.38419 22.34014 19.86216
#
# Velocity S-wave (km/s) = 3.25651 3.69163 3.48088
# Velocity P-wave (km/s) = 6.97790 7.54922 7.26917
#
# Compressibility (1/GPa) = 0.01765582
#
# Stress axis : x y z
#
# Youngs Moduli (GPa) = 82.77159 50.33156 52.74529
#
# Poissons Ratio (x) = 0.25145 0.32056
# Poissons Ratio (y) = 0.41352 0.29289
# Poissons Ratio (z) = 0.50305 0.27949
#
# Static dielectric constant tensor:
#      x y z
#    x 3.135650 0.000000 -0.083560 
#    y 0.000000 2.830670 0.000000 
#    z -0.083560 0.000000 3.027150 
# 
# 
# High freq. dielectric constant tensor:
#      x y z
#    x 1.640650 0.000000 -0.011290 
#    y 0.000000 1.611540 0.000000 
#    z -0.011290 0.000000 1.631570 
# 
# From -- ./inp_files/20564.got.cif
#   From: 2010.06.25/outbox.cif.g09.slc.cpg/sg10_11_cif.got.tgz:20564.got - 2010.06.27 22:07:45.
