data_PCOD8058157
_publ_section_title
;
Structure prediction by ZEFSAII (Michael W. Deem and Ramdas Pophale) SiO2 
 PCOD8058157
Probable space group: P 2/M
;
_chemical_formula_sum "Si O2"
_cell_formula_units_Z 32
_cell_length_a 13.206733
_cell_length_b 18.020180
_cell_length_c 18.532453
_cell_angle_alpha 90.000000
_cell_angle_beta 157.774953
_cell_angle_gamma 90.000000
_cell_volume 1668.250244
_symmetry_space_group_name_H-M "P 2/M"
_symmetry_group_IT_number 10
_symmetry_cell_setting 'monoclinic'
loop_
_space_group_symop_operation_xyz
x,y,z
-x,y,-z
-x,-y,-z
x,-y,z
loop_
_atom_site_type_symbol
_atom_site_label
_atom_site_fract_x
_atom_site_fract_y
_atom_site_fract_z
Si Si1 0.433761 0.831216 0.187048
Si Si2 0.900300 0.412689 0.772286
Si Si3 0.760762 0.324754 0.900885
Si Si4 0.070919 0.083814 0.130515
Si Si5 0.570576 0.343142 0.446578
Si Si6 0.420960 0.829480 0.553218
Si Si7 0.352305 0.084742 0.793651
Si Si8 0.916593 0.083858 0.240977
O O1 0.322410 0.747668 0.109194
O O2 0.544587 0.844952 0.339462
O O3 0.665764 0.854458 0.283118
O O4 0.189208 0.884643 0.001226
O O5 0.921347 0.500000 0.778752
O O6 0.855564 0.377275 0.662017
O O7 0.652131 0.387820 0.656656
O O8 0.163572 0.384033 0.987728
O O9 0.499602 0.354788 0.684473
O O10 0.000000 0.307495 0.000000
O O11 0.334465 0.130481 0.326602
O O12 0.120206 0.000000 0.187893
O O13 0.000000 0.090979 0.000000
O O14 0.565977 0.256007 0.461137
O O15 0.132746 0.863629 0.343672
O O16 0.116700 0.102223 0.695532
O O17 0.321627 0.000000 0.744274
O O18 0.633018 0.095411 0.017991
O O19 0.020777 0.000000 0.300779
#
# Coordination Sequence:
#
# PCOD8058157 Si02
#       8
#     4   4   4   4   4   4   4   4
#     4  10  18  30  48  68  95 129 166 202 251 299
#     4  10  19  31  50  72  98 139 171 192 237 299
#     4   9  18  31  46  70 102 133 165 200 241 293
#     4   9  16  26  41  63  92 124 159 199 242 290
#     4   9  18  30  44  69 100 127 164 203 238 282
#     4  10  19  31  47  69  96 130 163 205 251 294
#     4   9  19  34  50  67  92 128 169 217 263 298
#     4   9  19  35  49  66  94 128 169 216 263 297
#
# _framework density 19.181774999999998
#
# number of rings (size 3 to 8) (size 9 to 14) (size 15 to 20)
#    0.000    2.625    0.000    4.875    1.750    4.750 
#    0.000    1.250    0.000    2.250    0.000    0.000 
#    0.000    3.000    0.000   20.500    0.000    0.000 
#
# Total GULP energy -396489.639112 kJ/mol
# GULP energy per Si atom -12390.301222 kJ/mol
# Density = 1.913812 g / cm^3
# Si number density = 19.181775 Si / 1000 Ang^3
#
#
#
# Elastic Constant Matrix: (Units=GPa)
#
#
# Indices 1 2 3 4 5 6 
#
# 1 52.2299 15.3620 1.9817 0.0000 -4.8999 0.0000
# 2 15.3620 114.3145 34.2159 0.0000 -15.4477 0.0000
# 3 1.9817 34.2159 66.7840 0.0000 -15.6172 0.0000
# 4 0.0000 0.0000 0.0000 14.7059 0.0000 -12.1933
# 5 -4.8999 -15.4477 -15.6172 0.0000 23.4227 0.0000
# 6 0.0000 0.0000 0.0000 -12.1933 0.0000 15.0898
#
#
#
# Elastic Compliance Matrix: (Units=1/GPa)
#
#
# Indices 1 2 3 4 5 6 
#
# 1 0.020216 -0.002727 0.001618 0.000000 0.003509 0.000000
# 2 -0.002727 0.011008 -0.004733 0.000000 0.003534 0.000000
# 3 0.001618 -0.004733 0.019784 0.000000 0.010408 0.000000
# 4 0.000000 0.000000 0.000000 0.206054 0.000000 0.166502
# 5 0.003509 0.003534 0.010408 0.000000 0.052699 0.000000
# 6 0.000000 0.000000 0.000000 0.166502 0.000000 0.200811
#
#
# Mechanical properties :
#
#
# Convention : Reuss Voigt Hill
#
# Bulk Modulus (GPa) = 25.42873 37.38308 31.40590
# Shear Modulus (GPa) = 9.33943 22.76159 16.05051
#
# Velocity S-wave (km/s) = 2.20895 3.44848 2.89582
# Velocity P-wave (km/s) = 4.44876 5.94871 5.25255
#
# Compressibility (1/GPa) = 0.03932560
#
# Stress axis : x y z
#
# Youngs Moduli (GPa) = 49.46588 90.84009 50.54508
#
# Poissons Ratio (x) = 0.24769 -0.08177
# Poissons Ratio (y) = 0.13488 0.23921
# Poissons Ratio (z) = -0.08002 0.42991
#
# Static dielectric constant tensor:
#      x y z
#    x 3.661350 0.000000 -0.372250 
#    y 0.000000 3.348140 0.000000 
#    z -0.372250 0.000000 3.880560 
# 
# 
# High freq. dielectric constant tensor:
#      x y z
#    x 1.717850 0.000000 -0.034430 
#    y 0.000000 1.725260 0.000000 
#    z -0.034430 0.000000 1.747860 
# 
# From -- ./inp_files/85499.got.cif
#   From: 2010.06.25/outbox.cif.g09.slc.cpg/sg10_43_cif.got.tgz:85499.got - 2010.06.27 22:07:45.
