data_PCOD8058747
_publ_section_title
;
Structure prediction by ZEFSAII (Michael W. Deem and Ramdas Pophale) SiO2 
 PCOD8058747
Probable space group: P 2/M
;
_chemical_formula_sum "Si O2"
_cell_formula_units_Z 28
_cell_length_a 20.333661
_cell_length_b 8.853119
_cell_length_c 28.737298
_cell_angle_alpha 90.000000
_cell_angle_beta 19.972239
_cell_angle_gamma 90.000000
_cell_volume 1766.977110
_symmetry_space_group_name_H-M "P 2/M"
_symmetry_group_IT_number 10
_symmetry_cell_setting 'monoclinic'
loop_
_space_group_symop_operation_xyz
x,y,z
-x,y,-z
-x,-y,-z
x,-y,z
loop_
_atom_site_type_symbol
_atom_site_label
_atom_site_fract_x
_atom_site_fract_y
_atom_site_fract_z
Si Si1 0.894350 0.829590 0.346199
Si Si2 0.076226 0.322936 0.145443
Si Si3 0.946701 0.177116 0.413704
Si Si4 0.697942 0.171759 0.387462
Si Si5 0.388600 0.821318 0.118499
Si Si6 0.469411 0.179225 0.876776
Si Si7 0.814827 0.322312 0.593388
O O1 0.701300 0.823883 0.442238
O O2 0.056467 0.725713 0.213239
O O3 0.848966 0.779879 0.429043
O O4 0.980338 0.000000 0.290294
O O5 0.095102 0.500000 0.127799
O O6 0.884893 0.264640 0.244939
O O7 0.263290 0.245434 0.998737
O O8 0.167463 0.228616 0.263632
O O9 0.840923 0.275809 0.522586
O O10 0.926254 0.000000 0.439373
O O11 0.500000 0.245311 0.500000
O O12 0.714778 0.000000 0.357917
O O13 0.479947 0.758938 0.105431
O O14 0.406244 0.000000 0.105794
O O15 0.500000 0.751181 0.000000
O O16 0.627853 0.236769 0.735598
O O17 0.463048 0.000000 0.878956
O O18 0.782391 0.500000 0.619080
O O19 0.000000 0.269522 0.500000
#
# Coordination Sequence:
#
# PCOD8058747 Si02
#       7
#     4   4   4   4   4   4   4
#     4   8  16  30  49  73 100 128 161 198 236 284
#     4  10  19  30  47  73 106 131 156 194 245 296
#     4  10  18  32  51  69  92 125 172 212 240 282
#     4   8  15  30  51  75 103 132 161 193 234 288
#     4   9  17  27  45  69  90 118 158 204 244 277
#     4  11  20  33  51  67  91 127 173 211 240 283
#     4  11  23  36  48  65  95 129 167 213 258 295
#
# _framework density 15.846272000000001
#
# number of rings (size 3 to 8) (size 9 to 14) (size 15 to 20)
#    0.857    1.571    1.429    2.571    0.000    3.714 
#    0.000    0.000    0.000    2.143    0.000    1.000 
#    0.000    8.000    0.000    0.000    0.000    0.000 
#
# Total GULP energy -346992.362859 kJ/mol
# GULP energy per Si atom -12392.584388 kJ/mol
# Density = 1.581021 g / cm^3
# Si number density = 15.846272 Si / 1000 Ang^3
#
#
#
# Elastic Constant Matrix: (Units=GPa)
#
#
# Indices 1 2 3 4 5 6 
#
# 1 72.9783 27.0303 57.3097 0.0000 -12.3010 0.0000
# 2 27.0303 65.8270 39.1603 0.0000 -3.8998 0.0000
# 3 57.3097 39.1603 113.9772 0.0000 -2.2037 0.0000
# 4 0.0000 0.0000 0.0000 19.2911 0.0000 -0.8973
# 5 -12.3010 -3.8998 -2.2037 0.0000 24.6857 0.0000
# 6 0.0000 0.0000 0.0000 -0.8973 0.0000 14.5601
#
#
#
# Elastic Compliance Matrix: (Units=1/GPa)
#
#
# Indices 1 2 3 4 5 6 
#
# 1 0.026038 -0.002962 -0.011853 0.000000 0.011449 0.000000
# 2 -0.002962 0.019578 -0.005215 0.000000 0.001151 0.000000
# 3 -0.011853 -0.005215 0.016424 0.000000 -0.005264 0.000000
# 4 0.000000 0.000000 0.000000 0.051986 0.000000 0.003204
# 5 0.011449 0.001151 -0.005264 0.000000 0.045926 0.000000
# 6 0.000000 0.000000 0.000000 0.003204 0.000000 0.068879
#
#
# Mechanical properties :
#
#
# Convention : Reuss Voigt Hill
#
# Bulk Modulus (GPa) = 45.49782 55.53148 50.51465
# Shear Modulus (GPa) = 18.10163 20.32617 19.21390
#
# Velocity S-wave (km/s) = 3.38350 3.58538 3.48590
# Velocity P-wave (km/s) = 6.63615 7.22910 6.93896
#
# Compressibility (1/GPa) = 0.02197907
#
# Stress axis : x y z
#
# Youngs Moduli (GPa) = 38.40555 51.07701 60.88765
#
# Poissons Ratio (x) = 0.15130 0.72171
# Poissons Ratio (y) = 0.11376 0.31753
# Poissons Ratio (z) = 0.45523 0.26637
#
# Static dielectric constant tensor:
#      x y z
#    x 3.004320 0.000000 -0.016230 
#    y 0.000000 2.814620 0.000000 
#    z -0.016230 0.000000 2.911260 
# 
# 
# High freq. dielectric constant tensor:
#      x y z
#    x 1.588000 0.000000 -0.002410 
#    y 0.000000 1.598060 0.000000 
#    z -0.002410 0.000000 1.594010 
# 
# From -- ./inp_files/93514.got.cif
#   From: 2010.06.25/outbox.cif.g09.slc.cpg/sg10_47_cif.got.tgz:93514.got - 2010.06.27 22:07:45.
