data_PCOD8058099
_publ_section_title
;
Structure prediction by ZEFSAII (Michael W. Deem and Ramdas Pophale) SiO2 
 PCOD8058099
Probable space group: P 2/M
;
_chemical_formula_sum "Si O2"
_cell_formula_units_Z 28
_cell_length_a 28.457331
_cell_length_b 13.221687
_cell_length_c 30.814267
_cell_angle_alpha 90.000000
_cell_angle_beta 170.836067
_cell_angle_gamma 90.000000
_cell_volume 1846.455949
_symmetry_space_group_name_H-M "P 2/M"
_symmetry_group_IT_number 10
_symmetry_cell_setting 'monoclinic'
loop_
_space_group_symop_operation_xyz
x,y,z
-x,y,-z
-x,-y,-z
x,-y,z
loop_
_atom_site_type_symbol
_atom_site_label
_atom_site_fract_x
_atom_site_fract_y
_atom_site_fract_z
Si Si1 0.428417 0.700576 0.368943
Si Si2 0.347390 0.120755 0.648263
Si Si3 0.687337 0.880955 0.874908
Si Si4 0.678208 0.879529 0.035474
Si Si5 0.902786 0.616689 0.851856
Si Si6 0.632184 0.881160 0.504772
Si Si7 0.665549 0.120600 0.193699
O O1 0.746780 0.645011 0.664125
O O2 0.246949 0.687497 0.247966
O O3 0.474287 0.818886 0.399517
O O4 0.249152 0.644999 0.166499
O O5 0.518093 0.165510 0.762067
O O6 0.012508 0.161732 0.341742
O O7 0.348006 0.000000 0.648674
O O8 0.512092 0.161732 0.841328
O O9 0.521814 0.847033 0.680291
O O10 0.671930 0.000000 0.864636
O O11 0.027427 0.847032 0.185916
O O12 0.678789 0.000000 0.035863
O O13 0.506268 0.838499 0.920847
O O14 0.853841 0.500000 0.819219
O O15 0.591773 0.000000 0.477835
O O16 0.000000 0.161848 0.500000
O O17 0.667287 0.000000 0.194859
O O18 0.500000 0.161846 0.000000
#
# Coordination Sequence:
#
# PCOD8058099 Si02
#       7
#     4   4   4   4   4   4   4
#     4  10  18  30  47  66  84 107 132 156 189 230
#     4   9  15  23  34  46  58  77 110 148 181 211
#     4   9  17  28  40  52  71  99 126 155 190 223
#     4   9  15  21  30  43  56  72 102 142 177 218
#     4  10  19  33  50  68  86 104 129 163 196 226
#     4  10  19  30  42  59  83 108 132 156 186 232
#     4   9  15  21  27  36  53  75  95 122 171 230
#
# _framework density 15.164185
#
# number of rings (size 3 to 8) (size 9 to 14) (size 15 to 20)
#    0.000    2.571    0.000    4.714    0.000    6.857 
#    0.000    2.857    0.000    0.000    0.000    0.000 
#    0.000    0.000    0.000    0.000    0.000    0.000 
#
# Total GULP energy -347006.957226 kJ/mol
# GULP energy per Si atom -12393.105615 kJ/mol
# Density = 1.512967 g / cm^3
# Si number density = 15.164185 Si / 1000 Ang^3
#
#
#
# Elastic Constant Matrix: (Units=GPa)
#
#
# Indices 1 2 3 4 5 6 
#
# 1 88.7837 37.8546 63.7151 0.0000 -3.3758 0.0000
# 2 37.8546 39.7381 32.8933 0.0000 3.1080 0.0000
# 3 63.7151 32.8933 140.0773 0.0000 -28.9424 0.0000
# 4 0.0000 0.0000 0.0000 7.6002 0.0000 -3.0238
# 5 -3.3758 3.1080 -28.9424 0.0000 31.2748 0.0000
# 6 0.0000 0.0000 0.0000 -3.0238 0.0000 2.7942
#
#
#
# Elastic Compliance Matrix: (Units=1/GPa)
#
#
# Indices 1 2 3 4 5 6 
#
# 1 0.023200 -0.015717 -0.007446 0.000000 -0.002824 0.000000
# 2 -0.015717 0.046189 -0.006177 0.000000 -0.012003 0.000000
# 3 -0.007446 -0.006177 0.014759 0.000000 0.013469 0.000000
# 4 0.000000 0.000000 0.000000 0.231053 0.000000 0.250039
# 5 -0.002824 -0.012003 0.013469 0.000000 0.045327 0.000000
# 6 0.000000 0.000000 0.000000 0.250039 0.000000 0.628473
#
#
# Mechanical properties :
#
#
# Convention : Reuss Voigt Hill
#
# Bulk Modulus (GPa) = 39.26416 59.72502 49.49459
# Shear Modulus (GPa) = 4.73408 17.27625 11.00517
#
# Velocity S-wave (km/s) = 1.76880 3.37898 2.69687
# Velocity P-wave (km/s) = 5.48821 7.39557 6.51210
#
# Compressibility (1/GPa) = 0.02546852
#
# Stress axis : x y z
#
# Youngs Moduli (GPa) = 43.10254 21.65038 67.75450
#
# Poissons Ratio (x) = 0.34027 0.50449
# Poissons Ratio (y) = 0.67742 0.41855
# Poissons Ratio (z) = 0.32094 0.13374
#
# Static dielectric constant tensor:
#      x y z
#    x 3.133110 0.000000 -0.487150 
#    y 0.000000 2.296830 0.000000 
#    z -0.487150 0.000000 3.907790 
# 
# 
# High freq. dielectric constant tensor:
#      x y z
#    x 1.576440 0.000000 -0.020580 
#    y 0.000000 1.495720 0.000000 
#    z -0.020580 0.000000 1.609160 
# 
# From -- ./inp_files/13072.got.cif
#   From: 2010.06.25/outbox.cif.g09.slc.cpg/sg10_7_cif.got.tgz:13072.got - 2010.06.27 22:07:45.
