data_PCOD8058119
_publ_section_title
;
Structure prediction by ZEFSAII (Michael W. Deem and Ramdas Pophale) SiO2 
 PCOD8058119
Probable space group: P 2/M
;
_chemical_formula_sum "Si O2"
_cell_formula_units_Z 28
_cell_length_a 19.065379
_cell_length_b 9.043411
_cell_length_c 11.352225
_cell_angle_alpha 90.000000
_cell_angle_beta 54.372663
_cell_angle_gamma 90.000000
_cell_volume 1590.943097
_symmetry_space_group_name_H-M "P 2/M"
_symmetry_group_IT_number 10
_symmetry_cell_setting 'monoclinic'
loop_
_space_group_symop_operation_xyz
x,y,z
-x,y,-z
-x,-y,-z
x,-y,z
loop_
_atom_site_type_symbol
_atom_site_label
_atom_site_fract_x
_atom_site_fract_y
_atom_site_fract_z
Si Si1 0.904533 0.662370 0.609358
Si Si2 0.003519 0.174667 0.862102
Si Si3 0.329361 0.674498 0.306575
Si Si4 0.498161 0.834585 0.862481
Si Si5 0.674694 0.325710 0.964341
Si Si6 0.163567 0.172658 0.117993
Si Si7 0.840313 0.337663 0.413154
O O1 0.900015 0.500000 0.678414
O O2 0.859993 0.792856 0.724537
O O3 0.863137 0.641387 0.525322
O O4 0.000000 0.719400 0.500000
O O5 0.915520 0.232978 0.886028
O O6 0.092406 0.233265 0.719099
O O7 0.007632 0.000000 0.845831
O O8 0.000000 0.227422 0.000000
O O9 0.344785 0.500000 0.298515
O O10 0.415131 0.756160 0.267151
O O11 0.306193 0.715221 0.192287
O O12 0.257282 0.724842 0.474912
O O13 0.492633 0.000000 0.814947
O O14 0.500000 0.840914 0.000000
O O15 0.415608 0.740599 0.902863
O O16 0.672732 0.500000 0.983157
O O17 0.746143 0.259328 0.985531
O O18 0.179098 0.000000 0.081733
O O19 0.841684 0.500000 0.350387
#
# Coordination Sequence:
#
# PCOD8058119 Si02
#       7
#     4   4   4   4   4   4   4
#     4  10  18  30  47  69  99 129 157 196 246 296
#     4  10  23  40  52  67  96 132 168 208 254 297
#     4   9  17  29  45  68  99 134 164 193 238 292
#     4   9  17  28  42  66 100 134 167 200 230 277
#     4  10  18  30  47  68  99 136 165 196 242 293
#     4  11  21  31  48  72  97 128 167 207 244 291
#     4  10  19  32  51  74  98 128 167 204 241 291
#
# _framework density 17.599623999999999
#
# number of rings (size 3 to 8) (size 9 to 14) (size 15 to 20)
#    0.000    2.143    2.857    1.286    0.000    4.571 
#    0.000    0.000    0.000    0.000    0.000    1.000 
#    0.000    8.000    0.000    0.000    0.000    0.000 
#
# Total GULP energy -346865.894773 kJ/mol
# GULP energy per Si atom -12388.067670 kJ/mol
# Density = 1.755957 g / cm^3
# Si number density = 17.599624 Si / 1000 Ang^3
#
#
#
# Elastic Constant Matrix: (Units=GPa)
#
#
# Indices 1 2 3 4 5 6 
#
# 1 92.1588 47.2091 67.1150 0.0000 -36.1506 0.0000
# 2 47.2091 69.0069 36.9472 0.0000 -19.0832 0.0000
# 3 67.1150 36.9472 74.2719 0.0000 -23.4943 0.0000
# 4 0.0000 0.0000 0.0000 25.2919 0.0000 -11.7879
# 5 -36.1506 -19.0832 -23.4943 0.0000 33.2952 0.0000
# 6 0.0000 0.0000 0.0000 -11.7879 0.0000 26.6656
#
#
#
# Elastic Compliance Matrix: (Units=1/GPa)
#
#
# Indices 1 2 3 4 5 6 
#
# 1 0.047570 -0.009370 -0.030492 0.000000 0.024763 0.000000
# 2 -0.009370 0.022459 -0.002384 0.000000 0.001017 0.000000
# 3 -0.030492 -0.002384 0.040292 0.000000 -0.006041 0.000000
# 4 0.000000 0.000000 0.000000 0.049798 0.000000 0.022014
# 5 0.024763 0.001017 -0.006041 0.000000 0.053241 0.000000
# 6 0.000000 0.000000 0.000000 0.022014 0.000000 0.047233
#
#
# Mechanical properties :
#
#
# Convention : Reuss Voigt Hill
#
# Bulk Modulus (GPa) = 38.71369 59.77557 49.24463
# Shear Modulus (GPa) = 14.13645 22.66165 18.39905
#
# Velocity S-wave (km/s) = 2.83720 3.59224 3.23681
# Velocity P-wave (km/s) = 5.72517 7.15845 6.48155
#
# Compressibility (1/GPa) = 0.02583065
#
# Stress axis : x y z
#
# Youngs Moduli (GPa) = 21.02154 44.52572 24.81862
#
# Poissons Ratio (x) = 0.41721 0.75676
# Poissons Ratio (y) = 0.19697 0.05916
# Poissons Ratio (z) = 0.64098 0.10613
#
# Static dielectric constant tensor:
#      x y z
#    x 3.387060 0.000000 -0.381920 
#    y 0.000000 3.312110 0.000000 
#    z -0.381920 0.000000 3.087670 
# 
# 
# High freq. dielectric constant tensor:
#      x y z
#    x 1.670330 0.000000 -0.044740 
#    y 0.000000 1.680710 0.000000 
#    z -0.044740 0.000000 1.644960 
# 
# From -- ./inp_files/54644.got.cif
#   From: 2010.06.25/outbox.cif.g09.slc.cpg/sg10_28_cif.got.tgz:54644.got - 2010.06.27 22:07:45.
