data_PCOD8058464
_publ_section_title
;
Structure prediction by ZEFSAII (Michael W. Deem and Ramdas Pophale) SiO2 
 PCOD8058464
Probable space group: P 2/M
;
_chemical_formula_sum "Si O2"
_cell_formula_units_Z 28
_cell_length_a 28.165995
_cell_length_b 9.315148
_cell_length_c 9.544051
_cell_angle_alpha 90.000000
_cell_angle_beta 140.474079
_cell_angle_gamma 90.000000
_cell_volume 1593.662563
_symmetry_space_group_name_H-M "P 2/M"
_symmetry_group_IT_number 10
_symmetry_cell_setting 'monoclinic'
loop_
_space_group_symop_operation_xyz
x,y,z
-x,y,-z
-x,-y,-z
x,-y,z
loop_
_atom_site_type_symbol
_atom_site_label
_atom_site_fract_x
_atom_site_fract_y
_atom_site_fract_z
Si Si1 0.582622 0.167303 0.218891
Si Si2 0.942895 0.670066 0.180630
Si Si3 0.264132 0.330314 0.928083
Si Si4 0.294354 0.831673 0.728628
Si Si5 0.100642 0.670147 0.616196
Si Si6 0.806989 0.334372 0.700818
Si Si7 0.681920 0.336244 0.643517
O O1 0.633409 0.202688 0.200323
O O2 0.614171 0.242925 0.429243
O O3 0.581119 0.000000 0.249197
O O4 0.500000 0.226259 0.000000
O O5 0.936403 0.500000 0.176473
O O6 0.912835 0.734420 0.259165
O O7 0.029850 0.715132 0.356768
O O8 0.890269 0.720075 0.932297
O O9 0.269430 0.500000 0.912009
O O10 0.308238 0.244198 0.908962
O O11 0.178383 0.273654 0.730184
O O12 0.301414 0.288517 0.160262
O O13 0.221117 0.763898 0.489824
O O14 0.281644 0.000000 0.719888
O O15 0.106127 0.500000 0.640739
O O16 0.806544 0.500000 0.649430
O O17 0.756559 0.313784 0.723563
O O18 0.655667 0.500000 0.578116
#
# Coordination Sequence:
#
# PCOD8058464 Si02
#       7
#     4   4   4   4   4   4   4
#     4   9  19  37  57  74  93 121 159 198 234 278
#     4   8  12  21  42  71  96 120 158 205 244 272
#     4  10  18  31  49  73 103 131 158 193 238 286
#     4  10  21  34  49  70  96 127 160 195 237 286
#     4   8  13  22  41  70  99 124 155 200 242 275
#     4   9  15  28  49  72  95 123 161 204 243 279
#     4   9  17  29  50  78 101 123 155 194 238 285
#
# _framework density 17.569590000000002
#
# number of rings (size 3 to 8) (size 9 to 14) (size 15 to 20)
#    0.000    3.000    1.429    1.286    0.000    1.429 
#    0.000    1.429    0.000    9.429    0.000    2.000 
#    0.000    0.000    0.000    0.000    0.000    0.000 
#
# Total GULP energy -347056.849489 kJ/mol
# GULP energy per Si atom -12394.887482 kJ/mol
# Density = 1.752960 g / cm^3
# Si number density = 17.569590 Si / 1000 Ang^3
#
#
#
# Elastic Constant Matrix: (Units=GPa)
#
#
# Indices 1 2 3 4 5 6 
#
# 1 65.9504 34.7913 59.9013 0.0000 -3.2530 0.0000
# 2 34.7913 50.3858 51.3981 0.0000 -4.3682 0.0000
# 3 59.9013 51.3981 143.9606 0.0000 7.2421 0.0000
# 4 0.0000 0.0000 0.0000 5.5101 0.0000 -3.0335
# 5 -3.2530 -4.3682 7.2421 0.0000 32.2029 0.0000
# 6 0.0000 0.0000 0.0000 -3.0335 0.0000 19.5221
#
#
#
# Elastic Compliance Matrix: (Units=1/GPa)
#
#
# Indices 1 2 3 4 5 6 
#
# 1 0.028535 -0.011254 -0.008014 0.000000 0.003158 0.000000
# 2 -0.011254 0.037208 -0.008899 0.000000 0.005912 0.000000
# 3 -0.008014 -0.008899 0.013715 0.000000 -0.005101 0.000000
# 4 0.000000 0.000000 0.000000 0.198465 0.000000 0.030840
# 5 0.003158 0.005912 -0.005101 0.000000 0.033321 0.000000
# 6 0.000000 0.000000 0.000000 0.030840 0.000000 0.056016
#
#
# Mechanical properties :
#
#
# Convention : Reuss Voigt Hill
#
# Bulk Modulus (GPa) = 43.24671 61.38647 52.31659
# Shear Modulus (GPa) = 11.59281 19.06074 15.32678
#
# Velocity S-wave (km/s) = 2.57149 3.29731 2.95676
# Velocity P-wave (km/s) = 5.78660 7.03642 6.44189
#
# Compressibility (1/GPa) = 0.02312315
#
# Stress axis : x y z
#
# Youngs Moduli (GPa) = 35.04515 26.87574 72.91490
#
# Poissons Ratio (x) = 0.30247 0.58433
# Poissons Ratio (y) = 0.39442 0.64886
# Poissons Ratio (z) = 0.28084 0.23916
#
# Static dielectric constant tensor:
#      x y z
#    x 3.135410 0.000000 0.125900 
#    y 0.000000 2.917120 0.000000 
#    z 0.125900 0.000000 3.469110 
# 
# 
# High freq. dielectric constant tensor:
#      x y z
#    x 1.657980 0.000000 0.002670 
#    y 0.000000 1.640000 0.000000 
#    z 0.002670 0.000000 1.686890 
# 
# From -- ./inp_files/34550.got.cif
#   From: 2010.06.25/outbox.cif.g09.slc.cpg/sg10_18_cif.got.tgz:34550.got - 2010.06.27 22:07:45.
