data_PCOD8058090
_publ_section_title
;
Structure prediction by ZEFSAII (Michael W. Deem and Ramdas Pophale) SiO2 
 PCOD8058090
Probable space group: P 2/M
;
_chemical_formula_sum "Si O2"
_cell_formula_units_Z 24
_cell_length_a 14.569531
_cell_length_b 12.555035
_cell_length_c 14.569538
_cell_angle_alpha 90.000000
_cell_angle_beta 148.593054
_cell_angle_gamma 90.000000
_cell_volume 1388.805010
_symmetry_space_group_name_H-M "P 2/M"
_symmetry_group_IT_number 10
_symmetry_cell_setting 'monoclinic'
loop_
_space_group_symop_operation_xyz
x,y,z
-x,y,-z
-x,-y,-z
x,-y,z
loop_
_atom_site_type_symbol
_atom_site_label
_atom_site_fract_x
_atom_site_fract_y
_atom_site_fract_z
Si Si1 0.894937 0.500000 0.004018
Si Si2 0.389656 0.726177 0.498974
Si Si3 0.427657 0.122696 0.693304
Si Si4 0.001025 0.726177 0.110343
Si Si5 0.053176 0.126369 0.446821
Si Si6 0.193308 0.877304 0.927659
Si Si7 0.504017 0.500000 0.394937
O O1 0.688649 0.500000 0.811351
O O2 0.948570 0.608095 0.102773
O O3 0.000000 0.500000 0.000000
O O4 0.500000 0.729923 0.500000
O O5 0.468697 0.811305 0.636662
O O6 0.397227 0.608095 0.551429
O O7 0.190662 0.758289 0.309337
O O8 0.250160 0.166185 0.590229
O O9 0.402901 0.000000 0.643262
O O10 0.595297 0.135465 0.904699
O O11 0.863337 0.811306 0.031302
O O12 0.000000 0.729923 0.000000
O O13 0.909767 0.166186 0.249837
O O14 0.000000 0.175506 0.500000
O O15 0.050045 0.000000 0.449953
O O16 0.143265 0.000000 0.902903
O O17 0.500000 0.500000 0.500000
#
# Coordination Sequence:
#
# PCOD8058090 Si02
#       7
#     2   4   4   4   4   4   2
#     4  10  18  30  46  68  96 129 174 214 247 290
#     4  11  20  32  49  71 102 138 173 209 251 297
#     4  10  20  34  51  75 105 134 169 209 252 306
#     4  11  20  32  49  71 102 138 173 209 251 297
#     4   9  18  34  54  75 101 133 169 214 260 300
#     4  10  20  34  51  75 105 134 169 209 252 306
#     4  10  18  30  46  68  96 129 174 214 247 290
#
# _framework density 17.281044000000001
#
# number of rings (size 3 to 8) (size 9 to 14) (size 15 to 20)
#    0.000    1.833    1.667    6.500    0.000    1.333 
#    0.000    3.333    0.000    0.000    0.000    2.333 
#    0.000    4.000    0.000    0.000    0.000    0.000 
#
# Total GULP energy -297537.251700 kJ/mol
# GULP energy per Si atom -12397.385487 kJ/mol
# Density = 1.724171 g / cm^3
# Si number density = 17.281044 Si / 1000 Ang^3
#
#
#
# Elastic Constant Matrix: (Units=GPa)
#
#
# Indices 1 2 3 4 5 6 
#
# 1 84.1175 39.6750 41.4231 0.0000 -0.1435 0.0000
# 2 39.6750 75.1670 29.3836 0.0000 -2.9709 0.0000
# 3 41.4231 29.3836 123.9169 0.0000 11.6316 0.0000
# 4 0.0000 0.0000 0.0000 23.5442 0.0000 5.8378
# 5 -0.1435 -2.9709 11.6316 0.0000 24.4984 0.0000
# 6 0.0000 0.0000 0.0000 5.8378 0.0000 3.3205
#
#
#
# Elastic Compliance Matrix: (Units=1/GPa)
#
#
# Indices 1 2 3 4 5 6 
#
# 1 0.017513 -0.007568 -0.004169 0.000000 0.001164 0.000000
# 2 -0.007568 0.018241 -0.002092 0.000000 0.003161 0.000000
# 3 -0.004169 -0.002092 0.010452 0.000000 -0.005240 0.000000
# 4 0.000000 0.000000 0.000000 0.075298 0.000000 -0.132384
# 5 0.001164 0.003161 -0.005240 0.000000 0.043697 0.000000
# 6 0.000000 0.000000 0.000000 -0.132384 0.000000 0.533911
#
#
# Mechanical properties :
#
#
# Convention : Reuss Voigt Hill
#
# Bulk Modulus (GPa) = 53.91701 56.01831 54.96766
# Shear Modulus (GPa) = 6.82173 21.78726 14.30450
#
# Velocity S-wave (km/s) = 1.98899 3.55457 2.88020
# Velocity P-wave (km/s) = 6.04505 7.02375 6.55270
#
# Compressibility (1/GPa) = 0.01854702
#
# Stress axis : x y z
#
# Youngs Moduli (GPa) = 57.10195 54.82133 95.67971
#
# Poissons Ratio (x) = 0.41488 0.39888
# Poissons Ratio (y) = 0.43214 0.20019
# Poissons Ratio (z) = 0.23805 0.11470
#
# Static dielectric constant tensor:
#      x y z
#    x 3.073000 0.000000 0.112750 
#    y 0.000000 3.638910 0.000000 
#    z 0.112750 0.000000 3.463540 
# 
# 
# High freq. dielectric constant tensor:
#      x y z
#    x 1.628830 0.000000 0.017340 
#    y 0.000000 1.654810 0.000000 
#    z 0.017340 0.000000 1.688910 
# 
# From -- ./inp_files/51723.got.cif
#   From: 2010.06.25/outbox.cif.g09.slc.cpg/sg10_26_cif.got.tgz:51723.got - 2010.06.27 22:07:45.
