data_PCOD8058364
_publ_section_title
;
Structure prediction by ZEFSAII (Michael W. Deem and Ramdas Pophale) SiO2 
 PCOD8058364
Probable space group: P 2/M
;
_chemical_formula_sum "Si O2"
_cell_formula_units_Z 30
_cell_length_a 28.657336
_cell_length_b 9.559427
_cell_length_c 16.541265
_cell_angle_alpha 90.000000
_cell_angle_beta 21.828243
_cell_angle_gamma 90.000000
_cell_volume 1684.905446
_symmetry_space_group_name_H-M "P 2/M"
_symmetry_group_IT_number 10
_symmetry_cell_setting 'monoclinic'
loop_
_space_group_symop_operation_xyz
x,y,z
-x,y,-z
-x,-y,-z
x,-y,z
loop_
_atom_site_type_symbol
_atom_site_label
_atom_site_fract_x
_atom_site_fract_y
_atom_site_fract_z
Si Si1 0.898662 0.162432 0.898535
Si Si2 0.279265 0.845683 0.961080
Si Si3 0.576445 0.665748 0.667207
Si Si4 0.369984 0.666145 0.244025
Si Si5 0.500000 0.257108 0.500000
Si Si6 0.850769 0.664195 0.517363
Si Si7 0.300143 0.337083 0.081264
Si Si8 0.302563 0.342005 0.691816
O O1 0.029507 0.241592 0.690871
O O2 0.915528 0.000000 0.895448
O O3 0.840145 0.178093 0.904059
O O4 0.807503 0.236267 0.109052
O O5 0.408323 0.835570 0.702846
O O6 0.275960 0.000000 0.004700
O O7 0.262111 0.734674 0.059155
O O8 0.571850 0.500000 0.673312
O O9 0.645220 0.717455 0.638506
O O10 0.647935 0.719317 0.472895
O O11 0.433825 0.722243 0.896466
O O12 0.376194 0.500000 0.228530
O O13 0.252821 0.718155 0.379908
O O14 0.500000 0.728240 0.000000
O O15 0.414555 0.349655 0.577606
O O16 0.881988 0.500000 0.455158
O O17 0.802777 0.693139 0.685049
O O18 0.309733 0.500000 0.046188
O O19 0.250089 0.500000 0.767394
#
# Coordination Sequence:
#
# PCOD8058364 Si02
#       8
#     4   4   4   4   2   4   4   4
#     4  10  23  40  54  71 105 150 187 220 258 312
#     4  10  21  35  51  74 105 146 187 216 257 315
#     4   9  16  29  50  83 115 136 163 212 272 321
#     4   9  15  28  54  84 111 135 166 214 270 320
#     4  10  18  30  52  80 108 138 176 224 266 306
#     4  10  20  35  58  83 106 138 179 221 265 317
#     4  10  19  32  53  83 113 136 169 219 272 315
#     4  10  19  32  54  81 109 139 176 220 266 316
#
# _framework density 17.805154000000002
#
# number of rings (size 3 to 8) (size 9 to 14) (size 15 to 20)
#    0.000    2.267    2.667    0.800    0.000    4.267 
#    0.000    3.333    0.000    6.000    0.000    0.000 
#    0.000    0.000    0.000    0.000    0.000    0.000 
#
# Total GULP energy -371912.130671 kJ/mol
# GULP energy per Si atom -12397.071022 kJ/mol
# Density = 1.776463 g / cm^3
# Si number density = 17.805154 Si / 1000 Ang^3
#
#
#
# Elastic Constant Matrix: (Units=GPa)
#
#
# Indices 1 2 3 4 5 6 
#
# 1 113.4639 40.2321 66.6800 0.0000 10.2538 0.0000
# 2 40.2321 68.6605 55.9769 0.0000 -0.4453 0.0000
# 3 66.6800 55.9769 131.5635 0.0000 -4.5447 0.0000
# 4 0.0000 0.0000 0.0000 13.4823 0.0000 0.5715
# 5 10.2538 -0.4453 -4.5447 0.0000 27.4954 0.0000
# 6 0.0000 0.0000 0.0000 0.5715 0.0000 4.7515
#
#
#
# Elastic Compliance Matrix: (Units=1/GPa)
#
#
# Indices 1 2 3 4 5 6 
#
# 1 0.014063 -0.003512 -0.005850 0.000000 -0.006268 0.000000
# 2 -0.003512 0.023217 -0.008086 0.000000 0.000349 0.000000
# 3 -0.005850 -0.008086 0.014158 0.000000 0.004391 0.000000
# 4 0.000000 0.000000 0.000000 0.074551 0.000000 -0.008967
# 5 -0.006268 0.000349 0.004391 0.000000 0.039439 0.000000
# 6 0.000000 0.000000 0.000000 -0.008967 0.000000 0.211539
#
#
# Mechanical properties :
#
#
# Convention : Reuss Voigt Hill
#
# Bulk Modulus (GPa) = 60.45213 71.05178 65.75195
# Shear Modulus (GPa) = 11.97961 19.19911 15.58936
#
# Velocity S-wave (km/s) = 2.59669 3.28729 2.96218
# Velocity P-wave (km/s) = 6.55867 7.37565 6.97912
#
# Compressibility (1/GPa) = 0.01654201
#
# Stress axis : x y z
#
# Youngs Moduli (GPa) = 71.10964 43.07205 70.63183
#
# Poissons Ratio (x) = 0.15126 0.41318
# Poissons Ratio (y) = 0.24971 0.57115
# Poissons Ratio (z) = 0.41598 0.34829
#
# Static dielectric constant tensor:
#      x y z
#    x 3.476380 0.000000 0.049130 
#    y 0.000000 2.998150 0.000000 
#    z 0.049130 0.000000 3.273470 
# 
# 
# High freq. dielectric constant tensor:
#      x y z
#    x 1.692320 0.000000 0.005710 
#    y 0.000000 1.657770 0.000000 
#    z 0.005710 0.000000 1.686470 
# 
# From -- ./inp_files/56612.got.cif
#   From: 2010.06.25/outbox.cif.g09.slc.cpg/sg10_29_cif.got.tgz:56612.got - 2010.06.27 22:07:45.
