data_PCOD8058920
_publ_section_title
;
Structure prediction by ZEFSAII (Michael W. Deem and Ramdas Pophale) SiO2 
 PCOD8058920
Probable space group: P 2/M
;
_chemical_formula_sum "Si O2"
_cell_formula_units_Z 28
_cell_length_a 10.309695
_cell_length_b 7.866999
_cell_length_c 31.689243
_cell_angle_alpha 90.000000
_cell_angle_beta 34.830560
_cell_angle_gamma 90.000000
_cell_volume 1467.973015
_symmetry_space_group_name_H-M "P 2/M"
_symmetry_group_IT_number 10
_symmetry_cell_setting 'monoclinic'
loop_
_space_group_symop_operation_xyz
x,y,z
-x,y,-z
-x,-y,-z
x,-y,z
loop_
_atom_site_type_symbol
_atom_site_label
_atom_site_fract_x
_atom_site_fract_y
_atom_site_fract_z
Si Si1 0.280985 0.692793 0.821620
Si Si2 0.582472 0.696994 0.661943
Si Si3 0.956943 0.306472 0.420490
Si Si4 0.033301 0.000000 0.922602
Si Si5 0.080414 0.805997 0.661647
Si Si6 0.397828 0.310846 0.186189
Si Si7 0.634079 0.000000 0.087327
Si Si8 0.463217 0.193731 0.418119
O O1 0.184655 0.500000 0.851394
O O2 0.379304 0.726361 0.749065
O O3 0.080773 0.828741 0.883097
O O4 0.485015 0.722358 0.800023
O O5 0.613151 0.500000 0.642415
O O6 0.517942 0.797781 0.637252
O O7 0.817789 0.770386 0.617900
O O8 0.004946 0.500000 0.394206
O O9 0.896033 0.202005 0.395049
O O10 0.750921 0.300312 0.508510
O O11 0.189513 0.000000 0.921809
O O12 0.769691 0.000000 0.006862
O O13 0.308094 0.731226 0.622063
O O14 0.870732 0.697952 0.735110
O O15 0.042326 0.000000 0.685571
O O16 0.458445 0.500000 0.152997
O O17 0.481174 0.170330 0.130299
O O18 0.430395 0.000000 0.441339
#
# Coordination Sequence:
#
# PCOD8058920 Si02
#       8
#     4   4   4   2   4   4   2   4
#     4   9  18  32  52  81 109 141 187 225 264 332
#     4  10  21  37  55  77 107 143 186 234 276 327
#     4  11  22  37  57  78 103 143 189 233 284 335
#     4   9  18  30  52  79 114 150 173 212 283 321
#     4  11  22  37  55  77 110 145 187 236 276 329
#     4  10  18  32  55  80 108 147 184 221 274 326
#     4   9  18  32  48  83 116 142 179 220 263 333
#     4  11  25  38  50  78 111 142 185 236 284 326
#
# _framework density 19.073920000000001
#
# number of rings (size 3 to 8) (size 9 to 14) (size 15 to 20)
#    0.000    1.857    2.143    2.143    1.000    7.429 
#    0.000    2.857    0.000    0.000    0.000    2.000 
#    0.000    3.429    0.000    0.000    0.000    0.000 
#
# Total GULP energy -347284.884317 kJ/mol
# GULP energy per Si atom -12403.031583 kJ/mol
# Density = 1.903051 g / cm^3
# Si number density = 19.073920 Si / 1000 Ang^3
#
#
#
# Elastic Constant Matrix: (Units=GPa)
#
#
# Indices 1 2 3 4 5 6 
#
# 1 89.6815 19.1465 35.6850 0.0000 8.4152 0.0000
# 2 19.1465 93.4407 48.7213 0.0000 0.4474 0.0000
# 3 35.6850 48.7213 128.2195 0.0000 5.2664 0.0000
# 4 0.0000 0.0000 0.0000 23.4757 0.0000 3.2278
# 5 8.4152 0.4474 5.2664 0.0000 8.5067 0.0000
# 6 0.0000 0.0000 0.0000 3.2278 0.0000 18.0813
#
#
#
# Elastic Compliance Matrix: (Units=1/GPa)
#
#
# Indices 1 2 3 4 5 6 
#
# 1 0.013645 -0.001259 -0.002839 0.000000 -0.011674 0.000000
# 2 -0.001259 0.013515 -0.004932 0.000000 0.003589 0.000000
# 3 -0.002839 -0.004932 0.010607 0.000000 -0.003499 0.000000
# 4 0.000000 0.000000 0.000000 0.043669 0.000000 -0.007796
# 5 -0.011674 0.003589 -0.003499 0.000000 0.131079 0.000000
# 6 0.000000 0.000000 0.000000 -0.007796 0.000000 0.056697
#
#
# Mechanical properties :
#
#
# Convention : Reuss Voigt Hill
#
# Bulk Modulus (GPa) = 50.75026 57.60527 54.17777
# Shear Modulus (GPa) = 17.01591 23.86533 20.44062
#
# Velocity S-wave (km/s) = 2.99005 3.54107 3.27716
# Velocity P-wave (km/s) = 6.21172 6.85460 6.54106
#
# Compressibility (1/GPa) = 0.01970433
#
# Stress axis : x y z
#
# Youngs Moduli (GPa) = 73.28856 73.99419 94.27536
#
# Poissons Ratio (x) = 0.09319 0.26769
# Poissons Ratio (y) = 0.09230 0.46498
# Poissons Ratio (z) = 0.20810 0.36495
#
# Static dielectric constant tensor:
#      x y z
#    x 3.224250 0.000000 -0.038680 
#    y 0.000000 3.506480 0.000000 
#    z -0.038680 0.000000 3.437920 
# 
# 
# High freq. dielectric constant tensor:
#      x y z
#    x 1.705830 0.000000 -0.000210 
#    y 0.000000 1.750700 0.000000 
#    z -0.000210 0.000000 1.733320 
# 
# From -- ./inp_files/37178.got.cif
#   From: 2010.06.25/outbox.cif.g09.slc.cpg/sg10_19_cif.got.tgz:37178.got - 2010.06.27 22:07:45.
