data_PCOD8058133
_publ_section_title
;
Structure prediction by ZEFSAII (Michael W. Deem and Ramdas Pophale) SiO2 
 PCOD8058133
Probable space group: P 2/M
;
_chemical_formula_sum "Si O2"
_cell_formula_units_Z 28
_cell_length_a 20.598510
_cell_length_b 7.889104
_cell_length_c 26.403166
_cell_angle_alpha 90.000000
_cell_angle_beta 20.978643
_cell_angle_gamma 90.000000
_cell_volume 1536.125507
_symmetry_space_group_name_H-M "P 2/M"
_symmetry_group_IT_number 10
_symmetry_cell_setting 'monoclinic'
loop_
_space_group_symop_operation_xyz
x,y,z
-x,y,-z
-x,-y,-z
x,-y,z
loop_
_atom_site_type_symbol
_atom_site_label
_atom_site_fract_x
_atom_site_fract_y
_atom_site_fract_z
Si Si1 0.810863 0.798670 0.656125
Si Si2 0.136377 0.692796 0.174124
Si Si3 0.117558 0.815196 0.721687
Si Si4 0.696464 0.802539 0.846738
Si Si5 0.972004 0.500000 0.960532
Si Si6 0.441172 0.802493 0.878698
Si Si7 0.198414 0.188521 0.966994
Si Si8 0.712986 0.500000 0.352707
O O1 0.774453 0.722428 0.738388
O O2 0.648962 0.745664 0.735673
O O3 0.000000 0.717840 0.500000
O O4 0.827225 0.000000 0.646142
O O5 0.078757 0.500000 0.222222
O O6 0.166521 0.771830 0.207193
O O7 0.965454 0.788026 0.273535
O O8 0.316613 0.701826 0.008821
O O9 0.254088 0.666977 0.637701
O O10 0.215541 0.000000 0.651722
O O11 0.952495 0.813460 0.880384
O O12 0.668681 0.000000 0.857907
O O13 0.500000 0.718007 0.000000
O O14 0.161129 0.500000 0.790242
O O15 0.851433 0.332706 0.037218
O O16 0.000000 0.500000 0.000000
O O17 0.385054 0.766013 0.860945
O O18 0.413432 0.000000 0.911764
O O19 0.211199 0.000000 0.932049
O O20 0.500000 0.500000 0.500000
#
# Coordination Sequence:
#
# PCOD8058133 Si02
#       8
#     4   4   4   4   2   4   4   2
#     4   9  17  30  49  70  96 132 176 216 256 310
#     4  11  19  28  48  75 103 131 173 223 265 300
#     4   9  17  32  53  80 109 139 176 215 257 307
#     4  10  18  30  47  71  99 130 169 216 269 310
#     4  10  20  34  56  82 106 134 168 208 256 306
#     4   9  16  29  49  73  97 128 170 214 259 304
#     4   8  16  29  50  78 104 131 170 214 254 301
#     4  10  20  36  58  84 112 141 172 206 254 313
#
# _framework density 18.227677
#
# number of rings (size 3 to 8) (size 9 to 14) (size 15 to 20)
#    0.000    2.571    2.143    2.143    3.000    0.857 
#    0.000    0.000    3.143    1.714    0.000    0.000 
#    0.000    0.000    0.000    0.000    0.000    0.000 
#
# Total GULP energy -346999.289465 kJ/mol
# GULP energy per Si atom -12392.831767 kJ/mol
# Density = 1.818619 g / cm^3
# Si number density = 18.227677 Si / 1000 Ang^3
#
#
#
# Elastic Constant Matrix: (Units=GPa)
#
#
# Indices 1 2 3 4 5 6 
#
# 1 151.5741 52.8708 56.4876 0.0000 -15.4706 0.0000
# 2 52.8708 76.7652 33.7735 0.0000 -8.6533 0.0000
# 3 56.4876 33.7735 89.2317 0.0000 -13.8645 0.0000
# 4 0.0000 0.0000 0.0000 8.9265 0.0000 -4.1748
# 5 -15.4706 -8.6533 -13.8645 0.0000 27.6990 0.0000
# 6 0.0000 0.0000 0.0000 -4.1748 0.0000 23.8078
#
#
#
# Elastic Compliance Matrix: (Units=1/GPa)
#
#
# Indices 1 2 3 4 5 6 
#
# 1 0.010068 -0.004849 -0.004229 0.000000 0.001992 0.000000
# 2 -0.004849 0.018077 -0.003595 0.000000 0.001139 0.000000
# 3 -0.004229 -0.003595 0.015943 0.000000 0.004495 0.000000
# 4 0.000000 0.000000 0.000000 0.122034 0.000000 0.021399
# 5 0.001992 0.001139 0.004495 0.000000 0.039821 0.000000
# 6 0.000000 0.000000 0.000000 0.021399 0.000000 0.045755
#
#
# Mechanical properties :
#
#
# Convention : Reuss Voigt Hill
#
# Bulk Modulus (GPa) = 53.35715 67.09276 60.22496
# Shear Modulus (GPa) = 17.64967 23.71594 20.68281
#
# Velocity S-wave (km/s) = 3.11511 3.61098 3.37217
# Velocity P-wave (km/s) = 6.50190 7.36707 6.94796
#
# Compressibility (1/GPa) = 0.01874163
#
# Stress axis : x y z
#
# Youngs Moduli (GPa) = 99.32335 55.31971 62.72409
#
# Poissons Ratio (x) = 0.26826 0.26524
# Poissons Ratio (y) = 0.48165 0.22550
# Poissons Ratio (z) = 0.42001 0.19888
#
# Static dielectric constant tensor:
#      x y z
#    x 3.473560 0.000000 -0.175770 
#    y 0.000000 3.557230 0.000000 
#    z -0.175770 0.000000 3.149070 
# 
# 
# High freq. dielectric constant tensor:
#      x y z
#    x 1.703300 0.000000 -0.019980 
#    y 0.000000 1.706020 0.000000 
#    z -0.019980 0.000000 1.657580 
# 
# From -- ./inp_files/93539.got.cif
#   From: 2010.06.25/outbox.cif.g09.slc.cpg/sg10_47_cif.got.tgz:93539.got - 2010.06.27 22:07:45.
