data_PCOD8058188
_publ_section_title
;
Structure prediction by ZEFSAII (Michael W. Deem and Ramdas Pophale) SiO2 
 PCOD8058188
Probable space group: P 2/M
;
_chemical_formula_sum "Si O2"
_cell_formula_units_Z 32
_cell_length_a 14.421096
_cell_length_b 14.406515
_cell_length_c 9.132273
_cell_angle_alpha 90.000000
_cell_angle_beta 64.217932
_cell_angle_gamma 90.000000
_cell_volume 1708.433488
_symmetry_space_group_name_H-M "P 2/M"
_symmetry_group_IT_number 10
_symmetry_cell_setting 'monoclinic'
loop_
_space_group_symop_operation_xyz
x,y,z
-x,y,-z
-x,-y,-z
x,-y,z
loop_
_atom_site_type_symbol
_atom_site_label
_atom_site_fract_x
_atom_site_fract_y
_atom_site_fract_z
Si Si1 0.703469 0.604994 0.706107
Si Si2 0.989488 0.213130 0.671560
Si Si3 0.100992 0.103953 0.833007
Si Si4 0.492419 0.606158 0.341041
Si Si5 0.401687 0.275483 0.978332
Si Si6 0.797645 0.216345 0.998132
Si Si7 0.119361 0.395369 0.918954
Si Si8 0.102458 0.394959 0.604306
O O1 0.709361 0.500000 0.756400
O O2 0.625741 0.614427 0.624108
O O3 0.814675 0.638647 0.573028
O O4 0.666962 0.662619 0.868468
O O5 0.079998 0.163711 0.702079
O O6 0.006191 0.324806 0.662382
O O7 0.000000 0.174084 0.500000
O O8 0.877790 0.188652 0.814782
O O9 0.190084 0.152287 0.867224
O O10 0.135539 0.000000 0.765705
O O11 0.000000 0.101825 0.000000
O O12 0.500000 0.646234 0.500000
O O13 0.531986 0.500000 0.307999
O O14 0.562658 0.665042 0.184083
O O15 0.319815 0.199013 0.977044
O O16 0.500000 0.233231 0.000000
O O17 0.814554 0.324509 0.029376
O O18 0.129696 0.500000 0.976771
O O19 0.157505 0.392484 0.725101
O O20 0.000000 0.362906 0.000000
O O21 0.062650 0.500000 0.600955
#
# Coordination Sequence:
#
# PCOD8058188 Si02
#       8
#     4   4   4   4   4   4   4   4
#     4   9  18  32  46  64  98 142 179 216 262 303
#     4  11  21  33  52  82 114 142 170 210 254 310
#     4   9  19  37  58  79 105 134 169 211 259 317
#     4   9  18  30  45  66  91 128 182 230 261 295
#     4  10  21  35  50  70 100 135 177 226 271 313
#     4  11  20  35  55  77 102 142 181 213 260 311
#     4  10  18  30  48  73 105 141 181 218 250 300
#     4  10  19  31  47  72 110 145 178 212 247 302
#
# _framework density 18.730608
#
# number of rings (size 3 to 8) (size 9 to 14) (size 15 to 20)
#    0.000    2.125    2.500    1.500    1.750    3.000 
#    0.000    0.000    0.000    0.375    0.000    0.000 
#    0.000   14.500    0.000    0.000    0.000    0.250 
#
# Total GULP energy -396697.963552 kJ/mol
# GULP energy per Si atom -12396.811361 kJ/mol
# Density = 1.868798 g / cm^3
# Si number density = 18.730608 Si / 1000 Ang^3
#
#
#
# Elastic Constant Matrix: (Units=GPa)
#
#
# Indices 1 2 3 4 5 6 
#
# 1 113.4225 36.7142 36.7352 0.0000 8.5870 0.0000
# 2 36.7142 71.4071 20.8027 0.0000 4.1884 0.0000
# 3 36.7352 20.8027 97.3913 0.0000 15.0803 0.0000
# 4 0.0000 0.0000 0.0000 8.4302 0.0000 -0.4976
# 5 8.5870 4.1884 15.0803 0.0000 28.8023 0.0000
# 6 0.0000 0.0000 0.0000 -0.4976 0.0000 10.5746
#
#
#
# Elastic Compliance Matrix: (Units=1/GPa)
#
#
# Indices 1 2 3 4 5 6 
#
# 1 0.011509 -0.004946 -0.003117 0.000000 -0.001080 0.000000
# 2 -0.004946 0.017067 -0.001767 0.000000 -0.000082 0.000000
# 3 -0.003117 -0.001767 0.012664 0.000000 -0.005444 0.000000
# 4 0.000000 0.000000 0.000000 0.118951 0.000000 0.005598
# 5 -0.001080 -0.000082 -0.005444 0.000000 0.037904 0.000000
# 6 0.000000 0.000000 0.000000 0.005598 0.000000 0.094830
#
#
# Mechanical properties :
#
#
# Convention : Reuss Voigt Hill
#
# Bulk Modulus (GPa) = 46.34152 52.30280 49.32216
# Shear Modulus (GPa) = 15.63580 22.09267 18.86424
#
# Velocity S-wave (km/s) = 2.89238 3.43810 3.17698
# Velocity P-wave (km/s) = 5.99577 6.61401 6.31246
#
# Compressibility (1/GPa) = 0.02157892
#
# Stress axis : x y z
#
# Youngs Moduli (GPa) = 86.88879 58.59337 78.96260
#
# Poissons Ratio (x) = 0.28979 0.24616
# Poissons Ratio (y) = 0.42974 0.13954
# Poissons Ratio (z) = 0.27087 0.10355
#
# Static dielectric constant tensor:
#      x y z
#    x 3.469330 0.000000 0.139230 
#    y 0.000000 3.196890 0.000000 
#    z 0.139230 0.000000 3.592910 
# 
# 
# High freq. dielectric constant tensor:
#      x y z
#    x 1.718270 0.000000 0.016520 
#    y 0.000000 1.677680 0.000000 
#    z 0.016520 0.000000 1.733330 
# 
# From -- ./inp_files/29465.got.cif
#   From: 2010.06.25/outbox.cif.g09.slc.cpg/sg10_15_cif.got.tgz:29465.got - 2010.06.27 22:07:45.
