data_PCOD8058168
_publ_section_title
;
Structure prediction by ZEFSAII (Michael W. Deem and Ramdas Pophale) SiO2 
 PCOD8058168
Probable space group: P 2/M
;
_chemical_formula_sum "Si O2"
_cell_formula_units_Z 24
_cell_length_a 16.232617
_cell_length_b 9.353697
_cell_length_c 22.300476
_cell_angle_alpha 90.000000
_cell_angle_beta 24.103881
_cell_angle_gamma 90.000000
_cell_volume 1382.813174
_symmetry_space_group_name_H-M "P 2/M"
_symmetry_group_IT_number 10
_symmetry_cell_setting 'monoclinic'
loop_
_space_group_symop_operation_xyz
x,y,z
-x,y,-z
-x,-y,-z
x,-y,z
loop_
_atom_site_type_symbol
_atom_site_label
_atom_site_fract_x
_atom_site_fract_y
_atom_site_fract_z
Si Si1 0.892519 0.836790 0.350756
Si Si2 0.162237 0.831382 0.058674
Si Si3 0.933935 0.335886 0.111984
Si Si4 0.180121 0.340036 0.229820
Si Si5 0.532890 0.338057 0.075048
Si Si6 0.455637 0.165118 0.597801
O O1 0.655040 0.807551 0.504668
O O2 0.982101 0.753922 0.348683
O O3 0.942530 0.000000 0.330070
O O4 0.995677 0.792172 0.219445
O O5 0.381815 0.769999 0.931535
O O6 0.180119 0.000000 0.035545
O O7 0.095426 0.753638 0.042610
O O8 0.928052 0.500000 0.138247
O O9 0.713361 0.268094 0.264052
O O10 0.000000 0.326246 0.000000
O O11 0.104185 0.500000 0.292018
O O12 0.309308 0.287720 0.201981
O O13 0.322189 0.333367 0.078041
O O14 0.524598 0.500000 0.106042
O O15 0.500000 0.205788 0.500000
O O16 0.384336 0.000000 0.649209
#
# Coordination Sequence:
#
# PCOD8058168 Si02
#       6
#     4   4   4   4   4   4
#     4   9  17  28  45  70  99 127 159 203 245 288
#     4  10  18  30  48  70  96 129 166 204 248 296
#     4  11  24  38  51  72 101 132 170 212 250 296
#     4   8  14  24  39  62  95 130 161 195 238 290
#     4   8  14  25  40  62  94 129 162 198 240 287
#     4  10  19  35  54  74 101 131 167 208 250 299
#
# _framework density 17.355922
#
# number of rings (size 3 to 8) (size 9 to 14) (size 15 to 20)
#    0.000    2.667    1.667    2.000    0.000    3.667 
#    0.000    3.333    0.000    0.000    0.000    1.167 
#    0.000    9.333    0.000    0.000    0.000    0.000 
#
# Total GULP energy -297508.078854 kJ/mol
# GULP energy per Si atom -12396.169952 kJ/mol
# Density = 1.731642 g / cm^3
# Si number density = 17.355922 Si / 1000 Ang^3
#
#
#
# Elastic Constant Matrix: (Units=GPa)
#
#
# Indices 1 2 3 4 5 6 
#
# 1 107.7316 69.2048 39.9200 0.0000 -30.9544 0.0000
# 2 69.2048 107.0911 41.1121 0.0000 -15.4592 0.0000
# 3 39.9200 41.1121 49.6139 0.0000 -11.1587 0.0000
# 4 0.0000 0.0000 0.0000 10.8194 0.0000 -12.3653
# 5 -30.9544 -15.4592 -11.1587 0.0000 21.9795 0.0000
# 6 0.0000 0.0000 0.0000 -12.3653 0.0000 33.6037
#
#
#
# Elastic Compliance Matrix: (Units=1/GPa)
#
#
# Indices 1 2 3 4 5 6 
#
# 1 0.025723 -0.010541 -0.006188 0.000000 0.025670 0.000000
# 2 -0.010541 0.018396 -0.008118 0.000000 -0.006028 0.000000
# 3 -0.006188 -0.008118 0.032306 0.000000 0.001976 0.000000
# 4 0.000000 0.000000 0.000000 0.159507 0.000000 0.058694
# 5 0.025670 -0.006028 0.001976 0.000000 0.078413 0.000000
# 6 0.000000 0.000000 0.000000 0.058694 0.000000 0.051357
#
#
# Mechanical properties :
#
#
# Convention : Reuss Voigt Hill
#
# Bulk Modulus (GPa) = 37.41127 62.76780 50.08954
# Shear Modulus (GPa) = 11.78394 20.89383 16.33889
#
# Velocity S-wave (km/s) = 2.60851 3.47341 3.07155
# Velocity P-wave (km/s) = 5.53846 7.23393 6.44221
#
# Compressibility (1/GPa) = 0.02672991
#
# Stress axis : x y z
#
# Youngs Moduli (GPa) = 38.87603 54.35936 30.95377
#
# Poissons Ratio (x) = 0.57302 0.19156
# Poissons Ratio (y) = 0.40980 0.25128
# Poissons Ratio (z) = 0.24058 0.44128
#
# Static dielectric constant tensor:
#      x y z
#    x 3.417620 0.000000 -0.453640 
#    y 0.000000 3.344840 0.000000 
#    z -0.453640 0.000000 3.123540 
# 
# 
# High freq. dielectric constant tensor:
#      x y z
#    x 1.670210 0.000000 -0.037980 
#    y 0.000000 1.673820 0.000000 
#    z -0.037980 0.000000 1.624420 
# 
# From -- ./inp_files/33947.got.cif
#   From: 2010.06.25/outbox.cif.g09.slc.cpg/sg10_17_cif.got.tgz:33947.got - 2010.06.27 22:07:45.
