data_PCOD8058811
_publ_section_title
;
Structure prediction by ZEFSAII (Michael W. Deem and Ramdas Pophale) SiO2 
 PCOD8058811
Probable space group: P 2/M
;
_chemical_formula_sum "Si O2"
_cell_formula_units_Z 32
_cell_length_a 12.758532
_cell_length_b 8.714031
_cell_length_c 33.427499
_cell_angle_alpha 90.000000
_cell_angle_beta 153.383547
_cell_angle_gamma 90.000000
_cell_volume 1665.010802
_symmetry_space_group_name_H-M "P 2/M"
_symmetry_group_IT_number 10
_symmetry_cell_setting 'monoclinic'
loop_
_space_group_symop_operation_xyz
x,y,z
-x,y,-z
-x,-y,-z
x,-y,z
loop_
_atom_site_type_symbol
_atom_site_label
_atom_site_fract_x
_atom_site_fract_y
_atom_site_fract_z
Si Si1 0.355043 0.316846 0.776733
Si Si2 0.030250 0.674014 0.413592
Si Si3 0.698477 0.178878 0.833994
Si Si4 0.896831 0.318112 0.073855
Si Si5 0.460877 0.317739 0.604356
Si Si6 0.617179 0.682365 0.123518
Si Si7 0.024765 0.682962 0.206125
Si Si8 0.639198 0.325593 0.341712
O O1 0.359047 0.500000 0.774803
O O2 0.126684 0.248520 0.675018
O O3 0.593494 0.256997 0.837974
O O4 0.342475 0.257046 0.817712
O O5 0.070806 0.500000 0.413893
O O6 0.895283 0.681812 0.409860
O O7 0.287086 0.749677 0.510167
O O8 0.534100 0.212575 0.740261
O O9 0.954429 0.245384 0.911445
O O10 0.718936 0.000000 0.849011
O O11 0.912445 0.500000 0.075646
O O12 0.988508 0.259835 0.148304
O O13 0.630764 0.260618 0.977933
O O14 0.460660 0.500000 0.600284
O O15 0.726561 0.255452 0.691816
O O16 0.351084 0.270047 0.609424
O O17 0.627500 0.500000 0.126758
O O18 0.820724 0.750404 0.164686
O O19 0.018837 0.500000 0.204552
O O20 0.538234 0.500000 0.304242
#
# Coordination Sequence:
#
# PCOD8058811 Si02
#       8
#     4   4   4   4   4   4   4   4
#     4   9  18  34  51  69  98 133 167 198 235 284
#     4   8  14  23  41  68  99 131 161 190 230 286
#     4  11  21  32  49  74 102 128 158 201 249 291
#     4  10  18  32  53  75  98 126 160 199 248 295
#     4   9  14  22  42  74 102 126 156 194 239 286
#     4   9  18  31  50  73  96 127 167 207 239 279
#     4   9  16  27  47  77 104 122 156 206 247 281
#     4   9  15  27  46  70  99 131 162 192 236 290
#
# _framework density 19.219093999999998
#
# number of rings (size 3 to 8) (size 9 to 14) (size 15 to 20)
#    0.000    2.750    1.250    2.625    0.000    3.500 
#    0.000    3.750    0.000   12.000    0.000    0.000 
#    0.000    4.000    0.000    0.000    0.000    0.000 
#
# Total GULP energy -396545.454124 kJ/mol
# GULP energy per Si atom -12392.045441 kJ/mol
# Density = 1.917535 g / cm^3
# Si number density = 19.219094 Si / 1000 Ang^3
#
#
#
# Elastic Constant Matrix: (Units=GPa)
#
#
# Indices 1 2 3 4 5 6 
#
# 1 105.0643 13.4763 62.7136 0.0000 0.5345 0.0000
# 2 13.4763 24.8757 12.6405 0.0000 0.4447 0.0000
# 3 62.7136 12.6405 128.6921 0.0000 16.0934 0.0000
# 4 0.0000 0.0000 0.0000 4.6432 0.0000 -0.8929
# 5 0.5345 0.4447 16.0934 0.0000 23.5159 0.0000
# 6 0.0000 0.0000 0.0000 -0.8929 0.0000 3.6178
#
#
#
# Elastic Compliance Matrix: (Units=1/GPa)
#
#
# Indices 1 2 3 4 5 6 
#
# 1 0.014289 -0.004201 -0.007130 0.000000 0.004634 0.000000
# 2 -0.004201 0.043654 -0.002351 0.000000 0.000879 0.000000
# 3 -0.007130 -0.002351 0.012522 0.000000 -0.008363 0.000000
# 4 0.000000 0.000000 0.000000 0.226098 0.000000 0.055801
# 5 0.004634 0.000879 -0.008363 0.000000 0.048126 0.000000
# 6 0.000000 0.000000 0.000000 0.055801 0.000000 0.290179
#
#
# Mechanical properties :
#
#
# Convention : Reuss Voigt Hill
#
# Bulk Modulus (GPa) = 23.20068 48.47697 35.83883
# Shear Modulus (GPa) = 7.38989 17.67550 12.53270
#
# Velocity S-wave (km/s) = 1.96301 3.03592 2.55639
# Velocity P-wave (km/s) = 4.15160 6.12921 5.23464
#
# Compressibility (1/GPa) = 0.04310219
#
# Stress axis : x y z
#
# Youngs Moduli (GPa) = 69.98196 22.90717 79.85990
#
# Poissons Ratio (x) = 0.09623 0.56943
# Poissons Ratio (y) = 0.29398 0.18772
# Poissons Ratio (z) = 0.49900 0.05385
#
# Static dielectric constant tensor:
#      x y z
#    x 3.599290 0.000000 0.092520 
#    y 0.000000 2.820430 0.000000 
#    z 0.092520 0.000000 3.846830 
# 
# 
# High freq. dielectric constant tensor:
#      x y z
#    x 1.737610 0.000000 0.006160 
#    y 0.000000 1.673910 0.000000 
#    z 0.006160 0.000000 1.759820 
# 
# From -- ./inp_files/95091.got.cif
#   From: 2010.06.25/outbox.cif.g09.slc.cpg/sg10_48_cif.got.tgz:95091.got - 2010.06.27 22:07:45.
