data_PCOD8058927
_publ_section_title
;
Structure prediction by ZEFSAII (Michael W. Deem and Ramdas Pophale) SiO2 
 PCOD8058927
Probable space group: P 2/M
;
_chemical_formula_sum "Si O2"
_cell_formula_units_Z 32
_cell_length_a 19.620580
_cell_length_b 8.534455
_cell_length_c 14.369457
_cell_angle_alpha 90.000000
_cell_angle_beta 46.222292
_cell_angle_gamma 90.000000
_cell_volume 1737.332372
_symmetry_space_group_name_H-M "P 2/M"
_symmetry_group_IT_number 10
_symmetry_cell_setting 'monoclinic'
loop_
_space_group_symop_operation_xyz
x,y,z
-x,y,-z
-x,-y,-z
x,-y,z
loop_
_atom_site_type_symbol
_atom_site_label
_atom_site_fract_x
_atom_site_fract_y
_atom_site_fract_z
Si Si1 0.225580 0.816038 0.630151
Si Si2 0.397706 0.685625 0.123150
Si Si3 0.972464 0.682884 0.130325
Si Si4 0.298164 0.316894 0.034854
Si Si5 0.552519 0.183342 0.243261
Si Si6 0.301783 0.183456 0.748737
Si Si7 0.362551 0.684016 0.362960
Si Si8 0.153777 0.184136 0.039351
O O1 0.116677 0.780112 0.750344
O O2 0.287037 0.748186 0.659371
O O3 0.262408 0.728276 0.503145
O O4 0.239518 0.000000 0.602750
O O5 0.406716 0.500000 0.116407
O O6 0.319735 0.735669 0.120482
O O7 0.364716 0.747932 0.255095
O O8 0.500000 0.757943 0.000000
O O9 0.948654 0.500000 0.155830
O O10 0.056122 0.722875 0.123006
O O11 0.000000 0.737176 0.000000
O O12 0.276455 0.500000 0.048035
O O13 0.206021 0.222807 0.087264
O O14 0.392088 0.279759 0.887296
O O15 0.595688 0.223855 0.304790
O O16 0.443602 0.230738 0.346480
O O17 0.566247 0.000000 0.209483
O O18 0.285513 0.000000 0.757550
O O19 0.221279 0.249295 0.893678
O O20 0.379769 0.500000 0.349704
O O21 0.134236 0.000000 0.051343
#
# Coordination Sequence:
#
# PCOD8058927 Si02
#       8
#     4   4   4   4   4   4   4   4
#     4  11  22  38  56  77 108 149 186 223 274 330
#     4   9  17  33  56  79 106 144 184 221 277 333
#     4  11  22  36  57  86 112 140 183 231 268 311
#     4  10  18  32  55  82 109 141 180 227 273 322
#     4  10  19  33  51  77 108 145 185 223 268 324
#     4   8  17  32  51  73 105 146 182 212 257 323
#     4  11  22  37  54  77 109 146 186 231 274 325
#     4  10  19  34  55  82 112 144 177 219 274 326
#
# _framework density 18.419042000000001
#
# number of rings (size 3 to 8) (size 9 to 14) (size 15 to 20)
#    0.000    2.000    2.500    3.000    0.000    1.000 
#    0.000    7.500    0.000    0.750    0.000    5.250 
#    0.000    0.000    0.000    0.000    0.000    0.000 
#
# Total GULP energy -396779.636333 kJ/mol
# GULP energy per Si atom -12399.363635 kJ/mol
# Density = 1.837712 g / cm^3
# Si number density = 18.419042 Si / 1000 Ang^3
#
#
#
# Elastic Constant Matrix: (Units=GPa)
#
#
# Indices 1 2 3 4 5 6 
#
# 1 117.6536 21.3981 58.6256 0.0000 5.2536 0.0000
# 2 21.3981 39.3200 11.0439 0.0000 6.4265 0.0000
# 3 58.6256 11.0439 97.6452 0.0000 10.1268 0.0000
# 4 0.0000 0.0000 0.0000 24.8105 0.0000 -5.3872
# 5 5.2536 6.4265 10.1268 0.0000 23.6551 0.0000
# 6 0.0000 0.0000 0.0000 -5.3872 0.0000 26.8217
#
#
#
# Elastic Compliance Matrix: (Units=1/GPa)
#
#
# Indices 1 2 3 4 5 6 
#
# 1 0.013098 -0.005319 -0.007441 0.000000 0.001722 0.000000
# 2 -0.005319 0.029307 0.000609 0.000000 -0.007041 0.000000
# 3 -0.007441 0.000609 0.015158 0.000000 -0.005002 0.000000
# 4 0.000000 0.000000 0.000000 0.042143 0.000000 0.008465
# 5 0.001722 -0.007041 -0.005002 0.000000 0.045946 0.000000
# 6 0.000000 0.000000 0.000000 0.008465 0.000000 0.038983
#
#
# Mechanical properties :
#
#
# Convention : Reuss Voigt Hill
#
# Bulk Modulus (GPa) = 30.06480 48.52820 39.29650
# Shear Modulus (GPa) = 22.72471 25.96088 24.34279
#
# Velocity S-wave (km/s) = 3.51631 3.75835 3.63934
# Velocity P-wave (km/s) = 5.73097 6.72589 6.24826
#
# Compressibility (1/GPa) = 0.03326149
#
# Stress axis : x y z
#
# Youngs Moduli (GPa) = 76.34907 34.12169 65.96999
#
# Poissons Ratio (x) = 0.18150 0.49086
# Poissons Ratio (y) = 0.40613 -0.04019
# Poissons Ratio (z) = 0.56809 -0.02079
#
# Static dielectric constant tensor:
#      x y z
#    x 3.619960 0.000000 0.137340 
#    y 0.000000 3.183450 0.000000 
#    z 0.137340 0.000000 3.197820 
# 
# 
# High freq. dielectric constant tensor:
#      x y z
#    x 1.721000 0.000000 -0.000030 
#    y 0.000000 1.704320 0.000000 
#    z -0.000030 0.000000 1.685200 
# 
# From -- ./inp_files/70009.got.cif
#   From: 2010.06.25/outbox.cif.g09.slc.cpg/sg10_36_cif.got.tgz:70009.got - 2010.06.27 22:07:45.
