data_PCOD8058990
_publ_section_title
;
Structure prediction by ZEFSAII (Michael W. Deem and Ramdas Pophale) SiO2 
 PCOD8058990
Probable space group: P 2/M
;
_chemical_formula_sum "Si O2"
_cell_formula_units_Z 32
_cell_length_a 13.971044
_cell_length_b 18.499328
_cell_length_c 14.355941
_cell_angle_alpha 90.000000
_cell_angle_beta 149.300737
_cell_angle_gamma 90.000000
_cell_volume 1894.258852
_symmetry_space_group_name_H-M "P 2/M"
_symmetry_group_IT_number 10
_symmetry_cell_setting 'monoclinic'
loop_
_space_group_symop_operation_xyz
x,y,z
-x,y,-z
-x,-y,-z
x,-y,z
loop_
_atom_site_type_symbol
_atom_site_label
_atom_site_fract_x
_atom_site_fract_y
_atom_site_fract_z
Si Si1 0.709240 0.693722 0.812560
Si Si2 0.585300 0.580066 0.469423
Si Si3 0.892557 0.082586 0.502226
Si Si4 0.209611 0.084179 0.019464
Si Si5 0.884106 0.164432 0.672588
Si Si6 0.527586 0.158562 0.632750
Si Si7 0.104432 0.314822 0.229878
Si Si8 0.516671 0.082979 0.911185
O O1 0.560937 0.630013 0.708691
O O2 0.602241 0.768148 0.745136
O O3 0.778947 0.703689 0.765116
O O4 0.884804 0.674320 0.025503
O O5 0.500000 0.573463 0.500000
O O6 0.598433 0.500000 0.435319
O O7 0.795999 0.613771 0.644509
O O8 0.965863 0.137957 0.642020
O O9 0.673738 0.092186 0.303936
O O10 0.000000 0.105355 0.500000
O O11 0.942647 0.000000 0.572919
O O12 0.324888 0.097356 0.211815
O O13 0.323721 0.114212 0.024195
O O14 0.163985 0.000000 0.973951
O O15 0.014960 0.128897 0.862082
O O16 0.674076 0.133931 0.499041
O O17 0.876932 0.250553 0.679820
O O18 0.500000 0.167670 0.500000
O O19 0.568384 0.000000 0.972447
O O20 0.500000 0.120815 0.000000
#
# Coordination Sequence:
#
# PCOD8058990 Si02
#       8
#     4   4   4   4   4   4   4   4
#     4  10  18  33  50  71  98 139 174 206 249 302
#     4   9  17  30  48  75 105 132 166 207 246 294
#     4  10  20  34  53  76 100 129 167 215 273 325
#     4  11  24  37  50  72  97 127 174 227 269 307
#     4  12  21  34  56  75  98 134 174 218 258 318
#     4  12  22  36  55  69  96 137 181 216 261 309
#     4  10  19  30  52  73  98 135 175 204 248 302
#     4   9  17  32  51  70  94 121 154 205 266 323
#
# _framework density 16.893149999999999
#
# number of rings (size 3 to 8) (size 9 to 14) (size 15 to 20)
#    0.000    1.625    5.000    1.500    0.000    3.750 
#    0.000    3.125    0.000    0.000    0.000    0.000 
#    0.000    0.500    0.000    1.125    0.000    0.125 
#
# Total GULP energy -396590.460739 kJ/mol
# GULP energy per Si atom -12393.451898 kJ/mol
# Density = 1.685470 g / cm^3
# Si number density = 16.893150 Si / 1000 Ang^3
#
#
#
# Elastic Constant Matrix: (Units=GPa)
#
#
# Indices 1 2 3 4 5 6 
#
# 1 36.9055 30.6923 31.9405 0.0000 2.3684 0.0000
# 2 30.6923 86.5628 38.4299 0.0000 2.5611 0.0000
# 3 31.9405 38.4299 112.7315 0.0000 12.8042 0.0000
# 4 0.0000 0.0000 0.0000 23.3167 0.0000 5.1374
# 5 2.3684 2.5611 12.8042 0.0000 26.0958 0.0000
# 6 0.0000 0.0000 0.0000 5.1374 0.0000 9.7033
#
#
#
# Elastic Compliance Matrix: (Units=1/GPa)
#
#
# Indices 1 2 3 4 5 6 
#
# 1 0.044459 -0.011951 -0.008681 0.000000 0.001398 0.000000
# 2 -0.011951 0.016849 -0.002429 0.000000 0.000623 0.000000
# 3 -0.008681 -0.002429 0.012752 0.000000 -0.005231 0.000000
# 4 0.000000 0.000000 0.000000 0.048551 0.000000 -0.025705
# 5 0.001398 0.000623 -0.005231 0.000000 0.040699 0.000000
# 6 0.000000 0.000000 0.000000 -0.025705 0.000000 0.116667
#
#
# Mechanical properties :
#
#
# Convention : Reuss Voigt Hill
#
# Bulk Modulus (GPa) = 35.79221 48.70282 42.24751
# Shear Modulus (GPa) = 14.90701 20.83231 17.86966
#
# Velocity S-wave (km/s) = 2.97379 3.51548 3.25592
# Velocity P-wave (km/s) = 5.74671 6.73577 6.26080
#
# Compressibility (1/GPa) = 0.02793904
#
# Stress axis : x y z
#
# Youngs Moduli (GPa) = 22.49273 59.34917 78.41668
#
# Poissons Ratio (x) = 0.70927 0.68076
# Poissons Ratio (y) = 0.26881 0.19044
# Poissons Ratio (z) = 0.19527 0.14413
#
# Static dielectric constant tensor:
#      x y z
#    x 3.015230 0.000000 0.160030 
#    y 0.000000 3.059840 0.000000 
#    z 0.160030 0.000000 3.449370 
# 
# 
# High freq. dielectric constant tensor:
#      x y z
#    x 1.613160 0.000000 0.016930 
#    y 0.000000 1.619110 0.000000 
#    z 0.016930 0.000000 1.677240 
# 
# From -- ./inp_files/67744.got.cif
#   From: 2010.06.25/outbox.cif.g09.slc.cpg/sg10_34_cif.got.tgz:67744.got - 2010.06.27 22:07:45.
