data_PCOD8058215
_publ_section_title
;
Structure prediction by ZEFSAII (Michael W. Deem and Ramdas Pophale) SiO2 
 PCOD8058215
Probable space group: P 2/M
;
_chemical_formula_sum "Si O2"
_cell_formula_units_Z 32
_cell_length_a 11.657461
_cell_length_b 9.153959
_cell_length_c 21.434389
_cell_angle_alpha 90.000000
_cell_angle_beta 127.005961
_cell_angle_gamma 90.000000
_cell_volume 1826.579616
_symmetry_space_group_name_H-M "P 2/M"
_symmetry_group_IT_number 10
_symmetry_cell_setting 'monoclinic'
loop_
_space_group_symop_operation_xyz
x,y,z
-x,y,-z
-x,-y,-z
x,-y,z
loop_
_atom_site_type_symbol
_atom_site_label
_atom_site_fract_x
_atom_site_fract_y
_atom_site_fract_z
Si Si1 0.851301 0.171165 0.701112
Si Si2 0.245007 0.661494 0.673076
Si Si3 0.555185 0.325698 0.083767
Si Si4 0.564451 0.661742 0.830243
Si Si5 0.661635 0.828026 0.408875
Si Si6 0.662638 0.672727 0.536499
Si Si7 0.355899 0.167551 0.256478
Si Si8 0.136319 0.328072 0.769117
O O1 0.765918 0.261714 0.622009
O O2 0.780959 0.199761 0.745516
O O3 0.011932 0.231156 0.758575
O O4 0.847973 0.000000 0.682946
O O5 0.203449 0.500000 0.634605
O O6 0.404742 0.656823 0.751565
O O7 0.232718 0.777220 0.612612
O O8 0.141531 0.706068 0.696532
O O9 0.551105 0.500000 0.083489
O O10 0.448184 0.269905 0.104031
O O11 0.718128 0.274776 0.149310
O O12 0.500000 0.261453 0.000000
O O13 0.631219 0.500000 0.854973
O O14 0.665493 0.753560 0.817056
O O15 0.707716 0.743847 0.485950
O O16 0.498788 0.780079 0.339570
O O17 0.677987 0.000000 0.424758
O O18 0.500000 0.715172 0.500000
O O19 0.685258 0.500000 0.540315
O O20 0.374241 0.000000 0.245757
O O21 0.108856 0.500000 0.771349
#
# Coordination Sequence:
#
# PCOD8058215 Si02
#       8
#     4   4   4   4   4   4   4   4
#     4  11  22  35  50  69  99 135 168 204 248 297
#     4   8  15  29  47  68  96 126 159 203 250 291
#     4   8  14  28  53  82 107 129 156 198 249 292
#     4   8  14  25  46  74  98 123 159 200 239 285
#     4  10  18  30  49  71  96 125 163 208 252 295
#     4  11  22  34  50  72  97 127 166 210 253 295
#     4   9  18  30  45  67  96 130 163 201 246 287
#     4   9  18  33  52  75 102 131 165 203 245 296
#
# _framework density 17.519082999999998
#
# number of rings (size 3 to 8) (size 9 to 14) (size 15 to 20)
#    0.000    2.750    1.250    2.625    0.000    2.500 
#    0.000    2.500    0.000    6.000    0.000    5.250 
#    0.000    0.000    0.000    0.000    0.000    0.000 
#
# Total GULP energy -396681.367282 kJ/mol
# GULP energy per Si atom -12396.292728 kJ/mol
# Density = 1.747921 g / cm^3
# Si number density = 17.519083 Si / 1000 Ang^3
#
#
#
# Elastic Constant Matrix: (Units=GPa)
#
#
# Indices 1 2 3 4 5 6 
#
# 1 101.7735 43.3523 47.2622 0.0000 -16.7185 0.0000
# 2 43.3523 64.3410 36.2944 0.0000 -11.6485 0.0000
# 3 47.2622 36.2944 84.6824 0.0000 -21.0194 0.0000
# 4 0.0000 0.0000 0.0000 11.0631 0.0000 0.9630
# 5 -16.7185 -11.6485 -21.0194 0.0000 27.7167 0.0000
# 6 0.0000 0.0000 0.0000 0.9630 0.0000 28.3661
#
#
#
# Elastic Compliance Matrix: (Units=1/GPa)
#
#
# Indices 1 2 3 4 5 6 
#
# 1 0.015665 -0.007274 -0.004975 0.000000 0.002619 0.000000
# 2 -0.007274 0.024007 -0.005930 0.000000 0.001204 0.000000
# 3 -0.004975 -0.005930 0.019419 0.000000 0.009233 0.000000
# 4 0.000000 0.000000 0.000000 0.090658 0.000000 -0.003078
# 5 0.002619 0.001204 0.009233 0.000000 0.045167 0.000000
# 6 0.000000 0.000000 0.000000 -0.003078 0.000000 0.035358
#
#
# Mechanical properties :
#
#
# Convention : Reuss Voigt Hill
#
# Bulk Modulus (GPa) = 43.99214 56.06829 50.03021
# Shear Modulus (GPa) = 18.23413 21.68839 19.96126
#
# Velocity S-wave (km/s) = 3.22967 3.52232 3.37916
# Velocity P-wave (km/s) = 6.25085 6.97251 6.62152
#
# Compressibility (1/GPa) = 0.02273134
#
# Stress axis : x y z
#
# Youngs Moduli (GPa) = 63.83704 41.65471 51.49589
#
# Poissons Ratio (x) = 0.30301 0.25619
# Poissons Ratio (y) = 0.46437 0.30539
# Poissons Ratio (z) = 0.31759 0.24703
#
# Static dielectric constant tensor:
#      x y z
#    x 3.434450 0.000000 -0.297850 
#    y 0.000000 3.200580 0.000000 
#    z -0.297850 0.000000 3.137960 
# 
# 
# High freq. dielectric constant tensor:
#      x y z
#    x 1.676700 0.000000 -0.024710 
#    y 0.000000 1.666300 0.000000 
#    z -0.024710 0.000000 1.645300 
# 
# From -- ./inp_files/54822.got.cif
#   From: 2010.06.25/outbox.cif.g09.slc.cpg/sg10_28_cif.got.tgz:54822.got - 2010.06.27 22:07:45.
