data_PCOD8058481
_publ_section_title
;
Structure prediction by ZEFSAII (Michael W. Deem and Ramdas Pophale) SiO2 
 PCOD8058481
Probable space group: P 2/M
;
_chemical_formula_sum "Si O2"
_cell_formula_units_Z 24
_cell_length_a 21.698953
_cell_length_b 8.935577
_cell_length_c 12.072000
_cell_angle_alpha 90.000000
_cell_angle_beta 141.987439
_cell_angle_gamma 90.000000
_cell_volume 1441.466066
_symmetry_space_group_name_H-M "P 2/M"
_symmetry_group_IT_number 10
_symmetry_cell_setting 'monoclinic'
loop_
_space_group_symop_operation_xyz
x,y,z
-x,y,-z
-x,-y,-z
x,-y,z
loop_
_atom_site_type_symbol
_atom_site_label
_atom_site_fract_x
_atom_site_fract_y
_atom_site_fract_z
Si Si1 0.721803 0.825107 0.748875
Si Si2 0.657726 0.172931 0.900602
Si Si3 0.532412 0.669711 0.419311
Si Si4 0.144146 0.823482 0.703394
Si Si5 0.991944 0.321790 0.654713
Si Si6 0.947397 0.825795 0.040957
O O1 0.706844 0.773684 0.854571
O O2 0.639764 0.747555 0.553273
O O3 0.706463 0.000000 0.713162
O O4 0.832046 0.775118 0.867220
O O5 0.554518 0.259145 0.780227
O O6 0.629874 0.000000 0.853859
O O7 0.737837 0.205431 0.110990
O O8 0.500000 0.691028 0.500000
O O9 0.544218 0.500000 0.399908
O O10 0.084118 0.753565 0.721176
O O11 0.111383 0.741323 0.543987
O O12 0.120728 0.000000 0.664829
O O13 0.996228 0.500000 0.648524
O O14 0.995971 0.273774 0.787990
O O15 0.954444 0.000000 0.085038
O O16 0.000000 0.792669 0.000000
#
# Coordination Sequence:
#
# PCOD8058481 Si02
#       6
#     4   4   4   4   4   4
#     4   9  16  29  45  64  90 121 157 195 232 272
#     4   9  16  27  45  67  91 122 155 190 231 276
#     4   9  17  26  39  63  93 123 151 184 230 284
#     4  10  18  31  50  69  94 127 163 195 233 283
#     4  11  21  31  45  69  99 127 157 195 243 286
#     4  10  20  35  53  70  91 126 169 204 234 274
#
# _framework density 16.649715
#
# number of rings (size 3 to 8) (size 9 to 14) (size 15 to 20)
#    0.000    2.333    1.667    3.500    0.000    4.333 
#    0.000    0.000    0.000    0.000    0.000    1.167 
#    0.000    9.333    0.000    0.000    0.000    0.000 
#
# Total GULP energy -297565.577165 kJ/mol
# GULP energy per Si atom -12398.565715 kJ/mol
# Density = 1.661182 g / cm^3
# Si number density = 16.649715 Si / 1000 Ang^3
#
#
#
# Elastic Constant Matrix: (Units=GPa)
#
#
# Indices 1 2 3 4 5 6 
#
# 1 57.1313 31.1844 48.6836 0.0000 6.2106 0.0000
# 2 31.1844 87.4824 62.2591 0.0000 1.3967 0.0000
# 3 48.6836 62.2591 147.2724 0.0000 17.3671 0.0000
# 4 0.0000 0.0000 0.0000 16.6199 0.0000 -4.1338
# 5 6.2106 1.3967 17.3671 0.0000 20.4734 0.0000
# 6 0.0000 0.0000 0.0000 -4.1338 0.0000 10.0235
#
#
#
# Elastic Compliance Matrix: (Units=1/GPa)
#
#
# Indices 1 2 3 4 5 6 
#
# 1 0.025593 -0.004646 -0.006242 0.000000 -0.002151 0.000000
# 2 -0.004646 0.017723 -0.006645 0.000000 0.005837 0.000000
# 3 -0.006242 -0.006645 0.012652 0.000000 -0.008385 0.000000
# 4 0.000000 0.000000 0.000000 0.067046 0.000000 0.027650
# 5 -0.002151 0.005837 -0.008385 0.000000 0.056211 0.000000
# 6 0.000000 0.000000 0.000000 0.027650 0.000000 0.111169
#
#
# Mechanical properties :
#
#
# Convention : Reuss Voigt Hill
#
# Bulk Modulus (GPa) = 47.84521 64.01557 55.93039
# Shear Modulus (GPa) = 15.04095 19.40730 17.22412
#
# Velocity S-wave (km/s) = 3.00888 3.41783 3.21985
# Velocity P-wave (km/s) = 6.39296 7.35577 6.89120
#
# Compressibility (1/GPa) = 0.02090074
#
# Stress axis : x y z
#
# Youngs Moduli (GPa) = 39.07362 56.42481 79.04199
#
# Poissons Ratio (x) = 0.26215 0.49341
# Poissons Ratio (y) = 0.18154 0.52521
# Poissons Ratio (z) = 0.24391 0.37493
#
# Static dielectric constant tensor:
#      x y z
#    x 2.678480 0.000000 0.169640 
#    y 0.000000 3.115070 0.000000 
#    z 0.169640 0.000000 3.365110 
# 
# 
# High freq. dielectric constant tensor:
#      x y z
#    x 1.578870 0.000000 0.019500 
#    y 0.000000 1.645970 0.000000 
#    z 0.019500 0.000000 1.654510 
# 
# From -- ./inp_files/48648.got.cif
#   From: 2010.06.25/outbox.cif.g09.slc.cpg/sg10_25_cif.got.tgz:48648.got - 2010.06.27 22:07:45.
