data_PCOD8058387
_publ_section_title
;
Structure prediction by ZEFSAII (Michael W. Deem and Ramdas Pophale) SiO2 
 PCOD8058387
Probable space group: P 2/M
;
_chemical_formula_sum "Si O2"
_cell_formula_units_Z 32
_cell_length_a 13.063617
_cell_length_b 9.244308
_cell_length_c 30.428406
_cell_angle_alpha 90.000000
_cell_angle_beta 152.594154
_cell_angle_gamma 90.000000
_cell_volume 1691.410161
_symmetry_space_group_name_H-M "P 2/M"
_symmetry_group_IT_number 10
_symmetry_cell_setting 'monoclinic'
loop_
_space_group_symop_operation_xyz
x,y,z
-x,y,-z
-x,-y,-z
x,-y,z
loop_
_atom_site_type_symbol
_atom_site_label
_atom_site_fract_x
_atom_site_fract_y
_atom_site_fract_z
Si Si1 0.966305 0.830575 0.394196
Si Si2 0.581551 0.331315 0.299315
Si Si3 0.281804 0.827799 0.940373
Si Si4 0.134748 0.827957 0.272353
Si Si5 0.560764 0.836402 0.907873
Si Si6 0.561483 0.167842 0.381935
Si Si7 0.247666 0.333063 0.096966
Si Si8 0.052704 0.164219 0.710684
O O1 0.787030 0.746266 0.354397
O O2 0.973449 0.763357 0.347464
O O3 0.203093 0.804220 0.506245
O O4 0.899942 0.000000 0.368474
O O5 0.639609 0.500000 0.326187
O O6 0.537381 0.263630 0.329706
O O7 0.354905 0.307627 0.185540
O O8 0.057560 0.765357 0.832998
O O9 0.288756 0.000000 0.939876
O O10 0.500000 0.762546 0.000000
O O11 0.288586 0.780828 0.994181
O O12 0.373953 0.781273 0.345116
O O13 0.100775 0.765724 0.309211
O O14 0.110601 0.000000 0.265260
O O15 0.594484 0.740645 0.878149
O O16 0.303833 0.825949 0.824158
O O17 0.623139 0.000000 0.919024
O O18 0.529747 0.000000 0.356992
O O19 0.237560 0.500000 0.080452
O O20 0.000000 0.265459 0.000000
O O21 0.975329 0.000000 0.674425
#
# Coordination Sequence:
#
# PCOD8058387 Si02
#       8
#     4   4   4   4   4   4   4   4
#     4  10  20  36  57  82 109 138 178 228 275 314
#     4  11  23  39  59  79 103 141 184 222 265 325
#     4   9  15  25  45  76 109 136 166 208 256 304
#     4   9  17  30  48  78 115 144 173 213 266 322
#     4  10  18  30  53  82 105 134 177 220 259 308
#     4  10  22  36  54  81 112 143 176 224 276 316
#     4  10  23  40  54  74 107 142 172 213 272 324
#     4   9  16  29  52  80 111 141 173 217 264 315
#
# _framework density 18.919125000000001
#
# number of rings (size 3 to 8) (size 9 to 14) (size 15 to 20)
#    0.000    2.250    2.500    0.750    1.750    3.250 
#    0.000    2.500    0.000    1.875    0.000    1.750 
#    0.000    0.000    0.000    0.000    0.000    0.000 
#
# Total GULP energy -396718.177903 kJ/mol
# GULP energy per Si atom -12397.443059 kJ/mol
# Density = 1.887606 g / cm^3
# Si number density = 18.919125 Si / 1000 Ang^3
#
#
#
# Elastic Constant Matrix: (Units=GPa)
#
#
# Indices 1 2 3 4 5 6 
#
# 1 143.6229 40.3190 44.7781 0.0000 -0.8278 0.0000
# 2 40.3190 41.7274 32.1428 0.0000 0.4929 0.0000
# 3 44.7781 32.1428 90.5838 0.0000 5.1097 0.0000
# 4 0.0000 0.0000 0.0000 17.9643 0.0000 -3.7019
# 5 -0.8278 0.4929 5.1097 0.0000 31.5421 0.0000
# 6 0.0000 0.0000 0.0000 -3.7019 0.0000 -8.0480
#
#
#
# Elastic Compliance Matrix: (Units=1/GPa)
#
#
# Indices 1 2 3 4 5 6 
#
# 1 0.009839 -0.007896 -0.002103 0.000000 0.000722 0.000000
# 2 -0.007896 0.039376 -0.010115 0.000000 0.000816 0.000000
# 3 -0.002103 -0.010115 0.015807 0.000000 -0.002458 0.000000
# 4 0.000000 0.000000 0.000000 0.050846 0.000000 -0.023388
# 5 0.000722 0.000816 -0.002458 0.000000 0.032108 0.000000
# 6 0.000000 0.000000 0.000000 -0.023388 0.000000 -0.113496
#
#
# Mechanical properties :
#
#
# Convention : Reuss Voigt Hill
#
# Bulk Modulus (GPa) = 40.33093 56.71267 48.52180
# Shear Modulus (GPa) = 60.26028 18.87127 39.56578
#
# Velocity S-wave (km/s) = 5.64984 3.16170 4.57805
# Velocity P-wave (km/s) = 7.99529 6.58558 7.32443
#
# Compressibility (1/GPa) = 0.02479487
#
# Stress axis : x y z
#
# Youngs Moduli (GPa) = 101.63683 25.39586 63.26345
#
# Poissons Ratio (x) = 0.20052 0.13302
# Poissons Ratio (y) = 0.80249 0.63993
# Poissons Ratio (z) = 0.21371 0.25689
#
# Static dielectric constant tensor:
#      x y z
#    x 3.615870 0.000000 -0.082620 
#    y 0.000000 3.034590 0.000000 
#    z -0.082620 0.000000 3.623100 
# 
# 
# High freq. dielectric constant tensor:
#      x y z
#    x 1.748020 0.000000 -0.007690 
#    y 0.000000 1.679690 0.000000 
#    z -0.007690 0.000000 1.744160 
# 
# From -- ./inp_files/95024.got.cif
#   From: 2010.06.25/outbox.cif.g09.slc.cpg/sg10_48_cif.got.tgz:95024.got - 2010.06.27 22:07:45.
