data_PCOD8058187
_publ_section_title
;
Structure prediction by ZEFSAII (Michael W. Deem and Ramdas Pophale) SiO2 
 PCOD8058187
Probable space group: P 2/M
;
_chemical_formula_sum "Si O2"
_cell_formula_units_Z 30
_cell_length_a 8.877973
_cell_length_b 14.868029
_cell_length_c 19.043159
_cell_angle_alpha 90.000000
_cell_angle_beta 39.052546
_cell_angle_gamma 90.000000
_cell_volume 1583.687196
_symmetry_space_group_name_H-M "P 2/M"
_symmetry_group_IT_number 10
_symmetry_cell_setting 'monoclinic'
loop_
_space_group_symop_operation_xyz
x,y,z
-x,y,-z
-x,-y,-z
x,-y,z
loop_
_atom_site_type_symbol
_atom_site_label
_atom_site_fract_x
_atom_site_fract_y
_atom_site_fract_z
Si Si1 0.213120 0.397678 0.204362
Si Si2 0.508781 0.285409 0.651868
Si Si3 0.337411 0.900870 0.430563
Si Si4 0.732775 0.603268 0.460726
Si Si5 0.165239 0.098129 0.334103
Si Si6 0.478376 0.743045 0.193797
Si Si7 0.000000 0.698304 0.000000
Si Si8 0.048077 0.603859 0.837680
O O1 0.291107 0.500000 0.191672
O O2 0.421556 0.333854 0.157579
O O3 0.967828 0.372828 0.332165
O O4 0.176099 0.383690 0.134056
O O5 0.477224 0.182697 0.633429
O O6 0.723902 0.335025 0.533253
O O7 0.589268 0.289515 0.703764
O O8 0.262127 0.336915 0.728987
O O9 0.244321 0.903521 0.385539
O O10 0.118645 0.880310 0.563529
O O11 0.450890 0.000000 0.407483
O O12 0.500000 0.627080 0.500000
O O13 0.731696 0.500000 0.484720
O O14 0.323547 0.168358 0.231763
O O15 0.209283 0.000000 0.284041
O O16 0.764694 0.761653 0.087883
O O17 0.978311 0.633969 0.940606
O O18 0.130886 0.500000 0.808092
#
# Coordination Sequence:
#
# PCOD8058187 Si02
#       8
#     4   4   4   4   4   4   2   4
#     4  10  21  34  51  76 105 135 172 211 255 313
#     4  10  18  30  52  75 105 142 173 209 251 302
#     4   8  14  25  46  77 107 136 169 204 251 307
#     4  10  18  30  48  73 103 138 173 204 246 308
#     4   8  14  28  50  75 105 136 166 207 255 309
#     4  10  21  35  51  78 104 130 176 222 263 307
#     4  10  23  38  55  74 100 132 173 230 275 304
#     4  10  20  36  54  74 100 139 181 217 260 307
#
# _framework density 18.943135999999999
#
# number of rings (size 3 to 8) (size 9 to 14) (size 15 to 20)
#    0.000    2.533    1.333    2.200    0.000    5.333 
#    0.000    3.000    0.000    2.000    0.000    0.933 
#    0.000    0.000    0.000    0.000    0.000    0.000 
#
# Total GULP energy -371814.753461 kJ/mol
# GULP energy per Si atom -12393.825115 kJ/mol
# Density = 1.890002 g / cm^3
# Si number density = 18.943136 Si / 1000 Ang^3
#
#
#
# Elastic Constant Matrix: (Units=GPa)
#
#
# Indices 1 2 3 4 5 6 
#
# 1 51.9001 33.0178 27.4343 0.0000 4.8066 0.0000
# 2 33.0178 117.0643 46.2867 0.0000 -0.1190 0.0000
# 3 27.4343 46.2867 73.7521 0.0000 4.1341 0.0000
# 4 0.0000 0.0000 0.0000 18.9926 0.0000 -10.3150
# 5 4.8066 -0.1190 4.1341 0.0000 23.2823 0.0000
# 6 0.0000 0.0000 0.0000 -10.3150 0.0000 11.9734
#
#
#
# Elastic Compliance Matrix: (Units=1/GPa)
#
#
# Indices 1 2 3 4 5 6 
#
# 1 0.026148 -0.004826 -0.006458 0.000000 -0.004276 0.000000
# 2 -0.004826 0.012294 -0.006040 0.000000 0.002132 0.000000
# 3 -0.006458 -0.006040 0.019877 0.000000 -0.002227 0.000000
# 4 0.000000 0.000000 0.000000 0.098948 0.000000 0.085242
# 5 -0.004276 0.002132 -0.002227 0.000000 0.044240 0.000000
# 6 0.000000 0.000000 0.000000 0.085242 0.000000 0.156954
#
#
# Mechanical properties :
#
#
# Convention : Reuss Voigt Hill
#
# Bulk Modulus (GPa) = 42.24664 50.68824 46.46744
# Shear Modulus (GPa) = 12.46892 19.91484 16.19188
#
# Velocity S-wave (km/s) = 2.56838 3.24589 2.92680
# Velocity P-wave (km/s) = 5.58083 6.39249 6.00040
#
# Compressibility (1/GPa) = 0.02367052
#
# Stress axis : x y z
#
# Youngs Moduli (GPa) = 38.24452 81.34235 50.31025
#
# Poissons Ratio (x) = 0.39254 0.32491
# Poissons Ratio (y) = 0.18456 0.30387
# Poissons Ratio (z) = 0.24699 0.49130
#
# Static dielectric constant tensor:
#      x y z
#    x 3.233510 0.000000 0.042080 
#    y 0.000000 3.800680 0.000000 
#    z 0.042080 0.000000 3.437000 
# 
# 
# High freq. dielectric constant tensor:
#      x y z
#    x 1.708160 0.000000 0.002450 
#    y 0.000000 1.732510 0.000000 
#    z 0.002450 0.000000 1.723190 
# 
# From -- ./inp_files/82758.got.cif
#   From: 2010.06.25/outbox.cif.g09.slc.cpg/sg10_42_cif.got.tgz:82758.got - 2010.06.27 22:07:45.
