data_PCOD8058273
_publ_section_title
;
Structure prediction by ZEFSAII (Michael W. Deem and Ramdas Pophale) SiO2 
 PCOD8058273
Probable space group: P 2/M
;
_chemical_formula_sum "Si O2"
_cell_formula_units_Z 32
_cell_length_a 11.655694
_cell_length_b 8.968690
_cell_length_c 21.134075
_cell_angle_alpha 90.000000
_cell_angle_beta 127.241935
_cell_angle_gamma 90.000000
_cell_volume 1758.778037
_symmetry_space_group_name_H-M "P 2/M"
_symmetry_group_IT_number 10
_symmetry_cell_setting 'monoclinic'
loop_
_space_group_symop_operation_xyz
x,y,z
-x,y,-z
-x,-y,-z
x,-y,z
loop_
_atom_site_type_symbol
_atom_site_label
_atom_site_fract_x
_atom_site_fract_y
_atom_site_fract_z
Si Si1 0.854192 0.174263 0.707706
Si Si2 0.240542 0.665353 0.675572
Si Si3 0.563116 0.171460 0.090342
Si Si4 0.558395 0.666668 0.838030
Si Si5 0.663372 0.826064 0.408322
Si Si6 0.661406 0.676530 0.537880
Si Si7 0.356346 0.171667 0.251053
Si Si8 0.144414 0.323570 0.777076
O O1 0.769165 0.259209 0.625110
O O2 0.780006 0.203965 0.750407
O O3 0.013757 0.239457 0.767190
O O4 0.857203 0.000000 0.692316
O O5 0.200559 0.500000 0.637754
O O6 0.399672 0.665530 0.756746
O O7 0.229544 0.779293 0.613260
O O8 0.137016 0.713038 0.699106
O O9 0.443115 0.235001 0.098826
O O10 0.709530 0.264972 0.142814
O O11 0.595331 0.000000 0.118321
O O12 0.500000 0.189096 0.000000
O O13 0.611316 0.500000 0.871915
O O14 0.664419 0.736187 0.820618
O O15 0.709446 0.737236 0.485884
O O16 0.500112 0.779938 0.336755
O O17 0.680138 0.000000 0.427048
O O18 0.500000 0.730835 0.500000
O O19 0.673743 0.500000 0.542152
O O20 0.369945 0.000000 0.236290
O O21 0.134994 0.500000 0.785372
#
# Coordination Sequence:
#
# PCOD8058273 Si02
#       8
#     4   4   4   4   4   4   4   4
#     4  11  22  36  54  76 106 143 180 221 267 318
#     4   8  16  31  49  71 100 133 170 213 262 313
#     4  10  20  35  58  86 113 141 173 211 257 309
#     4   9  17  29  50  79 108 137 172 216 260 305
#     4  10  18  30  50  74 100 131 174 225 270 313
#     4  11  22  34  50  73 103 139 179 225 272 316
#     4   9  18  31  49  74 104 139 177 218 264 312
#     4  10  21  37  56  80 109 141 176 215 261 317
#
# _framework density 18.19445
#
# number of rings (size 3 to 8) (size 9 to 14) (size 15 to 20)
#    0.000    2.250    1.250    3.000    0.000    6.500 
#    0.000    0.625    0.000    4.500    0.000    5.250 
#    0.000    0.000    0.000    0.000    0.000    0.000 
#
# Total GULP energy -396818.691424 kJ/mol
# GULP energy per Si atom -12400.584107 kJ/mol
# Density = 1.815304 g / cm^3
# Si number density = 18.194450 Si / 1000 Ang^3
#
#
#
# Elastic Constant Matrix: (Units=GPa)
#
#
# Indices 1 2 3 4 5 6 
#
# 1 92.2062 40.2858 29.6188 0.0000 -14.9098 0.0000
# 2 40.2858 88.2751 31.3891 0.0000 -15.8058 0.0000
# 3 29.6188 31.3891 54.1568 0.0000 -16.2163 0.0000
# 4 0.0000 0.0000 0.0000 24.6955 0.0000 -4.5813
# 5 -14.9098 -15.8058 -16.2163 0.0000 25.5374 0.0000
# 6 0.0000 0.0000 0.0000 -4.5813 0.0000 30.2826
#
#
#
# Elastic Compliance Matrix: (Units=1/GPa)
#
#
# Indices 1 2 3 4 5 6 
#
# 1 0.014790 -0.004615 -0.004549 0.000000 0.002890 0.000000
# 2 -0.004615 0.016125 -0.005730 0.000000 0.003647 0.000000
# 3 -0.004549 -0.005730 0.027680 0.000000 0.011375 0.000000
# 4 0.000000 0.000000 0.000000 0.041662 0.000000 0.006303
# 5 0.002890 0.003647 0.011375 0.000000 0.050326 0.000000
# 6 0.000000 0.000000 0.000000 0.006303 0.000000 0.033976
#
#
# Mechanical properties :
#
#
# Convention : Reuss Voigt Hill
#
# Bulk Modulus (GPa) = 34.71276 48.58058 41.64667
# Shear Modulus (GPa) = 22.32665 24.99273 23.65969
#
# Velocity S-wave (km/s) = 3.50682 3.71029 3.60999
# Velocity P-wave (km/s) = 5.95963 6.71668 6.34945
#
# Compressibility (1/GPa) = 0.02880785
#
# Stress axis : x y z
#
# Youngs Moduli (GPa) = 67.61345 62.01660 36.12780
#
# Poissons Ratio (x) = 0.28619 0.16433
# Poissons Ratio (y) = 0.31202 0.20701
# Poissons Ratio (z) = 0.30755 0.35535
#
# Static dielectric constant tensor:
#      x y z
#    x 3.601240 0.000000 -0.262060 
#    y 0.000000 3.516300 0.000000 
#    z -0.262060 0.000000 2.995640 
# 
# 
# High freq. dielectric constant tensor:
#      x y z
#    x 1.704300 0.000000 -0.024930 
#    y 0.000000 1.718780 0.000000 
#    z -0.024930 0.000000 1.667960 
# 
# From -- ./inp_files/55383.got.cif
#   From: 2010.06.25/outbox.cif.g09.slc.cpg/sg10_28_cif.got.tgz:55383.got - 2010.06.27 22:07:45.
