data_PCOD8058143
_publ_section_title
;
Structure prediction by ZEFSAII (Michael W. Deem and Ramdas Pophale) SiO2 
 PCOD8058143
Probable space group: P 2/M
;
_chemical_formula_sum "Si O2"
_cell_formula_units_Z 32
_cell_length_a 24.914258
_cell_length_b 8.919224
_cell_length_c 12.517042
_cell_angle_alpha 90.000000
_cell_angle_beta 131.410765
_cell_angle_gamma 90.000000
_cell_volume 2086.077127
_symmetry_space_group_name_H-M "P 2/M"
_symmetry_group_IT_number 10
_symmetry_cell_setting 'monoclinic'
loop_
_space_group_symop_operation_xyz
x,y,z
-x,y,-z
-x,-y,-z
x,-y,z
loop_
_atom_site_type_symbol
_atom_site_label
_atom_site_fract_x
_atom_site_fract_y
_atom_site_fract_z
Si Si1 0.586771 0.177186 0.444396
Si Si2 0.197483 0.667999 0.147834
Si Si3 0.804184 0.331307 0.617458
Si Si4 0.429942 0.824777 0.178304
Si Si5 0.423340 0.676718 0.944702
Si Si6 0.673638 0.822027 0.354009
Si Si7 0.918041 0.822908 0.888279
Si Si8 0.670362 0.175316 0.758885
O O1 0.504175 0.226499 0.330428
O O2 0.627209 0.238003 0.392783
O O3 0.621435 0.241679 0.598624
O O4 0.592979 0.000000 0.455502
O O5 0.181171 0.500000 0.085950
O O6 0.232814 0.666325 0.313382
O O7 0.122457 0.759835 0.058671
O O8 0.252272 0.745891 0.138566
O O9 0.816284 0.500000 0.590447
O O10 0.754112 0.241044 0.469844
O O11 0.881135 0.247935 0.733015
O O12 0.366718 0.790276 0.177627
O O13 0.432896 0.000000 0.150496
O O14 0.415650 0.724971 0.056551
O O15 0.413215 0.500000 0.920139
O O16 0.360645 0.759257 0.798650
O O17 0.500000 0.729053 0.000000
O O18 0.676645 0.000000 0.352559
O O19 0.909760 0.000000 0.873292
O O20 0.000000 0.771417 0.000000
O O21 0.682837 0.000000 0.758285
#
# Coordination Sequence:
#
# PCOD8058143 Si02
#       8
#     4   4   4   4   4   4   4   4
#     4   9  16  27  45  67  87 111 146 194 243 282
#     4   9  18  28  42  63  93 128 154 181 223 276
#     4   9  18  29  43  67  97 126 154 185 229 282
#     4  10  20  33  48  66  86 115 158 202 244 289
#     4  11  23  36  48  63  88 120 157 206 257 296
#     4  11  19  30  52  69  87 120 161 203 241 288
#     4   9  16  27  45  69  98 129 161 192 222 267
#     4  10  18  30  48  67  91 119 154 197 237 285
#
# _framework density 15.339798
#
# number of rings (size 3 to 8) (size 9 to 14) (size 15 to 20)
#    0.750    1.500    2.500    1.875    0.000    3.500 
#    0.000    0.625    0.000    1.500    0.000    0.000 
#    0.000    1.000    0.000   10.500    0.000    5.000 
#
# Total GULP energy -396643.475641 kJ/mol
# GULP energy per Si atom -12395.108614 kJ/mol
# Density = 1.530488 g / cm^3
# Si number density = 15.339798 Si / 1000 Ang^3
#
#
#
# Elastic Constant Matrix: (Units=GPa)
#
#
# Indices 1 2 3 4 5 6 
#
# 1 91.8412 42.8513 48.6586 0.0000 17.9755 0.0000
# 2 42.8513 76.3293 37.3368 0.0000 11.0849 0.0000
# 3 48.6586 37.3368 70.4402 0.0000 12.6799 0.0000
# 4 0.0000 0.0000 0.0000 19.3022 0.0000 -0.5454
# 5 17.9755 11.0849 12.6799 0.0000 28.0044 0.0000
# 6 0.0000 0.0000 0.0000 -0.5454 0.0000 17.4241
#
#
#
# Elastic Compliance Matrix: (Units=1/GPa)
#
#
# Indices 1 2 3 4 5 6 
#
# 1 0.019754 -0.005486 -0.009631 0.000000 -0.006147 0.000000
# 2 -0.005486 0.019445 -0.006277 0.000000 -0.001333 0.000000
# 3 -0.009631 -0.006277 0.024624 0.000000 -0.002482 0.000000
# 4 0.000000 0.000000 0.000000 0.051853 0.000000 0.001623
# 5 -0.006147 -0.001333 -0.002482 0.000000 0.041306 0.000000
# 6 0.000000 0.000000 0.000000 0.001623 0.000000 0.057443
#
#
# Mechanical properties :
#
#
# Convention : Reuss Voigt Hill
#
# Bulk Modulus (GPa) = 47.54262 55.14491 51.34377
# Shear Modulus (GPa) = 18.92328 20.26375 19.59352
#
# Velocity S-wave (km/s) = 3.51608 3.63849 3.57781
# Velocity P-wave (km/s) = 6.89522 7.32656 7.11416
#
# Compressibility (1/GPa) = 0.02103376
#
# Stress axis : x y z
#
# Youngs Moduli (GPa) = 50.62291 51.42673 40.61158
#
# Poissons Ratio (x) = 0.28213 0.39114
# Poissons Ratio (y) = 0.27772 0.25493
# Poissons Ratio (z) = 0.48756 0.32282
#
# Static dielectric constant tensor:
#      x y z
#    x 2.749240 0.000000 0.073950 
#    y 0.000000 2.863410 0.000000 
#    z 0.073950 0.000000 2.753070 
# 
# 
# High freq. dielectric constant tensor:
#      x y z
#    x 1.563190 0.000000 0.011340 
#    y 0.000000 1.590420 0.000000 
#    z 0.011340 0.000000 1.563110 
# 
# From -- ./inp_files/56297.got.cif
#   From: 2010.06.25/outbox.cif.g09.slc.cpg/sg10_29_cif.got.tgz:56297.got - 2010.06.27 22:07:45.
