data_PCOD8058789
_publ_section_title
;
Structure prediction by ZEFSAII (Michael W. Deem and Ramdas Pophale) SiO2 
 PCOD8058789
Probable space group: P 2/M
;
_chemical_formula_sum "Si O2"
_cell_formula_units_Z 28
_cell_length_a 28.111955
_cell_length_b 9.099149
_cell_length_c 9.570897
_cell_angle_alpha 90.000000
_cell_angle_beta 141.117667
_cell_angle_gamma 90.000000
_cell_volume 1536.783009
_symmetry_space_group_name_H-M "P 2/M"
_symmetry_group_IT_number 10
_symmetry_cell_setting 'monoclinic'
loop_
_space_group_symop_operation_xyz
x,y,z
-x,y,-z
-x,-y,-z
x,-y,z
loop_
_atom_site_type_symbol
_atom_site_label
_atom_site_fract_x
_atom_site_fract_y
_atom_site_fract_z
Si Si1 0.243452 0.826162 0.588987
Si Si2 0.916119 0.327891 0.278974
Si Si3 0.790657 0.326851 0.216231
Si Si4 0.684475 0.828752 0.770525
Si Si5 0.394402 0.330543 0.874714
Si Si6 0.560460 0.330874 0.334578
Si Si7 0.187946 0.829927 0.160296
O O1 0.196503 0.747101 0.604052
O O2 0.330170 0.773072 0.791116
O O3 0.203782 0.777994 0.353978
O O4 0.241787 0.000000 0.606125
O O5 0.918008 0.500000 0.256164
O O6 0.863883 0.286785 0.291421
O O7 0.000000 0.265985 0.500000
O O8 0.884242 0.256106 0.064754
O O9 0.779218 0.500000 0.206087
O O10 0.715429 0.258114 0.975337
O O11 0.600858 0.770442 0.542288
O O12 0.737696 0.794323 0.759898
O O13 0.681074 0.000000 0.799480
O O14 0.368733 0.500000 0.826600
O O15 0.410036 0.286483 0.750925
O O16 0.470477 0.304457 0.138638
O O17 0.580355 0.500000 0.410763
O O18 0.167487 0.000000 0.107042
#
# Coordination Sequence:
#
# PCOD8058789 Si02
#       7
#     4   4   4   4   4   4   4
#     4  11  21  35  52  77 110 141 176 217 259 311
#     4   9  19  37  60  84 106 131 170 215 255 303
#     4  10  21  36  55  78 105 139 173 212 264 315
#     4  10  18  32  52  76 104 137 178 222 262 308
#     4   9  18  31  49  74 105 140 177 219 265 309
#     4   9  17  30  49  75 104 136 178 223 264 309
#     4   9  19  33  52  79 107 138 174 209 253 309
#
# _framework density 18.219878999999999
#
# number of rings (size 3 to 8) (size 9 to 14) (size 15 to 20)
#    0.000    2.429    1.429    2.143    0.000    3.143 
#    0.000    2.857    0.000    8.571    0.000    0.000 
#    0.000    0.000    0.000    0.000    0.000    0.000 
#
# Total GULP energy -347264.493554 kJ/mol
# GULP energy per Si atom -12402.303341 kJ/mol
# Density = 1.817841 g / cm^3
# Si number density = 18.219879 Si / 1000 Ang^3
#
#
#
# Elastic Constant Matrix: (Units=GPa)
#
#
# Indices 1 2 3 4 5 6 
#
# 1 71.0227 38.8712 52.8733 0.0000 -9.0933 0.0000
# 2 38.8712 74.8965 53.5144 0.0000 -4.1620 0.0000
# 3 52.8733 53.5144 129.4585 0.0000 0.6625 0.0000
# 4 0.0000 0.0000 0.0000 32.8218 0.0000 -4.7042
# 5 -9.0933 -4.1620 0.6625 0.0000 29.5668 0.0000
# 6 0.0000 0.0000 0.0000 -4.7042 0.0000 25.0466
#
#
#
# Elastic Compliance Matrix: (Units=1/GPa)
#
#
# Indices 1 2 3 4 5 6 
#
# 1 0.023931 -0.007169 -0.006844 0.000000 0.006504 0.000000
# 2 -0.007169 0.021338 -0.005897 0.000000 0.000931 0.000000
# 3 -0.006844 -0.005897 0.012974 0.000000 -0.003226 0.000000
# 4 0.000000 0.000000 0.000000 0.031310 0.000000 0.005881
# 5 0.006504 0.000931 -0.003226 0.000000 0.036025 0.000000
# 6 0.000000 0.000000 0.000000 0.005881 0.000000 0.041030
#
#
# Mechanical properties :
#
#
# Convention : Reuss Voigt Hill
#
# Bulk Modulus (GPa) = 54.28004 62.87727 58.57866
# Shear Modulus (GPa) = 23.52164 26.16162 24.84163
#
# Velocity S-wave (km/s) = 3.59693 3.79342 3.69648
# Velocity P-wave (km/s) = 6.86344 7.33293 7.10207
#
# Compressibility (1/GPa) = 0.01842298
#
# Stress axis : x y z
#
# Youngs Moduli (GPa) = 41.78619 46.86516 77.07754
#
# Poissons Ratio (x) = 0.33597 0.52751
# Poissons Ratio (y) = 0.29956 0.45455
# Poissons Ratio (z) = 0.28598 0.27638
#
# Static dielectric constant tensor:
#      x y z
#    x 3.197910 0.000000 -0.039280 
#    y 0.000000 3.287830 0.000000 
#    z -0.039280 0.000000 3.415290 
# 
# 
# High freq. dielectric constant tensor:
#      x y z
#    x 1.682200 0.000000 -0.004760 
#    y 0.000000 1.707650 0.000000 
#    z -0.004760 0.000000 1.707000 
# 
# From -- ./inp_files/31526.got.cif
#   From: 2010.06.25/outbox.cif.g09.slc.cpg/sg10_16_cif.got.tgz:31526.got - 2010.06.27 22:07:45.
