data_PCOD8058720
_publ_section_title
;
Structure prediction by ZEFSAII (Michael W. Deem and Ramdas Pophale) SiO2 
 PCOD8058720
Probable space group: P 2/M
;
_chemical_formula_sum "Si O2"
_cell_formula_units_Z 28
_cell_length_a 13.567938
_cell_length_b 8.759940
_cell_length_c 14.415619
_cell_angle_alpha 90.000000
_cell_angle_beta 77.326645
_cell_angle_gamma 90.000000
_cell_volume 1671.615523
_symmetry_space_group_name_H-M "P 2/M"
_symmetry_group_IT_number 10
_symmetry_cell_setting 'monoclinic'
loop_
_space_group_symop_operation_xyz
x,y,z
-x,y,-z
-x,-y,-z
x,-y,z
loop_
_atom_site_type_symbol
_atom_site_label
_atom_site_fract_x
_atom_site_fract_y
_atom_site_fract_z
Si Si1 0.418371 0.173901 0.900256
Si Si2 0.280292 0.320561 0.069157
Si Si3 0.584084 0.318854 0.600673
Si Si4 0.756167 0.172849 0.208553
Si Si5 0.634089 0.179462 0.778061
Si Si6 0.628014 0.818740 0.403208
Si Si7 0.888345 0.320037 0.037651
O O1 0.345579 0.193765 0.828362
O O2 0.527879 0.227606 0.845113
O O3 0.420069 0.000000 0.936101
O O4 0.382634 0.278694 0.992814
O O5 0.274426 0.500000 0.086311
O O6 0.279038 0.237137 0.169279
O O7 0.184870 0.258646 0.029006
O O8 0.574055 0.500000 0.599659
O O9 0.646149 0.265938 0.678032
O O10 0.473220 0.244798 0.623787
O O11 0.646232 0.260324 0.498404
O O12 0.725602 0.221260 0.319447
O O13 0.846131 0.274241 0.147730
O O14 0.795061 0.000000 0.197689
O O15 0.643335 0.000000 0.758847
O O16 0.615155 0.000000 0.416623
O O17 0.892378 0.500000 0.032478
O O18 0.000000 0.250107 0.000000
#
# Coordination Sequence:
#
# PCOD8058720 Si02
#       7
#     4   4   4   4   4   4   4
#     4   9  17  30  44  62  90 127 162 189 225 278
#     4  10  20  31  45  68  93 120 157 199 235 279
#     4  11  21  30  44  68  96 128 167 205 233 268
#     4   9  17  30  49  71  94 124 162 198 233 276
#     4  11  20  32  46  63  92 132 164 192 233 282
#     4  10  18  32  48  66  95 131 165 197 238 282
#     4   9  19  35  52  71  97 126 154 192 245 293
#
# _framework density 16.750264000000001
#
# number of rings (size 3 to 8) (size 9 to 14) (size 15 to 20)
#    0.000    2.143    1.429    3.857    0.000    4.857 
#    0.000    0.000    0.000    0.000    0.000    1.000 
#    0.000    8.000    0.000    0.000    0.000    0.000 
#
# Total GULP energy -347168.431819 kJ/mol
# GULP energy per Si atom -12398.872565 kJ/mol
# Density = 1.671214 g / cm^3
# Si number density = 16.750264 Si / 1000 Ang^3
#
#
#
# Elastic Constant Matrix: (Units=GPa)
#
#
# Indices 1 2 3 4 5 6 
#
# 1 60.4441 18.8973 47.5646 0.0000 -7.1814 0.0000
# 2 18.8973 62.8869 35.5078 0.0000 2.6755 0.0000
# 3 47.5646 35.5078 120.7408 0.0000 5.2087 0.0000
# 4 0.0000 0.0000 0.0000 21.8374 0.0000 2.9708
# 5 -7.1814 2.6755 5.2087 0.0000 19.3600 0.0000
# 6 0.0000 0.0000 0.0000 2.9708 0.0000 15.9796
#
#
#
# Elastic Compliance Matrix: (Units=1/GPa)
#
#
# Indices 1 2 3 4 5 6 
#
# 1 0.027261 -0.002843 -0.010478 0.000000 0.013324 0.000000
# 2 -0.002843 0.019389 -0.004473 0.000000 -0.002530 0.000000
# 3 -0.010478 -0.004473 0.014029 0.000000 -0.007043 0.000000
# 4 0.000000 0.000000 0.000000 0.046981 0.000000 -0.008734
# 5 0.013324 -0.002530 -0.007043 0.000000 0.058840 0.000000
# 6 0.000000 0.000000 0.000000 -0.008734 0.000000 0.064204
#
#
# Mechanical properties :
#
#
# Convention : Reuss Voigt Hill
#
# Bulk Modulus (GPa) = 39.85311 49.77903 44.81607
# Shear Modulus (GPa) = 18.20457 20.90888 19.55673
#
# Velocity S-wave (km/s) = 3.30028 3.53692 3.42065
# Velocity P-wave (km/s) = 6.19408 6.81635 6.51265
#
# Compressibility (1/GPa) = 0.02509214
#
# Stress axis : x y z
#
# Youngs Moduli (GPa) = 36.68180 51.57568 71.27953
#
# Poissons Ratio (x) = 0.14661 0.74688
# Poissons Ratio (y) = 0.10427 0.31883
# Poissons Ratio (z) = 0.38436 0.23070
#
# Static dielectric constant tensor:
#      x y z
#    x 2.978050 0.000000 0.064730 
#    y 0.000000 3.108740 0.000000 
#    z 0.064730 0.000000 3.361800 
# 
# 
# High freq. dielectric constant tensor:
#      x y z
#    x 1.596880 0.000000 0.007770 
#    y 0.000000 1.650230 0.000000 
#    z 0.007770 0.000000 1.650960 
# 
# From -- ./inp_files/65728.got.cif
#   From: 2010.06.25/outbox.cif.g09.slc.cpg/sg10_33_cif.got.tgz:65728.got - 2010.06.27 22:07:45.
