data_PCOD8058020
_publ_section_title
;
Structure prediction by ZEFSAII (Michael W. Deem and Ramdas Pophale) SiO2 
 PCOD8058020
Probable space group: P 2/M
;
_chemical_formula_sum "Si O2"
_cell_formula_units_Z 28
_cell_length_a 14.111839
_cell_length_b 13.866632
_cell_length_c 8.795603
_cell_angle_alpha 90.000000
_cell_angle_beta 59.633235
_cell_angle_gamma 90.000000
_cell_volume 1485.025493
_symmetry_space_group_name_H-M "P 2/M"
_symmetry_group_IT_number 10
_symmetry_cell_setting 'monoclinic'
loop_
_space_group_symop_operation_xyz
x,y,z
-x,y,-z
-x,-y,-z
x,-y,z
loop_
_atom_site_type_symbol
_atom_site_label
_atom_site_fract_x
_atom_site_fract_y
_atom_site_fract_z
Si Si1 0.959698 0.394246 0.252197
Si Si2 0.277402 0.890656 0.843006
Si Si3 0.261776 0.391721 0.733412
Si Si4 0.881162 0.263163 0.558228
Si Si5 0.302216 0.209407 0.512899
Si Si6 0.492338 0.889235 0.182880
Si Si7 0.826497 0.716230 0.934293
O O1 0.013085 0.500000 0.225467
O O2 0.867087 0.395651 0.199199
O O3 0.907789 0.365257 0.456834
O O4 0.050551 0.317617 0.128390
O O5 0.289475 0.868733 0.655359
O O6 0.391605 0.870287 0.833833
O O7 0.239244 0.000000 0.895699
O O8 0.184034 0.824948 0.995077
O O9 0.313821 0.500000 0.680895
O O10 0.320487 0.317140 0.569423
O O11 0.264379 0.350516 0.904722
O O12 0.807177 0.200796 0.502471
O O13 0.808856 0.285172 0.766930
O O14 0.000000 0.212093 0.500000
O O15 0.407251 0.184042 0.327626
O O16 0.454106 0.000000 0.237295
O O17 0.500000 0.863510 0.000000
#
# Coordination Sequence:
#
# PCOD8058020 Si02
#       7
#     4   4   4   4   4   4   4
#     4   9  17  30  50  76 105 138 178 219 257 303
#     4  10  21  36  55  79 103 133 175 217 261 314
#     4   9  18  31  50  76 104 138 177 214 256 308
#     4   9  19  32  49  75 108 141 175 214 260 305
#     4  10  19  34  56  77 106 139 172 216 263 309
#     4  10  20  35  59  86 105 127 168 220 268 312
#     4  10  18  29  50  74 103 134 168 214 261 301
#
# _framework density 18.854894000000002
#
# number of rings (size 3 to 8) (size 9 to 14) (size 15 to 20)
#    0.000    2.429    0.000    2.571    0.000    6.571 
#    0.000    0.714    0.000   48.857    0.000    0.000 
#    0.000    0.000    0.000    0.000    0.000    0.000 
#
# Total GULP energy -347025.404602 kJ/mol
# GULP energy per Si atom -12393.764450 kJ/mol
# Density = 1.881198 g / cm^3
# Si number density = 18.854894 Si / 1000 Ang^3
#
#
#
# Elastic Constant Matrix: (Units=GPa)
#
#
# Indices 1 2 3 4 5 6 
#
# 1 73.5926 42.6311 42.5239 0.0000 15.5648 0.0000
# 2 42.6311 138.8626 70.1610 0.0000 -9.2181 0.0000
# 3 42.5239 70.1610 139.6735 0.0000 15.8156 0.0000
# 4 0.0000 0.0000 0.0000 26.5602 0.0000 -7.5219
# 5 15.5648 -9.2181 15.8156 0.0000 29.4947 0.0000
# 6 0.0000 0.0000 0.0000 -7.5219 0.0000 17.6389
#
#
#
# Elastic Compliance Matrix: (Units=1/GPa)
#
#
# Indices 1 2 3 4 5 6 
#
# 1 0.020796 -0.006246 -0.001842 0.000000 -0.011939 0.000000
# 2 -0.006246 0.012630 -0.005603 0.000000 0.010248 0.000000
# 3 -0.001842 -0.005603 0.011310 0.000000 -0.006844 0.000000
# 4 0.000000 0.000000 0.000000 0.042822 0.000000 0.018261
# 5 -0.011939 0.010248 -0.006844 0.000000 0.047077 0.000000
# 6 0.000000 0.000000 0.000000 0.018261 0.000000 0.064480
#
#
# Mechanical properties :
#
#
# Convention : Reuss Voigt Hill
#
# Bulk Modulus (GPa) = 57.62541 73.64008 65.63275
# Shear Modulus (GPa) = 21.52544 27.85960 24.69252
#
# Velocity S-wave (km/s) = 3.38248 3.84810 3.62278
# Velocity P-wave (km/s) = 6.77376 7.67365 7.23770
#
# Compressibility (1/GPa) = 0.01735346
#
# Stress axis : x y z
#
# Youngs Moduli (GPa) = 48.08589 79.17420 88.41832
#
# Poissons Ratio (x) = 0.49455 0.16285
# Poissons Ratio (y) = 0.30036 0.49543
# Poissons Ratio (z) = 0.08857 0.44363
#
# Static dielectric constant tensor:
#      x y z
#    x 3.426380 0.000000 0.247320 
#    y 0.000000 3.508660 0.000000 
#    z 0.247320 0.000000 3.525410 
# 
# 
# High freq. dielectric constant tensor:
#      x y z
#    x 1.715510 0.000000 0.023450 
#    y 0.000000 1.719390 0.000000 
#    z 0.023450 0.000000 1.740600 
# 
# From -- ./inp_files/29421.got.cif
#   From: 2010.06.25/outbox.cif.g09.slc.cpg/sg10_15_cif.got.tgz:29421.got - 2010.06.27 22:07:45.
