data_PCOD8058969
_publ_section_title
;
Structure prediction by ZEFSAII (Michael W. Deem and Ramdas Pophale) SiO2 
 PCOD8058969
Probable space group: P 2/M
;
_chemical_formula_sum "Si O2"
_cell_formula_units_Z 28
_cell_length_a 9.139581
_cell_length_b 19.305612
_cell_length_c 15.485341
_cell_angle_alpha 90.000000
_cell_angle_beta 150.639543
_cell_angle_gamma 90.000000
_cell_volume 1339.660092
_symmetry_space_group_name_H-M "P 2/M"
_symmetry_group_IT_number 10
_symmetry_cell_setting 'monoclinic'
loop_
_space_group_symop_operation_xyz
x,y,z
-x,y,-z
-x,-y,-z
x,-y,z
loop_
_atom_site_type_symbol
_atom_site_label
_atom_site_fract_x
_atom_site_fract_y
_atom_site_fract_z
Si Si1 0.227124 0.424343 0.542119
Si Si2 0.325046 0.081880 0.325320
Si Si3 0.404465 0.719754 0.589605
Si Si4 0.145086 0.425309 0.312941
Si Si5 0.312665 0.151323 0.984668
Si Si6 0.334665 0.149552 0.658291
Si Si7 0.963934 0.280171 0.769712
O O1 0.387350 0.500000 0.639999
O O2 0.452049 0.358937 0.650019
O O3 0.035829 0.430245 0.355475
O O4 0.000000 0.406597 0.500000
O O5 0.500000 0.108251 0.500000
O O6 0.498032 0.106358 0.329212
O O7 0.993061 0.110633 0.161549
O O8 0.305095 0.000000 0.311684
O O9 0.323729 0.769575 0.627189
O O10 0.138448 0.724330 0.382693
O O11 0.708515 0.747164 0.703104
O O12 0.500000 0.406981 0.500000
O O13 0.092346 0.500000 0.239016
O O14 0.973473 0.362094 0.177336
O O15 0.251374 0.233063 0.934667
O O16 0.500000 0.121385 0.000000
O O17 0.497562 0.140730 0.165826
O O18 0.000000 0.121051 0.500000
#
# Coordination Sequence:
#
# PCOD8058969 Si02
#       7
#     4   4   4   4   4   4   4
#     4   9  16  25  42  76 118 156 204 261 313 369
#     4  11  25  47  74 102 134 168 205 253 310 374
#     4  10  18  32  57  86 121 165 207 261 314 375
#     4   9  15  27  49  80 113 156 210 256 313 385
#     4  12  26  43  66  96 132 172 217 263 313 374
#     4  12  25  42  67  97 131 172 215 262 314 376
#     4  10  18  33  58  87 122 161 209 265 316 369
#
# _framework density 20.900822999999999
#
# number of rings (size 3 to 8) (size 9 to 14) (size 15 to 20)
#    0.000    1.571    4.286    3.429    0.000    2.857 
#    0.000    0.000    0.000    1.286    0.000    2.000 
#    0.000    0.000    0.000    0.000    0.000    0.000 
#
# Total GULP energy -346988.902134 kJ/mol
# GULP energy per Si atom -12392.460791 kJ/mol
# Density = 2.085325 g / cm^3
# Si number density = 20.900823 Si / 1000 Ang^3
#
#
#
# Elastic Constant Matrix: (Units=GPa)
#
#
# Indices 1 2 3 4 5 6 
#
# 1 158.5862 39.2596 65.3235 0.0000 -1.5374 0.0000
# 2 39.2596 98.8264 43.4940 0.0000 0.7419 0.0000
# 3 65.3235 43.4940 117.5151 0.0000 -4.6498 0.0000
# 4 0.0000 0.0000 0.0000 20.5824 0.0000 -1.6495
# 5 -1.5374 0.7419 -4.6498 0.0000 30.6672 0.0000
# 6 0.0000 0.0000 0.0000 -1.6495 0.0000 34.6001
#
#
#
# Elastic Compliance Matrix: (Units=1/GPa)
#
#
# Indices 1 2 3 4 5 6 
#
# 1 0.008367 -0.001521 -0.004095 0.000000 -0.000165 0.000000
# 2 -0.001521 0.012393 -0.003779 0.000000 -0.000949 0.000000
# 3 -0.004095 -0.003779 0.012254 0.000000 0.001744 0.000000
# 4 0.000000 0.000000 0.000000 0.048772 0.000000 0.002325
# 5 -0.000165 -0.000949 0.001744 0.000000 0.032887 0.000000
# 6 0.000000 0.000000 0.000000 0.002325 0.000000 0.029012
#
#
# Mechanical properties :
#
#
# Convention : Reuss Voigt Hill
#
# Bulk Modulus (GPa) = 70.30028 74.56466 72.43247
# Shear Modulus (GPa) = 29.90142 32.29332 31.09737
#
# Velocity S-wave (km/s) = 3.78648 3.93501 3.86146
# Velocity P-wave (km/s) = 7.26806 7.50990 7.38997
#
# Compressibility (1/GPa) = 0.01422469
#
# Stress axis : x y z
#
# Youngs Moduli (GPa) = 119.51317 80.68955 81.60921
#
# Poissons Ratio (x) = 0.12269 0.33418
# Poissons Ratio (y) = 0.18173 0.30842
# Poissons Ratio (z) = 0.48939 0.30494
#
# Static dielectric constant tensor:
#      x y z
#    x 4.057350 0.000000 -0.045670 
#    y 0.000000 4.102790 0.000000 
#    z -0.045670 0.000000 3.214790 
# 
# 
# High freq. dielectric constant tensor:
#      x y z
#    x 1.838240 0.000000 -0.001290 
#    y 0.000000 1.836730 0.000000 
#    z -0.001290 0.000000 1.756260 
# 
# From -- ./inp_files/62618.got.cif
#   From: 2010.06.25/outbox.cif.g09.slc.cpg/sg10_32_cif.got.tgz:62618.got - 2010.06.27 22:07:45.
