data_PCOD8058856
_publ_section_title
;
Structure prediction by ZEFSAII (Michael W. Deem and Ramdas Pophale) SiO2 
 PCOD8058856
Probable space group: P 2/M
;
_chemical_formula_sum "Si O2"
_cell_formula_units_Z 28
_cell_length_a 25.957237
_cell_length_b 8.914493
_cell_length_c 20.263288
_cell_angle_alpha 90.000000
_cell_angle_beta 158.583759
_cell_angle_gamma 90.000000
_cell_volume 1712.084733
_symmetry_space_group_name_H-M "P 2/M"
_symmetry_group_IT_number 10
_symmetry_cell_setting 'monoclinic'
loop_
_space_group_symop_operation_xyz
x,y,z
-x,y,-z
-x,-y,-z
x,-y,z
loop_
_atom_site_type_symbol
_atom_site_label
_atom_site_fract_x
_atom_site_fract_y
_atom_site_fract_z
Si Si1 0.844915 0.323965 0.297171
Si Si2 0.870228 0.822831 0.928552
Si Si3 0.632632 0.830607 0.961522
Si Si4 0.600951 0.826024 0.682316
Si Si5 0.390721 0.169853 0.921953
Si Si6 0.532922 0.323162 0.351020
Si Si7 0.180311 0.822264 0.278952
O O1 0.838136 0.500000 0.276346
O O2 0.000000 0.268207 0.500000
O O3 0.788091 0.238635 0.163468
O O4 0.747731 0.275706 0.243838
O O5 0.758739 0.767748 0.850910
O O6 0.825251 0.762215 0.802911
O O7 0.860695 0.000000 0.911809
O O8 0.032085 0.776401 0.137982
O O9 0.545389 0.829716 0.926968
O O10 0.555649 0.727143 0.817477
O O11 0.648886 0.000000 0.953446
O O12 0.500000 0.800349 0.500000
O O13 0.545507 0.730371 0.676825
O O14 0.602356 0.000000 0.704949
O O15 0.349435 0.000000 0.852098
O O16 0.500000 0.238536 0.000000
O O17 0.543582 0.500000 0.365026
O O18 0.689791 0.256783 0.530128
O O19 0.204292 0.000000 0.310654
#
# Coordination Sequence:
#
# PCOD8058856 Si02
#       7
#     4   4   4   4   4   4   4
#     4   9  17  30  51  80 110 136 162 197 247 302
#     4   8  15  29  52  76  93 118 165 217 254 295
#     4   9  19  34  54  75 101 135 173 212 249 295
#     4  10  18  32  54  76  97 129 174 217 256 304
#     4   8  16  31  53  79 102 127 165 207 242 285
#     4  12  23  33  48  73 105 137 169 210 261 311
#     4   9  16  31  53  73  94 125 165 208 255 302
#
# _framework density 16.354330000000001
#
# number of rings (size 3 to 8) (size 9 to 14) (size 15 to 20)
#    0.857    1.857    1.429    2.571    0.000    1.714 
#    0.000    2.143    3.143    0.000    0.000    0.000 
#    0.000    0.000    0.000    0.000    0.000    0.000 
#
# Total GULP energy -346897.934459 kJ/mol
# GULP energy per Si atom -12389.211945 kJ/mol
# Density = 1.631711 g / cm^3
# Si number density = 16.354330 Si / 1000 Ang^3
#
#
#
# Elastic Constant Matrix: (Units=GPa)
#
#
# Indices 1 2 3 4 5 6 
#
# 1 68.3377 32.5661 51.6199 0.0000 12.1958 0.0000
# 2 32.5661 72.2324 47.6583 0.0000 3.8580 0.0000
# 3 51.6199 47.6583 133.9337 0.0000 12.0627 0.0000
# 4 0.0000 0.0000 0.0000 19.6030 0.0000 -2.0150
# 5 12.1958 3.8580 12.0627 0.0000 26.8676 0.0000
# 6 0.0000 0.0000 0.0000 -2.0150 0.0000 10.3610
#
#
#
# Elastic Compliance Matrix: (Units=1/GPa)
#
#
# Indices 1 2 3 4 5 6 
#
# 1 0.023518 -0.006096 -0.006266 0.000000 -0.006987 0.000000
# 2 -0.006096 0.019674 -0.004842 0.000000 0.002116 0.000000
# 3 -0.006266 -0.004842 0.011761 0.000000 -0.001741 0.000000
# 4 0.000000 0.000000 0.000000 0.052053 0.000000 0.010123
# 5 -0.006987 0.002116 -0.001741 0.000000 0.040869 0.000000
# 6 0.000000 0.000000 0.000000 0.010123 0.000000 0.098484
#
#
# Mechanical properties :
#
#
# Convention : Reuss Voigt Hill
#
# Bulk Modulus (GPa) = 48.67096 59.79916 54.23506
# Shear Modulus (GPa) = 17.38435 20.87697 19.13066
#
# Velocity S-wave (km/s) = 3.26388 3.57675 3.42389
# Velocity P-wave (km/s) = 6.63542 7.32814 6.99036
#
# Compressibility (1/GPa) = 0.02054613
#
# Stress axis : x y z
#
# Youngs Moduli (GPa) = 42.52062 50.82811 85.02675
#
# Poissons Ratio (x) = 0.30984 0.53276
# Poissons Ratio (y) = 0.25920 0.41169
# Poissons Ratio (z) = 0.26642 0.24610
#
# Static dielectric constant tensor:
#      x y z
#    x 3.209140 0.000000 0.268310 
#    y 0.000000 2.903780 0.000000 
#    z 0.268310 0.000000 3.137560 
# 
# 
# High freq. dielectric constant tensor:
#      x y z
#    x 1.608550 0.000000 0.013180 
#    y 0.000000 1.617970 0.000000 
#    z 0.013180 0.000000 1.621640 
# 
# From -- ./inp_files/86707.got.cif
#   From: 2010.06.25/outbox.cif.g09.slc.cpg/sg10_44_cif.got.tgz:86707.got - 2010.06.27 22:07:45.
