data_PCOD8058450
_publ_section_title
;
Structure prediction by ZEFSAII (Michael W. Deem and Ramdas Pophale) SiO2 
 PCOD8058450
Probable space group: P 2/M
;
_chemical_formula_sum "Si O2"
_cell_formula_units_Z 32
_cell_length_a 20.936382
_cell_length_b 9.278900
_cell_length_c 20.248220
_cell_angle_alpha 90.000000
_cell_angle_beta 28.123703
_cell_angle_gamma 90.000000
_cell_volume 1854.185402
_symmetry_space_group_name_H-M "P 2/M"
_symmetry_group_IT_number 10
_symmetry_cell_setting 'monoclinic'
loop_
_space_group_symop_operation_xyz
x,y,z
-x,y,-z
-x,-y,-z
x,-y,z
loop_
_atom_site_type_symbol
_atom_site_label
_atom_site_fract_x
_atom_site_fract_y
_atom_site_fract_z
Si Si1 0.079340 0.163644 0.601080
Si Si2 0.767005 0.830450 0.897665
Si Si3 0.882990 0.339026 0.309619
Si Si4 0.853134 0.166036 0.607975
Si Si5 0.654369 0.665346 0.879836
Si Si6 0.823347 0.837769 0.097228
Si Si7 0.143711 0.161487 0.787921
Si Si8 0.204182 0.662686 0.000207
O O1 0.152456 0.260551 0.589446
O O2 0.155191 0.188071 0.463014
O O3 0.921400 0.202413 0.736051
O O4 0.091369 0.000000 0.614756
O O5 0.672067 0.757133 0.930066
O O6 0.731933 0.759083 0.000029
O O7 0.736379 0.000000 0.929366
O O8 0.825940 0.500000 0.365942
O O9 0.808399 0.262790 0.315832
O O10 0.043086 0.336356 0.153186
O O11 0.742478 0.269268 0.740404
O O12 0.000000 0.212204 0.500000
O O13 0.824122 0.000000 0.654354
O O14 0.698346 0.500000 0.852004
O O15 0.500000 0.676198 0.000000
O O16 0.793586 0.784318 0.199366
O O17 0.767629 0.000000 0.137998
O O18 0.751619 0.731474 0.110350
O O19 0.982726 0.837910 0.939600
O O20 0.194747 0.000000 0.726608
O O21 0.260760 0.500000 0.952716
#
# Coordination Sequence:
#
# PCOD8058450 Si02
#       8
#     4   4   4   4   4   4   4   4
#     4   9  17  29  46  66  89 114 147 194 236 275
#     4  10  18  31  49  66  87 118 155 195 235 279
#     4   9  16  23  33  53  80 109 144 182 225 277
#     4  10  19  35  55  76  96 120 160 202 240 284
#     4  11  24  38  51  72 101 129 157 193 242 295
#     4   8  13  21  32  47  68 102 146 185 221 268
#     4   8  13  21  32  45  68 104 145 184 223 266
#     4   9  16  24  35  55  81 108 142 186 232 276
#
# _framework density 17.258253
#
# number of rings (size 3 to 8) (size 9 to 14) (size 15 to 20)
#    0.000    2.750    1.250    2.250    0.000    5.750 
#    0.000    2.500    0.000    0.000    0.000    0.000 
#    0.000    0.000    0.000    1.125    0.000   21.500 
#
# Total GULP energy -396713.505799 kJ/mol
# GULP energy per Si atom -12397.297056 kJ/mol
# Density = 1.721897 g / cm^3
# Si number density = 17.258253 Si / 1000 Ang^3
#
#
#
# Elastic Constant Matrix: (Units=GPa)
#
#
# Indices 1 2 3 4 5 6 
#
# 1 121.7907 78.2126 30.6133 0.0000 31.7563 0.0000
# 2 78.2126 133.0867 32.6081 0.0000 17.6782 0.0000
# 3 30.6133 32.6081 34.0200 0.0000 7.0075 0.0000
# 4 0.0000 0.0000 0.0000 10.6433 0.0000 -0.7045
# 5 31.7563 17.6782 7.0075 0.0000 16.6342 0.0000
# 6 0.0000 0.0000 0.0000 -0.7045 0.0000 21.5970
#
#
#
# Elastic Compliance Matrix: (Units=1/GPa)
#
#
# Indices 1 2 3 4 5 6 
#
# 1 0.023983 -0.007790 -0.006997 0.000000 -0.034560 0.000000
# 2 -0.007790 0.013177 -0.006350 0.000000 0.003542 0.000000
# 3 -0.006997 -0.006350 0.041212 0.000000 0.002745 0.000000
# 4 0.000000 0.000000 0.000000 0.094159 0.000000 0.003072
# 5 -0.034560 0.003542 0.002745 0.000000 0.121175 0.000000
# 6 0.000000 0.000000 0.000000 0.003072 0.000000 0.046403
#
#
# Mechanical properties :
#
#
# Convention : Reuss Voigt Hill
#
# Bulk Modulus (GPa) = 27.70135 63.52951 45.61543
# Shear Modulus (GPa) = 12.67698 19.60580 16.14139
#
# Velocity S-wave (km/s) = 2.71319 3.37415 3.06156
# Velocity P-wave (km/s) = 5.08931 7.21602 6.24388
#
# Compressibility (1/GPa) = 0.03609933
#
# Stress axis : x y z
#
# Youngs Moduli (GPa) = 41.69572 75.88933 24.26485
#
# Poissons Ratio (x) = 0.59114 0.16977
# Poissons Ratio (y) = 0.32479 0.15409
# Poissons Ratio (z) = 0.29173 0.48192
#
# Static dielectric constant tensor:
#      x y z
#    x 3.363940 0.000000 0.365270 
#    y 0.000000 3.408140 0.000000 
#    z 0.365270 0.000000 2.672640 
# 
# 
# High freq. dielectric constant tensor:
#      x y z
#    x 1.672750 0.000000 0.037220 
#    y 0.000000 1.674540 0.000000 
#    z 0.037220 0.000000 1.594060 
# 
# From -- ./inp_files/86120.got.cif
#   From: 2010.06.25/outbox.cif.g09.slc.cpg/sg10_44_cif.got.tgz:86120.got - 2010.06.27 22:07:45.
