data_PCOD8058860
_publ_section_title
;
Structure prediction by ZEFSAII (Michael W. Deem and Ramdas Pophale) SiO2 
 PCOD8058860
Probable space group: P 2/M
;
_chemical_formula_sum "Si O2"
_cell_formula_units_Z 32
_cell_length_a 9.764848
_cell_length_b 13.660684
_cell_length_c 27.931959
_cell_angle_alpha 90.000000
_cell_angle_beta 27.923668
_cell_angle_gamma 90.000000
_cell_volume 1744.852440
_symmetry_space_group_name_H-M "P 2/M"
_symmetry_group_IT_number 10
_symmetry_cell_setting 'monoclinic'
loop_
_space_group_symop_operation_xyz
x,y,z
-x,y,-z
-x,-y,-z
x,-y,z
loop_
_atom_site_type_symbol
_atom_site_label
_atom_site_fract_x
_atom_site_fract_y
_atom_site_fract_z
Si Si1 0.604377 0.186885 0.262536
Si Si2 0.942128 0.389271 0.770071
Si Si3 0.883923 0.111412 0.649630
Si Si4 0.425025 0.887885 0.416008
Si Si5 0.228740 0.230581 0.616842
Si Si6 0.226476 0.107417 0.049442
Si Si7 0.827389 0.608496 0.193941
Si Si8 0.620145 0.307548 0.016429
O O1 0.439626 0.136290 0.269121
O O2 0.429363 0.171868 0.365595
O O3 0.603271 0.303794 0.252259
O O4 0.928224 0.140504 0.168844
O O5 0.944205 0.500000 0.750882
O O6 0.608026 0.352327 0.875929
O O7 0.119546 0.327468 0.676765
O O8 0.082304 0.380110 0.778831
O O9 0.106253 0.125942 0.537029
O O10 0.966991 0.183164 0.667228
O O11 0.894355 0.000000 0.665100
O O12 0.673136 0.850440 0.375383
O O13 0.494425 0.000000 0.383003
O O14 0.500000 0.262007 0.500000
O O15 0.179495 0.000000 0.039332
O O16 0.500000 0.096397 0.000000
O O17 0.293468 0.197123 0.991957
O O18 0.691340 0.500000 0.227132
O O19 0.103290 0.620098 0.072930
O O20 0.500000 0.294635 0.000000
#
# Coordination Sequence:
#
# PCOD8058860 Si02
#       8
#     4   4   4   4   4   4   4   4
#     4  11  19  32  54  82 109 140 178 222 272 321
#     4  10  18  32  54  77 103 138 184 227 266 310
#     4  10  21  36  53  76 110 145 176 220 271 322
#     4  10  19  33  55  80 103 135 184 227 266 320
#     4  10  21  36  52  77 108 142 179 222 267 320
#     4   9  17  27  43  75 115 140 163 208 262 317
#     4   9  17  30  51  79 109 137 171 224 277 313
#     4   8  15  27  46  76 107 131 165 217 271 314
#
# _framework density 18.339659999999999
#
# number of rings (size 3 to 8) (size 9 to 14) (size 15 to 20)
#    0.000    2.375    1.250    3.000    0.000    4.250 
#    0.000    1.250    0.000    5.250    0.000    8.750 
#    0.000    0.000    0.000    0.000    0.000    0.000 
#
# Total GULP energy -396607.108316 kJ/mol
# GULP energy per Si atom -12393.972135 kJ/mol
# Density = 1.829792 g / cm^3
# Si number density = 18.339660 Si / 1000 Ang^3
#
#
#
# Elastic Constant Matrix: (Units=GPa)
#
#
# Indices 1 2 3 4 5 6 
#
# 1 53.1240 21.1591 27.7725 0.0000 -9.9045 0.0000
# 2 21.1591 138.7237 51.4845 0.0000 -8.6320 0.0000
# 3 27.7725 51.4845 62.7432 0.0000 -2.2607 0.0000
# 4 0.0000 0.0000 0.0000 27.5476 0.0000 0.5390
# 5 -9.9045 -8.6320 -2.2607 0.0000 14.4495 0.0000
# 6 0.0000 0.0000 0.0000 0.5390 0.0000 17.1389
#
#
#
# Elastic Compliance Matrix: (Units=1/GPa)
#
#
# Indices 1 2 3 4 5 6 
#
# 1 0.028613 0.001788 -0.013463 0.000000 0.018575 0.000000
# 2 0.001788 0.010832 -0.009456 0.000000 0.006217 0.000000
# 3 -0.013463 -0.009456 0.029285 0.000000 -0.010295 0.000000
# 4 0.000000 0.000000 0.000000 0.036323 0.000000 -0.001142
# 5 0.018575 0.006217 -0.010295 0.000000 0.084042 0.000000
# 6 0.000000 0.000000 0.000000 -0.001142 0.000000 0.058383
#
#
# Mechanical properties :
#
#
# Convention : Reuss Voigt Hill
#
# Bulk Modulus (GPa) = 37.78034 50.60256 44.19145
# Shear Modulus (GPa) = 16.74687 22.10553 19.42620
#
# Velocity S-wave (km/s) = 3.02512 3.47557 3.25814
# Velocity P-wave (km/s) = 5.73122 6.61497 6.18889
#
# Compressibility (1/GPa) = 0.02646879
#
# Stress axis : x y z
#
# Youngs Moduli (GPa) = 34.94890 92.31891 34.14669
#
# Poissons Ratio (x) = -0.16508 0.45973
# Poissons Ratio (y) = -0.06249 0.32288
# Poissons Ratio (z) = 0.47053 0.87295
#
# Static dielectric constant tensor:
#      x y z
#    x 2.989000 0.000000 -0.127880 
#    y 0.000000 3.686710 0.000000 
#    z -0.127880 0.000000 3.331020 
# 
# 
# High freq. dielectric constant tensor:
#      x y z
#    x 1.664700 0.000000 -0.012630 
#    y 0.000000 1.726440 0.000000 
#    z -0.012630 0.000000 1.703250 
# 
# From -- ./inp_files/88252.got.cif
#   From: 2010.06.25/outbox.cif.g09.slc.cpg/sg10_45_cif.got.tgz:88252.got - 2010.06.27 22:07:45.
