data_PCOD8058697
_publ_section_title
;
Structure prediction by ZEFSAII (Michael W. Deem and Ramdas Pophale) SiO2 
 PCOD8058697
Probable space group: P 2/M
;
_chemical_formula_sum "Si O2"
_cell_formula_units_Z 32
_cell_length_a 13.775217
_cell_length_b 12.656770
_cell_length_c 14.054037
_cell_angle_alpha 90.000000
_cell_angle_beta 42.908516
_cell_angle_gamma 90.000000
_cell_volume 1668.249290
_symmetry_space_group_name_H-M "P 2/M"
_symmetry_group_IT_number 10
_symmetry_cell_setting 'monoclinic'
loop_
_space_group_symop_operation_xyz
x,y,z
-x,y,-z
-x,-y,-z
x,-y,z
loop_
_atom_site_type_symbol
_atom_site_label
_atom_site_fract_x
_atom_site_fract_y
_atom_site_fract_z
Si Si1 0.202131 0.876947 0.606673
Si Si2 0.220428 0.622009 0.061600
Si Si3 0.844508 0.123362 0.580694
Si Si4 0.305691 0.617763 0.686773
Si Si5 0.572089 0.283033 0.569647
Si Si6 0.349715 0.260067 0.142596
Si Si7 0.027934 0.264137 0.875190
Si Si8 0.463452 0.385161 0.221253
O O1 0.164570 0.850877 0.524629
O O2 0.360761 0.829275 0.510493
O O3 0.087568 0.824044 0.759793
O O4 0.205168 0.000000 0.627168
O O5 0.175709 0.500000 0.119716
O O6 0.243487 0.697076 0.137384
O O7 0.107103 0.678919 0.075002
O O8 0.365897 0.619569 0.898387
O O9 0.728860 0.180045 0.730336
O O10 0.000000 0.162181 0.500000
O O11 0.821969 0.000000 0.615697
O O12 0.334136 0.500000 0.706117
O O13 0.347094 0.623496 0.545525
O O14 0.403328 0.706246 0.669715
O O15 0.140963 0.644046 0.816561
O O16 0.600135 0.298915 0.661025
O O17 0.400828 0.363901 0.162436
O O18 0.500000 0.206014 0.000000
O O19 0.000000 0.212420 0.000000
O O20 0.411615 0.500000 0.290909
#
# Coordination Sequence:
#
# PCOD8058697 Si02
#       8
#     4   4   4   4   4   4   4   4
#     4  10  22  40  61  83 111 150 194 243 298 353
#     4  10  21  36  56  84 121 158 193 231 284 350
#     4  10  20  37  62  86 115 159 201 242 298 353
#     4  10  20  33  53  82 115 147 188 234 285 340
#     4  10  18  33  54  80 108 146 190 239 280 335
#     4  10  20  35  57  89 122 156 197 241 290 349
#     4  11  23  38  58  84 113 151 196 245 291 345
#     4  10  18  31  55  83 116 154 188 227 282 344
#
# _framework density 19.181785000000001
#
# number of rings (size 3 to 8) (size 9 to 14) (size 15 to 20)
#    0.000    1.875    1.250    3.750    0.000    4.000 
#    0.000    5.000    0.000    4.500    0.000    0.000 
#    0.000    0.000    0.000    0.000    0.000    0.000 
#
# Total GULP energy -396498.528705 kJ/mol
# GULP energy per Si atom -12390.579022 kJ/mol
# Density = 1.913813 g / cm^3
# Si number density = 19.181785 Si / 1000 Ang^3
#
#
#
# Elastic Constant Matrix: (Units=GPa)
#
#
# Indices 1 2 3 4 5 6 
#
# 1 121.7887 46.9179 50.7800 0.0000 -2.8416 0.0000
# 2 46.9179 104.9473 51.0670 0.0000 -0.2368 0.0000
# 3 50.7800 51.0670 104.1756 0.0000 12.7011 0.0000
# 4 0.0000 0.0000 0.0000 25.5594 0.0000 2.8809
# 5 -2.8416 -0.2368 12.7011 0.0000 34.3884 0.0000
# 6 0.0000 0.0000 0.0000 2.8809 0.0000 22.8251
#
#
#
# Elastic Compliance Matrix: (Units=1/GPa)
#
#
# Indices 1 2 3 4 5 6 
#
# 1 0.011193 -0.002882 -0.004350 0.000000 0.002512 0.000000
# 2 -0.002882 0.013458 -0.005419 0.000000 0.001856 0.000000
# 3 -0.004350 -0.005419 0.015104 0.000000 -0.005975 0.000000
# 4 0.000000 0.000000 0.000000 0.039689 0.000000 -0.005009
# 5 0.002512 0.001856 -0.005975 0.000000 0.031507 0.000000
# 6 0.000000 0.000000 0.000000 -0.005009 0.000000 0.044444
#
#
# Mechanical properties :
#
#
# Convention : Reuss Voigt Hill
#
# Bulk Modulus (GPa) = 69.17994 69.82684 69.50339
# Shear Modulus (GPa) = 26.95222 28.69769 27.82495
#
# Velocity S-wave (km/s) = 3.75253 3.87213 3.81280
# Velocity P-wave (km/s) = 7.41073 7.51484 7.46297
#
# Compressibility (1/GPa) = 0.01445506
#
# Stress axis : x y z
#
# Youngs Moduli (GPa) = 89.33851 74.30630 66.20737
#
# Poissons Ratio (x) = 0.21415 0.28798
# Poissons Ratio (y) = 0.25747 0.35874
# Poissons Ratio (z) = 0.38859 0.40263
#
# Static dielectric constant tensor:
#      x y z
#    x 3.605740 0.000000 0.087750 
#    y 0.000000 3.309290 0.000000 
#    z 0.087750 0.000000 3.610860 
# 
# 
# High freq. dielectric constant tensor:
#      x y z
#    x 1.757540 0.000000 0.009030 
#    y 0.000000 1.723190 0.000000 
#    z 0.009030 0.000000 1.753490 
# 
# From -- ./inp_files/67336.got.cif
#   From: 2010.06.25/outbox.cif.g09.slc.cpg/sg10_34_cif.got.tgz:67336.got - 2010.06.27 22:07:45.
