data_PCOD8058605
_publ_section_title
;
Structure prediction by ZEFSAII (Michael W. Deem and Ramdas Pophale) SiO2 
 PCOD8058605
Probable space group: P 2/M
;
_chemical_formula_sum "Si O2"
_cell_formula_units_Z 28
_cell_length_a 12.569305
_cell_length_b 9.164130
_cell_length_c 14.991436
_cell_angle_alpha 90.000000
_cell_angle_beta 127.605280
_cell_angle_gamma 90.000000
_cell_volume 1368.040316
_symmetry_space_group_name_H-M "P 2/M"
_symmetry_group_IT_number 10
_symmetry_cell_setting 'monoclinic'
loop_
_space_group_symop_operation_xyz
x,y,z
-x,y,-z
-x,-y,-z
x,-y,z
loop_
_atom_site_type_symbol
_atom_site_label
_atom_site_fract_x
_atom_site_fract_y
_atom_site_fract_z
Si Si1 0.999612 0.344108 0.099738
Si Si2 0.147959 0.170818 0.764312
Si Si3 0.257270 0.168651 0.000426
Si Si4 0.123863 0.329176 0.397755
Si Si5 0.718135 0.330737 0.689901
Si Si6 0.248525 0.171593 0.622266
Si Si7 0.552147 0.826686 0.747260
O O1 0.975532 0.500000 0.140945
O O2 0.892166 0.218997 0.056929
O O3 0.144238 0.278453 0.195284
O O4 0.000000 0.393175 0.000000
O O5 0.267601 0.201845 0.898857
O O6 0.207982 0.219183 0.700721
O O7 0.012313 0.263119 0.716702
O O8 0.109380 0.000000 0.745819
O O9 0.268583 0.000000 0.025862
O O10 0.365906 0.239287 0.124392
O O11 0.102245 0.500000 0.402545
O O12 0.255639 0.301200 0.402290
O O13 0.147317 0.251244 0.503708
O O14 0.684660 0.500000 0.689877
O O15 0.601354 0.237299 0.677185
O O16 0.399853 0.224006 0.682698
O O17 0.232083 0.000000 0.599482
O O18 0.563419 0.000000 0.747676
#
# Coordination Sequence:
#
# PCOD8058605 Si02
#       7
#     4   4   4   4   4   4   4
#     4  10  18  31  52  79 112 149 182 222 280 336
#     4  10  21  38  61  86 113 147 186 232 285 335
#     4  10  20  33  55  87 115 143 183 229 276 330
#     4  11  23  39  61  87 112 143 189 241 285 328
#     4  10  21  36  56  83 115 149 184 228 284 338
#     4  10  23  42  59  79 113 154 192 231 279 332
#     4  10  22  38  57  84 117 152 188 227 273 333
#
# _framework density 20.467234000000001
#
# number of rings (size 3 to 8) (size 9 to 14) (size 15 to 20)
#    0.000    1.857    2.857    0.857    0.000    6.000 
#    0.000    5.714    0.000    0.000    0.000    4.000 
#    0.000    0.000    0.000    0.000    0.000    0.000 
#
# Total GULP energy -346903.956124 kJ/mol
# GULP energy per Si atom -12389.427004 kJ/mol
# Density = 2.042065 g / cm^3
# Si number density = 20.467234 Si / 1000 Ang^3
#
#
#
# Elastic Constant Matrix: (Units=GPa)
#
#
# Indices 1 2 3 4 5 6 
#
# 1 88.1120 25.4227 10.6804 0.0000 -8.1138 0.0000
# 2 25.4227 32.7294 21.8491 0.0000 -7.9670 0.0000
# 3 10.6804 21.8491 51.8464 0.0000 -10.0564 0.0000
# 4 0.0000 0.0000 0.0000 15.6330 0.0000 -9.1305
# 5 -8.1138 -7.9670 -10.0564 0.0000 30.5123 0.0000
# 6 0.0000 0.0000 0.0000 -9.1305 0.0000 13.3953
#
#
#
# Elastic Compliance Matrix: (Units=1/GPa)
#
#
# Indices 1 2 3 4 5 6 
#
# 1 0.014917 -0.013038 0.002703 0.000000 0.001454 0.000000
# 2 -0.013038 0.054808 -0.019558 0.000000 0.004397 0.000000
# 3 0.002703 -0.019558 0.027906 0.000000 0.004809 0.000000
# 4 0.000000 0.000000 0.000000 0.106276 0.000000 0.072440
# 5 0.001454 0.004397 0.004809 0.000000 0.035894 0.000000
# 6 0.000000 0.000000 0.000000 0.072440 0.000000 0.124030
#
#
# Mechanical properties :
#
#
# Convention : Reuss Voigt Hill
#
# Bulk Modulus (GPa) = 26.42335 32.06580 29.24458
# Shear Modulus (GPa) = 11.46183 19.55715 15.50949
#
# Velocity S-wave (km/s) = 2.36902 3.09453 2.75575
# Velocity P-wave (km/s) = 4.51897 5.33564 4.94419
#
# Compressibility (1/GPa) = 0.03784532
#
# Stress axis : x y z
#
# Youngs Moduli (GPa) = 67.03706 18.24562 35.83467
#
# Poissons Ratio (x) = 0.23788 -0.09688
# Poissons Ratio (y) = 0.87402 0.70086
# Poissons Ratio (z) = -0.18123 0.35685
#
# Static dielectric constant tensor:
#      x y z
#    x 3.649260 0.000000 -0.204490 
#    y 0.000000 3.481230 0.000000 
#    z -0.204490 0.000000 3.964100 
# 
# 
# High freq. dielectric constant tensor:
#      x y z
#    x 1.786530 0.000000 -0.014740 
#    y 0.000000 1.786630 0.000000 
#    z -0.014740 0.000000 1.816130 
# 
# From -- ./inp_files/50091.got.cif
#   From: 2010.06.25/outbox.cif.g09.slc.cpg/sg10_26_cif.got.tgz:50091.got - 2010.06.27 22:07:45.
