data_PCOD8058788
_publ_section_title
;
Structure prediction by ZEFSAII (Michael W. Deem and Ramdas Pophale) SiO2 
 PCOD8058788
Probable space group: P 2/M
;
_chemical_formula_sum "Si O2"
_cell_formula_units_Z 28
_cell_length_a 19.561487
_cell_length_b 9.352273
_cell_length_c 26.435930
_cell_angle_alpha 90.000000
_cell_angle_beta 161.463812
_cell_angle_gamma 90.000000
_cell_volume 1537.478380
_symmetry_space_group_name_H-M "P 2/M"
_symmetry_group_IT_number 10
_symmetry_cell_setting 'monoclinic'
loop_
_space_group_symop_operation_xyz
x,y,z
-x,y,-z
-x,-y,-z
x,-y,z
loop_
_atom_site_type_symbol
_atom_site_label
_atom_site_fract_x
_atom_site_fract_y
_atom_site_fract_z
Si Si1 0.742285 0.165756 0.172577
Si Si2 0.319838 0.328764 0.334998
Si Si3 0.457470 0.336728 0.606173
Si Si4 0.033008 0.663346 0.756881
Si Si5 0.946575 0.834838 0.519625
Si Si6 0.451895 0.670892 0.714582
Si Si7 0.122597 0.669694 0.930398
O O1 0.886865 0.243916 0.233156
O O2 0.841672 0.193264 0.297778
O O3 0.743201 0.000000 0.158846
O O4 0.500000 0.226929 0.000000
O O5 0.500000 0.270920 0.500000
O O6 0.324096 0.500000 0.337849
O O7 0.376342 0.270172 0.318131
O O8 0.086543 0.268448 0.187327
O O9 0.522249 0.500000 0.660190
O O10 0.469871 0.264947 0.670286
O O11 0.222159 0.322694 0.417228
O O12 0.101619 0.500000 0.794959
O O13 0.130805 0.722246 0.878052
O O14 0.754244 0.736305 0.403237
O O15 0.000000 0.790215 0.500000
O O16 0.875102 0.000000 0.472872
O O17 0.425511 0.500000 0.696734
O O18 0.663363 0.724185 0.892123
O O19 0.106227 0.500000 0.919563
#
# Coordination Sequence:
#
# PCOD8058788 Si02
#       7
#     4   4   4   4   4   4   4
#     4  10  22  38  55  77 101 127 166 212 252 298
#     4   9  14  24  43  70 104 138 169 203 248 294
#     4   9  16  27  47  71 101 137 167 202 247 295
#     4  10  18  32  52  76 104 134 168 205 250 299
#     4  10  22  39  56  74  99 133 169 204 250 308
#     4  10  20  34  50  76 108 133 166 211 254 294
#     4   9  18  29  46  75 108 137 168 208 249 294
#
# _framework density 18.211639000000002
#
# number of rings (size 3 to 8) (size 9 to 14) (size 15 to 20)
#    0.000    2.429    2.857    0.000    2.000    1.143 
#    0.000    2.857    0.000    0.000    0.000    6.000 
#    0.000    0.000    0.000    0.000    0.000    0.000 
#
# Total GULP energy -347129.845852 kJ/mol
# GULP energy per Si atom -12397.494495 kJ/mol
# Density = 1.817019 g / cm^3
# Si number density = 18.211639 Si / 1000 Ang^3
#
#
#
# Elastic Constant Matrix: (Units=GPa)
#
#
# Indices 1 2 3 4 5 6 
#
# 1 148.3482 28.0976 55.0353 0.0000 -13.7429 0.0000
# 2 28.0976 23.3942 21.6976 0.0000 1.3022 0.0000
# 3 55.0353 21.6976 113.4973 0.0000 -13.5004 0.0000
# 4 0.0000 0.0000 0.0000 6.7497 0.0000 -15.3470
# 5 -13.7429 1.3022 -13.5004 0.0000 33.8396 0.0000
# 6 0.0000 0.0000 0.0000 -15.3470 0.0000 -12.8562
#
#
#
# Elastic Compliance Matrix: (Units=1/GPa)
#
#
# Indices 1 2 3 4 5 6 
#
# 1 0.009810 -0.009635 -0.002516 0.000000 0.003351 0.000000
# 2 -0.009635 0.062715 -0.008472 0.000000 -0.009706 0.000000
# 3 -0.002516 -0.008472 0.012144 0.000000 0.004149 0.000000
# 4 0.000000 0.000000 0.000000 0.039888 0.000000 -0.047616
# 5 0.003351 -0.009706 0.004149 0.000000 0.032941 0.000000
# 6 0.000000 0.000000 0.000000 -0.047616 0.000000 -0.020942
#
#
# Mechanical properties :
#
#
# Convention : Reuss Voigt Hill
#
# Bulk Modulus (GPa) = 23.02926 54.98897 39.00912
# Shear Modulus (GPa) = 26.00416 17.57389 21.78903
#
# Velocity S-wave (km/s) = 3.78284 3.10978 3.46270
# Velocity P-wave (km/s) = 5.63495 6.56919 6.11992
#
# Compressibility (1/GPa) = 0.04342302
#
# Stress axis : x y z
#
# Youngs Moduli (GPa) = 101.94053 15.94504 82.34432
#
# Poissons Ratio (x) = 0.15362 0.20720
# Poissons Ratio (y) = 0.98216 0.69764
# Poissons Ratio (z) = 0.25651 0.13509
#
# Static dielectric constant tensor:
#      x y z
#    x 3.588200 0.000000 -0.129000 
#    y 0.000000 2.858990 0.000000 
#    z -0.129000 0.000000 3.578930 
# 
# 
# High freq. dielectric constant tensor:
#      x y z
#    x 1.724250 0.000000 -0.005930 
#    y 0.000000 1.645440 0.000000 
#    z -0.005930 0.000000 1.712360 
# 
# From -- ./inp_files/36898.got.cif
#   From: 2010.06.25/outbox.cif.g09.slc.cpg/sg10_19_cif.got.tgz:36898.got - 2010.06.27 22:07:45.
