data_PCOD8058506
_publ_section_title
;
Structure prediction by ZEFSAII (Michael W. Deem and Ramdas Pophale) SiO2 
 PCOD8058506
Probable space group: P 2/M
;
_chemical_formula_sum "Si O2"
_cell_formula_units_Z 24
_cell_length_a 25.230028
_cell_length_b 7.789331
_cell_length_c 12.571528
_cell_angle_alpha 90.000000
_cell_angle_beta 147.400140
_cell_angle_gamma 90.000000
_cell_volume 1331.092809
_symmetry_space_group_name_H-M "P 2/M"
_symmetry_group_IT_number 10
_symmetry_cell_setting 'monoclinic'
loop_
_space_group_symop_operation_xyz
x,y,z
-x,y,-z
-x,-y,-z
x,-y,z
loop_
_atom_site_type_symbol
_atom_site_label
_atom_site_fract_x
_atom_site_fract_y
_atom_site_fract_z
Si Si1 0.396122 0.197177 0.540681
Si Si2 0.892556 0.500000 0.446564
Si Si3 0.602954 0.701110 0.220849
Si Si4 0.740712 0.205955 0.876608
Si Si5 0.396203 0.807470 0.168596
Si Si6 0.882890 0.500000 0.177241
Si Si7 0.281436 0.690057 0.782374
O O1 0.371361 0.219747 0.622170
O O2 0.304810 0.258877 0.314546
O O3 0.499751 0.287764 0.681202
O O4 0.412579 0.000000 0.544196
O O5 0.878198 0.500000 0.296080
O O6 0.836890 0.669812 0.400699
O O7 0.004549 0.500000 0.672206
O O8 0.596119 0.500000 0.226506
O O9 0.690648 0.756404 0.288488
O O10 0.500000 0.773162 0.000000
O O11 0.662978 0.274971 0.833408
O O12 0.765213 0.000000 0.927823
O O13 0.837116 0.323274 0.054380
O O14 0.417795 0.000000 0.240958
O O15 0.327988 0.812918 0.948761
O O16 0.330376 0.500000 0.880356
#
# Coordination Sequence:
#
# PCOD8058506 Si02
#       7
#     4   2   4   4   4   2   4
#     4  10  21  33  49  75 112 148 179 213 254 317
#     4   9  20  36  57  79 108 129 178 227 278 321
#     4  10  19  30  49  75 106 141 178 217 248 306
#     4  10  21  37  54  80 113 142 178 223 268 320
#     4  10  18  31  50  75 110 146 172 207 265 319
#     4  11  20  38  61  82 102 142 176 229 279 325
#     4   9  17  33  50  72 109 136 164 221 262 308
#
# _framework density 18.030297000000001
#
# number of rings (size 3 to 8) (size 9 to 14) (size 15 to 20)
#    0.500    1.667    3.333    0.500    1.167    3.000 
#    0.000    3.333    0.000    2.000    0.000    2.333 
#    0.000    0.000    0.000    0.000    0.000    0.000 
#
# Total GULP energy -297336.151263 kJ/mol
# GULP energy per Si atom -12389.006303 kJ/mol
# Density = 1.798926 g / cm^3
# Si number density = 18.030297 Si / 1000 Ang^3
#
#
#
# Elastic Constant Matrix: (Units=GPa)
#
#
# Indices 1 2 3 4 5 6 
#
# 1 117.1831 14.5076 78.3291 0.0000 4.7533 0.0000
# 2 14.5076 42.7182 32.4372 0.0000 5.9411 0.0000
# 3 78.3291 32.4372 131.4573 0.0000 3.0988 0.0000
# 4 0.0000 0.0000 0.0000 23.7791 0.0000 -2.2931
# 5 4.7533 5.9411 3.0988 0.0000 35.3161 0.0000
# 6 0.0000 0.0000 0.0000 -2.2931 0.0000 16.9211
#
#
#
# Elastic Compliance Matrix: (Units=1/GPa)
#
#
# Indices 1 2 3 4 5 6 
#
# 1 0.014397 0.002225 -0.009092 0.000000 -0.001514 0.000000
# 2 0.002225 0.029795 -0.008570 0.000000 -0.004560 0.000000
# 3 -0.009092 -0.008570 0.015107 0.000000 0.001340 0.000000
# 4 0.000000 0.000000 0.000000 0.042611 0.000000 0.005774
# 5 -0.001514 -0.004560 0.001340 0.000000 0.029169 0.000000
# 6 0.000000 0.000000 0.000000 0.005774 0.000000 0.059880
#
#
# Mechanical properties :
#
#
# Convention : Reuss Voigt Hill
#
# Bulk Modulus (GPa) = 35.17959 60.21183 47.69571
# Shear Modulus (GPa) = 21.61611 26.27556 23.94583
#
# Velocity S-wave (km/s) = 3.46624 3.82160 3.64825
# Velocity P-wave (km/s) = 5.96435 7.27600 6.65258
#
# Compressibility (1/GPa) = 0.02842558
#
# Stress axis : x y z
#
# Youngs Moduli (GPa) = 69.45981 33.56218 66.19248
#
# Poissons Ratio (x) = -0.07467 0.60180
# Poissons Ratio (y) = -0.15454 0.56729
# Poissons Ratio (z) = 0.63151 0.28764
#
# Static dielectric constant tensor:
#      x y z
#    x 3.411170 0.000000 -0.032700 
#    y 0.000000 3.129360 0.000000 
#    z -0.032700 0.000000 3.247900 
# 
# 
# High freq. dielectric constant tensor:
#      x y z
#    x 1.697730 0.000000 -0.014560 
#    y 0.000000 1.678460 0.000000 
#    z -0.014560 0.000000 1.672720 
# 
# From -- ./inp_files/45209.got.cif
#   From: 2010.06.25/outbox.cif.g09.slc.cpg/sg10_23_cif.got.tgz:45209.got - 2010.06.27 22:07:45.
