data_PCOD8058835
_publ_section_title
;
Structure prediction by ZEFSAII (Michael W. Deem and Ramdas Pophale) SiO2 
 PCOD8058835
Probable space group: P 2/M
;
_chemical_formula_sum "Si O2"
_cell_formula_units_Z 32
_cell_length_a 10.807537
_cell_length_b 9.117422
_cell_length_c 21.020183
_cell_angle_alpha 90.000000
_cell_angle_beta 51.878222
_cell_angle_gamma 90.000000
_cell_volume 1629.463619
_symmetry_space_group_name_H-M "P 2/M"
_symmetry_group_IT_number 10
_symmetry_cell_setting 'monoclinic'
loop_
_space_group_symop_operation_xyz
x,y,z
-x,y,-z
-x,-y,-z
x,-y,z
loop_
_atom_site_type_symbol
_atom_site_label
_atom_site_fract_x
_atom_site_fract_y
_atom_site_fract_z
Si Si1 0.363647 0.325727 0.994046
Si Si2 0.176242 0.672488 0.464667
Si Si3 0.954401 0.660776 0.841704
Si Si4 0.238978 0.828649 0.708073
Si Si5 0.128001 0.173412 0.604197
Si Si6 0.483295 0.830938 0.165257
Si Si7 0.545124 0.168289 0.681709
Si Si8 0.162824 0.337100 0.262512
O O1 0.369265 0.500000 0.982499
O O2 0.384279 0.244772 0.920132
O O3 0.500000 0.277108 0.000000
O O4 0.193938 0.272136 0.073373
O O5 0.196063 0.500000 0.467832
O O6 0.222088 0.754875 0.515804
O O7 0.300157 0.730297 0.372900
O O8 0.000000 0.714689 0.500000
O O9 0.994702 0.500000 0.856675
O O10 0.910984 0.644709 0.782509
O O11 0.109468 0.760109 0.796740
O O12 0.216256 0.783938 0.641591
O O13 0.412384 0.777590 0.674236
O O14 0.219066 0.000000 0.723607
O O15 0.953252 0.242019 0.656806
O O16 0.115872 0.000000 0.599198
O O17 0.528722 0.814891 0.224689
O O18 0.323349 0.746967 0.202715
O O19 0.463703 0.000000 0.151705
O O20 0.593923 0.000000 0.653121
O O21 0.186134 0.500000 0.285623
#
# Coordination Sequence:
#
# PCOD8058835 Si02
#       8
#     4   4   4   4   4   4   4   4
#     4  10  19  35  55  81 116 151 183 225 285 339
#     4  11  24  40  59  86 117 148 183 224 279 338
#     4   9  18  33  55  81 110 145 183 226 278 331
#     4   9  20  39  60  81 109 148 192 232 275 327
#     4  10  20  35  58  86 112 144 187 233 279 326
#     4  11  22  34  53  82 112 146 189 232 280 334
#     4  10  23  42  59  78 111 152 189 230 279 330
#     4  10  18  32  53  79 114 149 181 225 281 337
#
# _framework density 19.638363999999999
#
# number of rings (size 3 to 8) (size 9 to 14) (size 15 to 20)
#    0.000    2.000    1.250    2.250    0.000    6.750 
#    0.000    3.125    0.000    3.750    0.000    0.000 
#    0.000    0.000    0.000    0.000    0.000    0.000 
#
# Total GULP energy -396806.449367 kJ/mol
# GULP energy per Si atom -12400.201543 kJ/mol
# Density = 1.959367 g / cm^3
# Si number density = 19.638364 Si / 1000 Ang^3
#
#
#
# Elastic Constant Matrix: (Units=GPa)
#
#
# Indices 1 2 3 4 5 6 
#
# 1 79.1227 41.0954 34.5645 0.0000 -10.3631 0.0000
# 2 41.0954 86.6973 46.3247 0.0000 -0.5870 0.0000
# 3 34.5645 46.3247 110.5721 0.0000 -2.0605 0.0000
# 4 0.0000 0.0000 0.0000 37.6609 0.0000 -2.4538
# 5 -10.3631 -0.5870 -2.0605 0.0000 22.3273 0.0000
# 6 0.0000 0.0000 0.0000 -2.4538 0.0000 21.0611
#
#
#
# Elastic Compliance Matrix: (Units=1/GPa)
#
#
# Indices 1 2 3 4 5 6 
#
# 1 0.018706 -0.007433 -0.002580 0.000000 0.008249 0.000000
# 2 -0.007433 0.017815 -0.005205 0.000000 -0.003462 0.000000
# 3 -0.002580 -0.005205 0.012027 0.000000 -0.000224 0.000000
# 4 0.000000 0.000000 0.000000 0.026756 0.000000 0.003117
# 5 0.008249 -0.003462 -0.000224 0.000000 0.048505 0.000000
# 6 0.000000 0.000000 0.000000 0.003117 0.000000 0.047844
#
#
# Mechanical properties :
#
#
# Convention : Reuss Voigt Hill
#
# Bulk Modulus (GPa) = 55.20726 57.81795 56.51260
# Shear Modulus (GPa) = 24.02388 26.50371 25.26379
#
# Velocity S-wave (km/s) = 3.50138 3.67766 3.59060
# Velocity P-wave (km/s) = 6.67227 6.89484 6.78447
#
# Compressibility (1/GPa) = 0.01811356
#
# Stress axis : x y z
#
# Youngs Moduli (GPa) = 53.45737 56.13184 83.14790
#
# Poissons Ratio (x) = 0.41721 0.21451
# Poissons Ratio (y) = 0.39733 0.43277
# Poissons Ratio (z) = 0.13792 0.29216
#
# Static dielectric constant tensor:
#      x y z
#    x 3.474870 0.000000 0.026230 
#    y 0.000000 3.706240 0.000000 
#    z 0.026230 0.000000 3.718910 
# 
# 
# High freq. dielectric constant tensor:
#      x y z
#    x 1.743860 0.000000 0.000140 
#    y 0.000000 1.767060 0.000000 
#    z 0.000140 0.000000 1.771260 
# 
# From -- ./inp_files/83568.got.cif
#   From: 2010.06.25/outbox.cif.g09.slc.cpg/sg10_42_cif.got.tgz:83568.got - 2010.06.27 22:07:45.
