data_PCOD8058623
_publ_section_title
;
Structure prediction by ZEFSAII (Michael W. Deem and Ramdas Pophale) SiO2 
 PCOD8058623
Probable space group: P 2/M
;
_chemical_formula_sum "Si O2"
_cell_formula_units_Z 28
_cell_length_a 24.872990
_cell_length_b 8.530592
_cell_length_c 18.994238
_cell_angle_alpha 90.000000
_cell_angle_beta 20.611819
_cell_angle_gamma 90.000000
_cell_volume 1418.778357
_symmetry_space_group_name_H-M "P 2/M"
_symmetry_group_IT_number 10
_symmetry_cell_setting 'monoclinic'
loop_
_space_group_symop_operation_xyz
x,y,z
-x,y,-z
-x,-y,-z
x,-y,z
loop_
_atom_site_type_symbol
_atom_site_label
_atom_site_fract_x
_atom_site_fract_y
_atom_site_fract_z
Si Si1 0.846076 0.313183 0.723375
Si Si2 0.642311 0.814957 0.584062
Si Si3 0.320374 0.683856 0.934256
Si Si4 0.954939 0.185916 0.130683
Si Si5 0.113149 0.818511 0.074933
Si Si6 0.186398 0.679491 0.503745
Si Si7 0.655083 0.680939 0.832995
O O1 0.858623 0.500000 0.707029
O O2 0.713502 0.247814 0.834638
O O3 0.000000 0.242201 0.500000
O O4 0.801314 0.256971 0.857007
O O5 0.483632 0.765898 0.743133
O O6 0.666589 0.731048 0.629959
O O7 0.784171 0.759265 0.360960
O O8 0.644693 0.000000 0.592350
O O9 0.347158 0.500000 0.908051
O O10 0.251219 0.724190 0.942383
O O11 0.081779 0.239753 0.033114
O O12 0.957543 0.000000 0.123538
O O13 0.000000 0.260149 0.000000
O O14 0.955135 0.792991 0.309414
O O15 0.157799 0.000000 0.022612
O O16 0.142966 0.500000 0.574606
O O17 0.218644 0.698707 0.381954
O O18 0.617629 0.500000 0.893252
O O19 0.500000 0.768880 0.000000
#
# Coordination Sequence:
#
# PCOD8058623 Si02
#       7
#     4   4   4   4   4   4   4
#     4   9  17  29  46  69  95 128 175 223 256 287
#     4  10  20  34  54  79 108 138 168 212 263 307
#     4  11  21  34  54  77 104 139 178 217 256 307
#     4   8  16  34  59  82 101 129 172 210 243 299
#     4  10  20  34  54  78 105 134 165 209 259 305
#     4  10  18  31  53  76  99 132 175 217 256 307
#     4   9  16  26  43  68  94 123 168 220 256 287
#
# _framework density 19.735288000000001
#
# number of rings (size 3 to 8) (size 9 to 14) (size 15 to 20)
#    0.000    2.429    0.000    4.286    0.000    4.571 
#    0.000    0.714    0.000   36.857    0.000    0.000 
#    0.000    0.000    0.000    0.000    0.000    0.000 
#
# Total GULP energy -347017.224646 kJ/mol
# GULP energy per Si atom -12393.472309 kJ/mol
# Density = 1.969037 g / cm^3
# Si number density = 19.735288 Si / 1000 Ang^3
#
#
#
# Elastic Constant Matrix: (Units=GPa)
#
#
# Indices 1 2 3 4 5 6 
#
# 1 131.4016 15.7964 39.5340 0.0000 -6.5027 0.0000
# 2 15.7964 34.4563 8.5181 0.0000 9.0778 0.0000
# 3 39.5340 8.5181 65.3016 0.0000 -7.1045 0.0000
# 4 0.0000 0.0000 0.0000 21.8552 0.0000 -2.5494
# 5 -6.5027 9.0778 -7.1045 0.0000 29.7824 0.0000
# 6 0.0000 0.0000 0.0000 -2.5494 0.0000 17.3535
#
#
#
# Elastic Compliance Matrix: (Units=1/GPa)
#
#
# Indices 1 2 3 4 5 6 
#
# 1 0.009713 -0.003704 -0.005178 0.000000 0.002014 0.000000
# 2 -0.003704 0.034863 -0.003644 0.000000 -0.012304 0.000000
# 3 -0.005178 -0.003644 0.019426 0.000000 0.004614 0.000000
# 4 0.000000 0.000000 0.000000 0.046554 0.000000 0.006839
# 5 0.002014 -0.012304 0.004614 0.000000 0.038868 0.000000
# 6 0.000000 0.000000 0.000000 0.006839 0.000000 0.058630
#
#
# Mechanical properties :
#
#
# Convention : Reuss Voigt Hill
#
# Bulk Modulus (GPa) = 25.67389 39.87292 32.77341
# Shear Modulus (GPa) = 20.31798 24.95228 22.63513
#
# Velocity S-wave (km/s) = 3.21210 3.55963 3.39032
# Velocity P-wave (km/s) = 5.17631 6.09445 5.65405
#
# Compressibility (1/GPa) = 0.03895007
#
# Stress axis : x y z
#
# Youngs Moduli (GPa) = 102.95412 28.68404 51.47815
#
# Poissons Ratio (x) = 0.10623 0.26656
# Poissons Ratio (y) = 0.38129 0.18759
# Poissons Ratio (z) = 0.53311 0.10453
#
# Static dielectric constant tensor:
#      x y z
#    x 3.973970 0.000000 -0.031110 
#    y 0.000000 3.215600 0.000000 
#    z -0.031110 0.000000 3.599240 
# 
# 
# High freq. dielectric constant tensor:
#      x y z
#    x 1.780200 0.000000 -0.012990 
#    y 0.000000 1.731210 0.000000 
#    z -0.012990 0.000000 1.756320 
# 
# From -- ./inp_files/86671.got.cif
#   From: 2010.06.25/outbox.cif.g09.slc.cpg/sg10_44_cif.got.tgz:86671.got - 2010.06.27 22:07:45.
