data_PCOD8058122
_publ_section_title
;
Structure prediction by ZEFSAII (Michael W. Deem and Ramdas Pophale) SiO2 
 PCOD8058122
Probable space group: P 2/M
;
_chemical_formula_sum "Si O2"
_cell_formula_units_Z 30
_cell_length_a 26.108594
_cell_length_b 12.817121
_cell_length_c 5.274941
_cell_angle_alpha 90.000000
_cell_angle_beta 89.999859
_cell_angle_gamma 90.000000
_cell_volume 1765.190476
_symmetry_space_group_name_H-M "P 2/M"
_symmetry_group_IT_number 10
_symmetry_cell_setting 'monoclinic'
loop_
_space_group_symop_operation_xyz
x,y,z
-x,y,-z
-x,-y,-z
x,-y,z
loop_
_atom_site_type_symbol
_atom_site_label
_atom_site_fract_x
_atom_site_fract_y
_atom_site_fract_z
Si Si1 0.034367 0.727024 0.250000
Si Si2 0.696279 0.123507 0.250006
Si Si3 0.438975 0.297168 0.250002
Si Si4 0.966700 0.500000 0.750000
Si Si5 0.129234 0.875928 0.250014
Si Si6 0.189303 0.123508 0.750012
Si Si7 0.550069 0.381368 0.249999
Si Si8 0.636094 0.122546 0.750002
O O1 0.063007 0.612004 0.250001
O O2 0.075099 0.819193 0.249995
O O3 0.000000 0.739728 0.500000
O O4 0.000000 0.739726 0.000000
O O5 0.753456 0.171569 0.249999
O O6 0.667078 0.160145 0.502745
O O7 0.700084 0.000000 0.250019
O O8 0.667078 0.160139 0.997264
O O9 0.500641 0.304786 0.250002
O O10 0.416965 0.356232 0.499403
O O11 0.419350 0.178245 0.249994
O O12 0.416967 0.356238 0.000607
O O13 0.000000 0.500000 0.500000
O O14 0.000000 0.500000 0.000000
O O15 0.160134 0.838778 0.498205
O O16 0.119722 0.000000 0.250015
O O17 0.160140 0.838781 0.001838
O O18 0.193077 0.000000 0.750005
O O19 0.530588 0.500000 0.250008
O O20 0.625297 0.000000 0.749994
#
# Coordination Sequence:
#
# PCOD8058122 Si02
#       8
#     4   4   4   2   4   4   4   4
#     4  10  19  31  46  65  94 124 152 191 229 269
#     4   9  17  30  47  64  90 126 155 188 233 266
#     4  10  18  30  47  69  94 121 152 191 225 277
#     4   8  16  30  46  62  84 112 148 192 220 248
#     4  10  19  29  44  68  96 122 155 190 222 279
#     4   9  17  30  46  65  91 121 153 190 224 264
#     4  10  19  33  50  68  93 120 156 203 237 264
#     4  10  19  30  45  69  99 125 152 187 227 283
#
# _framework density 16.995334
#
# number of rings (size 3 to 8) (size 9 to 14) (size 15 to 20)
#    0.000    2.400    0.000    4.400    0.000    3.733 
#    0.000    2.667    0.000    0.000    0.000    0.000 
#   52.000    0.000    0.000    0.000    0.000    0.000 
#
# Total GULP energy -371679.336760 kJ/mol
# GULP energy per Si atom -12389.311225 kJ/mol
# Density = 1.695665 g / cm^3
# Si number density = 16.995334 Si / 1000 Ang^3
#
#
#
# Elastic Constant Matrix: (Units=GPa)
#
#
# Indices 1 2 3 4 5 6 
#
# 1 85.3907 53.4481 45.7409 0.0000 -0.9111 0.0000
# 2 53.4481 72.1780 39.3727 0.0000 -1.3740 0.0000
# 3 45.7409 39.3727 182.3988 0.0000 10.3996 0.0000
# 4 0.0000 0.0000 0.0000 13.9542 0.0000 1.1009
# 5 -0.9111 -1.3740 10.3996 0.0000 16.2621 0.0000
# 6 0.0000 0.0000 0.0000 1.1009 0.0000 2.6964
#
#
#
# Elastic Compliance Matrix: (Units=1/GPa)
#
#
# Indices 1 2 3 4 5 6 
#
# 1 0.022711 -0.015453 -0.002447 0.000000 0.001531 0.000000
# 2 -0.015453 0.026428 -0.001980 0.000000 0.002633 0.000000
# 3 -0.002447 -0.001980 0.006788 0.000000 -0.004645 0.000000
# 4 0.000000 0.000000 0.000000 0.074048 0.000000 -0.030232
# 5 0.001531 0.002633 -0.004645 0.000000 0.064772 0.000000
# 6 0.000000 0.000000 0.000000 -0.030232 0.000000 0.383208
#
#
# Mechanical properties :
#
#
# Convention : Reuss Voigt Hill
#
# Bulk Modulus (GPa) = 61.85337 68.56566 65.20952
# Shear Modulus (GPa) = 8.02436 20.00960 14.01698
#
# Velocity S-wave (km/s) = 2.17526 3.43499 2.87497
# Velocity P-wave (km/s) = 6.54082 7.49424 7.03370
#
# Compressibility (1/GPa) = 0.01616727
#
# Stress axis : x y z
#
# Youngs Moduli (GPa) = 44.03246 37.83877 147.31351
#
# Poissons Ratio (x) = 0.58474 0.36044
# Poissons Ratio (y) = 0.68045 0.29162
# Poissons Ratio (z) = 0.10774 0.07490
#
# Static dielectric constant tensor:
#      x y z
#    x 2.933130 0.000000 0.126240 
#    y 0.000000 3.059930 0.000000 
#    z 0.126240 0.000000 4.224270 
# 
# 
# High freq. dielectric constant tensor:
#      x y z
#    x 1.617640 0.000000 0.007620 
#    y 0.000000 1.623300 0.000000 
#    z 0.007620 0.000000 1.695620 
# 
# From -- ./inp_files/13155.got.cif
#   From: 2010.06.25/outbox.cif.g09.slc.cpg/sg10_7_cif.got.tgz:13155.got - 2010.06.27 22:07:45.
