data_PCOD8058761
_publ_section_title
;
Structure prediction by ZEFSAII (Michael W. Deem and Ramdas Pophale) SiO2 
 PCOD8058761
Probable space group: P 2/M
;
_chemical_formula_sum "Si O2"
_cell_formula_units_Z 32
_cell_length_a 16.860091
_cell_length_b 8.758656
_cell_length_c 21.644847
_cell_angle_alpha 90.000000
_cell_angle_beta 34.155116
_cell_angle_gamma 90.000000
_cell_volume 1794.533680
_symmetry_space_group_name_H-M "P 2/M"
_symmetry_group_IT_number 10
_symmetry_cell_setting 'monoclinic'
loop_
_space_group_symop_operation_xyz
x,y,z
-x,y,-z
-x,-y,-z
x,-y,z
loop_
_atom_site_type_symbol
_atom_site_label
_atom_site_fract_x
_atom_site_fract_y
_atom_site_fract_z
Si Si1 0.563137 0.674638 0.598463
Si Si2 0.270356 0.820881 0.773016
Si Si3 0.058388 0.319667 0.815895
Si Si4 0.001159 0.681387 0.591755
Si Si5 0.471177 0.673314 0.236028
Si Si6 0.133356 0.680634 0.632171
Si Si7 0.207572 0.820703 0.360034
Si Si8 0.779233 0.319829 0.065698
O O1 0.534808 0.500000 0.596856
O O2 0.432688 0.774184 0.658722
O O3 0.581195 0.686252 0.660138
O O4 0.705982 0.742872 0.476294
O O5 0.184227 0.761856 0.770155
O O6 0.202643 0.753153 0.878806
O O7 0.258442 0.000000 0.784776
O O8 0.078661 0.500000 0.809413
O O9 0.063789 0.266583 0.741162
O O10 0.907593 0.266998 0.939828
O O11 0.981374 0.500000 0.600853
O O12 0.856725 0.764832 0.663872
O O13 0.036267 0.739277 0.638339
O O14 0.128998 0.729449 0.464883
O O15 0.459145 0.500000 0.219787
O O16 0.373696 0.779897 0.255795
O O17 0.633082 0.732255 0.127442
O O18 0.143943 0.500000 0.620018
O O19 0.183861 0.000000 0.383505
O O20 0.775406 0.500000 0.079102
#
# Coordination Sequence:
#
# PCOD8058761 Si02
#       8
#     4   4   4   4   4   4   4   4
#     4   9  17  33  53  74 100 132 169 207 251 300
#     4  11  22  34  50  75 104 133 167 210 255 300
#     4  10  20  36  56  76  97 129 171 213 254 299
#     4  10  18  32  51  73 102 135 165 200 244 295
#     4   9  16  30  51  74 100 130 164 205 252 297
#     4   9  18  33  55  77  99 130 170 209 249 300
#     4  11  20  29  46  77 107 132 164 201 244 294
#     4   9  19  35  56  77  98 127 169 216 257 294
#
# _framework density 17.83193
#
# number of rings (size 3 to 8) (size 9 to 14) (size 15 to 20)
#    0.000    2.250    1.250    4.500    0.000    4.500 
#    0.000    4.375    0.000    0.750    0.000    5.250 
#    0.000    0.000    0.000    0.000    0.000    0.000 
#
# Total GULP energy -396792.003495 kJ/mol
# GULP energy per Si atom -12399.750109 kJ/mol
# Density = 1.779134 g / cm^3
# Si number density = 17.831930 Si / 1000 Ang^3
#
#
#
# Elastic Constant Matrix: (Units=GPa)
#
#
# Indices 1 2 3 4 5 6 
#
# 1 137.2834 32.1995 60.4190 0.0000 -8.0158 0.0000
# 2 32.1995 44.1049 11.7067 0.0000 -2.4068 0.0000
# 3 60.4190 11.7067 73.1344 0.0000 3.7994 0.0000
# 4 0.0000 0.0000 0.0000 6.3458 0.0000 -1.2202
# 5 -8.0158 -2.4068 3.7994 0.0000 23.7005 0.0000
# 6 0.0000 0.0000 0.0000 -1.2202 0.0000 0.8841
#
#
#
# Elastic Compliance Matrix: (Units=1/GPa)
#
#
# Indices 1 2 3 4 5 6 
#
# 1 0.013998 -0.007058 -0.010733 0.000000 0.005738 0.000000
# 2 -0.007058 0.027457 0.001427 0.000000 0.000172 0.000000
# 3 -0.010733 0.001427 0.022682 0.000000 -0.007121 0.000000
# 4 0.000000 0.000000 0.000000 0.214508 0.000000 0.296046
# 5 0.005738 0.000172 -0.007121 0.000000 0.045293 0.000000
# 6 0.000000 0.000000 0.000000 0.296046 0.000000 1.539653
#
#
# Mechanical properties :
#
#
# Convention : Reuss Voigt Hill
#
# Bulk Modulus (GPa) = 31.83814 51.46368 41.65091
# Shear Modulus (GPa) = 2.62221 16.19926 9.41073
#
# Velocity S-wave (km/s) = 1.21396 3.01731 2.29977
# Velocity P-wave (km/s) = 4.45626 6.40796 5.51907
#
# Compressibility (1/GPa) = 0.03140887
#
# Stress axis : x y z
#
# Youngs Moduli (GPa) = 71.43806 36.42116 44.08829
#
# Poissons Ratio (x) = 0.25705 0.47319
# Poissons Ratio (y) = 0.50419 -0.06290
# Poissons Ratio (z) = 0.76673 -0.05196
#
# Static dielectric constant tensor:
#      x y z
#    x 3.538320 0.000000 -0.207360 
#    y 0.000000 3.091250 0.000000 
#    z -0.207360 0.000000 3.332840 
# 
# 
# High freq. dielectric constant tensor:
#      x y z
#    x 1.689360 0.000000 -0.021450 
#    y 0.000000 1.673180 0.000000 
#    z -0.021450 0.000000 1.672580 
# 
# From -- ./inp_files/89940.got.cif
#   From: 2010.06.25/outbox.cif.g09.slc.cpg/sg10_45_cif.got.tgz:89940.got - 2010.06.27 22:07:45.
