data_PCOD8058573
_publ_section_title
;
Structure prediction by ZEFSAII (Michael W. Deem and Ramdas Pophale) SiO2 
 PCOD8058573
Probable space group: P 2/M
;
_chemical_formula_sum "Si O2"
_cell_formula_units_Z 28
_cell_length_a 22.064546
_cell_length_b 8.881953
_cell_length_c 12.645752
_cell_angle_alpha 90.000000
_cell_angle_beta 138.653749
_cell_angle_gamma 90.000000
_cell_volume 1637.162877
_symmetry_space_group_name_H-M "P 2/M"
_symmetry_group_IT_number 10
_symmetry_cell_setting 'monoclinic'
loop_
_space_group_symop_operation_xyz
x,y,z
-x,y,-z
-x,-y,-z
x,-y,z
loop_
_atom_site_type_symbol
_atom_site_label
_atom_site_fract_x
_atom_site_fract_y
_atom_site_fract_z
Si Si1 0.906158 0.320690 0.426789
Si Si2 0.405633 0.678274 0.254665
Si Si3 0.903225 0.676067 0.661828
Si Si4 0.212107 0.177524 0.311936
Si Si5 0.779211 0.679082 0.077950
Si Si6 0.392128 0.321654 0.477158
Si Si7 0.887596 0.675618 0.014730
O O1 0.911187 0.500000 0.433959
O O2 0.894040 0.262592 0.530078
O O3 0.821714 0.261399 0.243750
O O4 0.000000 0.256260 0.500000
O O5 0.406922 0.500000 0.257841
O O6 0.506699 0.732148 0.350334
O O7 0.381739 0.730827 0.342011
O O8 0.325591 0.739082 0.071815
O O9 0.879578 0.500000 0.637945
O O10 0.831021 0.768899 0.634917
O O11 0.004683 0.707151 0.838163
O O12 0.315996 0.237976 0.446014
O O13 0.213343 0.000000 0.309255
O O14 0.152353 0.237502 0.136904
O O15 0.781212 0.500000 0.080357
O O16 0.840488 0.736168 0.060087
O O17 0.379044 0.500000 0.472226
O O18 0.866211 0.500000 0.970186
#
# Coordination Sequence:
#
# PCOD8058573 Si02
#       7
#     4   4   4   4   4   4   4
#     4   9  15  26  47  78 105 123 154 203 246 281
#     4   8  14  25  48  78 101 123 153 198 251 294
#     4  10  20  33  51  74  99 132 169 200 237 289
#     4  12  24  34  46  68 101 137 168 203 244 286
#     4   9  14  24  48  79 106 124 149 196 249 292
#     4   9  16  30  51  73  97 126 162 199 244 299
#     4  10  18  31  52  74  99 131 163 196 240 294
#
# _framework density 17.102758000000001
#
# number of rings (size 3 to 8) (size 9 to 14) (size 15 to 20)
#    0.000    2.429    2.857    2.571    0.000    2.286 
#    0.000    1.429    0.000    2.143    0.000    6.000 
#    0.000    0.000    0.000    0.000    0.000    0.000 
#
# Total GULP energy -347081.592543 kJ/mol
# GULP energy per Si atom -12395.771162 kJ/mol
# Density = 1.706383 g / cm^3
# Si number density = 17.102758 Si / 1000 Ang^3
#
#
#
# Elastic Constant Matrix: (Units=GPa)
#
#
# Indices 1 2 3 4 5 6 
#
# 1 136.3711 43.7654 77.9238 0.0000 6.3905 0.0000
# 2 43.7654 44.1552 32.4806 0.0000 2.5260 0.0000
# 3 77.9238 32.4806 128.7504 0.0000 10.6244 0.0000
# 4 0.0000 0.0000 0.0000 2.2257 0.0000 1.9814
# 5 6.3905 2.5260 10.6244 0.0000 30.0782 0.0000
# 6 0.0000 0.0000 0.0000 1.9814 0.0000 -2.0958
#
#
#
# Elastic Compliance Matrix: (Units=1/GPa)
#
#
# Indices 1 2 3 4 5 6 
#
# 1 0.013690 -0.009177 -0.005968 0.000000 -0.000030 0.000000
# 2 -0.009177 0.033961 -0.003027 0.000000 0.000167 0.000000
# 3 -0.005968 -0.003027 0.012378 0.000000 -0.002850 0.000000
# 4 0.000000 0.000000 0.000000 0.243959 0.000000 0.230645
# 5 -0.000030 0.000167 -0.002850 0.000000 0.034246 0.000000
# 6 0.000000 0.000000 0.000000 0.230645 0.000000 -0.259083
#
#
# Mechanical properties :
#
#
# Convention : Reuss Voigt Hill
#
# Bulk Modulus (GPa) = 42.22225 68.62403 55.42314
# Shear Modulus (GPa) = 40.52271 16.38209 28.45240
#
# Velocity S-wave (km/s) = 4.87290 3.09829 4.08317
# Velocity P-wave (km/s) = 7.51007 7.28086 7.39635
#
# Compressibility (1/GPa) = 0.02368420
#
# Stress axis : x y z
#
# Youngs Moduli (GPa) = 73.04843 29.44595 80.79106
#
# Poissons Ratio (x) = 0.27023 0.48214
# Poissons Ratio (y) = 0.67037 0.24455
# Poissons Ratio (z) = 0.43593 0.08913
#
# Static dielectric constant tensor:
#      x y z
#    x 3.256430 0.000000 0.164340 
#    y 0.000000 2.697360 0.000000 
#    z 0.164340 0.000000 3.560530 
# 
# 
# High freq. dielectric constant tensor:
#      x y z
#    x 1.654270 0.000000 0.013810 
#    y 0.000000 1.608580 0.000000 
#    z 0.013810 0.000000 1.662270 
# 
# From -- ./inp_files/55012.got.cif
#   From: 2010.06.25/outbox.cif.g09.slc.cpg/sg10_28_cif.got.tgz:55012.got - 2010.06.27 22:07:45.
