data_PCOD8058503
_publ_section_title
;
Structure prediction by ZEFSAII (Michael W. Deem and Ramdas Pophale) SiO2 
 PCOD8058503
Probable space group: P 2/M
;
_chemical_formula_sum "Si O2"
_cell_formula_units_Z 32
_cell_length_a 12.336278
_cell_length_b 8.583550
_cell_length_c 20.135928
_cell_angle_alpha 90.000000
_cell_angle_beta 55.491114
_cell_angle_gamma 90.000000
_cell_volume 1756.993499
_symmetry_space_group_name_H-M "P 2/M"
_symmetry_group_IT_number 10
_symmetry_cell_setting 'monoclinic'
loop_
_space_group_symop_operation_xyz
x,y,z
-x,y,-z
-x,-y,-z
x,-y,z
loop_
_atom_site_type_symbol
_atom_site_label
_atom_site_fract_x
_atom_site_fract_y
_atom_site_fract_z
Si Si1 0.855200 0.683520 0.449407
Si Si2 0.922663 0.316124 0.801233
Si Si3 0.130266 0.182652 0.317853
Si Si4 0.904851 0.182419 0.944469
Si Si5 0.213682 0.683713 0.669508
Si Si6 0.308927 0.314741 0.365879
Si Si7 0.397478 0.316023 0.718620
Si Si8 0.175823 0.317249 0.896270
O O1 0.884273 0.500000 0.439620
O O2 0.769707 0.729713 0.413705
O O3 0.774399 0.737897 0.541193
O O4 0.995496 0.767351 0.400571
O O5 0.913418 0.500000 0.812696
O O6 0.072745 0.255429 0.743820
O O7 0.847589 0.265569 0.760624
O O8 0.857467 0.235478 0.888018
O O9 0.251806 0.232814 0.321009
O O10 0.130094 0.000000 0.306562
O O11 0.056549 0.227535 0.902640
O O12 0.885993 0.000000 0.959726
O O13 0.813151 0.268314 0.030612
O O14 0.215183 0.500000 0.677698
O O15 0.329559 0.754681 0.675264
O O16 0.305082 0.500000 0.358118
O O17 0.456351 0.248440 0.324085
O O18 0.408545 0.500000 0.707328
O O19 0.310762 0.270642 0.812820
O O20 0.146849 0.500000 0.899579
#
# Coordination Sequence:
#
# PCOD8058503 Si02
#       8
#     4   4   4   4   4   4   4   4
#     4   9  18  32  53  77 102 132 172 220 265 305
#     4  10  18  33  56  79 103 132 168 213 261 309
#     4  11  22  35  52  75 102 134 173 218 264 308
#     4  11  20  30  48  79 111 137 168 209 256 307
#     4   8  14  27  48  76 102 128 163 209 257 300
#     4  10  20  34  52  75 101 136 179 220 258 303
#     4   9  17  30  51  76 104 136 176 217 253 302
#     4  10  18  31  50  74 105 144 178 211 251 299
#
# _framework density 18.212928999999999
#
# number of rings (size 3 to 8) (size 9 to 14) (size 15 to 20)
#    0.000    2.250    1.250    4.875    0.000    2.500 
#    0.000    3.750    0.000    0.750    0.000    7.875 
#    0.000    0.000    0.000    0.000    0.000    0.000 
#
# Total GULP energy -396753.527324 kJ/mol
# GULP energy per Si atom -12398.547729 kJ/mol
# Density = 1.817148 g / cm^3
# Si number density = 18.212929 Si / 1000 Ang^3
#
#
#
# Elastic Constant Matrix: (Units=GPa)
#
#
# Indices 1 2 3 4 5 6 
#
# 1 119.3557 12.6135 44.1817 0.0000 15.9376 0.0000
# 2 12.6135 43.4229 10.3888 0.0000 2.2569 0.0000
# 3 44.1817 10.3888 77.2775 0.0000 25.0210 0.0000
# 4 0.0000 0.0000 0.0000 12.2283 0.0000 6.8390
# 5 15.9376 2.2569 25.0210 0.0000 25.6524 0.0000
# 6 0.0000 0.0000 0.0000 6.8390 0.0000 12.0361
#
#
#
# Elastic Compliance Matrix: (Units=1/GPa)
#
#
# Indices 1 2 3 4 5 6 
#
# 1 0.010770 -0.001740 -0.005564 0.000000 -0.001111 0.000000
# 2 -0.001740 0.024115 -0.002792 0.000000 0.001683 0.000000
# 3 -0.005564 -0.002792 0.022359 0.000000 -0.018107 0.000000
# 4 0.000000 0.000000 0.000000 0.119871 0.000000 -0.068112
# 5 -0.001111 0.001683 -0.018107 0.000000 0.057186 0.000000
# 6 0.000000 0.000000 0.000000 -0.068112 0.000000 0.121785
#
#
# Mechanical properties :
#
#
# Convention : Reuss Voigt Hill
#
# Bulk Modulus (GPa) = 26.98803 41.60269 34.29536
# Shear Modulus (GPa) = 12.86574 21.50818 17.18696
#
# Velocity S-wave (km/s) = 2.66071 3.44019 3.07525
# Velocity P-wave (km/s) = 4.92843 6.21867 5.61076
#
# Compressibility (1/GPa) = 0.03705347
#
# Stress axis : x y z
#
# Youngs Moduli (GPa) = 92.84936 41.46765 44.72412
#
# Poissons Ratio (x) = 0.07214 0.24884
# Poissons Ratio (y) = 0.16152 0.12487
# Poissons Ratio (z) = 0.51660 0.11578
#
# Static dielectric constant tensor:
#      x y z
#    x 3.440130 0.000000 0.207220 
#    y 0.000000 3.110000 0.000000 
#    z 0.207220 0.000000 3.547810 
# 
# 
# High freq. dielectric constant tensor:
#      x y z
#    x 1.687930 0.000000 0.025020 
#    y 0.000000 1.684390 0.000000 
#    z 0.025020 0.000000 1.706590 
# 
# From -- ./inp_files/54920.got.cif
#   From: 2010.06.25/outbox.cif.g09.slc.cpg/sg10_28_cif.got.tgz:54920.got - 2010.06.27 22:07:45.
