data_PCOD8058849
_publ_section_title
;
Structure prediction by ZEFSAII (Michael W. Deem and Ramdas Pophale) SiO2 
 PCOD8058849
Probable space group: P 2/M
;
_chemical_formula_sum "Si O2"
_cell_formula_units_Z 30
_cell_length_a 7.833537
_cell_length_b 18.865788
_cell_length_c 14.506374
_cell_angle_alpha 90.000000
_cell_angle_beta 131.039789
_cell_angle_gamma 90.000000
_cell_volume 1616.997041
_symmetry_space_group_name_H-M "P 2/M"
_symmetry_group_IT_number 10
_symmetry_cell_setting 'monoclinic'
loop_
_space_group_symop_operation_xyz
x,y,z
-x,y,-z
-x,-y,-z
x,-y,z
loop_
_atom_site_type_symbol
_atom_site_label
_atom_site_fract_x
_atom_site_fract_y
_atom_site_fract_z
Si Si1 0.562834 0.676774 0.819434
Si Si2 0.500000 0.630100 0.500000
Si Si3 0.816494 0.920532 0.854410
Si Si4 0.126879 0.685714 0.235616
Si Si5 0.873009 0.826705 0.144971
Si Si6 0.846591 0.579498 0.035888
Si Si7 0.488405 0.173064 0.139635
Si Si8 0.743767 0.579874 0.413414
O O1 0.774051 0.700966 0.831054
O O2 0.638755 0.631690 0.936236
O O3 0.436172 0.749021 0.800771
O O4 0.394086 0.628955 0.702744
O O5 0.323253 0.678344 0.381007
O O6 0.643690 0.581954 0.481099
O O7 0.588685 0.879531 0.805894
O O8 0.924866 0.881979 0.803745
O O9 0.745673 0.000000 0.800664
O O10 0.000000 0.923352 0.000000
O O11 0.973735 0.751493 0.212200
O O12 0.979330 0.613393 0.170832
O O13 0.708793 0.858836 0.166092
O O14 0.726118 0.814539 0.001845
O O15 0.765777 0.500000 0.035514
O O16 0.000000 0.572828 0.000000
O O17 0.726321 0.500000 0.370263
O O18 0.000000 0.607162 0.500000
#
# Coordination Sequence:
#
# PCOD8058849 Si02
#       8
#     4   2   4   4   4   4   4   4
#     4  10  18  32  54  75 103 137 178 222 263 316
#     4  10  23  36  54  72 101 134 180 228 265 318
#     4   9  18  32  51  77 112 145 171 203 252 316
#     4  10  19  33  52  74 102 138 178 219 267 314
#     4  10  19  31  51  77 108 141 172 210 261 308
#     4   9  17  28  49  77 100 133 177 223 268 314
#     4  10  19  30  52  79 107 138 174 213 259 308
#     4  10  22  38  54  73 102 141 181 226 275 314
#
# _framework density 18.552907999999999
#
# number of rings (size 3 to 8) (size 9 to 14) (size 15 to 20)
#    0.000    2.267    2.667    0.600    1.867    4.267 
#    0.000    2.667    0.000    0.800    0.000    0.467 
#    0.000    1.600    0.000    0.000    0.000    0.000 
#
# Total GULP energy -371902.864676 kJ/mol
# GULP energy per Si atom -12396.762156 kJ/mol
# Density = 1.851068 g / cm^3
# Si number density = 18.552908 Si / 1000 Ang^3
#
#
#
# Elastic Constant Matrix: (Units=GPa)
#
#
# Indices 1 2 3 4 5 6 
#
# 1 104.1179 50.6469 32.1086 0.0000 16.1820 0.0000
# 2 50.6469 125.5393 30.6519 0.0000 4.4983 0.0000
# 3 32.1086 30.6519 71.7656 0.0000 0.4438 0.0000
# 4 0.0000 0.0000 0.0000 6.6865 0.0000 1.2264
# 5 16.1820 4.4983 0.4438 0.0000 18.2337 0.0000
# 6 0.0000 0.0000 0.0000 1.2264 0.0000 15.9209
#
#
#
# Elastic Compliance Matrix: (Units=1/GPa)
#
#
# Indices 1 2 3 4 5 6 
#
# 1 0.015181 -0.004517 -0.004787 0.000000 -0.012241 0.000000
# 2 -0.004517 0.010318 -0.002396 0.000000 0.001521 0.000000
# 3 -0.004787 -0.002396 0.017072 0.000000 0.004424 0.000000
# 4 0.000000 0.000000 0.000000 0.151699 0.000000 -0.011686
# 5 -0.012241 0.001521 0.004424 0.000000 0.065225 0.000000
# 6 0.000000 0.000000 0.000000 -0.011686 0.000000 0.063711
#
#
# Mechanical properties :
#
#
# Convention : Reuss Voigt Hill
#
# Bulk Modulus (GPa) = 52.16018 58.69309 55.42664
# Shear Modulus (GPa) = 14.16453 20.70256 17.43354
#
# Velocity S-wave (km/s) = 2.76609 3.34408 3.06872
# Velocity P-wave (km/s) = 6.19492 6.82750 6.51888
#
# Compressibility (1/GPa) = 0.01917171
#
# Stress axis : x y z
#
# Youngs Moduli (GPa) = 65.87398 96.91514 58.57608
#
# Poissons Ratio (x) = 0.43776 0.28040
# Poissons Ratio (y) = 0.29755 0.14032
# Poissons Ratio (z) = 0.31534 0.23217
#
# Static dielectric constant tensor:
#      x y z
#    x 3.574290 0.000000 0.076580 
#    y 0.000000 3.404480 0.000000 
#    z 0.076580 0.000000 3.052780 
# 
# 
# High freq. dielectric constant tensor:
#      x y z
#    x 1.719500 0.000000 0.011350 
#    y 0.000000 1.711840 0.000000 
#    z 0.011350 0.000000 1.678790 
# 
# From -- ./inp_files/75448.got.cif
#   From: 2010.06.25/outbox.cif.g09.slc.cpg/sg10_38_cif.got.tgz:75448.got - 2010.06.27 22:07:45.
