data_PCOD8058524
_publ_section_title
;
Structure prediction by ZEFSAII (Michael W. Deem and Ramdas Pophale) SiO2 
 PCOD8058524
Probable space group: P 2/M
;
_chemical_formula_sum "Si O2"
_cell_formula_units_Z 20
_cell_length_a 18.105240
_cell_length_b 8.988542
_cell_length_c 12.633624
_cell_angle_alpha 90.000000
_cell_angle_beta 145.817630
_cell_angle_gamma 90.000000
_cell_volume 1155.115809
_symmetry_space_group_name_H-M "P 2/M"
_symmetry_group_IT_number 10
_symmetry_cell_setting 'monoclinic'
loop_
_space_group_symop_operation_xyz
x,y,z
-x,y,-z
-x,-y,-z
x,-y,z
loop_
_atom_site_type_symbol
_atom_site_label
_atom_site_fract_x
_atom_site_fract_y
_atom_site_fract_z
Si Si1 0.187653 0.824846 0.416200
Si Si2 0.150784 0.835351 0.144566
Si Si3 0.912340 0.324505 0.131395
Si Si4 0.643951 0.824077 0.190314
Si Si5 0.861483 0.824402 0.284121
O O1 0.229067 0.785228 0.344006
O O2 0.307248 0.778563 0.634472
O O3 0.059398 0.737229 0.300987
O O4 0.153989 0.000000 0.386430
O O5 0.196082 0.000000 0.162035
O O6 0.171823 0.722881 0.072312
O O7 0.000000 0.838770 0.000000
O O8 0.916123 0.500000 0.142280
O O9 0.840370 0.258921 0.148486
O O10 0.746456 0.765488 0.224571
O O11 0.636005 0.000000 0.171201
O O12 0.500000 0.753021 0.000000
O O13 0.000000 0.779518 0.500000
O O14 0.854168 0.000000 0.255652
#
# Coordination Sequence:
#
# PCOD8058524 Si02
#       5
#     4   4   4   4   4
#     4   9  16  30  49  70  97 127 159 195 241 287
#     4   8  15  27  45  67  94 126 158 195 240 287
#     4  11  20  28  44  71 101 126 159 201 237 279
#     4   9  17  30  51  76  97 121 158 200 238 282
#     4  10  18  31  51  71  96 128 158 193 242 289
#
# _framework density 17.314281000000001
#
# number of rings (size 3 to 8) (size 9 to 14) (size 15 to 20)
#    0.000    2.600    2.000    3.000    0.000    4.000 
#    0.000    0.000    0.000    3.600    0.000    8.400 
#    0.000    0.000    0.000    0.000    0.000    0.000 
#
# Total GULP energy -247902.541512 kJ/mol
# GULP energy per Si atom -12395.127076 kJ/mol
# Density = 1.727487 g / cm^3
# Si number density = 17.314281 Si / 1000 Ang^3
#
#
#
# Elastic Constant Matrix: (Units=GPa)
#
#
# Indices 1 2 3 4 5 6 
#
# 1 105.4169 37.7292 81.6371 0.0000 -19.3118 0.0000
# 2 37.7292 59.5191 36.1064 0.0000 -13.7895 0.0000
# 3 81.6371 36.1064 135.2434 0.0000 -24.6191 0.0000
# 4 0.0000 0.0000 0.0000 5.0105 0.0000 -0.8811
# 5 -19.3118 -13.7895 -24.6191 0.0000 35.3423 0.0000
# 6 0.0000 0.0000 0.0000 -0.8811 0.0000 7.5778
#
#
#
# Elastic Compliance Matrix: (Units=1/GPa)
#
#
# Indices 1 2 3 4 5 6 
#
# 1 0.019649 -0.006072 -0.009982 0.000000 0.001414 0.000000
# 2 -0.006072 0.022627 -0.001572 0.000000 0.004416 0.000000
# 3 -0.009982 -0.001572 0.014584 0.000000 0.004091 0.000000
# 4 0.000000 0.000000 0.000000 0.203747 0.000000 0.023690
# 5 0.001414 0.004416 0.004091 0.000000 0.033640 0.000000
# 6 0.000000 0.000000 0.000000 0.023690 0.000000 0.134719
#
#
# Mechanical properties :
#
#
# Convention : Reuss Voigt Hill
#
# Bulk Modulus (GPa) = 46.27979 67.90276 57.09128
# Shear Modulus (GPa) = 10.60625 19.23324 14.91974
#
# Velocity S-wave (km/s) = 2.47770 3.33653 2.93866
# Velocity P-wave (km/s) = 5.91377 7.35841 6.67528
#
# Compressibility (1/GPa) = 0.02160770
#
# Stress axis : x y z
#
# Youngs Moduli (GPa) = 50.89353 44.19509 68.56859
#
# Poissons Ratio (x) = 0.26837 0.68446
# Poissons Ratio (y) = 0.30904 0.10776
# Poissons Ratio (z) = 0.50803 0.06945
#
# Static dielectric constant tensor:
#      x y z
#    x 3.248540 0.000000 -0.389330 
#    y 0.000000 2.908430 0.000000 
#    z -0.389330 0.000000 3.576150 
# 
# 
# High freq. dielectric constant tensor:
#      x y z
#    x 1.649830 0.000000 -0.039110 
#    y 0.000000 1.637290 0.000000 
#    z -0.039110 0.000000 1.660110 
# 
# From -- ./inp_files/22356.got.cif
#   From: 2010.06.25/outbox.cif.g09.slc.cpg/sg10_12_cif.got.tgz:22356.got - 2010.06.27 22:07:45.
