data_PCOD8058519
_publ_section_title
;
Structure prediction by ZEFSAII (Michael W. Deem and Ramdas Pophale) SiO2 
 PCOD8058519
Probable space group: P 2/M
;
_chemical_formula_sum "Si O2"
_cell_formula_units_Z 28
_cell_length_a 17.399678
_cell_length_b 13.527568
_cell_length_c 18.759077
_cell_angle_alpha 90.000000
_cell_angle_beta 22.367685
_cell_angle_gamma 90.000000
_cell_volume 1680.284567
_symmetry_space_group_name_H-M "P 2/M"
_symmetry_group_IT_number 10
_symmetry_cell_setting 'monoclinic'
loop_
_space_group_symop_operation_xyz
x,y,z
-x,y,-z
-x,-y,-z
x,-y,z
loop_
_atom_site_type_symbol
_atom_site_label
_atom_site_fract_x
_atom_site_fract_y
_atom_site_fract_z
Si Si1 0.682411 0.388635 0.993760
Si Si2 0.942168 0.888632 0.757532
Si Si3 0.924955 0.300695 0.282361
Si Si4 0.843683 0.886697 0.574416
Si Si5 0.076711 0.615825 0.011799
Si Si6 0.512445 0.386702 0.688194
Si Si7 0.454015 0.201037 0.958310
O O1 0.659916 0.500000 0.984639
O O2 0.539799 0.369681 0.184218
O O3 0.614220 0.315224 0.989420
O O4 0.916736 0.370501 0.811854
O O5 0.017919 0.813995 0.753599
O O6 0.072215 0.871219 0.575874
O O7 0.965145 0.000000 0.767289
O O8 0.711576 0.871031 0.933370
O O9 0.698731 0.319262 0.504181
O O10 0.942517 0.322662 0.183201
O O11 0.652521 0.815747 0.741794
O O12 0.000000 0.849854 0.500000
O O13 0.783125 0.000000 0.641741
O O14 0.045091 0.500000 0.055310
O O15 0.313684 0.642945 0.813470
O O16 0.000000 0.645959 0.000000
O O17 0.571513 0.500000 0.622848
O O18 0.500000 0.172491 0.000000
#
# Coordination Sequence:
#
# PCOD8058519 Si02
#       7
#     4   4   4   4   4   4   4
#     4   9  19  32  45  66  95 126 162 199 231 279
#     4  10  21  34  49  71  94 121 160 205 246 287
#     4  10  18  31  51  70  95 129 162 192 234 285
#     4  10  19  31  48  68  91 115 149 202 254 292
#     4   9  18  31  49  79 110 127 151 192 231 274
#     4   9  16  29  50  71  95 127 158 188 228 278
#     4  11  20  31  49  68  91 124 159 198 249 298
#
# _framework density 16.663844000000001
#
# number of rings (size 3 to 8) (size 9 to 14) (size 15 to 20)
#    0.000    2.286    1.429    3.429    0.000    1.429 
#    0.000    2.143    0.000    0.857    0.000    1.000 
#    0.000    0.000    0.000    0.000    0.000    0.000 
#
# Total GULP energy -347221.262057 kJ/mol
# GULP energy per Si atom -12400.759359 kJ/mol
# Density = 1.662592 g / cm^3
# Si number density = 16.663844 Si / 1000 Ang^3
#
#
#
# Elastic Constant Matrix: (Units=GPa)
#
#
# Indices 1 2 3 4 5 6 
#
# 1 60.0233 27.1549 21.5379 0.0000 1.6189 0.0000
# 2 27.1549 79.1924 31.2811 0.0000 4.8585 0.0000
# 3 21.5379 31.2811 100.8067 0.0000 -0.3145 0.0000
# 4 0.0000 0.0000 0.0000 22.4455 0.0000 0.5619
# 5 1.6189 4.8585 -0.3145 0.0000 15.3022 0.0000
# 6 0.0000 0.0000 0.0000 0.5619 0.0000 24.9840
#
#
#
# Elastic Compliance Matrix: (Units=1/GPa)
#
#
# Indices 1 2 3 4 5 6 
#
# 1 0.020248 -0.005944 -0.002483 0.000000 -0.000306 0.000000
# 2 -0.005944 0.016476 -0.003857 0.000000 -0.004682 0.000000
# 3 -0.002483 -0.003857 0.011653 0.000000 0.001727 0.000000
# 4 0.000000 0.000000 0.000000 0.044578 0.000000 -0.001003
# 5 -0.000306 -0.004682 0.001727 0.000000 0.066904 0.000000
# 6 0.000000 0.000000 0.000000 -0.001003 0.000000 0.040048
#
#
# Mechanical properties :
#
#
# Convention : Reuss Voigt Hill
#
# Bulk Modulus (GPa) = 41.99948 44.44115 43.22031
# Shear Modulus (GPa) = 21.51351 23.21623 22.36487
#
# Velocity S-wave (km/s) = 3.59699 3.73662 3.66747
# Velocity P-wave (km/s) = 6.51995 6.73376 6.62772
#
# Compressibility (1/GPa) = 0.02380982
#
# Stress axis : x y z
#
# Youngs Moduli (GPa) = 49.38700 60.69263 85.81611
#
# Poissons Ratio (x) = 0.36073 0.21306
# Poissons Ratio (y) = 0.29354 0.33104
# Poissons Ratio (z) = 0.12262 0.23412
#
# Static dielectric constant tensor:
#      x y z
#    x 2.952300 0.000000 -0.020440 
#    y 0.000000 3.057820 0.000000 
#    z -0.020440 0.000000 3.149080 
# 
# 
# High freq. dielectric constant tensor:
#      x y z
#    x 1.619020 0.000000 0.000070 
#    y 0.000000 1.629450 0.000000 
#    z 0.000070 0.000000 1.652970 
# 
# From -- ./inp_files/11250.got.cif
#   From: 2010.06.25/outbox.cif.g09.slc.cpg/sg10_6_cif.got.tgz:11250.got - 2010.06.27 22:07:45.
