data_PCOD8058284
_publ_section_title
;
Structure prediction by ZEFSAII (Michael W. Deem and Ramdas Pophale) SiO2 
 PCOD8058284
Probable space group: P 2/M
;
_chemical_formula_sum "Si O2"
_cell_formula_units_Z 32
_cell_length_a 33.228038
_cell_length_b 9.464736
_cell_length_c 12.196892
_cell_angle_alpha 90.000000
_cell_angle_beta 26.002918
_cell_angle_gamma 90.000000
_cell_volume 1681.704510
_symmetry_space_group_name_H-M "P 2/M"
_symmetry_group_IT_number 10
_symmetry_cell_setting 'monoclinic'
loop_
_space_group_symop_operation_xyz
x,y,z
-x,y,-z
-x,-y,-z
x,-y,z
loop_
_atom_site_type_symbol
_atom_site_label
_atom_site_fract_x
_atom_site_fract_y
_atom_site_fract_z
Si Si1 0.509887 0.667302 0.160381
Si Si2 0.771848 0.835371 0.793573
Si Si3 0.895929 0.164891 0.284102
Si Si4 0.063417 0.666674 0.204823
Si Si5 0.136680 0.332866 0.248536
Si Si6 0.630943 0.664675 0.665842
Si Si7 0.824898 0.665153 0.267780
Si Si8 0.435304 0.164368 0.761515
O O1 0.516523 0.500000 0.167864
O O2 0.412359 0.713932 0.344117
O O3 0.523281 0.747308 0.240590
O O4 0.584212 0.724706 0.890545
O O5 0.855392 0.799620 0.503835
O O6 0.786715 0.748878 0.869428
O O7 0.772808 0.000000 0.820184
O O8 0.671197 0.791327 0.996125
O O9 0.826849 0.246491 0.373488
O O10 0.888147 0.000000 0.278631
O O11 0.000000 0.216965 0.000000
O O12 0.057688 0.500000 0.228240
O O13 0.137352 0.711295 0.117999
O O14 0.961929 0.725538 0.469793
O O15 0.092271 0.714395 0.013036
O O16 0.151217 0.500000 0.230962
O O17 0.611549 0.500000 0.719808
O O18 0.736935 0.704284 0.410385
O O19 0.827959 0.500000 0.290643
O O20 0.500000 0.199749 0.500000
O O21 0.440735 0.000000 0.778125
#
# Coordination Sequence:
#
# PCOD8058284 Si02
#       8
#     4   4   4   4   4   4   4   4
#     4   9  17  33  54  74  98 126 160 200 247 299
#     4  10  21  36  52  71  99 133 166 203 247 290
#     4  10  21  35  50  72 104 135 162 201 249 289
#     4   8  16  30  48  72 101 129 157 200 248 285
#     4   9  17  32  52  72  97 129 165 201 241 289
#     4   8  16  30  50  76 102 125 151 200 257 292
#     4  10  18  30  50  74  99 128 164 199 239 294
#     4  10  22  38  52  69  99 135 167 204 247 287
#
# _framework density 19.028312
#
# number of rings (size 3 to 8) (size 9 to 14) (size 15 to 20)
#    0.000    2.750    0.000    3.000    0.000    2.500 
#    0.000    5.000    0.000    0.000    0.000    0.000 
#    0.000    0.000    0.000    0.000    0.000    0.000 
#
# Total GULP energy -396486.806172 kJ/mol
# GULP energy per Si atom -12390.212693 kJ/mol
# Density = 1.898500 g / cm^3
# Si number density = 19.028312 Si / 1000 Ang^3
#
#
#
# Elastic Constant Matrix: (Units=GPa)
#
#
# Indices 1 2 3 4 5 6 
#
# 1 124.7694 48.3735 18.3591 0.0000 -3.2877 0.0000
# 2 48.3735 38.8714 14.9086 0.0000 -1.7011 0.0000
# 3 18.3591 14.9086 61.8199 0.0000 -5.1992 0.0000
# 4 0.0000 0.0000 0.0000 15.9891 0.0000 -0.5154
# 5 -3.2877 -1.7011 -5.1992 0.0000 21.6927 0.0000
# 6 0.0000 0.0000 0.0000 -0.5154 0.0000 -3.9528
#
#
#
# Elastic Compliance Matrix: (Units=1/GPa)
#
#
# Indices 1 2 3 4 5 6 
#
# 1 0.015503 -0.019302 0.000124 0.000000 0.000866 0.000000
# 2 -0.019302 0.052388 -0.006942 0.000000 -0.000481 0.000000
# 3 0.000124 -0.006942 0.018135 0.000000 0.003821 0.000000
# 4 0.000000 0.000000 0.000000 0.062281 0.000000 -0.008121
# 5 0.000866 -0.000481 0.003821 0.000000 0.047108 0.000000
# 6 0.000000 0.000000 0.000000 -0.008121 0.000000 -0.251925
#
#
# Mechanical properties :
#
#
# Convention : Reuss Voigt Hill
#
# Bulk Modulus (GPa) = 29.59938 43.19369 36.39653
# Shear Modulus (GPa) = 715.07451 16.33375 365.70413
#
# Velocity S-wave (km/s) = 19.40646 2.93301 13.87828
# Velocity P-wave (km/s) = 22.75383 5.84970 16.61259
#
# Compressibility (1/GPa) = 0.03378449
#
# Stress axis : x y z
#
# Youngs Moduli (GPa) = 64.50401 19.08836 55.14257
#
# Poissons Ratio (x) = 0.36845 -0.00682
# Poissons Ratio (y) = 1.24507 0.38281
# Poissons Ratio (z) = -0.00798 0.13251
#
# Static dielectric constant tensor:
#      x y z
#    x 3.570950 0.000000 -0.047810 
#    y 0.000000 3.099420 0.000000 
#    z -0.047810 0.000000 4.594160 
# 
# 
# High freq. dielectric constant tensor:
#      x y z
#    x 1.749990 0.000000 -0.002160 
#    y 0.000000 1.701700 0.000000 
#    z -0.002160 0.000000 1.740020 
# 
# From -- ./inp_files/58137.got.cif
#   From: 2010.06.25/outbox.cif.g09.slc.cpg/sg10_30_cif.got.tgz:58137.got - 2010.06.27 22:07:45.
