data_PCOD8058019
_publ_section_title
;
Structure prediction by ZEFSAII (Michael W. Deem and Ramdas Pophale) SiO2 
 PCOD8058019
Probable space group: P 2/M
;
_chemical_formula_sum "Si O2"
_cell_formula_units_Z 22
_cell_length_a 11.039255
_cell_length_b 11.152157
_cell_length_c 9.790813
_cell_angle_alpha 90.000000
_cell_angle_beta 77.273640
_cell_angle_gamma 90.000000
_cell_volume 1175.749959
_symmetry_space_group_name_H-M "P 2/M"
_symmetry_group_IT_number 10
_symmetry_cell_setting 'monoclinic'
loop_
_space_group_symop_operation_xyz
x,y,z
-x,y,-z
-x,-y,-z
x,-y,z
loop_
_atom_site_type_symbol
_atom_site_label
_atom_site_fract_x
_atom_site_fract_y
_atom_site_fract_z
Si Si1 0.696247 0.865055 0.186634
Si Si2 0.712393 0.297671 0.404381
Si Si3 0.327005 0.500000 0.190905
Si Si4 0.592637 0.863336 0.665318
Si Si5 0.357810 0.753197 0.071677
Si Si6 0.556525 0.500000 0.337761
Si Si7 0.854357 0.500000 0.520505
O O1 0.775574 0.799143 0.286716
O O2 0.553210 0.855563 0.270017
O O3 0.743060 0.000000 0.166474
O O4 0.722348 0.807566 0.032017
O O5 0.627272 0.230362 0.537656
O O6 0.635173 0.378055 0.313750
O O7 0.814706 0.379648 0.451394
O O8 0.322985 0.614139 0.093990
O O9 0.453593 0.500000 0.246730
O O10 0.207310 0.500000 0.316144
O O11 0.669341 0.825098 0.781521
O O12 0.629141 0.000000 0.615119
O O13 0.500000 0.770751 0.000000
O O14 0.500000 0.500000 0.500000
O O15 0.000000 0.500000 0.500000
#
# Coordination Sequence:
#
# PCOD8058019 Si02
#       7
#     4   4   2   4   4   2   2
#     4  10  20  31  49  83 122 145 172 211 261 330
#     4  11  20  33  55  78 111 142 179 226 276 321
#     4  12  20  34  55  80 108 149 184 224 265 329
#     4  10  18  29  49  80 116 155 181 204 257 329
#     4  10  19  31  48  79 121 153 175 206 260 330
#     4  11  16  27  48  79 107 132 167 216 274 320
#     4  11  25  40  57  79 104 139 188 243 279 310
#
# _framework density 18.711462000000001
#
# number of rings (size 3 to 8) (size 9 to 14) (size 15 to 20)
#    0.000    1.455    3.636    5.182    0.000    5.091 
#    0.000    0.000    0.000    4.364    0.000    1.273 
#    0.000    0.000    0.000    0.000    0.000    0.000 
#
# Total GULP energy -272701.576735 kJ/mol
# GULP energy per Si atom -12395.526215 kJ/mol
# Density = 1.866887 g / cm^3
# Si number density = 18.711462 Si / 1000 Ang^3
#
#
#
# Elastic Constant Matrix: (Units=GPa)
#
#
# Indices 1 2 3 4 5 6 
#
# 1 42.0792 28.4077 12.3030 0.0000 -1.4911 0.0000
# 2 28.4077 161.3236 54.1362 0.0000 17.1836 0.0000
# 3 12.3030 54.1362 94.5266 0.0000 22.1264 0.0000
# 4 0.0000 0.0000 0.0000 42.3055 0.0000 7.6437
# 5 -1.4911 17.1836 22.1264 0.0000 10.6476 0.0000
# 6 0.0000 0.0000 0.0000 7.6437 0.0000 10.5683
#
#
#
# Elastic Compliance Matrix: (Units=1/GPa)
#
#
# Indices 1 2 3 4 5 6 
#
# 1 0.031192 -0.006152 -0.007561 0.000000 0.030008 0.000000
# 2 -0.006152 0.009112 -0.001507 0.000000 -0.012435 0.000000
# 3 -0.007561 -0.001507 0.023570 0.000000 -0.047606 0.000000
# 4 0.000000 0.000000 0.000000 0.027191 0.000000 -0.019666
# 5 0.030008 -0.012435 -0.047606 0.000000 0.217118 0.000000
# 6 0.000000 0.000000 0.000000 -0.019666 0.000000 0.108846
#
#
# Mechanical properties :
#
#
# Convention : Reuss Voigt Hill
#
# Bulk Modulus (GPa) = 29.90928 54.18033 42.04481
# Shear Modulus (GPa) = 10.90245 26.24312 18.57279
#
# Velocity S-wave (km/s) = 2.41646 3.74908 3.15396
# Velocity P-wave (km/s) = 4.87902 6.91081 5.98181
#
# Compressibility (1/GPa) = 0.03343443
#
# Stress axis : x y z
#
# Youngs Moduli (GPa) = 32.05981 109.74125 42.42735
#
# Poissons Ratio (x) = 0.67510 0.32078
# Poissons Ratio (y) = 0.19722 0.06395
# Poissons Ratio (z) = 0.24239 0.16541
#
# Static dielectric constant tensor:
#      x y z
#    x 2.691600 0.000000 0.309110 
#    y 0.000000 4.867280 0.000000 
#    z 0.309110 0.000000 3.669680 
# 
# 
# High freq. dielectric constant tensor:
#      x y z
#    x 1.635200 0.000000 0.035330 
#    y 0.000000 1.758450 0.000000 
#    z 0.035330 0.000000 1.736610 
# 
# From -- ./inp_files/23974.got.cif
#   From: 2010.06.25/outbox.cif.g09.slc.cpg/sg10_12_cif.got.tgz:23974.got - 2010.06.27 22:07:45.
