data_PCOD8058780
_publ_section_title
;
Structure prediction by ZEFSAII (Michael W. Deem and Ramdas Pophale) SiO2 
 PCOD8058780
Probable space group: P 2/M
;
_chemical_formula_sum "Si O2"
_cell_formula_units_Z 30
_cell_length_a 8.172272
_cell_length_b 10.414540
_cell_length_c 26.383492
_cell_angle_alpha 90.000000
_cell_angle_beta 128.204663
_cell_angle_gamma 90.000000
_cell_volume 1764.537256
_symmetry_space_group_name_H-M "P 2/M"
_symmetry_group_IT_number 10
_symmetry_cell_setting 'monoclinic'
loop_
_space_group_symop_operation_xyz
x,y,z
-x,y,-z
-x,-y,-z
x,-y,z
loop_
_atom_site_type_symbol
_atom_site_label
_atom_site_fract_x
_atom_site_fract_y
_atom_site_fract_z
Si Si1 0.115092 0.142005 0.072005
Si Si2 0.500000 0.258387 0.000000
Si Si3 0.880654 0.644185 0.205555
Si Si4 0.566062 0.859047 0.119944
Si Si5 0.941010 0.638932 0.101553
Si Si6 0.671629 0.652525 0.426510
Si Si7 0.964360 0.652480 0.573201
Si Si8 0.206352 0.348271 0.352831
O O1 0.358947 0.134290 0.112562
O O2 0.075754 0.242780 0.108514
O O3 0.026496 0.000000 0.069234
O O4 0.000000 0.193806 0.000000
O O5 0.491870 0.168913 0.949240
O O6 0.298481 0.348726 0.961474
O O7 0.797717 0.500000 0.203677
O O8 0.698789 0.748827 0.172448
O O9 0.975368 0.641631 0.167951
O O10 0.058409 0.689498 0.278055
O O11 0.675874 0.000000 0.143020
O O12 0.018480 0.500000 0.095595
O O13 0.660824 0.500000 0.422743
O O14 0.790701 0.698270 0.499869
O O15 0.436451 0.709571 0.384400
O O16 0.805879 0.699727 0.402672
O O17 0.968648 0.500000 0.576954
O O18 0.897689 0.708945 0.615460
O O19 0.227860 0.500000 0.362980
#
# Coordination Sequence:
#
# PCOD8058780 Si02
#       8
#     4   2   4   4   4   4   4   4
#     4  10  20  35  51  73  94 112 149 200 244 291
#     4  10  18  32  52  74  90 116 150 198 238 284
#     4   9  20  35  47  67  98 127 161 192 227 285
#     4  10  20  34  53  71  90 119 155 196 242 285
#     4  10  20  33  48  69  96 125 153 189 235 286
#     4   8  13  21  36  60  89 117 156 200 231 272
#     4   8  13  21  36  61  87 119 158 194 235 274
#     4   9  15  26  41  58  88 129 160 190 229 277
#
# _framework density 17.001624
#
# number of rings (size 3 to 8) (size 9 to 14) (size 15 to 20)
#    0.000    2.800    1.333    1.600    0.000    5.067 
#    2.400    0.000    0.000    0.000    0.000    0.000 
#    0.000    2.133    0.000    2.933    0.000    2.667 
#
# Total GULP energy -371713.673051 kJ/mol
# GULP energy per Si atom -12390.455768 kJ/mol
# Density = 1.696293 g / cm^3
# Si number density = 17.001624 Si / 1000 Ang^3
#
#
#
# Elastic Constant Matrix: (Units=GPa)
#
#
# Indices 1 2 3 4 5 6 
#
# 1 109.4744 35.6226 55.7090 0.0000 3.9923 0.0000
# 2 35.6226 75.6398 33.0061 0.0000 -2.4953 0.0000
# 3 55.7090 33.0061 108.6408 0.0000 7.1363 0.0000
# 4 0.0000 0.0000 0.0000 6.0406 0.0000 -1.8755
# 5 3.9923 -2.4953 7.1363 0.0000 10.1214 0.0000
# 6 0.0000 0.0000 0.0000 -1.8755 0.0000 25.6097
#
#
#
# Elastic Compliance Matrix: (Units=1/GPa)
#
#
# Indices 1 2 3 4 5 6 
#
# 1 0.013283 -0.003954 -0.005455 0.000000 -0.002368 0.000000
# 2 -0.003954 0.016960 -0.003672 0.000000 0.008330 0.000000
# 3 -0.005455 -0.003672 0.013669 0.000000 -0.008391 0.000000
# 4 0.000000 0.000000 0.000000 0.169399 0.000000 0.012406
# 5 -0.002368 0.008330 -0.008391 0.000000 0.107705 0.000000
# 6 0.000000 0.000000 0.000000 0.012406 0.000000 0.039956
#
#
# Mechanical properties :
#
#
# Convention : Reuss Voigt Hill
#
# Bulk Modulus (GPa) = 56.33730 60.27002 58.30366
# Shear Modulus (GPa) = 12.72101 19.64881 16.18491
#
# Velocity S-wave (km/s) = 2.73833 3.40325 3.08874
# Velocity P-wave (km/s) = 6.57315 7.13928 6.86206
#
# Compressibility (1/GPa) = 0.01775023
#
# Stress axis : x y z
#
# Youngs Moduli (GPa) = 75.28322 58.96303 73.16045
#
# Poissons Ratio (x) = 0.23312 0.39906
# Poissons Ratio (y) = 0.29764 0.26867
# Poissons Ratio (z) = 0.41064 0.21653
#
# Static dielectric constant tensor:
#      x y z
#    x 3.407560 0.000000 -0.014210 
#    y 0.000000 3.014350 0.000000 
#    z -0.014210 0.000000 3.118930 
# 
# 
# High freq. dielectric constant tensor:
#      x y z
#    x 1.658750 0.000000 -0.001080 
#    y 0.000000 1.611820 0.000000 
#    z -0.001080 0.000000 1.643320 
# 
# From -- ./inp_files/91868.got.cif
#   From: 2010.06.25/outbox.cif.g09.slc.cpg/sg10_46_cif.got.tgz:91868.got - 2010.06.27 22:07:45.
