data_PCOD8058444
_publ_section_title
;
Structure prediction by ZEFSAII (Michael W. Deem and Ramdas Pophale) SiO2 
 PCOD8058444
Probable space group: P 2/M
;
_chemical_formula_sum "Si O2"
_cell_formula_units_Z 32
_cell_length_a 13.857324
_cell_length_b 8.890916
_cell_length_c 14.786071
_cell_angle_alpha 90.000000
_cell_angle_beta 86.701386
_cell_angle_gamma 90.000000
_cell_volume 1818.689392
_symmetry_space_group_name_H-M "P 2/M"
_symmetry_group_IT_number 10
_symmetry_cell_setting 'monoclinic'
loop_
_space_group_symop_operation_xyz
x,y,z
-x,y,-z
-x,-y,-z
x,-y,z
loop_
_atom_site_type_symbol
_atom_site_label
_atom_site_fract_x
_atom_site_fract_y
_atom_site_fract_z
Si Si1 0.013063 0.678603 0.102429
Si Si2 0.325488 0.834485 0.310364
Si Si3 0.484260 0.179064 0.604557
Si Si4 0.886785 0.821616 0.260363
Si Si5 0.817387 0.334313 0.789970
Si Si6 0.967580 0.330262 0.618996
Si Si7 0.818086 0.170045 0.515876
Si Si8 0.715893 0.678714 0.356165
O O1 0.002051 0.500000 0.117578
O O2 0.119613 0.732709 0.130004
O O3 0.932070 0.759932 0.165889
O O4 0.000000 0.727670 0.000000
O O5 0.423414 0.760483 0.343726
O O6 0.281799 0.753444 0.224355
O O7 0.243776 0.839526 0.390419
O O8 0.352468 0.000000 0.276060
O O9 0.500000 0.225923 0.500000
O O10 0.393010 0.264674 0.650764
O O11 0.469950 0.000000 0.612650
O O12 0.779254 0.753457 0.272800
O O13 0.942951 0.768642 0.348663
O O14 0.885023 0.000000 0.257236
O O15 0.783094 0.500000 0.817617
O O16 0.886314 0.335168 0.699706
O O17 0.002940 0.500000 0.595451
O O18 0.919873 0.255263 0.531441
O O19 0.755808 0.265670 0.449765
O O20 0.837617 0.000000 0.478591
O O21 0.720640 0.500000 0.349610
#
# Coordination Sequence:
#
# PCOD8058444 Si02
#       8
#     4   4   4   4   4   4   4   4
#     4   9  18  35  58  82 108 136 163 198 248 304
#     4   9  17  29  48  69  96 132 168 210 255 295
#     4  10  19  35  52  69  95 132 176 221 262 301
#     4  11  22  36  52  72 100 134 168 206 251 304
#     4   8  15  27  46  73 103 130 159 198 242 293
#     4   9  17  31  48  69  97 130 168 210 250 294
#     4  10  18  31  48  69  95 131 173 212 255 300
#     4  12  24  35  48  69  97 132 174 218 259 301
#
# _framework density 17.595089000000002
#
# number of rings (size 3 to 8) (size 9 to 14) (size 15 to 20)
#    0.000    2.250    1.250    3.750    0.000    5.000 
#    0.000    2.500    0.000    0.000    0.000    0.875 
#    0.000    7.000    0.000    0.000    0.000    0.000 
#
# Total GULP energy -396723.801530 kJ/mol
# GULP energy per Si atom -12397.618798 kJ/mol
# Density = 1.755504 g / cm^3
# Si number density = 17.595089 Si / 1000 Ang^3
#
#
#
# Elastic Constant Matrix: (Units=GPa)
#
#
# Indices 1 2 3 4 5 6 
#
# 1 129.2946 55.3605 41.8617 0.0000 18.4766 0.0000
# 2 55.3605 100.5499 31.7977 0.0000 4.1620 0.0000
# 3 41.8617 31.7977 80.4894 0.0000 19.5437 0.0000
# 4 0.0000 0.0000 0.0000 17.2834 0.0000 3.7061
# 5 18.4766 4.1620 19.5437 0.0000 22.4131 0.0000
# 6 0.0000 0.0000 0.0000 3.7061 0.0000 29.6577
#
#
#
# Elastic Compliance Matrix: (Units=1/GPa)
#
#
# Indices 1 2 3 4 5 6 
#
# 1 0.011790 -0.005471 -0.002356 0.000000 -0.006649 0.000000
# 2 -0.005471 0.013997 -0.003994 0.000000 0.005393 0.000000
# 3 -0.002356 -0.003994 0.018490 0.000000 -0.013439 0.000000
# 4 0.000000 0.000000 0.000000 0.059452 0.000000 -0.007429
# 5 -0.006649 0.005393 -0.013439 0.000000 0.060815 0.000000
# 6 0.000000 0.000000 0.000000 -0.007429 0.000000 0.034646
#
#
# Mechanical properties :
#
#
# Convention : Reuss Voigt Hill
#
# Bulk Modulus (GPa) = 48.45971 63.15265 55.80618
# Shear Modulus (GPa) = 21.76651 25.95844 23.86248
#
# Velocity S-wave (km/s) = 3.52103 3.84516 3.68666
# Velocity P-wave (km/s) = 6.64316 7.46216 7.06454
#
# Compressibility (1/GPa) = 0.02063570
#
# Stress axis : x y z
#
# Youngs Moduli (GPa) = 84.81997 71.44281 54.08219
#
# Poissons Ratio (x) = 0.39085 0.12742
# Poissons Ratio (y) = 0.46404 0.21600
# Poissons Ratio (z) = 0.19984 0.28533
#
# Static dielectric constant tensor:
#      x y z
#    x 3.416780 0.000000 0.186790 
#    y 0.000000 3.404040 0.000000 
#    z 0.186790 0.000000 3.051880 
# 
# 
# High freq. dielectric constant tensor:
#      x y z
#    x 1.680110 0.000000 0.011810 
#    y 0.000000 1.684500 0.000000 
#    z 0.011810 0.000000 1.640350 
# 
# From -- ./inp_files/66152.got.cif
#   From: 2010.06.25/outbox.cif.g09.slc.cpg/sg10_34_cif.got.tgz:66152.got - 2010.06.27 22:07:45.
