data_PCOD8058255
_publ_section_title
;
Structure prediction by ZEFSAII (Michael W. Deem and Ramdas Pophale) SiO2 
 PCOD8058255
Probable space group: P 2/M
;
_chemical_formula_sum "Si O2"
_cell_formula_units_Z 32
_cell_length_a 21.000675
_cell_length_b 9.003510
_cell_length_c 22.835477
_cell_angle_alpha 90.000000
_cell_angle_beta 155.500801
_cell_angle_gamma 90.000000
_cell_volume 1790.477339
_symmetry_space_group_name_H-M "P 2/M"
_symmetry_group_IT_number 10
_symmetry_cell_setting 'monoclinic'
loop_
_space_group_symop_operation_xyz
x,y,z
-x,y,-z
-x,-y,-z
x,-y,z
loop_
_atom_site_type_symbol
_atom_site_label
_atom_site_fract_x
_atom_site_fract_y
_atom_site_fract_z
Si Si1 0.332349 0.827726 0.963440
Si Si2 0.338340 0.824763 0.731949
Si Si3 0.103737 0.324447 0.461464
Si Si4 0.847570 0.331698 0.910618
Si Si5 0.665629 0.825103 0.662679
Si Si6 0.963496 0.173874 0.839179
Si Si7 0.984843 0.172833 0.249284
Si Si8 0.175745 0.174863 0.716819
O O1 0.490326 0.757547 0.118449
O O2 0.366445 0.000000 0.984339
O O3 0.196884 0.795749 0.896259
O O4 0.288652 0.766492 0.862591
O O5 0.269428 0.734899 0.619854
O O6 0.246953 0.785311 0.714444
O O7 0.333508 0.000000 0.714615
O O8 0.096172 0.500000 0.456326
O O9 0.077213 0.269059 0.373369
O O10 0.984963 0.257906 0.409264
O O11 0.797397 0.500000 0.881242
O O12 0.706381 0.251745 0.758891
O O13 0.000000 0.322353 0.000000
O O14 0.891493 0.252415 0.008239
O O15 0.500000 0.769375 0.500000
O O16 0.797583 0.780912 0.726488
O O17 0.661098 0.000000 0.670178
O O18 0.962201 0.223057 0.770583
O O19 0.992494 0.000000 0.870556
O O20 0.020243 0.000000 0.290643
O O21 0.142814 0.000000 0.696146
#
# Coordination Sequence:
#
# PCOD8058255 Si02
#       8
#     4   4   4   4   4   4   4   4
#     4   8  15  29  50  73  92 113 150 200 242 277
#     4  10  18  30  50  72  93 119 152 194 243 288
#     4  11  22  33  46  67  97 129 158 191 233 283
#     4   9  17  29  47  72 100 129 159 190 228 277
#     4   9  17  30  49  75 105 131 157 195 239 276
#     4   9  17  31  53  75  94 123 162 200 235 275
#     4   9  18  35  55  71  89 120 164 203 235 277
#     4   9  17  31  51  72  92 118 155 195 237 287
#
# _framework density 17.872329000000001
#
# number of rings (size 3 to 8) (size 9 to 14) (size 15 to 20)
#    0.000    2.750    0.000    3.000    0.000    5.750 
#    0.000    3.750    0.000   11.250    0.000    0.000 
#    0.000    0.000    0.000    0.000    0.000    0.000 
#
# Total GULP energy -396719.494712 kJ/mol
# GULP energy per Si atom -12397.484210 kJ/mol
# Density = 1.783165 g / cm^3
# Si number density = 17.872329 Si / 1000 Ang^3
#
#
#
# Elastic Constant Matrix: (Units=GPa)
#
#
# Indices 1 2 3 4 5 6 
#
# 1 76.4595 32.0864 41.2603 0.0000 -11.1064 0.0000
# 2 32.0864 63.1757 47.3901 0.0000 -5.4619 0.0000
# 3 41.2603 47.3901 148.8954 0.0000 -3.0455 0.0000
# 4 0.0000 0.0000 0.0000 8.9164 0.0000 -5.5774
# 5 -11.1064 -5.4619 -3.0455 0.0000 9.8008 0.0000
# 6 0.0000 0.0000 0.0000 -5.5774 0.0000 11.2308
#
#
#
# Elastic Compliance Matrix: (Units=1/GPa)
#
#
# Indices 1 2 3 4 5 6 
#
# 1 0.020073 -0.006203 -0.003214 0.000000 0.018292 0.000000
# 2 -0.006203 0.023646 -0.005718 0.000000 0.004372 0.000000
# 3 -0.003214 -0.005718 0.009346 0.000000 -0.003925 0.000000
# 4 0.000000 0.000000 0.000000 0.162692 0.000000 0.080796
# 5 0.018292 0.004372 -0.003925 0.000000 0.123978 0.000000
# 6 0.000000 0.000000 0.000000 0.080796 0.000000 0.129166
#
#
# Mechanical properties :
#
#
# Convention : Reuss Voigt Hill
#
# Bulk Modulus (GPa) = 43.86600 58.88934 51.37767
# Shear Modulus (GPa) = 9.86642 17.17587 13.52114
#
# Velocity S-wave (km/s) = 2.35212 3.10341 2.75351
# Velocity P-wave (km/s) = 5.65456 6.77223 6.23847
#
# Compressibility (1/GPa) = 0.02279670
#
# Stress axis : x y z
#
# Youngs Moduli (GPa) = 49.81760 42.29002 106.99299
#
# Poissons Ratio (x) = 0.26230 0.34390
# Poissons Ratio (y) = 0.30899 0.61177
# Poissons Ratio (z) = 0.16012 0.24181
#
# Static dielectric constant tensor:
#      x y z
#    x 3.177860 0.000000 -0.057310 
#    y 0.000000 3.072890 0.000000 
#    z -0.057310 0.000000 3.553150 
# 
# 
# High freq. dielectric constant tensor:
#      x y z
#    x 1.669090 0.000000 -0.011410 
#    y 0.000000 1.668010 0.000000 
#    z -0.011410 0.000000 1.701020 
# 
# From -- ./inp_files/90653.got.cif
#   From: 2010.06.25/outbox.cif.g09.slc.cpg/sg10_46_cif.got.tgz:90653.got - 2010.06.27 22:07:45.
