data_PCOD8058582
_publ_section_title
;
Structure prediction by ZEFSAII (Michael W. Deem and Ramdas Pophale) SiO2 
 PCOD8058582
Probable space group: P 2/M
;
_chemical_formula_sum "Si O2"
_cell_formula_units_Z 32
_cell_length_a 21.657204
_cell_length_b 9.055224
_cell_length_c 28.045036
_cell_angle_alpha 90.000000
_cell_angle_beta 18.831722
_cell_angle_gamma 90.000000
_cell_volume 1775.322830
_symmetry_space_group_name_H-M "P 2/M"
_symmetry_group_IT_number 10
_symmetry_cell_setting 'monoclinic'
loop_
_space_group_symop_operation_xyz
x,y,z
-x,y,-z
-x,-y,-z
x,-y,z
loop_
_atom_site_type_symbol
_atom_site_label
_atom_site_fract_x
_atom_site_fract_y
_atom_site_fract_z
Si Si1 0.603192 0.824536 0.823404
Si Si2 0.819289 0.175305 0.843365
Si Si3 0.006646 0.327567 0.196654
Si Si4 0.981943 0.828175 0.958407
Si Si5 0.082339 0.824643 0.333830
Si Si6 0.720542 0.171825 0.339107
Si Si7 0.693445 0.672433 0.103254
Si Si8 0.668670 0.175306 0.668677
O O1 0.760358 0.758233 0.744822
O O2 0.647632 0.767466 0.738022
O O3 0.610706 0.000000 0.819644
O O4 0.394981 0.767472 0.990674
O O5 0.965843 0.248908 0.772940
O O6 0.874919 0.231386 0.750400
O O7 0.835068 0.000000 0.837261
O O8 0.977277 0.500000 0.226179
O O9 0.817699 0.263838 0.310171
O O10 0.190315 0.292319 0.029843
O O11 0.177822 0.793419 0.786089
O O12 0.930006 0.000000 0.992302
O O13 0.000000 0.778947 0.000000
O O14 0.806220 0.736160 0.065910
O O15 0.873645 0.768620 0.501039
O O16 0.092144 0.000000 0.328925
O O17 0.500000 0.221055 0.500000
O O18 0.740775 0.000000 0.336917
O O19 0.663448 0.500000 0.133094
O O20 0.489287 0.751092 0.249495
O O21 0.645740 0.000000 0.681931
#
# Coordination Sequence:
#
# PCOD8058582 Si02
#       8
#     4   4   4   4   4   4   4   4
#     4   9  16  28  51  77 100 129 168 211 257 306
#     4  10  18  31  52  76 101 132 170 211 255 302
#     4  10  20  34  53  75 102 137 175 211 245 293
#     4   9  18  34  56  80 104 130 164 206 250 297
#     4   9  18  30  47  77 108 129 160 215 267 302
#     4   9  18  34  56  80 104 130 164 206 250 297
#     4  10  20  34  53  75 102 137 175 211 245 293
#     4  10  18  31  52  76 101 132 170 211 255 302
#
# _framework density 18.024891
#
# number of rings (size 3 to 8) (size 9 to 14) (size 15 to 20)
#    0.000    2.500    1.250    1.500    0.000    4.500 
#    2.250    0.625    0.000    4.500    0.000    0.000 
#    0.000    0.000    0.000    0.000    0.000    0.000 
#
# Total GULP energy -396853.255370 kJ/mol
# GULP energy per Si atom -12401.664230 kJ/mol
# Density = 1.798387 g / cm^3
# Si number density = 18.024891 Si / 1000 Ang^3
#
#
#
# Elastic Constant Matrix: (Units=GPa)
#
#
# Indices 1 2 3 4 5 6 
#
# 1 158.7094 44.9379 87.3197 0.0000 -4.6342 0.0000
# 2 44.9379 43.5807 34.2490 0.0000 -7.4633 0.0000
# 3 87.3197 34.2490 143.4156 0.0000 -6.0372 0.0000
# 4 0.0000 0.0000 0.0000 9.4703 0.0000 4.7212
# 5 -4.6342 -7.4633 -6.0372 0.0000 31.3964 0.0000
# 6 0.0000 0.0000 0.0000 4.7212 0.0000 2.7047
#
#
#
# Elastic Compliance Matrix: (Units=1/GPa)
#
#
# Indices 1 2 3 4 5 6 
#
# 1 0.011257 -0.007858 -0.005027 0.000000 -0.001173 0.000000
# 2 -0.007858 0.034693 -0.003228 0.000000 0.006466 0.000000
# 3 -0.005027 -0.003228 0.010828 0.000000 0.000573 0.000000
# 4 0.000000 0.000000 0.000000 0.813448 0.000000 -1.419905
# 5 -0.001173 0.006466 0.000573 0.000000 0.033325 0.000000
# 6 0.000000 0.000000 0.000000 -1.419905 0.000000 2.848227
#
#
# Mechanical properties :
#
#
# Convention : Reuss Voigt Hill
#
# Bulk Modulus (GPa) = 40.72949 75.41321 58.07135
# Shear Modulus (GPa) = 1.31850 20.66090 10.98970
#
# Velocity S-wave (km/s) = 0.85620 3.38929 2.47188
# Velocity P-wave (km/s) = 4.86032 7.56608 6.35879
#
# Compressibility (1/GPa) = 0.02455224
#
# Stress axis : x y z
#
# Youngs Moduli (GPa) = 88.83122 28.82393 92.34942
#
# Poissons Ratio (x) = 0.22651 0.46423
# Poissons Ratio (y) = 0.69806 0.29813
# Poissons Ratio (z) = 0.44654 0.09305
#
# Static dielectric constant tensor:
#      x y z
#    x 3.381500 0.000000 0.006630 
#    y 0.000000 2.975680 0.000000 
#    z 0.006630 0.000000 3.390910 
# 
# 
# High freq. dielectric constant tensor:
#      x y z
#    x 1.705370 0.000000 -0.005730 
#    y 0.000000 1.665830 0.000000 
#    z -0.005730 0.000000 1.697160 
# 
# From -- ./inp_files/86852.got.cif
#   From: 2010.06.25/outbox.cif.g09.slc.cpg/sg10_44_cif.got.tgz:86852.got - 2010.06.27 22:07:45.
