data_PCOD8058117
_publ_section_title
;
Structure prediction by ZEFSAII (Michael W. Deem and Ramdas Pophale) SiO2 
 PCOD8058117
Probable space group: P 2/M
;
_chemical_formula_sum "Si O2"
_cell_formula_units_Z 24
_cell_length_a 26.436781
_cell_length_b 11.759217
_cell_length_c 9.520064
_cell_angle_alpha 90.000000
_cell_angle_beta 151.321499
_cell_angle_gamma 90.000000
_cell_volume 1420.275083
_symmetry_space_group_name_H-M "P 2/M"
_symmetry_group_IT_number 10
_symmetry_cell_setting 'monoclinic'
loop_
_space_group_symop_operation_xyz
x,y,z
-x,y,-z
-x,-y,-z
x,-y,z
loop_
_atom_site_type_symbol
_atom_site_label
_atom_site_fract_x
_atom_site_fract_y
_atom_site_fract_z
Si Si1 0.158135 0.131761 0.665653
Si Si2 0.001927 0.500000 0.723455
Si Si3 0.237388 0.742311 0.123524
Si Si4 0.057038 0.256141 0.912182
Si Si5 0.204775 0.870448 0.468653
Si Si6 0.619074 0.867948 0.320815
Si Si7 0.177976 0.500000 0.917564
O O1 0.220681 0.152160 0.672298
O O2 0.043255 0.184956 0.377645
O O3 0.144878 0.000000 0.667901
O O4 0.226004 0.187903 0.953091
O O5 0.024746 0.386208 0.868106
O O6 0.081682 0.500000 0.789248
O O7 0.879556 0.500000 0.374843
O O8 0.340228 0.789201 0.453334
O O9 0.135291 0.757528 0.971695
O O10 0.252179 0.609749 0.119845
O O11 0.109990 0.208098 0.181991
O O12 0.314137 0.842933 0.657136
O O13 0.169982 0.000000 0.355275
O O14 0.627848 0.000000 0.386836
O O15 0.500000 0.832141 0.000000
#
# Coordination Sequence:
#
# PCOD8058117 Si02
#       7
#     4   2   4   4   4   4   2
#     4  11  20  29  44  70 102 131 158 190 233 284
#     4   9  16  28  46  67  95 132 166 194 228 263
#     4  10  19  31  50  72  94 126 165 198 231 278
#     4  10  18  30  47  68  98 133 165 190 225 277
#     4   9  19  33  47  68 100 131 155 192 242 282
#     4   9  18  35  56  74  92 117 155 202 246 287
#     4   9  16  30  46  68  99 126 157 202 236 264
#
# _framework density 16.898135
#
# number of rings (size 3 to 8) (size 9 to 14) (size 15 to 20)
#    0.000    2.333    1.667    2.000    0.000    4.000 
#    0.000    3.750    0.000    4.000    0.000    1.167 
#    0.000    0.000    0.000    0.000    0.000    0.000 
#
# Total GULP energy -297594.050534 kJ/mol
# GULP energy per Si atom -12399.752106 kJ/mol
# Density = 1.685967 g / cm^3
# Si number density = 16.898135 Si / 1000 Ang^3
#
#
#
# Elastic Constant Matrix: (Units=GPa)
#
#
# Indices 1 2 3 4 5 6 
#
# 1 58.8533 44.8829 48.6735 0.0000 -16.1803 0.0000
# 2 44.8829 137.2196 75.1380 0.0000 -13.2917 0.0000
# 3 48.6735 75.1380 128.5473 0.0000 -5.5931 0.0000
# 4 0.0000 0.0000 0.0000 -13.5321 0.0000 14.9582
# 5 -16.1803 -13.2917 -5.5931 0.0000 21.4428 0.0000
# 6 0.0000 0.0000 0.0000 14.9582 0.0000 5.9882
#
#
#
# Elastic Compliance Matrix: (Units=1/GPa)
#
#
# Indices 1 2 3 4 5 6 
#
# 1 0.033318 -0.003681 -0.009578 0.000000 0.020361 0.000000
# 2 -0.003681 0.011698 -0.005310 0.000000 0.003089 0.000000
# 3 -0.009578 -0.005310 0.014213 0.000000 -0.006811 0.000000
# 4 0.000000 0.000000 0.000000 -0.019648 0.000000 0.049079
# 5 0.020361 0.003089 -0.006811 0.000000 0.062137 0.000000
# 6 0.000000 0.000000 0.000000 0.049079 0.000000 0.044400
#
#
# Mechanical properties :
#
#
# Convention : Reuss Voigt Hill
#
# Bulk Modulus (GPa) = 45.26575 73.55657 59.41116
# Shear Modulus (GPa) = 26.23032 13.17485 19.70258
#
# Velocity S-wave (km/s) = 3.94415 2.79527 3.41832
# Velocity P-wave (km/s) = 6.89836 7.35132 7.12844
#
# Compressibility (1/GPa) = 0.02209176
#
# Stress axis : x y z
#
# Youngs Moduli (GPa) = 30.01424 85.48329 70.35758
#
# Poissons Ratio (x) = 0.31465 0.67389
# Poissons Ratio (y) = 0.11048 0.37358
# Poissons Ratio (z) = 0.28748 0.45389
#
# Static dielectric constant tensor:
#      x y z
#    x 3.101900 0.000000 -0.155720 
#    y 0.000000 3.471570 0.000000 
#    z -0.155720 0.000000 3.013260 
# 
# 
# High freq. dielectric constant tensor:
#      x y z
#    x 1.636620 0.000000 -0.016890 
#    y 0.000000 1.659730 0.000000 
#    z -0.016890 0.000000 1.630160 
# 
# From -- ./inp_files/27797.got.cif
#   From: 2010.06.25/outbox.cif.g09.slc.cpg/sg10_14_cif.got.tgz:27797.got - 2010.06.27 22:07:45.
