data_PCOD8058349
_publ_section_title
;
Structure prediction by ZEFSAII (Michael W. Deem and Ramdas Pophale) SiO2 
 PCOD8058349
Probable space group: P 2/M
;
_chemical_formula_sum "Si O2"
_cell_formula_units_Z 28
_cell_length_a 16.012164
_cell_length_b 8.334347
_cell_length_c 21.629195
_cell_angle_alpha 90.000000
_cell_angle_beta 28.509512
_cell_angle_gamma 90.000000
_cell_volume 1377.709428
_symmetry_space_group_name_H-M "P 2/M"
_symmetry_group_IT_number 10
_symmetry_cell_setting 'monoclinic'
loop_
_space_group_symop_operation_xyz
x,y,z
-x,y,-z
-x,-y,-z
x,-y,z
loop_
_atom_site_type_symbol
_atom_site_label
_atom_site_fract_x
_atom_site_fract_y
_atom_site_fract_z
Si Si1 0.925602 0.190332 0.352903
Si Si2 0.768416 0.810035 0.933670
Si Si3 0.425343 0.314038 0.113521
Si Si4 0.262386 0.190466 0.799548
Si Si5 0.914702 0.190509 0.965494
Si Si6 0.056477 0.811472 0.396363
Si Si7 0.576000 0.191237 0.516098
O O1 0.764978 0.260225 0.415840
O O2 0.111713 0.241684 0.202412
O O3 0.932378 0.251874 0.420242
O O4 0.907867 0.000000 0.363401
O O5 0.734706 0.000000 0.957050
O O6 0.585143 0.717255 0.055929
O O7 0.869747 0.745390 0.927559
O O8 0.377773 0.500000 0.138482
O O9 0.257315 0.223418 0.249192
O O10 0.500000 0.243527 0.000000
O O11 0.233516 0.246890 0.888955
O O12 0.445189 0.254197 0.654402
O O13 0.260588 0.000000 0.796167
O O14 0.103846 0.259707 0.861156
O O15 0.924063 0.000000 0.959522
O O16 0.000000 0.735134 0.500000
O O17 0.032531 0.000000 0.416597
O O18 0.500000 0.257724 0.500000
O O19 0.586718 0.000000 0.504465
#
# Coordination Sequence:
#
# PCOD8058349 Si02
#       7
#     4   4   4   4   4   4   4
#     4   9  17  28  44  69 100 132 167 208 253 306
#     4  10  18  30  52  76 100 131 172 217 263 309
#     4  11  23  38  56  77 103 137 178 221 267 319
#     4   8  13  22  35  57  97 133 161 198 245 305
#     4   8  14  23  38  64  94 129 164 202 253 305
#     4  10  21  37  57  81 109 140 173 215 268 320
#     4   9  15  22  35  57  91 132 163 193 243 305
#
# _framework density 20.323588999999998
#
# number of rings (size 3 to 8) (size 9 to 14) (size 15 to 20)
#    0.000    2.714    1.429    2.143    0.000    5.429 
#    0.000    4.286    0.000    0.000    0.000    2.000 
#    0.000   10.286    0.000    0.000    0.000    0.000 
#
# Total GULP energy -346886.600244 kJ/mol
# GULP energy per Si atom -12388.807152 kJ/mol
# Density = 2.027733 g / cm^3
# Si number density = 20.323589 Si / 1000 Ang^3
#
#
#
# Elastic Constant Matrix: (Units=GPa)
#
#
# Indices 1 2 3 4 5 6 
#
# 1 147.5709 5.6324 58.4984 0.0000 6.9421 0.0000
# 2 5.6324 5.3624 -1.8391 0.0000 2.5971 0.0000
# 3 58.4984 -1.8391 122.4682 0.0000 0.3932 0.0000
# 4 0.0000 0.0000 0.0000 5.8125 0.0000 2.8609
# 5 6.9421 2.5971 0.3932 0.0000 36.5301 0.0000
# 6 0.0000 0.0000 0.0000 2.8609 0.0000 2.2980
#
#
#
# Elastic Compliance Matrix: (Units=1/GPa)
#
#
# Indices 1 2 3 4 5 6 
#
# 1 0.008983 -0.010519 -0.004446 0.000000 -0.000911 0.000000
# 2 -0.010519 0.206517 0.008167 0.000000 -0.012771 0.000000
# 3 -0.004446 0.008167 0.010411 0.000000 0.000152 0.000000
# 4 0.000000 0.000000 0.000000 0.444278 0.000000 -0.553103
# 5 -0.000911 -0.012771 0.000152 0.000000 0.028454 0.000000
# 6 0.000000 0.000000 0.000000 -0.553103 0.000000 1.123744
#
#
# Mechanical properties :
#
#
# Convention : Reuss Voigt Hill
#
# Bulk Modulus (GPa) = 4.70999 44.44277 24.57638
# Shear Modulus (GPa) = 2.62226 23.13544 12.87885
#
# Velocity S-wave (km/s) = 1.13713 3.37761 2.52005
# Velocity P-wave (km/s) = 2.01162 6.09312 4.53722
#
# Compressibility (1/GPa) = 0.21231481
#
# Stress axis : x y z
#
# Youngs Moduli (GPa) = 111.31928 4.84223 96.05051
#
# Poissons Ratio (x) = 0.05093 0.42704
# Poissons Ratio (y) = 1.17094 -0.78441
# Poissons Ratio (z) = 0.49492 -0.03954
#
# Static dielectric constant tensor:
#      x y z
#    x 4.164590 0.000000 0.081230 
#    y 0.000000 2.931540 0.000000 
#    z 0.081230 0.000000 3.887560 
# 
# 
# High freq. dielectric constant tensor:
#      x y z
#    x 1.807390 0.000000 0.001450 
#    y 0.000000 1.718280 0.000000 
#    z 0.001450 0.000000 1.797910 
# 
# From -- ./inp_files/84916.got.cif
#   From: 2010.06.25/outbox.cif.g09.slc.cpg/sg10_43_cif.got.tgz:84916.got - 2010.06.27 22:07:45.
