data_PCOD8058278
_publ_section_title
;
Structure prediction by ZEFSAII (Michael W. Deem and Ramdas Pophale) SiO2 
 PCOD8058278
Probable space group: P 2/M
;
_chemical_formula_sum "Si O2"
_cell_formula_units_Z 20
_cell_length_a 9.701248
_cell_length_b 8.830912
_cell_length_c 19.423792
_cell_angle_alpha 90.000000
_cell_angle_beta 138.390617
_cell_angle_gamma 90.000000
_cell_volume 1105.012247
_symmetry_space_group_name_H-M "P 2/M"
_symmetry_group_IT_number 10
_symmetry_cell_setting 'monoclinic'
loop_
_space_group_symop_operation_xyz
x,y,z
-x,y,-z
-x,-y,-z
x,-y,z
loop_
_atom_site_type_symbol
_atom_site_label
_atom_site_fract_x
_atom_site_fract_y
_atom_site_fract_z
Si Si1 0.501210 0.320756 0.172380
Si Si2 0.123256 0.678773 0.933311
Si Si3 0.334606 0.677756 0.382363
Si Si4 0.309875 0.821211 0.227312
Si Si5 0.868683 0.677005 0.217389
O O1 0.510767 0.500000 0.188262
O O2 0.482449 0.237523 0.238276
O O3 0.709006 0.254644 0.213433
O O4 0.308072 0.275049 0.052329
O O5 0.081436 0.500000 0.917282
O O6 0.177754 0.738285 0.876861
O O7 0.912052 0.756615 0.879788
O O8 0.500000 0.734653 0.500000
O O9 0.357014 0.500000 0.375588
O O10 0.376165 0.764687 0.327270
O O11 0.105506 0.715536 0.326369
O O12 0.302109 0.000000 0.224223
O O13 0.825832 0.500000 0.200388
#
# Coordination Sequence:
#
# PCOD8058278 Si02
#       5
#     4   4   4   4   4
#     4  10  18  30  50  74 102 133 163 201 244 284
#     4   9  17  31  51  73  98 132 171 204 237 282
#     4   9  18  36  60  78  92 118 161 209 251 293
#     4  11  22  33  47  71 103 135 165 198 239 291
#     4   8  15  29  51  78 100 121 159 207 249 287
#
# _framework density 18.099347000000002
#
# number of rings (size 3 to 8) (size 9 to 14) (size 15 to 20)
#    0.000    2.600    0.000    4.200    0.000    6.000 
#    0.000    5.000    0.000   12.000    0.000    0.000 
#    0.000    0.000    0.000    0.000    0.000    0.000 
#
# Total GULP energy -247977.145518 kJ/mol
# GULP energy per Si atom -12398.857276 kJ/mol
# Density = 1.805815 g / cm^3
# Si number density = 18.099347 Si / 1000 Ang^3
#
#
#
# Elastic Constant Matrix: (Units=GPa)
#
#
# Indices 1 2 3 4 5 6 
#
# 1 154.6701 38.9052 50.8457 0.0000 -7.8274 0.0000
# 2 38.9052 53.1046 36.1967 0.0000 -3.1201 0.0000
# 3 50.8457 36.1967 102.8009 0.0000 1.3415 0.0000
# 4 0.0000 0.0000 0.0000 10.6258 0.0000 -4.2154
# 5 -7.8274 -3.1201 1.3415 0.0000 12.1984 0.0000
# 6 0.0000 0.0000 0.0000 -4.2154 0.0000 1.9077
#
#
#
# Elastic Compliance Matrix: (Units=1/GPa)
#
#
# Indices 1 2 3 4 5 6 
#
# 1 0.008704 -0.004097 -0.002926 0.000000 0.004859 0.000000
# 2 -0.004097 0.027373 -0.007680 0.000000 0.005217 0.000000
# 3 -0.002926 -0.007680 0.013949 0.000000 -0.005376 0.000000
# 4 0.000000 0.000000 0.000000 0.762699 0.000000 1.685310
# 5 0.004859 0.005217 -0.005376 0.000000 0.087021 0.000000
# 6 0.000000 0.000000 0.000000 1.685310 0.000000 4.248158
#
#
# Mechanical properties :
#
#
# Convention : Reuss Voigt Hill
#
# Bulk Modulus (GPa) = 48.49467 62.49678 55.49572
# Shear Modulus (GPa) = 0.96447 17.25492 9.10969
#
# Velocity S-wave (km/s) = 0.73078 3.09098 2.24590
# Velocity P-wave (km/s) = 5.25013 6.88067 6.11995
#
# Compressibility (1/GPa) = 0.02062082
#
# Stress axis : x y z
#
# Youngs Moduli (GPa) = 114.89602 36.53169 71.68964
#
# Poissons Ratio (x) = 0.14966 0.20975
# Poissons Ratio (y) = 0.47069 0.55059
# Poissons Ratio (z) = 0.33616 0.28057
#
# Static dielectric constant tensor:
#      x y z
#    x 3.628610 0.000000 0.003550 
#    y 0.000000 2.976190 0.000000 
#    z 0.003550 0.000000 3.285600 
# 
# 
# High freq. dielectric constant tensor:
#      x y z
#    x 1.712000 0.000000 -0.004290 
#    y 0.000000 1.667070 0.000000 
#    z -0.004290 0.000000 1.686690 
# 
# From -- ./inp_files/22273.got.cif
#   From: 2010.06.25/outbox.cif.g09.slc.cpg/sg10_12_cif.got.tgz:22273.got - 2010.06.27 22:07:45.
