data_PCOD8058378
_publ_section_title
;
Structure prediction by ZEFSAII (Michael W. Deem and Ramdas Pophale) SiO2 
 PCOD8058378
Probable space group: P 2/M
;
_chemical_formula_sum "Si O2"
_cell_formula_units_Z 20
_cell_length_a 26.560017
_cell_length_b 9.005905
_cell_length_c 9.255557
_cell_angle_alpha 90.000000
_cell_angle_beta 29.095772
_cell_angle_gamma 90.000000
_cell_volume 1076.555817
_symmetry_space_group_name_H-M "P 2/M"
_symmetry_group_IT_number 10
_symmetry_cell_setting 'monoclinic'
loop_
_space_group_symop_operation_xyz
x,y,z
-x,y,-z
-x,-y,-z
x,-y,z
loop_
_atom_site_type_symbol
_atom_site_label
_atom_site_fract_x
_atom_site_fract_y
_atom_site_fract_z
Si Si1 0.992102 0.663364 0.690911
Si Si2 0.209793 0.174912 0.825109
Si Si3 0.596478 0.175806 0.846845
Si Si4 0.781320 0.324144 0.890233
Si Si5 0.604709 0.825938 0.153434
O O1 0.965706 0.500000 0.820195
O O2 0.105359 0.717614 0.460417
O O3 0.000000 0.653252 0.500000
O O4 0.901087 0.776241 0.963336
O O5 0.296599 0.226769 0.494211
O O6 0.209545 0.000000 0.850069
O O7 0.235933 0.250113 0.911310
O O8 0.587180 0.000000 0.869126
O O9 0.500000 0.244686 0.000000
O O10 0.591904 0.232772 0.022418
O O11 0.771774 0.500000 0.934427
O O12 0.697724 0.265074 0.988782
O O13 0.500000 0.789104 0.500000
O O14 0.631288 0.000000 0.093856
#
# Coordination Sequence:
#
# PCOD8058378 Si02
#       5
#     4   4   4   4   4
#     4   8  16  31  49  71 102 137 170 206 248 294
#     4  10  18  30  53  80 103 132 170 211 253 297
#     4   9  18  33  52  76 104 130 162 208 258 304
#     4  10  20  34  52  75 105 138 170 207 250 298
#     4  10  20  35  56  78 100 131 170 211 255 301
#
# _framework density 18.577763999999998
#
# number of rings (size 3 to 8) (size 9 to 14) (size 15 to 20)
#    0.000    2.600    0.000    3.600    0.000    8.000 
#    0.000    3.000    0.000   10.200    0.000    0.000 
#    0.000    0.000    0.000    0.000    0.000    0.000 
#
# Total GULP energy -247947.921118 kJ/mol
# GULP energy per Si atom -12397.396056 kJ/mol
# Density = 1.853548 g / cm^3
# Si number density = 18.577764 Si / 1000 Ang^3
#
#
#
# Elastic Constant Matrix: (Units=GPa)
#
#
# Indices 1 2 3 4 5 6 
#
# 1 130.3796 47.3450 90.3308 0.0000 -13.3870 0.0000
# 2 47.3450 65.3594 56.3232 0.0000 -9.2829 0.0000
# 3 90.3308 56.3232 158.9792 0.0000 -11.8693 0.0000
# 4 0.0000 0.0000 0.0000 6.0604 0.0000 -11.3388
# 5 -13.3870 -9.2829 -11.8693 0.0000 34.0560 0.0000
# 6 0.0000 0.0000 0.0000 -11.3388 0.0000 19.2456
#
#
#
# Elastic Compliance Matrix: (Units=1/GPa)
#
#
# Indices 1 2 3 4 5 6 
#
# 1 0.013675 -0.004390 -0.006061 0.000000 0.002067 0.000000
# 2 -0.004390 0.023817 -0.005737 0.000000 0.002767 0.000000
# 3 -0.006061 -0.005737 0.011778 0.000000 0.000159 0.000000
# 4 0.000000 0.000000 0.000000 -1.613006 0.000000 -0.950322
# 5 0.002067 0.002767 0.000159 0.000000 0.030985 0.000000
# 6 0.000000 0.000000 0.000000 -0.950322 0.000000 -0.507934
#
#
# Mechanical properties :
#
#
# Convention : Reuss Voigt Hill
#
# Bulk Modulus (GPa) = 59.18845 82.52404 70.85625
# Shear Modulus (GPa) = -2.49666 22.58703 10.04519
#
# Velocity S-wave (km/s) = -1.16052 3.49063 2.32784
# Velocity P-wave (km/s) = 5.48938 7.79508 6.74153
#
# Compressibility (1/GPa) = 0.01689519
#
# Stress axis : x y z
#
# Youngs Moduli (GPa) = 73.12535 41.98746 84.90350
#
# Poissons Ratio (x) = 0.18431 0.51457
# Poissons Ratio (y) = 0.32100 0.48709
# Poissons Ratio (z) = 0.44318 0.24088
#
# Static dielectric constant tensor:
#      x y z
#    x 3.513670 0.000000 -0.296510 
#    y 0.000000 3.238240 0.000000 
#    z -0.296510 0.000000 3.671970 
# 
# 
# High freq. dielectric constant tensor:
#      x y z
#    x 1.711970 0.000000 -0.020490 
#    y 0.000000 1.702700 0.000000 
#    z -0.020490 0.000000 1.727190 
# 
# From -- ./inp_files/22128.got.cif
#   From: 2010.06.25/outbox.cif.g09.slc.cpg/sg10_12_cif.got.tgz:22128.got - 2010.06.27 22:07:45.
