data_PCOD8058690
_publ_section_title
;
Structure prediction by ZEFSAII (Michael W. Deem and Ramdas Pophale) SiO2 
 PCOD8058690
Probable space group: P 2/M
;
_chemical_formula_sum "Si O2"
_cell_formula_units_Z 28
_cell_length_a 10.268771
_cell_length_b 7.860153
_cell_length_c 31.678777
_cell_angle_alpha 90.000000
_cell_angle_beta 35.025191
_cell_angle_gamma 90.000000
_cell_volume 1467.512287
_symmetry_space_group_name_H-M "P 2/M"
_symmetry_group_IT_number 10
_symmetry_cell_setting 'monoclinic'
loop_
_space_group_symop_operation_xyz
x,y,z
-x,y,-z
-x,-y,-z
x,-y,z
loop_
_atom_site_type_symbol
_atom_site_label
_atom_site_fract_x
_atom_site_fract_y
_atom_site_fract_z
Si Si1 0.809277 0.193053 0.817176
Si Si2 0.598835 0.693510 0.564802
Si Si3 0.447689 0.500000 0.082005
Si Si4 0.862389 0.500000 0.917700
Si Si5 0.004283 0.806964 0.596634
Si Si6 0.108623 0.189491 0.818888
Si Si7 0.130120 0.802392 0.655545
Si Si8 0.569576 0.693258 0.666864
O O1 0.606681 0.328556 0.877201
O O2 0.001713 0.221147 0.801279
O O3 0.921142 0.229905 0.742386
O O4 0.711778 0.000000 0.845389
O O5 0.686425 0.500000 0.542054
O O6 0.769046 0.802463 0.491383
O O7 0.347557 0.697803 0.612546
O O8 0.601352 0.770148 0.611491
O O9 0.302748 0.500000 0.078135
O O10 0.714473 0.500000 0.999819
O O11 0.015770 0.329526 0.876467
O O12 0.056642 0.734310 0.629215
O O13 0.805644 0.696512 0.628951
O O14 0.918488 0.000000 0.622495
O O15 0.379546 0.202099 0.742560
O O16 0.047682 0.000000 0.851845
O O17 0.198448 0.000000 0.635937
O O18 0.482826 0.500000 0.686036
#
# Coordination Sequence:
#
# PCOD8058690 Si02
#       8
#     4   4   2   2   4   4   4   4
#     4   9  18  32  53  80 109 143 185 224 265 328
#     4  11  23  36  56  78 104 143 185 234 285 330
#     4   9  18  30  52  79 114 148 175 212 279 323
#     4   9  18  32  48  81 118 142 173 226 263 325
#     4  11  24  38  52  76 110 143 185 236 283 326
#     4  10  18  31  55  80 106 147 185 218 273 328
#     4  10  21  37  55  77 107 144 185 232 276 325
#     4  11  22  37  55  77 109 144 187 236 278 326
#
# _framework density 19.079908
#
# number of rings (size 3 to 8) (size 9 to 14) (size 15 to 20)
#    0.000    1.857    2.143    2.143    1.000    6.857 
#    0.000    2.857    0.000    0.000    0.000    2.000 
#    0.000    4.571    0.000    0.000    0.000    0.000 
#
# Total GULP energy -347289.083461 kJ/mol
# GULP energy per Si atom -12403.181552 kJ/mol
# Density = 1.903648 g / cm^3
# Si number density = 19.079908 Si / 1000 Ang^3
#
#
#
# Elastic Constant Matrix: (Units=GPa)
#
#
# Indices 1 2 3 4 5 6 
#
# 1 91.1932 20.6237 42.0313 0.0000 1.7652 0.0000
# 2 20.6237 97.5988 54.2039 0.0000 -2.0953 0.0000
# 3 42.0313 54.2039 136.6445 0.0000 -3.7413 0.0000
# 4 0.0000 0.0000 0.0000 24.8417 0.0000 -5.7766
# 5 1.7652 -2.0953 -3.7413 0.0000 4.6492 0.0000
# 6 0.0000 0.0000 0.0000 -5.7766 0.0000 12.9338
#
#
#
# Elastic Compliance Matrix: (Units=1/GPa)
#
#
# Indices 1 2 3 4 5 6 
#
# 1 0.013133 -0.000750 -0.003975 0.000000 -0.008523 0.000000
# 2 -0.000750 0.013198 -0.004943 0.000000 0.002255 0.000000
# 3 -0.003975 -0.004943 0.010718 0.000000 0.007907 0.000000
# 4 0.000000 0.000000 0.000000 0.044920 0.000000 0.020063
# 5 -0.008523 0.002255 0.007907 0.000000 0.225706 0.000000
# 6 0.000000 0.000000 0.000000 0.020063 0.000000 0.086278
#
#
# Mechanical properties :
#
#
# Convention : Reuss Voigt Hill
#
# Bulk Modulus (GPa) = 56.45847 62.12825 59.29336
# Shear Modulus (GPa) = 11.92765 22.39011 17.15888
#
# Velocity S-wave (km/s) = 2.50300 3.42934 3.00211
# Velocity P-wave (km/s) = 6.16507 6.95078 6.56968
#
# Compressibility (1/GPa) = 0.01771213
#
# Stress axis : x y z
#
# Youngs Moduli (GPa) = 76.14637 75.76824 93.29874
#
# Poissons Ratio (x) = 0.05685 0.37089
# Poissons Ratio (y) = 0.05713 0.46117
# Poissons Ratio (z) = 0.30270 0.37451
#
# Static dielectric constant tensor:
#      x y z
#    x 3.155360 0.000000 0.103800 
#    y 0.000000 3.521740 0.000000 
#    z 0.103800 0.000000 3.483590 
# 
# 
# High freq. dielectric constant tensor:
#      x y z
#    x 1.704280 0.000000 0.001190 
#    y 0.000000 1.751770 0.000000 
#    z 0.001190 0.000000 1.734400 
# 
# From -- ./inp_files/37196.got.cif
#   From: 2010.06.25/outbox.cif.g09.slc.cpg/sg10_19_cif.got.tgz:37196.got - 2010.06.27 22:07:45.
