data_PCOD8058423
_publ_section_title
;
Structure prediction by ZEFSAII (Michael W. Deem and Ramdas Pophale) SiO2 
 PCOD8058423
Probable space group: P 2/M
;
_chemical_formula_sum "Si O2"
_cell_formula_units_Z 28
_cell_length_a 21.689684
_cell_length_b 13.041787
_cell_length_c 5.287073
_cell_angle_alpha 90.000000
_cell_angle_beta 89.999956
_cell_angle_gamma 90.000000
_cell_volume 1495.566176
_symmetry_space_group_name_H-M "P 2/M"
_symmetry_group_IT_number 10
_symmetry_cell_setting 'monoclinic'
loop_
_space_group_symop_operation_xyz
x,y,z
-x,y,-z
-x,-y,-z
x,-y,z
loop_
_atom_site_type_symbol
_atom_site_label
_atom_site_fract_x
_atom_site_fract_y
_atom_site_fract_z
Si Si1 0.236485 0.384358 0.249996
Si Si2 0.314630 0.814821 0.249996
Si Si3 0.961807 0.380817 0.250000
Si Si4 0.556278 0.385417 0.250000
Si Si5 0.748600 0.114669 0.250004
Si Si6 0.576200 0.692997 0.750000
Si Si7 0.827519 0.312087 0.250003
O O1 0.262948 0.500000 0.249999
O O2 0.291887 0.303257 0.249997
O O3 0.195123 0.369630 0.499197
O O4 0.195124 0.369631 0.000792
O O5 0.293169 0.873222 0.500360
O O6 0.389701 0.804055 0.249999
O O7 0.293171 0.873221 0.999627
O O8 0.942482 0.500000 0.250001
O O9 0.901209 0.310720 0.250000
O O10 0.000000 0.352985 0.500000
O O11 0.000000 0.352986 0.000000
O O12 0.528726 0.500000 0.250001
O O13 0.498596 0.305313 0.250000
O O14 0.598187 0.366550 0.496244
O O15 0.598186 0.366551 0.003755
O O16 0.804950 0.194021 0.250001
O O17 0.776285 0.000000 0.250001
#
# Coordination Sequence:
#
# PCOD8058423 Si02
#       7
#     4   4   4   4   4   4   4
#     4  10  19  30  47  72 105 139 163 197 252 307
#     4  10  21  34  52  80 102 128 170 214 258 309
#     4  10  19  30  48  74 104 140 173 199 234 286
#     4  10  19  30  47  71 101 146 183 199 236 300
#     4  10  21  39  59  77  97 128 173 221 271 311
#     4  10  18  31  46  69 102 132 166 212 247 289
#     4  10  20  34  51  73 103 135 173 210 247 300
#
# _framework density 18.722007000000001
#
# number of rings (size 3 to 8) (size 9 to 14) (size 15 to 20)
#    0.000    2.000    0.000    5.571    0.000    2.857 
#    0.000    0.000    0.000    0.857    0.000   40.000 
#    0.000    0.000    0.000    0.000    0.000    0.000 
#
# Total GULP energy -346990.584175 kJ/mol
# GULP energy per Si atom -12392.520863 kJ/mol
# Density = 1.867939 g / cm^3
# Si number density = 18.722007 Si / 1000 Ang^3
#
#
#
# Elastic Constant Matrix: (Units=GPa)
#
#
# Indices 1 2 3 4 5 6 
#
# 1 73.2624 33.0887 25.6549 0.0000 0.0006 0.0000
# 2 33.0887 106.3099 31.8795 0.0000 0.0007 0.0000
# 3 25.6549 31.8795 189.9517 0.0000 0.0011 0.0000
# 4 0.0000 0.0000 0.0000 -4.6537 0.0000 0.0018
# 5 0.0006 0.0007 0.0011 0.0000 14.2491 0.0000
# 6 0.0000 0.0000 0.0000 0.0018 0.0000 11.3459
#
#
#
# Elastic Compliance Matrix: (Units=1/GPa)
#
#
# Indices 1 2 3 4 5 6 
#
# 1 0.016236 -0.004629 -0.001416 0.000000 0.000000 0.000000
# 2 -0.004629 0.011225 -0.001259 0.000000 0.000000 0.000000
# 3 -0.001416 -0.001259 0.005667 0.000000 0.000000 0.000000
# 4 0.000000 0.000000 0.000000 -0.214883 0.000000 0.000034
# 5 0.000000 0.000000 0.000000 0.000000 0.070180 0.000000
# 6 0.000000 0.000000 0.000000 0.000034 0.000000 0.088138
#
#
# Mechanical properties :
#
#
# Convention : Reuss Voigt Hill
#
# Bulk Modulus (GPa) = 53.99365 61.19670 57.59518
# Shear Modulus (GPa) = -1881.40750 22.78167 -929.31292
#
# Velocity S-wave (km/s) = -31.73483 3.49211 -22.30364
# Velocity P-wave (km/s) = 36.24771 7.00127 25.14835
#
# Compressibility (1/GPa) = 0.01852069
#
# Stress axis : x y z
#
# Youngs Moduli (GPa) = 61.59156 89.09007 176.46093
#
# Poissons Ratio (x) = 0.41238 0.24987
# Poissons Ratio (y) = 0.28509 0.22210
# Poissons Ratio (z) = 0.08721 0.11213
#
# Static dielectric constant tensor:
#      x y z
#    x 3.146530 0.000000 0.000000 
#    y 0.000000 3.143440 0.000000 
#    z 0.000000 0.000000 4.258970 
# 
# 
# High freq. dielectric constant tensor:
#      x y z
#    x 1.703270 0.000000 0.000000 
#    y 0.000000 1.685550 0.000000 
#    z 0.000000 0.000000 1.769640 
# 
# From -- ./inp_files/12257.got.cif
#   From: 2010.06.25/outbox.cif.g09.slc.cpg/sg10_7_cif.got.tgz:12257.got - 2010.06.27 22:07:45.
