data_PCOD8058984
_publ_section_title
;
Structure prediction by ZEFSAII (Michael W. Deem and Ramdas Pophale) SiO2 
 PCOD8058984
Probable space group: P 2/M
;
_chemical_formula_sum "Si O2"
_cell_formula_units_Z 22
_cell_length_a 10.988892
_cell_length_b 12.318365
_cell_length_c 7.909929
_cell_angle_alpha 90.000000
_cell_angle_beta 109.577131
_cell_angle_gamma 90.000000
_cell_volume 1008.831500
_symmetry_space_group_name_H-M "P 2/M"
_symmetry_group_IT_number 10
_symmetry_cell_setting 'monoclinic'
loop_
_space_group_symop_operation_xyz
x,y,z
-x,y,-z
-x,-y,-z
x,-y,z
loop_
_atom_site_type_symbol
_atom_site_label
_atom_site_fract_x
_atom_site_fract_y
_atom_site_fract_z
Si Si1 0.016670 0.769167 0.707622
Si Si2 0.783906 0.624976 0.644487
Si Si3 0.063872 0.000000 0.347520
Si Si4 0.500000 0.307278 0.000000
Si Si5 0.240155 0.620198 0.758709
Si Si6 0.410921 0.778349 0.295732
Si Si7 0.650728 0.000000 0.634919
O O1 0.157114 0.716389 0.808373
O O2 0.000000 0.770847 0.500000
O O3 0.916311 0.686741 0.744597
O O4 0.991954 0.890701 0.770390
O O5 0.802012 0.500000 0.698737
O O6 0.738970 0.643454 0.430401
O O7 0.678581 0.673315 0.723023
O O8 0.000000 0.000000 0.500000
O O9 0.222836 0.000000 0.433976
O O10 0.623738 0.383083 0.082708
O O11 0.490198 0.230915 0.159880
O O12 0.175840 0.500000 0.748893
O O13 0.500000 0.787097 0.500000
O O14 0.330016 0.890871 0.246571
O O15 0.500000 0.000000 0.500000
#
# Coordination Sequence:
#
# PCOD8058984 Si02
#       7
#     4   4   2   2   4   4   2
#     4   9  18  33  59  94 128 165 219 264 326 384
#     4  10  19  35  62  91 127 169 214 262 321 388
#     4  10  18  32  64  99 131 172 222 276 327 391
#     4  12  25  41  66  94 132 171 215 274 328 400
#     4  10  21  38  61  94 132 170 215 271 325 391
#     4  11  23  42  64  94 131 169 218 262 329 387
#     4  10  22  39  68  98 136 175 219 276 325 396
#
# _framework density 21.807407999999999
#
# number of rings (size 3 to 8) (size 9 to 14) (size 15 to 20)
#    0.000    1.818    3.636    0.818    0.000    4.364 
#    0.000    1.818    0.000    3.273    0.000    0.000 
#    0.000    0.000    0.000    0.000    0.000    0.000 
#
# Total GULP energy -272570.737994 kJ/mol
# GULP energy per Si atom -12389.579000 kJ/mol
# Density = 2.175777 g / cm^3
# Si number density = 21.807408 Si / 1000 Ang^3
#
#
#
# Elastic Constant Matrix: (Units=GPa)
#
#
# Indices 1 2 3 4 5 6 
#
# 1 133.4154 74.0921 35.3664 0.0000 4.3385 0.0000
# 2 74.0921 206.0909 26.7606 0.0000 -1.7365 0.0000
# 3 35.3664 26.7606 56.5684 0.0000 -8.3115 0.0000
# 4 0.0000 0.0000 0.0000 2.8254 0.0000 2.2719
# 5 4.3385 -1.7365 -8.3115 0.0000 37.0770 0.0000
# 6 0.0000 0.0000 0.0000 2.2719 0.0000 40.1347
#
#
#
# Elastic Compliance Matrix: (Units=1/GPa)
#
#
# Indices 1 2 3 4 5 6 
#
# 1 0.010859 -0.003190 -0.005676 0.000000 -0.002692 0.000000
# 2 -0.003190 0.006110 -0.000827 0.000000 0.000474 0.000000
# 3 -0.005676 -0.000827 0.022448 0.000000 0.005658 0.000000
# 4 0.000000 0.000000 0.000000 0.370810 0.000000 -0.020991
# 5 -0.002692 0.000474 0.005658 0.000000 0.028576 0.000000
# 6 0.000000 0.000000 0.000000 -0.020991 0.000000 0.026104
#
#
# Mechanical properties :
#
#
# Convention : Reuss Voigt Hill
#
# Bulk Modulus (GPa) = 49.91610 74.27923 62.09766
# Shear Modulus (GPa) = 10.18393 33.33113 21.75753
#
# Velocity S-wave (km/s) = 2.16335 3.91376 3.16209
# Velocity P-wave (km/s) = 5.40179 7.38639 6.47063
#
# Compressibility (1/GPa) = 0.02003362
#
# Stress axis : x y z
#
# Youngs Moduli (GPa) = 92.09143 163.65880 44.54651
#
# Poissons Ratio (x) = 0.52200 0.25283
# Poissons Ratio (y) = 0.29373 0.03683
# Poissons Ratio (z) = 0.52267 0.13531
#
# Static dielectric constant tensor:
#      x y z
#    x 4.181370 0.000000 -0.044020 
#    y 0.000000 4.678020 0.000000 
#    z -0.044020 0.000000 3.407440 
# 
# 
# High freq. dielectric constant tensor:
#      x y z
#    x 1.864710 0.000000 -0.002340 
#    y 0.000000 1.875660 0.000000 
#    z -0.002340 0.000000 1.807070 
# 
# From -- ./inp_files/24193.got.cif
#   From: 2010.06.25/outbox.cif.g09.slc.cpg/sg10_13_cif.got.tgz:24193.got - 2010.06.27 22:07:45.
