data_PCOD8058427
_publ_section_title
;
Structure prediction by ZEFSAII (Michael W. Deem and Ramdas Pophale) SiO2 
 PCOD8058427
Probable space group: P 2/M
;
_chemical_formula_sum "Si O2"
_cell_formula_units_Z 28
_cell_length_a 20.584645
_cell_length_b 13.047943
_cell_length_c 19.058033
_cell_angle_alpha 90.000000
_cell_angle_beta 20.215342
_cell_angle_gamma 90.000000
_cell_volume 1768.779750
_symmetry_space_group_name_H-M "P 2/M"
_symmetry_group_IT_number 10
_symmetry_cell_setting 'monoclinic'
loop_
_space_group_symop_operation_xyz
x,y,z
-x,y,-z
-x,-y,-z
x,-y,z
loop_
_atom_site_type_symbol
_atom_site_label
_atom_site_fract_x
_atom_site_fract_y
_atom_site_fract_z
Si Si1 0.023183 0.884043 0.366858
Si Si2 0.735315 0.378375 0.071692
Si Si3 0.837067 0.612216 0.608835
Si Si4 0.004348 0.619285 0.918455
Si Si5 0.692691 0.380411 0.499092
Si Si6 0.968363 0.699389 0.332083
Si Si7 0.290047 0.179856 0.214474
O O1 0.195026 0.830003 0.234321
O O2 0.986545 0.819342 0.333494
O O3 0.835341 0.885339 0.604512
O O4 0.075663 0.000000 0.293085
O O5 0.751684 0.500000 0.053156
O O6 0.520451 0.341543 0.290962
O O7 0.840665 0.334873 0.034272
O O8 0.835662 0.335799 0.900637
O O9 0.737568 0.500000 0.709012
O O10 0.929950 0.631647 0.439359
O O11 0.693207 0.702126 0.775902
O O12 0.000000 0.614407 0.500000
O O13 0.962207 0.500000 0.970455
O O14 0.207458 0.637878 0.677091
O O15 0.000000 0.672071 0.000000
O O16 0.705330 0.500000 0.507446
O O17 0.794869 0.313987 0.454844
O O18 0.500000 0.134165 0.000000
#
# Coordination Sequence:
#
# PCOD8058427 Si02
#       7
#     4   4   4   4   4   4   4
#     4  10  21  36  49  65  84 108 145 191 238 283
#     4   9  17  28  44  65  92 125 151 177 215 258
#     4  10  18  31  47  65  91 120 150 188 225 262
#     4   8  14  25  41  63  93 126 157 182 202 236
#     4   9  17  28  43  66  93 122 154 178 211 262
#     4  10  18  32  46  61  86 119 149 188 224 270
#     4  10  19  34  51  68  87 110 141 184 236 284
#
# _framework density 15.830121
#
# number of rings (size 3 to 8) (size 9 to 14) (size 15 to 20)
#    0.000    2.571    2.857    3.000    0.000    4.286 
#    0.000    2.857    0.000    0.000    0.000    0.000 
#    0.000    9.143    0.000   10.286    0.000    1.143 
#
# Total GULP energy -347067.010601 kJ/mol
# GULP energy per Si atom -12395.250379 kJ/mol
# Density = 1.579409 g / cm^3
# Si number density = 15.830121 Si / 1000 Ang^3
#
#
#
# Elastic Constant Matrix: (Units=GPa)
#
#
# Indices 1 2 3 4 5 6 
#
# 1 98.6496 27.1187 59.7301 0.0000 5.8049 0.0000
# 2 27.1187 71.2669 16.8546 0.0000 0.7510 0.0000
# 3 59.7301 16.8546 107.6789 0.0000 -17.5079 0.0000
# 4 0.0000 0.0000 0.0000 8.7229 0.0000 3.9983
# 5 5.8049 0.7510 -17.5079 0.0000 24.6629 0.0000
# 6 0.0000 0.0000 0.0000 3.9983 0.0000 15.7966
#
#
#
# Elastic Compliance Matrix: (Units=1/GPa)
#
#
# Indices 1 2 3 4 5 6 
#
# 1 0.019589 -0.004399 -0.012329 0.000000 -0.013229 0.000000
# 2 -0.004399 0.015679 0.000087 0.000000 0.000620 0.000000
# 3 -0.012329 0.000087 0.018747 0.000000 0.016208 0.000000
# 4 0.000000 0.000000 0.000000 0.129686 0.000000 -0.032825
# 5 -0.013229 0.000620 0.016208 0.000000 0.055147 0.000000
# 6 0.000000 0.000000 0.000000 -0.032825 0.000000 0.071613
#
#
# Mechanical properties :
#
#
# Convention : Reuss Voigt Hill
#
# Bulk Modulus (GPa) = 48.23117 53.88913 51.06015
# Shear Modulus (GPa) = 14.25901 21.42927 17.84414
#
# Velocity S-wave (km/s) = 3.00451 3.68326 3.36106
# Velocity P-wave (km/s) = 6.52459 7.22527 6.88385
#
# Compressibility (1/GPa) = 0.02073348
#
# Stress axis : x y z
#
# Youngs Moduli (GPa) = 51.04810 63.78104 53.34086
#
# Poissons Ratio (x) = 0.28058 0.65762
# Poissons Ratio (y) = 0.22456 -0.00463
# Poissons Ratio (z) = 0.62936 -0.00554
#
# Static dielectric constant tensor:
#      x y z
#    x 3.194950 0.000000 0.040190 
#    y 0.000000 2.867290 0.000000 
#    z 0.040190 0.000000 2.980070 
# 
# 
# High freq. dielectric constant tensor:
#      x y z
#    x 1.604140 0.000000 -0.002490 
#    y 0.000000 1.568820 0.000000 
#    z -0.002490 0.000000 1.603430 
# 
# From -- ./inp_files/79650.got.cif
#   From: 2010.06.25/outbox.cif.g09.slc.cpg/sg10_40_cif.got.tgz:79650.got - 2010.06.27 22:07:45.
