data_PCOD8058988
_publ_section_title
;
Structure prediction by ZEFSAII (Michael W. Deem and Ramdas Pophale) SiO2 
 PCOD8058988
Probable space group: P 2/M
;
_chemical_formula_sum "Si O2"
_cell_formula_units_Z 26
_cell_length_a 9.809990
_cell_length_b 11.678583
_cell_length_c 13.001630
_cell_angle_alpha 90.000000
_cell_angle_beta 73.297287
_cell_angle_gamma 90.000000
_cell_volume 1426.708936
_symmetry_space_group_name_H-M "P 2/M"
_symmetry_group_IT_number 10
_symmetry_cell_setting 'monoclinic'
loop_
_space_group_symop_operation_xyz
x,y,z
-x,y,-z
-x,-y,-z
x,-y,z
loop_
_atom_site_type_symbol
_atom_site_label
_atom_site_fract_x
_atom_site_fract_y
_atom_site_fract_z
Si Si1 0.925910 0.255047 0.126634
Si Si2 0.994415 0.500000 0.121698
Si Si3 0.273230 0.500000 0.187502
Si Si4 0.326808 0.132289 0.911882
Si Si5 0.834501 0.500000 0.561233
Si Si6 0.406321 0.730566 0.206640
Si Si7 0.576859 0.628397 0.584205
Si Si8 0.176637 0.129793 0.163432
O O1 0.774460 0.193092 0.150161
O O2 0.911614 0.384655 0.175282
O O3 0.020462 0.183108 0.185652
O O4 0.000000 0.258545 0.000000
O O5 0.158777 0.500000 0.121462
O O6 0.000000 0.500000 0.000000
O O7 0.183853 0.500000 0.312187
O O8 0.376227 0.609780 0.156940
O O9 0.474812 0.199382 0.880536
O O10 0.350313 0.000000 0.875222
O O11 0.262301 0.140888 0.038739
O O12 0.749994 0.612277 0.534392
O O13 0.000000 0.500000 0.500000
O O14 0.455079 0.712556 0.314024
O O15 0.260881 0.803797 0.234508
O O16 0.500000 0.680334 0.500000
O O17 0.514054 0.500000 0.620910
O O18 0.158299 0.000000 0.202325
#
# Coordination Sequence:
#
# PCOD8058988 Si02
#       8
#     4   2   2   4   2   4   4   4
#     4   9  18  32  51  69 101 140 178 216 261 304
#     4  10  18  33  49  72 110 144 167 200 260 330
#     4  10  20  34  51  78 111 133 170 209 265 329
#     4  10  21  35  50  76 105 140 192 226 247 298
#     4   8  15  31  55  76  96 125 161 213 250 302
#     4  11  19  33  53  74 108 136 169 222 260 308
#     4   8  17  35  53  72 104 136 162 204 264 336
#     4  10  19  33  53  72 100 146 187 224 258 292
#
# _framework density 18.223759999999999
#
# number of rings (size 3 to 8) (size 9 to 14) (size 15 to 20)
#    0.462    2.000    2.308    1.385    0.000    3.692 
#    2.769    2.308    0.000    1.846    0.000    0.000 
#    0.000   14.769    0.000    0.000    0.000    0.000 
#
# Total GULP energy -322201.229744 kJ/mol
# GULP energy per Si atom -12392.354990 kJ/mol
# Density = 1.818228 g / cm^3
# Si number density = 18.223760 Si / 1000 Ang^3
#
#
#
# Elastic Constant Matrix: (Units=GPa)
#
#
# Indices 1 2 3 4 5 6 
#
# 1 104.4822 44.7850 24.1357 0.0000 19.7477 0.0000
# 2 44.7850 146.5299 17.8039 0.0000 11.5774 0.0000
# 3 24.1357 17.8039 34.6002 0.0000 18.5229 0.0000
# 4 0.0000 0.0000 0.0000 11.9409 0.0000 1.8623
# 5 19.7477 11.5774 18.5229 0.0000 35.0969 0.0000
# 6 0.0000 0.0000 0.0000 1.8623 0.0000 35.3331
#
#
#
# Elastic Compliance Matrix: (Units=1/GPa)
#
#
# Indices 1 2 3 4 5 6 
#
# 1 0.012752 -0.002957 -0.005652 0.000000 -0.003217 0.000000
# 2 -0.002957 0.007974 -0.002123 0.000000 0.000154 0.000000
# 3 -0.005652 -0.002123 0.044405 0.000000 -0.019555 0.000000
# 4 0.000000 0.000000 0.000000 0.084440 0.000000 -0.004451
# 5 -0.003217 0.000154 -0.019555 0.000000 0.040572 0.000000
# 6 0.000000 0.000000 0.000000 -0.004451 0.000000 0.028537
#
#
# Mechanical properties :
#
#
# Convention : Reuss Voigt Hill
#
# Bulk Modulus (GPa) = 22.89984 51.00682 36.95333
# Shear Modulus (GPa) = 19.63104 29.73335 24.68220
#
# Velocity S-wave (km/s) = 3.28567 4.04365 3.68421
# Velocity P-wave (km/s) = 5.19494 7.06056 6.19834
#
# Compressibility (1/GPa) = 0.04366842
#
# Stress axis : x y z
#
# Youngs Moduli (GPa) = 78.41972 125.40762 22.52001
#
# Poissons Ratio (x) = 0.37078 0.12728
# Poissons Ratio (y) = 0.23185 0.04781
# Poissons Ratio (z) = 0.44320 0.26623
#
# Static dielectric constant tensor:
#      x y z
#    x 3.528570 0.000000 0.317570 
#    y 0.000000 3.620450 0.000000 
#    z 0.317570 0.000000 2.816050 
# 
# 
# High freq. dielectric constant tensor:
#      x y z
#    x 1.718520 0.000000 0.031740 
#    y 0.000000 1.705810 0.000000 
#    z 0.031740 0.000000 1.644880 
# 
# From -- ./inp_files/60710.got.cif
#   From: 2010.06.25/outbox.cif.g09.slc.cpg/sg10_31_cif.got.tgz:60710.got - 2010.06.27 22:07:45.
