data_PCOD8058124
_publ_section_title
;
Structure prediction by ZEFSAII (Michael W. Deem and Ramdas Pophale) SiO2 
 PCOD8058124
Probable space group: P 2/M
;
_chemical_formula_sum "Si O2"
_cell_formula_units_Z 32
_cell_length_a 16.942481
_cell_length_b 9.142716
_cell_length_c 16.767735
_cell_angle_alpha 90.000000
_cell_angle_beta 50.956669
_cell_angle_gamma 90.000000
_cell_volume 2017.265491
_symmetry_space_group_name_H-M "P 2/M"
_symmetry_group_IT_number 10
_symmetry_cell_setting 'monoclinic'
loop_
_space_group_symop_operation_xyz
x,y,z
-x,y,-z
-x,-y,-z
x,-y,z
loop_
_atom_site_type_symbol
_atom_site_label
_atom_site_fract_x
_atom_site_fract_y
_atom_site_fract_z
Si Si1 0.396830 0.168234 0.026460
Si Si2 0.526238 0.169258 0.191015
Si Si3 0.191021 0.827291 0.535793
Si Si4 0.676255 0.665098 0.673309
Si Si5 0.777437 0.662771 0.776774
Si Si6 0.348190 0.826925 0.559257
Si Si7 0.552171 0.827106 0.349402
Si Si8 0.998067 0.326813 0.592771
O O1 0.294234 0.238201 0.124021
O O2 0.392283 0.000000 0.054406
O O3 0.500000 0.236180 0.000000
O O4 0.395627 0.190383 0.931589
O O5 0.431596 0.271874 0.231611
O O6 0.577208 0.220697 0.242447
O O7 0.490663 0.000000 0.218742
O O8 0.274903 0.775720 0.419868
O O9 0.238582 0.782954 0.592241
O O10 0.085276 0.746545 0.590149
O O11 0.174497 0.000000 0.537708
O O12 0.665770 0.500000 0.645464
O O13 0.747720 0.662066 0.703887
O O14 0.770427 0.500000 0.816942
O O15 0.893753 0.718692 0.703271
O O16 0.440871 0.765999 0.445246
O O17 0.363248 0.767982 0.640845
O O18 0.356975 0.000000 0.552773
O O19 0.551802 0.000000 0.354906
O O20 0.015369 0.500000 0.582047
O O21 0.000000 0.269538 0.500000
#
# Coordination Sequence:
#
# PCOD8058124 Si02
#       8
#     4   4   4   4   4   4   4   4
#     4  10  20  31  46  70  98 121 148 195 239 266
#     4  10  18  30  47  69  94 126 159 189 228 274
#     4  11  20  30  47  72  95 121 157 194 233 274
#     4  11  20  30  45  66  94 128 160 191 225 267
#     4  10  21  35  49  63  88 128 163 189 220 270
#     4   8  14  24  42  68  94 120 150 187 226 272
#     4   8  13  24  43  66  93 123 153 183 222 275
#     4  10  20  36  50  65  92 124 158 191 227 276
#
# _framework density 15.863058000000001
#
# number of rings (size 3 to 8) (size 9 to 14) (size 15 to 20)
#    0.000    2.250    3.750    1.500    0.000    2.000 
#    0.000    0.000    0.000    2.250    0.000    0.875 
#    0.000    7.000    0.000    0.000    0.000    0.000 
#
# Total GULP energy -396546.774252 kJ/mol
# GULP energy per Si atom -12392.086695 kJ/mol
# Density = 1.582695 g / cm^3
# Si number density = 15.863058 Si / 1000 Ang^3
#
#
#
# Elastic Constant Matrix: (Units=GPa)
#
#
# Indices 1 2 3 4 5 6 
#
# 1 120.5967 33.1697 52.2695 0.0000 0.8969 0.0000
# 2 33.1697 38.5767 30.1416 0.0000 -7.3627 0.0000
# 3 52.2695 30.1416 83.5470 0.0000 -0.4155 0.0000
# 4 0.0000 0.0000 0.0000 20.4033 0.0000 -4.6268
# 5 0.8969 -7.3627 -0.4155 0.0000 26.5197 0.0000
# 6 0.0000 0.0000 0.0000 -4.6268 0.0000 7.7077
#
#
#
# Elastic Compliance Matrix: (Units=1/GPa)
#
#
# Indices 1 2 3 4 5 6 
#
# 1 0.012573 -0.007145 -0.005301 0.000000 -0.002492 0.000000
# 2 -0.007145 0.042909 -0.010951 0.000000 0.011983 0.000000
# 3 -0.005301 -0.010951 0.019224 0.000000 -0.002560 0.000000
# 4 0.000000 0.000000 0.000000 0.056734 0.000000 0.034057
# 5 -0.002492 0.011983 -0.002560 0.000000 0.041079 0.000000
# 6 0.000000 0.000000 0.000000 0.034057 0.000000 0.150185
#
#
# Mechanical properties :
#
#
# Convention : Reuss Voigt Hill
#
# Bulk Modulus (GPa) = 35.82562 52.65357 44.23959
# Shear Modulus (GPa) = 13.19950 19.40211 16.30081
#
# Velocity S-wave (km/s) = 2.88773 3.50108 3.20909
# Velocity P-wave (km/s) = 5.80964 7.04330 6.45600
#
# Compressibility (1/GPa) = 0.02791298
#
# Stress axis : x y z
#
# Youngs Moduli (GPa) = 79.53318 23.30500 52.01856
#
# Poissons Ratio (x) = 0.16651 0.27575
# Poissons Ratio (y) = 0.56824 0.56965
# Poissons Ratio (z) = 0.42161 0.25521
#
# Static dielectric constant tensor:
#      x y z
#    x 3.357660 0.000000 0.196930 
#    y 0.000000 2.860040 0.000000 
#    z 0.196930 0.000000 2.898150 
# 
# 
# High freq. dielectric constant tensor:
#      x y z
#    x 1.605530 0.000000 0.009010 
#    y 0.000000 1.590480 0.000000 
#    z 0.009010 0.000000 1.584840 
# 
# From -- ./inp_files/78517.got.cif
#   From: 2010.06.25/outbox.cif.g09.slc.cpg/sg10_40_cif.got.tgz:78517.got - 2010.06.27 22:07:45.
