data_PCOD8058945
_publ_section_title
;
Structure prediction by ZEFSAII (Michael W. Deem and Ramdas Pophale) SiO2 
 PCOD8058945
Probable space group: P 2/M
;
_chemical_formula_sum "Si O2"
_cell_formula_units_Z 32
_cell_length_a 12.232531
_cell_length_b 8.619043
_cell_length_c 20.852813
_cell_angle_alpha 90.000000
_cell_angle_beta 51.837975
_cell_angle_gamma 90.000000
_cell_volume 1728.661046
_symmetry_space_group_name_H-M "P 2/M"
_symmetry_group_IT_number 10
_symmetry_cell_setting 'monoclinic'
loop_
_space_group_symop_operation_xyz
x,y,z
-x,y,-z
-x,-y,-z
x,-y,z
loop_
_atom_site_type_symbol
_atom_site_label
_atom_site_fract_x
_atom_site_fract_y
_atom_site_fract_z
Si Si1 0.482872 0.817095 0.102326
Si Si2 0.736445 0.681064 0.311391
Si Si3 0.976218 0.178945 0.803409
Si Si4 0.745690 0.680451 0.455754
Si Si5 0.703311 0.680969 0.939173
Si Si6 0.455881 0.817802 0.369428
Si Si7 0.966326 0.181035 0.657473
Si Si8 0.327662 0.815966 0.283293
O O1 0.363514 0.779443 0.094151
O O2 0.431866 0.756620 0.190145
O O3 0.510353 0.000000 0.092227
O O4 0.625775 0.728262 0.033225
O O5 0.763224 0.500000 0.294545
O O6 0.716120 0.726782 0.393057
O O7 0.602096 0.731002 0.320564
O O8 0.868997 0.768680 0.233706
O O9 0.865801 0.276510 0.885209
O O10 0.947797 0.213759 0.739276
O O11 0.957647 0.000000 0.827189
O O12 0.718205 0.500000 0.478642
O O13 0.639612 0.780415 0.535520
O O14 0.903307 0.723634 0.417536
O O15 0.682655 0.500000 0.933374
O O16 0.380757 0.755829 0.332484
O O17 0.483821 0.000000 0.356053
O O18 0.829088 0.245248 0.671589
O O19 0.993271 0.000000 0.634370
O O20 0.321512 0.000000 0.282276
#
# Coordination Sequence:
#
# PCOD8058945 Si02
#       8
#     4   4   4   4   4   4   4   4
#     4  10  18  33  53  75 105 143 179 213 252 305
#     4  10  21  37  55  77 106 136 171 222 271 308
#     4  10  18  32  56  81 104 137 177 215 258 311
#     4  10  21  36  53  76 105 135 170 219 270 312
#     4  11  20  30  48  81 115 139 168 211 262 309
#     4  11  22  36  55  77 101 137 181 219 260 311
#     4   9  17  33  54  76 102 135 174 214 258 308
#     4   9  19  35  54  76 105 139 177 219 256 304
#
# _framework density 18.511437999999998
#
# number of rings (size 3 to 8) (size 9 to 14) (size 15 to 20)
#    0.000    2.000    1.250    4.125    0.000    4.000 
#    0.000    6.250    0.000    0.750    0.000    5.250 
#    0.000    0.000    0.000    0.000    0.000    0.000 
#
# Total GULP energy -396888.282574 kJ/mol
# GULP energy per Si atom -12402.758830 kJ/mol
# Density = 1.846931 g / cm^3
# Si number density = 18.511438 Si / 1000 Ang^3
#
#
#
# Elastic Constant Matrix: (Units=GPa)
#
#
# Indices 1 2 3 4 5 6 
#
# 1 104.7588 14.1811 31.2553 0.0000 -20.3474 0.0000
# 2 14.1811 48.1984 18.2853 0.0000 -3.8993 0.0000
# 3 31.2553 18.2853 63.9851 0.0000 -26.9766 0.0000
# 4 0.0000 0.0000 0.0000 22.2423 0.0000 -6.2945
# 5 -20.3474 -3.8993 -26.9766 0.0000 24.1093 0.0000
# 6 0.0000 0.0000 0.0000 -6.2945 0.0000 18.2779
#
#
#
# Elastic Compliance Matrix: (Units=1/GPa)
#
#
# Indices 1 2 3 4 5 6 
#
# 1 0.011884 -0.002100 -0.002119 0.000000 0.007319 0.000000
# 2 -0.002100 0.024276 -0.009472 0.000000 -0.008445 0.000000
# 3 -0.002119 -0.009472 0.034019 0.000000 0.034745 0.000000
# 4 0.000000 0.000000 0.000000 0.049814 0.000000 0.017155
# 5 0.007319 -0.008445 0.034745 0.000000 0.085166 0.000000
# 6 0.000000 0.000000 0.000000 0.017155 0.000000 0.060619
#
#
# Mechanical properties :
#
#
# Convention : Reuss Voigt Hill
#
# Bulk Modulus (GPa) = 23.36656 38.26506 30.81581
# Shear Modulus (GPa) = 16.26413 23.14059 19.70236
#
# Velocity S-wave (km/s) = 2.96733 3.53947 3.26595
# Velocity P-wave (km/s) = 4.93865 6.11716 5.55922
#
# Compressibility (1/GPa) = 0.04279620
#
# Stress axis : x y z
#
# Youngs Moduli (GPa) = 84.14778 41.19340 29.39523
#
# Poissons Ratio (x) = 0.08653 0.06229
# Poissons Ratio (y) = 0.17675 0.27842
# Poissons Ratio (z) = 0.17832 0.39017
#
# Static dielectric constant tensor:
#      x y z
#    x 3.363110 0.000000 -0.172200 
#    y 0.000000 3.283320 0.000000 
#    z -0.172200 0.000000 3.536040 
# 
# 
# High freq. dielectric constant tensor:
#      x y z
#    x 1.696900 0.000000 -0.025170 
#    y 0.000000 1.715820 0.000000 
#    z -0.025170 0.000000 1.716810 
# 
# From -- ./inp_files/55398.got.cif
#   From: 2010.06.25/outbox.cif.g09.slc.cpg/sg10_28_cif.got.tgz:55398.got - 2010.06.27 22:07:45.
