data_PCOD8058771
_publ_section_title
;
Structure prediction by ZEFSAII (Michael W. Deem and Ramdas Pophale) SiO2 
 PCOD8058771
Probable space group: P 2/M
;
_chemical_formula_sum "Si O2"
_cell_formula_units_Z 28
_cell_length_a 20.385423
_cell_length_b 8.892503
_cell_length_c 23.316983
_cell_angle_alpha 90.000000
_cell_angle_beta 19.640573
_cell_angle_gamma 90.000000
_cell_volume 1420.720455
_symmetry_space_group_name_H-M "P 2/M"
_symmetry_group_IT_number 10
_symmetry_cell_setting 'monoclinic'
loop_
_space_group_symop_operation_xyz
x,y,z
-x,y,-z
-x,-y,-z
x,-y,z
loop_
_atom_site_type_symbol
_atom_site_label
_atom_site_fract_x
_atom_site_fract_y
_atom_site_fract_z
Si Si1 0.622014 0.323840 0.174643
Si Si2 0.113905 0.320679 0.461538
Si Si3 0.158224 0.167851 0.912603
Si Si4 0.450041 0.675513 0.893265
Si Si5 0.547973 0.166831 0.520070
Si Si6 0.746816 0.820146 0.464323
Si Si7 0.074535 0.678080 0.264800
O O1 0.601284 0.500000 0.203167
O O2 0.809128 0.263049 0.056218
O O3 0.652690 0.284821 0.082560
O O4 0.420003 0.246151 0.357772
O O5 0.117805 0.500000 0.458141
O O6 0.333785 0.251160 0.279093
O O7 0.000000 0.258222 0.500000
O O8 0.996572 0.264781 0.614495
O O9 0.359596 0.160127 0.714156
O O10 0.086589 0.000000 0.988635
O O11 0.000000 0.243663 0.000000
O O12 0.487952 0.500000 0.865860
O O13 0.301614 0.723928 0.066598
O O14 0.500000 0.256813 0.500000
O O15 0.714525 0.236836 0.424493
O O16 0.617975 0.000000 0.444312
O O17 0.953343 0.759975 0.314997
O O18 0.735394 0.000000 0.476485
O O19 0.045328 0.500000 0.282202
#
# Coordination Sequence:
#
# PCOD8058771 Si02
#       7
#     4   4   4   4   4   4   4
#     4  10  18  32  52  72 102 140 177 219 269 320
#     4   9  17  31  53  81 111 141 174 216 266 314
#     4   9  18  31  47  69  98 133 176 222 266 314
#     4   9  18  31  50  80 109 137 176 217 263 315
#     4   8  15  28  45  65  91 125 164 212 260 300
#     4  10  19  32  52  76 101 134 179 220 263 321
#     4  10  19  33  54  78 108 140 172 217 266 313
#
# _framework density 19.708310999999998
#
# number of rings (size 3 to 8) (size 9 to 14) (size 15 to 20)
#    0.000    2.714    1.429    1.714    0.000    2.000 
#    0.000    5.714    0.000   11.143    0.000    1.000 
#    0.000    0.000    0.000    0.000    0.000    0.000 
#
# Total GULP energy -346910.380224 kJ/mol
# GULP energy per Si atom -12389.656437 kJ/mol
# Density = 1.966345 g / cm^3
# Si number density = 19.708311 Si / 1000 Ang^3
#
#
#
# Elastic Constant Matrix: (Units=GPa)
#
#
# Indices 1 2 3 4 5 6 
#
# 1 164.5538 24.5913 83.5705 0.0000 -7.6740 0.0000
# 2 24.5913 39.4875 19.1641 0.0000 -1.8332 0.0000
# 3 83.5705 19.1641 112.1897 0.0000 -3.1343 0.0000
# 4 0.0000 0.0000 0.0000 13.6581 0.0000 -4.2258
# 5 -7.6740 -1.8332 -3.1343 0.0000 30.6941 0.0000
# 6 0.0000 0.0000 0.0000 -4.2258 0.0000 14.1717
#
#
#
# Elastic Compliance Matrix: (Units=1/GPa)
#
#
# Indices 1 2 3 4 5 6 
#
# 1 0.010147 -0.002831 -0.007029 0.000000 0.001650 0.000000
# 2 -0.002831 0.028446 -0.002730 0.000000 0.000712 0.000000
# 3 -0.007029 -0.002730 0.014603 0.000000 -0.000429 0.000000
# 4 0.000000 0.000000 0.000000 0.080658 0.000000 0.024051
# 5 0.001650 0.000712 -0.000429 0.000000 0.032991 0.000000
# 6 0.000000 0.000000 0.000000 0.024051 0.000000 0.077735
#
#
# Mechanical properties :
#
#
# Convention : Reuss Voigt Hill
#
# Bulk Modulus (GPa) = 35.69396 63.43141 49.56269
# Shear Modulus (GPa) = 17.91482 24.29843 21.10663
#
# Velocity S-wave (km/s) = 3.01823 3.51508 3.27609
# Velocity P-wave (km/s) = 5.50425 6.98064 6.28594
#
# Compressibility (1/GPa) = 0.02801594
#
# Stress axis : x y z
#
# Youngs Moduli (GPa) = 98.55514 35.15462 68.47720
#
# Poissons Ratio (x) = 0.09953 0.48129
# Poissons Ratio (y) = 0.27903 0.18695
# Poissons Ratio (z) = 0.69270 0.09598
#
# Static dielectric constant tensor:
#      x y z
#    x 4.030770 0.000000 -0.137370 
#    y 0.000000 3.198490 0.000000 
#    z -0.137370 0.000000 3.629340 
# 
# 
# High freq. dielectric constant tensor:
#      x y z
#    x 1.781300 0.000000 -0.004710 
#    y 0.000000 1.711000 0.000000 
#    z -0.004710 0.000000 1.762750 
# 
# From -- ./inp_files/90371.got.cif
#   From: 2010.06.25/outbox.cif.g09.slc.cpg/sg10_46_cif.got.tgz:90371.got - 2010.06.27 22:07:45.
