data_PCOD8058304
_publ_section_title
;
Structure prediction by ZEFSAII (Michael W. Deem and Ramdas Pophale) SiO2 
 PCOD8058304
Probable space group: P 2/M
;
_chemical_formula_sum "Si O2"
_cell_formula_units_Z 28
_cell_length_a 18.362237
_cell_length_b 11.784287
_cell_length_c 19.860262
_cell_angle_alpha 90.000000
_cell_angle_beta 157.606048
_cell_angle_gamma 90.000000
_cell_volume 1637.222942
_symmetry_space_group_name_H-M "P 2/M"
_symmetry_group_IT_number 10
_symmetry_cell_setting 'monoclinic'
loop_
_space_group_symop_operation_xyz
x,y,z
-x,y,-z
-x,-y,-z
x,-y,z
loop_
_atom_site_type_symbol
_atom_site_label
_atom_site_fract_x
_atom_site_fract_y
_atom_site_fract_z
Si Si1 0.080851 0.365857 0.500155
Si Si2 0.142239 0.272914 0.301079
Si Si3 0.884251 0.500000 0.798314
Si Si4 0.511331 0.369170 0.200458
Si Si5 0.083732 0.133784 0.999704
Si Si6 0.712869 0.500000 0.799054
Si Si7 0.890558 0.369129 0.201293
Si Si8 0.540566 0.272822 0.699639
O O1 0.072179 0.500000 0.499146
O O2 0.298948 0.326394 0.675344
O O3 0.000000 0.310442 0.500000
O O4 0.949843 0.325797 0.325845
O O5 0.185384 0.389709 0.300055
O O6 0.341588 0.224961 0.500332
O O7 0.054905 0.181147 0.176159
O O8 0.995340 0.292187 0.236153
O O9 0.792588 0.500000 0.792716
O O10 0.115038 0.500000 0.999526
O O11 0.533076 0.500000 0.242798
O O12 0.477199 0.291900 0.236044
O O13 0.336858 0.355045 0.999538
O O14 0.092384 0.000000 0.999647
O O15 0.296781 0.181124 0.175260
O O16 0.000000 0.172143 0.000000
O O17 0.585885 0.389727 0.700939
O O18 0.953520 0.500000 0.243872
#
# Coordination Sequence:
#
# PCOD8058304 Si02
#       8
#     4   4   2   4   4   2   4   4
#     4   9  18  30  46  74 115 154 183 211 254 324
#     4  12  22  35  58  82 109 143 184 228 281 333
#     4  11  21  33  51  80 113 140 174 224 281 338
#     4  10  18  30  50  77 110 148 182 216 264 320
#     4  11  26  45  59  75 106 146 190 240 285 328
#     4  11  21  33  51  80 113 140 174 224 281 338
#     4  10  18  30  50  77 110 148 182 216 264 320
#     4  12  22  35  58  82 109 143 184 228 281 333
#
# _framework density 17.102131
#
# number of rings (size 3 to 8) (size 9 to 14) (size 15 to 20)
#    0.000    1.286    5.714    1.286    0.000    4.000 
#    0.000    4.286    0.000    0.000    0.000    0.000 
#    0.000    3.429    0.000    0.000    0.000    0.000 
#
# Total GULP energy -347284.847974 kJ/mol
# GULP energy per Si atom -12403.030285 kJ/mol
# Density = 1.706321 g / cm^3
# Si number density = 17.102131 Si / 1000 Ang^3
#
#
#
# Elastic Constant Matrix: (Units=GPa)
#
#
# Indices 1 2 3 4 5 6 
#
# 1 137.6680 36.6385 66.5887 0.0000 1.7742 0.0000
# 2 36.6385 47.6337 29.7124 0.0000 0.8240 0.0000
# 3 66.5887 29.7124 155.9329 0.0000 -4.0216 0.0000
# 4 0.0000 0.0000 0.0000 19.6466 0.0000 -8.6298
# 5 1.7742 0.8240 -4.0216 0.0000 28.7189 0.0000
# 6 0.0000 0.0000 0.0000 -8.6298 0.0000 -67.6686
#
#
#
# Elastic Compliance Matrix: (Units=1/GPa)
#
#
# Indices 1 2 3 4 5 6 
#
# 1 0.010490 -0.005950 -0.003370 0.000000 -0.000949 0.000000
# 2 -0.005950 0.027250 -0.002672 0.000000 -0.000788 0.000000
# 3 -0.003370 -0.002672 0.008399 0.000000 0.001461 0.000000
# 4 0.000000 0.000000 0.000000 0.048199 0.000000 -0.006147
# 5 -0.000949 -0.000788 0.001461 0.000000 0.035106 0.000000
# 6 0.000000 0.000000 0.000000 -0.006147 0.000000 -0.013994
#
#
# Mechanical properties :
#
#
# Convention : Reuss Voigt Hill
#
# Bulk Modulus (GPa) = 45.13645 67.45709 56.29677
# Shear Modulus (GPa) = 34.05542 10.02571 22.04057
#
# Velocity S-wave (km/s) = 4.46724 2.42384 3.59383
# Velocity P-wave (km/s) = 7.28408 6.88205 7.08592
#
# Compressibility (1/GPa) = 0.02215504
#
# Stress axis : x y z
#
# Youngs Moduli (GPa) = 95.33184 36.69687 119.06107
#
# Poissons Ratio (x) = 0.21834 0.40126
# Poissons Ratio (y) = 0.56720 0.31814
# Poissons Ratio (z) = 0.32129 0.09806
#
# Static dielectric constant tensor:
#      x y z
#    x 3.361690 0.000000 -0.015590 
#    y 0.000000 2.733740 0.000000 
#    z -0.015590 0.000000 3.472220 
# 
# 
# High freq. dielectric constant tensor:
#      x y z
#    x 1.664600 0.000000 -0.002040 
#    y 0.000000 1.601770 0.000000 
#    z -0.002040 0.000000 1.681400 
# 
# From -- ./inp_files/79537.got.cif
#   From: 2010.06.25/outbox.cif.g09.slc.cpg/sg10_40_cif.got.tgz:79537.got - 2010.06.27 22:07:45.
