data_PCOD8058069
_publ_section_title
;
Structure prediction by ZEFSAII (Michael W. Deem and Ramdas Pophale) SiO2 
 PCOD8058069
Probable space group: P 2/M
;
_chemical_formula_sum "Si O2"
_cell_formula_units_Z 32
_cell_length_a 13.958378
_cell_length_b 8.829983
_cell_length_c 16.413886
_cell_angle_alpha 90.000000
_cell_angle_beta 86.134231
_cell_angle_gamma 90.000000
_cell_volume 2018.445255
_symmetry_space_group_name_H-M "P 2/M"
_symmetry_group_IT_number 10
_symmetry_cell_setting 'monoclinic'
loop_
_space_group_symop_operation_xyz
x,y,z
-x,y,-z
-x,-y,-z
x,-y,z
loop_
_atom_site_type_symbol
_atom_site_label
_atom_site_fract_x
_atom_site_fract_y
_atom_site_fract_z
Si Si1 0.721486 0.177800 0.518748
Si Si2 0.073396 0.825087 0.423359
Si Si3 0.340615 0.322715 0.644096
Si Si4 0.525753 0.833316 0.592717
Si Si5 0.803035 0.181204 0.227380
Si Si6 0.074450 0.170928 0.112748
Si Si7 0.999759 0.322869 0.732381
Si Si8 0.861308 0.168726 0.056404
O O1 0.821428 0.223547 0.553024
O O2 0.709169 0.269151 0.436052
O O3 0.637252 0.220074 0.588788
O O4 0.716888 0.000000 0.496917
O O5 0.000000 0.794774 0.500000
O O6 0.046999 0.717387 0.350720
O O7 0.070661 0.000000 0.395604
O O8 0.327275 0.500000 0.653763
O O9 0.454094 0.282564 0.641400
O O10 0.291000 0.241444 0.722970
O O11 0.500000 0.842819 0.500000
O O12 0.513809 0.000000 0.633320
O O13 0.898508 0.238935 0.266964
O O14 0.798005 0.242727 0.133038
O O15 0.806112 0.000000 0.228868
O O16 0.076493 0.273828 0.193190
O O17 0.967311 0.163896 0.086289
O O18 0.108764 0.000000 0.132487
O O19 0.138914 0.244480 0.034471
O O20 0.018579 0.500000 0.737730
O O21 0.823649 0.000000 0.043065
#
# Coordination Sequence:
#
# PCOD8058069 Si02
#       8
#     4   4   4   4   4   4   4   4
#     4   9  18  32  48  63  81 111 151 185 211 246
#     4  10  20  33  48  63  81 112 151 184 214 246
#     4  11  20  28  42  66  91 112 137 172 217 263
#     4   8  15  29  46  62  81 108 142 177 211 250
#     4  10  18  30  45  60  84 117 148 176 209 250
#     4   8  13  26  44  59  78 107 143 176 206 244
#     4  11  21  30  41  62  89 115 144 177 214 253
#     4   7  12  23  42  62  77 103 143 178 205 240
#
# _framework density 15.853787000000001
#
# number of rings (size 3 to 8) (size 9 to 14) (size 15 to 20)
#    0.000    2.750    0.000    5.625    0.000    4.000 
#    0.000    5.625    0.000    0.000    0.000    0.000 
#    0.000    1.000    0.000   11.500    0.000    4.750 
#
# Total GULP energy -396453.445362 kJ/mol
# GULP energy per Si atom -12389.170168 kJ/mol
# Density = 1.581770 g / cm^3
# Si number density = 15.853787 Si / 1000 Ang^3
#
#
#
# Elastic Constant Matrix: (Units=GPa)
#
#
# Indices 1 2 3 4 5 6 
#
# 1 90.4133 26.2190 41.0159 0.0000 -17.1311 0.0000
# 2 26.2190 74.3040 37.0000 0.0000 -11.5970 0.0000
# 3 41.0159 37.0000 93.2308 0.0000 -25.2084 0.0000
# 4 0.0000 0.0000 0.0000 4.7497 0.0000 0.3341
# 5 -17.1311 -11.5970 -25.2084 0.0000 20.1065 0.0000
# 6 0.0000 0.0000 0.0000 0.3341 0.0000 12.4092
#
#
#
# Elastic Compliance Matrix: (Units=1/GPa)
#
#
# Indices 1 2 3 4 5 6 
#
# 1 0.014664 -0.002274 -0.003820 0.000000 0.006393 0.000000
# 2 -0.002274 0.017180 -0.005540 0.000000 0.001025 0.000000
# 3 -0.003820 -0.005540 0.019457 0.000000 0.017944 0.000000
# 4 0.000000 0.000000 0.000000 0.210941 0.000000 -0.005679
# 5 0.006393 0.001025 0.017944 0.000000 0.078271 0.000000
# 6 0.000000 0.000000 0.000000 -0.005679 0.000000 0.080738
#
#
# Mechanical properties :
#
#
# Convention : Reuss Voigt Hill
#
# Bulk Modulus (GPa) = 35.67425 51.82421 43.74923
# Shear Modulus (GPa) = 11.01650 17.70061 14.35856
#
# Velocity S-wave (km/s) = 2.63892 3.34502 3.01273
# Velocity P-wave (km/s) = 5.64235 6.90498 6.30535
#
# Compressibility (1/GPa) = 0.02803143
#
# Stress axis : x y z
#
# Youngs Moduli (GPa) = 68.19336 58.20887 51.39452
#
# Poissons Ratio (x) = 0.13239 0.19634
# Poissons Ratio (y) = 0.15510 0.28474
# Poissons Ratio (z) = 0.26051 0.32249
#
# Static dielectric constant tensor:
#      x y z
#    x 3.083390 0.000000 -0.400090 
#    y 0.000000 2.881580 0.000000 
#    z -0.400090 0.000000 3.306460 
# 
# 
# High freq. dielectric constant tensor:
#      x y z
#    x 1.576680 0.000000 -0.030690 
#    y 0.000000 1.595880 0.000000 
#    z -0.030690 0.000000 1.599690 
# 
# From -- ./inp_files/66137.got.cif
#   From: 2010.06.25/outbox.cif.g09.slc.cpg/sg10_34_cif.got.tgz:66137.got - 2010.06.27 22:07:45.
