data_PCOD8058804
_publ_section_title
;
Structure prediction by ZEFSAII (Michael W. Deem and Ramdas Pophale) SiO2 
 PCOD8058804
Probable space group: P 2/M
;
_chemical_formula_sum "Si O2"
_cell_formula_units_Z 28
_cell_length_a 27.567236
_cell_length_b 9.014474
_cell_length_c 21.406973
_cell_angle_alpha 90.000000
_cell_angle_beta 162.846444
_cell_angle_gamma 90.000000
_cell_volume 1568.964558
_symmetry_space_group_name_H-M "P 2/M"
_symmetry_group_IT_number 10
_symmetry_cell_setting 'monoclinic'
loop_
_space_group_symop_operation_xyz
x,y,z
-x,y,-z
-x,-y,-z
x,-y,z
loop_
_atom_site_type_symbol
_atom_site_label
_atom_site_fract_x
_atom_site_fract_y
_atom_site_fract_z
Si Si1 0.738405 0.169647 0.290202
Si Si2 0.318066 0.334703 0.248631
Si Si3 0.921842 0.829112 0.338971
Si Si4 0.513798 0.174402 0.119957
Si Si5 0.404820 0.325441 0.102291
Si Si6 0.823646 0.175611 0.812642
Si Si7 0.493126 0.676331 0.635137
O O1 0.656898 0.241778 0.251371
O O2 0.933114 0.190648 0.533231
O O3 0.683838 0.000000 0.227437
O O4 0.659599 0.221140 0.126804
O O5 0.500000 0.338094 0.500000
O O6 0.241136 0.500000 0.154046
O O7 0.195678 0.231898 0.139037
O O8 0.352616 0.276976 0.220218
O O9 0.000000 0.774665 0.500000
O O10 0.861817 0.000000 0.270976
O O11 0.778077 0.726880 0.137989
O O12 0.529523 0.256789 0.205327
O O13 0.527962 0.000000 0.150963
O O14 0.411725 0.500000 0.106642
O O15 0.458142 0.269911 0.236030
O O16 0.678732 0.245965 0.593158
O O17 0.804125 0.000000 0.788719
O O18 0.000000 0.222471 0.000000
O O19 0.465202 0.500000 0.595797
#
# Coordination Sequence:
#
# PCOD8058804 Si02
#       7
#     4   4   4   4   4   4   4
#     4   8  15  29  51  73  92 121 167 215 253 301
#     4   8  15  31  54  75  98 134 174 202 234 292
#     4  10  18  32  53  74  95 127 173 215 253 307
#     4   9  16  31  52  71  94 129 168 208 255 305
#     4  11  22  34  49  74 106 135 168 213 260 300
#     4  10  20  33  53  84 112 130 159 208 254 292
#     4   9  20  37  53  72 102 140 176 205 243 304
#
# _framework density 17.846166
#
# number of rings (size 3 to 8) (size 9 to 14) (size 15 to 20)
#    0.000    2.714    1.429    2.571    0.000    5.143 
#    0.000    3.571    0.000    6.857    0.000    0.000 
#    0.000    0.000    0.000    0.000    0.000    0.000 
#
# Total GULP energy -346938.448437 kJ/mol
# GULP energy per Si atom -12390.658873 kJ/mol
# Density = 1.780555 g / cm^3
# Si number density = 17.846166 Si / 1000 Ang^3
#
#
#
# Elastic Constant Matrix: (Units=GPa)
#
#
# Indices 1 2 3 4 5 6 
#
# 1 162.9204 48.9531 56.1190 0.0000 -7.0080 0.0000
# 2 48.9531 53.3244 30.3411 0.0000 -0.0854 0.0000
# 3 56.1190 30.3411 64.8900 0.0000 2.7904 0.0000
# 4 0.0000 0.0000 0.0000 15.1891 0.0000 -0.2408
# 5 -7.0080 -0.0854 2.7904 0.0000 28.6293 0.0000
# 6 0.0000 0.0000 0.0000 -0.2408 0.0000 27.3145
#
#
#
# Elastic Compliance Matrix: (Units=1/GPa)
#
#
# Indices 1 2 3 4 5 6 
#
# 1 0.010142 -0.005777 -0.006202 0.000000 0.003070 0.000000
# 2 -0.005777 0.028886 -0.008489 0.000000 -0.000501 0.000000
# 3 -0.006202 -0.008489 0.024914 0.000000 -0.003972 0.000000
# 4 0.000000 0.000000 0.000000 0.065846 0.000000 0.000581
# 5 0.003070 -0.000501 -0.003972 0.000000 0.036066 0.000000
# 6 0.000000 0.000000 0.000000 0.000581 0.000000 0.036616
#
#
# Mechanical properties :
#
#
# Convention : Reuss Voigt Hill
#
# Bulk Modulus (GPa) = 43.46542 61.32902 52.39722
# Shear Modulus (GPa) = 19.91441 23.94137 21.92789
#
# Velocity S-wave (km/s) = 3.34412 3.66668 3.50911
# Velocity P-wave (km/s) = 6.27051 7.23644 6.77072
#
# Compressibility (1/GPa) = 0.02300679
#
# Stress axis : x y z
#
# Youngs Moduli (GPa) = 98.59800 34.61922 40.13737
#
# Poissons Ratio (x) = 0.19999 0.24894
# Poissons Ratio (y) = 0.56959 0.34071
# Poissons Ratio (z) = 0.61152 0.29387
#
# Static dielectric constant tensor:
#      x y z
#    x 3.902880 0.000000 0.089940 
#    y 0.000000 3.073800 0.000000 
#    z 0.089940 0.000000 3.048690 
# 
# 
# High freq. dielectric constant tensor:
#      x y z
#    x 1.711180 0.000000 0.015670 
#    y 0.000000 1.667310 0.000000 
#    z 0.015670 0.000000 1.659220 
# 
# From -- ./inp_files/86690.got.cif
#   From: 2010.06.25/outbox.cif.g09.slc.cpg/sg10_44_cif.got.tgz:86690.got - 2010.06.27 22:07:45.
