data_PCOD8058244
_publ_section_title
;
Structure prediction by ZEFSAII (Michael W. Deem and Ramdas Pophale) SiO2 
 PCOD8058244
Probable space group: P 2/M
;
_chemical_formula_sum "Si O2"
_cell_formula_units_Z 32
_cell_length_a 11.368955
_cell_length_b 12.315375
_cell_length_c 22.132111
_cell_angle_alpha 90.000000
_cell_angle_beta 34.219809
_cell_angle_gamma 90.000000
_cell_volume 1742.659854
_symmetry_space_group_name_H-M "P 2/M"
_symmetry_group_IT_number 10
_symmetry_cell_setting 'monoclinic'
loop_
_space_group_symop_operation_xyz
x,y,z
-x,y,-z
-x,-y,-z
x,-y,z
loop_
_atom_site_type_symbol
_atom_site_label
_atom_site_fract_x
_atom_site_fract_y
_atom_site_fract_z
Si Si1 0.277979 0.818236 0.933860
Si Si2 0.658265 0.625392 0.482651
Si Si3 0.607946 0.122903 0.892035
Si Si4 0.820479 0.123859 0.155685
Si Si5 0.894700 0.268200 0.699973
Si Si6 0.468207 0.272444 0.345307
Si Si7 0.089941 0.117468 0.526976
Si Si8 0.463932 0.374318 0.216804
O O1 0.444214 0.875414 0.906484
O O2 0.272314 0.881406 0.872642
O O3 0.343721 0.692921 0.894060
O O4 0.051161 0.824752 0.060513
O O5 0.500000 0.672927 0.500000
O O6 0.702857 0.500000 0.452431
O O7 0.546143 0.639477 0.595193
O O8 0.879953 0.684459 0.379727
O O9 0.793475 0.209593 0.801483
O O10 0.695533 0.000000 0.860889
O O11 0.500000 0.159904 0.000000
O O12 0.686140 0.207050 0.252969
O O13 0.819567 0.000000 0.181379
O O14 0.743529 0.360232 0.736040
O O15 0.913611 0.175332 0.641520
O O16 0.299896 0.183678 0.433936
O O17 0.418733 0.333458 0.303865
O O18 0.000000 0.100471 0.500000
O O19 0.140100 0.000000 0.534631
O O20 0.528475 0.500000 0.190333
#
# Coordination Sequence:
#
# PCOD8058244 Si02
#       8
#     4   4   4   4   4   4   4   4
#     4   9  19  33  50  76 105 138 175 213 256 311
#     4  10  22  39  56  73 100 141 181 216 259 309
#     4  10  20  34  54  79 107 138 173 211 258 311
#     4  10  18  32  54  77 106 138 169 208 260 315
#     4  10  20  35  55  79 106 136 174 220 263 312
#     4  10  20  33  51  81 107 133 173 216 259 318
#     4  10  18  30  49  79 113 138 164 205 263 322
#     4  10  19  33  53  78 104 132 168 221 275 310
#
# _framework density 18.362734
#
# number of rings (size 3 to 8) (size 9 to 14) (size 15 to 20)
#    0.000    2.125    1.250    3.000    0.000    1.000 
#    0.000    7.500    0.000   23.625    0.000    0.000 
#    0.000    0.000    0.000    0.000    0.000    0.000 
#
# Total GULP energy -396720.384043 kJ/mol
# GULP energy per Si atom -12397.512001 kJ/mol
# Density = 1.832094 g / cm^3
# Si number density = 18.362734 Si / 1000 Ang^3
#
#
#
# Elastic Constant Matrix: (Units=GPa)
#
#
# Indices 1 2 3 4 5 6 
#
# 1 69.5878 24.0595 33.8179 0.0000 -7.7207 0.0000
# 2 24.0595 109.1748 43.0304 0.0000 -1.7537 0.0000
# 3 33.8179 43.0304 111.0107 0.0000 -2.9242 0.0000
# 4 0.0000 0.0000 0.0000 23.1580 0.0000 2.7393
# 5 -7.7207 -1.7537 -2.9242 0.0000 26.0883 0.0000
# 6 0.0000 0.0000 0.0000 2.7393 0.0000 19.6293
#
#
#
# Elastic Compliance Matrix: (Units=1/GPa)
#
#
# Indices 1 2 3 4 5 6 
#
# 1 0.017783 -0.002074 -0.004492 0.000000 0.004620 0.000000
# 2 -0.002074 0.011055 -0.003661 0.000000 -0.000281 0.000000
# 3 -0.004492 -0.003661 0.011789 0.000000 -0.000254 0.000000
# 4 0.000000 0.000000 0.000000 0.043906 0.000000 -0.006127
# 5 0.004620 -0.000281 -0.000254 0.000000 0.039651 0.000000
# 6 0.000000 0.000000 0.000000 -0.006127 0.000000 0.051799
#
#
# Mechanical properties :
#
#
# Convention : Reuss Voigt Hill
#
# Bulk Modulus (GPa) = 49.57015 54.62100 52.09557
# Shear Modulus (GPa) = 24.61099 26.36615 25.48857
#
# Velocity S-wave (km/s) = 3.66494 3.79337 3.72971
# Velocity P-wave (km/s) = 6.70542 6.99974 6.85416
#
# Compressibility (1/GPa) = 0.02017343
#
# Stress axis : x y z
#
# Youngs Moduli (GPa) = 56.23387 90.45607 84.82706
#
# Poissons Ratio (x) = 0.18764 0.38100
# Poissons Ratio (y) = 0.11665 0.31052
# Poissons Ratio (z) = 0.25258 0.33113
#
# Static dielectric constant tensor:
#      x y z
#    x 3.126840 0.000000 0.082890 
#    y 0.000000 3.451530 0.000000 
#    z 0.082890 0.000000 3.552760 
# 
# 
# High freq. dielectric constant tensor:
#      x y z
#    x 1.693530 0.000000 -0.003800 
#    y 0.000000 1.713230 0.000000 
#    z -0.003800 0.000000 1.715950 
# 
# From -- ./inp_files/56979.got.cif
#   From: 2010.06.25/outbox.cif.g09.slc.cpg/sg10_29_cif.got.tgz:56979.got - 2010.06.27 22:07:45.
