data_PCOD8058559
_publ_section_title
;
Structure prediction by ZEFSAII (Michael W. Deem and Ramdas Pophale) SiO2 
 PCOD8058559
Probable space group: P 2/M
;
_chemical_formula_sum "Si O2"
_cell_formula_units_Z 32
_cell_length_a 11.078640
_cell_length_b 9.215420
_cell_length_c 29.388815
_cell_angle_alpha 90.000000
_cell_angle_beta 29.070129
_cell_angle_gamma 90.000000
_cell_volume 1457.848790
_symmetry_space_group_name_H-M "P 2/M"
_symmetry_group_IT_number 10
_symmetry_cell_setting 'monoclinic'
loop_
_space_group_symop_operation_xyz
x,y,z
-x,y,-z
-x,-y,-z
x,-y,z
loop_
_atom_site_type_symbol
_atom_site_label
_atom_site_fract_x
_atom_site_fract_y
_atom_site_fract_z
Si Si1 0.232870 0.660368 0.085229
Si Si2 0.463176 0.673229 0.728987
Si Si3 0.463697 0.164833 0.878842
Si Si4 0.387502 0.334784 0.649828
Si Si5 0.275590 0.665438 0.541813
Si Si6 0.207888 0.834192 0.315225
Si Si7 0.983034 0.340596 0.940017
Si Si8 0.935130 0.828961 0.780899
O O1 0.219340 0.500000 0.112777
O O2 0.180522 0.643732 0.050325
O O3 0.059644 0.774488 0.168298
O O4 0.500000 0.732255 0.000000
O O5 0.486747 0.500000 0.723185
O O6 0.421809 0.723847 0.690391
O O7 0.714892 0.746798 0.664746
O O8 0.242302 0.726535 0.836071
O O9 0.563059 0.175122 0.795126
O O10 0.685363 0.228573 0.838074
O O11 0.409509 0.000000 0.911640
O O12 0.194890 0.246837 0.967636
O O13 0.291851 0.500000 0.684218
O O14 0.646081 0.324317 0.537270
O O15 0.194006 0.245530 0.680850
O O16 0.500000 0.719017 0.500000
O O17 0.204215 0.500000 0.577988
O O18 0.035259 0.766144 0.628267
O O19 0.148964 0.000000 0.347415
O O20 0.025987 0.500000 0.947906
O O21 0.957958 0.000000 0.767996
#
# Coordination Sequence:
#
# PCOD8058559 Si02
#       8
#     4   4   4   4   4   4   4   4
#     4  10  18  31  51  79 116 155 196 243 298 352
#     4  10  22  41  62  86 119 158 202 248 294 350
#     4  10  23  39  55  82 121 163 202 246 305 357
#     4  10  21  39  63  90 123 158 194 244 303 356
#     4  10  22  42  70 100 123 150 192 242 297 358
#     4  11  25  44  63  85 120 162 200 246 301 355
#     4  10  20  35  58  85 115 157 206 251 295 346
#     4  11  21  32  53  86 121 155 195 241 294 358
#
# _framework density 21.950150000000001
#
# number of rings (size 3 to 8) (size 9 to 14) (size 15 to 20)
#    0.000    1.750    2.500    1.500    0.000    5.000 
#    0.000    5.000    0.000    0.000    0.000    0.000 
#    0.000    0.000    0.000    0.000    0.000    0.000 
#
# Total GULP energy -396457.365613 kJ/mol
# GULP energy per Si atom -12389.292675 kJ/mol
# Density = 2.190019 g / cm^3
# Si number density = 21.950150 Si / 1000 Ang^3
#
#
#
# Elastic Constant Matrix: (Units=GPa)
#
#
# Indices 1 2 3 4 5 6 
#
# 1 90.1992 29.5731 18.4167 0.0000 -16.4967 0.0000
# 2 29.5731 70.1540 28.0257 0.0000 -11.8212 0.0000
# 3 18.4167 28.0257 76.5503 0.0000 -4.4511 0.0000
# 4 0.0000 0.0000 0.0000 14.9073 0.0000 -7.5351
# 5 -16.4967 -11.8212 -4.4511 0.0000 30.1827 0.0000
# 6 0.0000 0.0000 0.0000 -7.5351 0.0000 25.0260
#
#
#
# Elastic Compliance Matrix: (Units=1/GPa)
#
#
# Indices 1 2 3 4 5 6 
#
# 1 0.013823 -0.004306 -0.001420 0.000000 0.005659 0.000000
# 2 -0.004306 0.019065 -0.005695 0.000000 0.004273 0.000000
# 3 -0.001420 -0.005695 0.015448 0.000000 -0.000729 0.000000
# 4 0.000000 0.000000 0.000000 0.079123 0.000000 0.023824
# 5 0.005659 0.004273 -0.000729 0.000000 0.037791 0.000000
# 6 0.000000 0.000000 0.000000 0.023824 0.000000 0.047132
#
#
# Mechanical properties :
#
#
# Convention : Reuss Voigt Hill
#
# Bulk Modulus (GPa) = 39.22690 43.21496 41.22093
# Shear Modulus (GPa) = 20.51510 24.74906 22.63208
#
# Velocity S-wave (km/s) = 3.06048 3.36149 3.21451
# Velocity P-wave (km/s) = 5.51347 5.89887 5.70942
#
# Compressibility (1/GPa) = 0.02549271
#
# Stress axis : x y z
#
# Youngs Moduli (GPa) = 72.34083 52.45227 64.73466
#
# Poissons Ratio (x) = 0.22588 0.09193
# Poissons Ratio (y) = 0.31152 0.36868
# Poissons Ratio (z) = 0.10273 0.29873
#
# Static dielectric constant tensor:
#      x y z
#    x 3.676050 0.000000 -0.086010 
#    y 0.000000 3.944390 0.000000 
#    z -0.086010 0.000000 4.009530 
# 
# 
# High freq. dielectric constant tensor:
#      x y z
#    x 1.867620 0.000000 -0.002720 
#    y 0.000000 1.838720 0.000000 
#    z -0.002720 0.000000 1.864980 
# 
# From -- ./inp_files/94986.got.cif
#   From: 2010.06.25/outbox.cif.g09.slc.cpg/sg10_48_cif.got.tgz:94986.got - 2010.06.27 22:07:45.
