data_PCOD8058569
_publ_section_title
;
Structure prediction by ZEFSAII (Michael W. Deem and Ramdas Pophale) SiO2 
 PCOD8058569
Probable space group: P 2/M
;
_chemical_formula_sum "Si O2"
_cell_formula_units_Z 32
_cell_length_a 21.130648
_cell_length_b 8.839830
_cell_length_c 9.593153
_cell_angle_alpha 90.000000
_cell_angle_beta 88.588028
_cell_angle_gamma 90.000000
_cell_volume 1791.373774
_symmetry_space_group_name_H-M "P 2/M"
_symmetry_group_IT_number 10
_symmetry_cell_setting 'monoclinic'
loop_
_space_group_symop_operation_xyz
x,y,z
-x,y,-z
-x,-y,-z
x,-y,z
loop_
_atom_site_type_symbol
_atom_site_label
_atom_site_fract_x
_atom_site_fract_y
_atom_site_fract_z
Si Si1 0.605081 0.179096 0.253205
Si Si2 0.132084 0.679573 0.317378
Si Si3 0.938472 0.677781 0.418799
Si Si4 0.992656 0.679976 0.844726
Si Si5 0.359023 0.321405 0.476090
Si Si6 0.459096 0.178539 0.282049
Si Si7 0.264059 0.177521 0.272192
Si Si8 0.367367 0.823090 0.050892
O O1 0.646798 0.265367 0.365018
O O2 0.531825 0.224187 0.273344
O O3 0.614934 0.000000 0.268055
O O4 0.629309 0.245532 0.103979
O O5 0.142366 0.500000 0.311633
O O6 0.119763 0.734280 0.480251
O O7 0.074382 0.727597 0.219121
O O8 0.193274 0.764096 0.257258
O O9 0.932612 0.500000 0.407903
O O10 0.000000 0.724731 0.500000
O O11 0.949197 0.740169 0.259458
O O12 0.996257 0.500000 0.852401
O O13 0.000000 0.749781 0.000000
O O14 0.358330 0.500000 0.467921
O O15 0.425363 0.258414 0.413911
O O16 0.298216 0.259106 0.398360
O O17 0.425176 0.237436 0.142765
O O18 0.449147 0.000000 0.302185
O O19 0.300611 0.216897 0.126679
O O20 0.265208 0.000000 0.301815
O O21 0.377319 0.000000 0.033607
#
# Coordination Sequence:
#
# PCOD8058569 Si02
#       8
#     4   4   4   4   4   4   4   4
#     4  10  18  31  52  74  96 123 157 198 245 294
#     4   9  16  28  48  71  95 124 158 194 232 276
#     4   7  11  21  39  64  93 123 151 180 218 264
#     4   8  13  23  43  72 101 126 153 187 228 275
#     4  11  22  34  48  69  98 127 158 200 245 287
#     4   9  17  31  52  75  96 123 159 195 238 295
#     4  10  20  36  54  69  90 126 170 205 240 288
#     4   8  16  31  51  72  93 123 163 202 236 281
#
# _framework density 17.863384
#
# number of rings (size 3 to 8) (size 9 to 14) (size 15 to 20)
#    0.000    3.000    0.000    4.500    0.000    3.500 
#    0.000    4.375    0.000    9.000    0.000    0.000 
#    0.000    0.000    0.000    0.000    0.000    0.000 
#
# Total GULP energy -396470.435373 kJ/mol
# GULP energy per Si atom -12389.701105 kJ/mol
# Density = 1.782273 g / cm^3
# Si number density = 17.863384 Si / 1000 Ang^3
#
#
#
# Elastic Constant Matrix: (Units=GPa)
#
#
# Indices 1 2 3 4 5 6 
#
# 1 84.9253 28.9926 47.5771 0.0000 -5.8421 0.0000
# 2 28.9926 44.9564 30.2263 0.0000 -0.3674 0.0000
# 3 47.5771 30.2263 155.3987 0.0000 -2.8950 0.0000
# 4 0.0000 0.0000 0.0000 8.1859 0.0000 0.7926
# 5 -5.8421 -0.3674 -2.8950 0.0000 12.5808 0.0000
# 6 0.0000 0.0000 0.0000 0.7926 0.0000 24.3867
#
#
#
# Elastic Compliance Matrix: (Units=1/GPa)
#
#
# Indices 1 2 3 4 5 6 
#
# 1 0.017138 -0.008691 -0.003428 0.000000 0.006916 0.000000
# 2 -0.008691 0.030000 -0.003247 0.000000 -0.003907 0.000000
# 3 -0.003428 -0.003247 0.008119 0.000000 0.000182 0.000000
# 4 0.000000 0.000000 0.000000 0.122548 0.000000 -0.003983
# 5 0.006916 -0.003907 0.000182 0.000000 0.082626 0.000000
# 6 0.000000 0.000000 0.000000 -0.003983 0.000000 0.041135
#
#
# Mechanical properties :
#
#
# Convention : Reuss Voigt Hill
#
# Bulk Modulus (GPa) = 40.77393 55.43026 48.10210
# Shear Modulus (GPa) = 14.68542 20.92963 17.80753
#
# Velocity S-wave (km/s) = 2.87033 3.42665 3.16075
# Velocity P-wave (km/s) = 5.81894 6.83764 6.34876
#
# Compressibility (1/GPa) = 0.02452548
#
# Stress axis : x y z
#
# Youngs Moduli (GPa) = 58.34913 33.33319 123.16096
#
# Poissons Ratio (x) = 0.28971 0.42216
# Poissons Ratio (y) = 0.50714 0.39991
# Poissons Ratio (z) = 0.20000 0.10824
#
# Static dielectric constant tensor:
#      x y z
#    x 3.210460 0.000000 -0.206730 
#    y 0.000000 2.875440 0.000000 
#    z -0.206730 0.000000 3.817600 
# 
# 
# High freq. dielectric constant tensor:
#      x y z
#    x 1.672590 0.000000 -0.012840 
#    y 0.000000 1.649080 0.000000 
#    z -0.012840 0.000000 1.703380 
# 
# From -- ./inp_files/35697.got.cif
#   From: 2010.06.25/outbox.cif.g09.slc.cpg/sg10_18_cif.got.tgz:35697.got - 2010.06.27 22:07:45.
