data_PCOD8058967
_publ_section_title
;
Structure prediction by ZEFSAII (Michael W. Deem and Ramdas Pophale) SiO2 
 PCOD8058967
Probable space group: P 2/M
;
_chemical_formula_sum "Si O2"
_cell_formula_units_Z 24
_cell_length_a 10.266139
_cell_length_b 18.440053
_cell_length_c 9.974348
_cell_angle_alpha 90.000000
_cell_angle_beta 41.488823
_cell_angle_gamma 90.000000
_cell_volume 1250.900067
_symmetry_space_group_name_H-M "P 2/M"
_symmetry_group_IT_number 10
_symmetry_cell_setting 'monoclinic'
loop_
_space_group_symop_operation_xyz
x,y,z
-x,y,-z
-x,-y,-z
x,-y,z
loop_
_atom_site_type_symbol
_atom_site_label
_atom_site_fract_x
_atom_site_fract_y
_atom_site_fract_z
Si Si1 0.699204 0.203248 0.167271
Si Si2 0.134311 0.643995 0.025324
Si Si3 0.048027 0.079343 0.117952
Si Si4 0.874172 0.327345 0.466260
Si Si5 0.753535 0.814426 0.428216
Si Si6 0.485140 0.417716 0.166688
O O1 0.472647 0.182068 0.358185
O O2 0.792722 0.210250 0.243793
O O3 0.750923 0.278954 0.057912
O O4 0.781248 0.139699 0.007673
O O5 0.986226 0.633140 0.261072
O O6 0.307464 0.585697 0.913887
O O7 0.000000 0.629032 0.000000
O O8 0.861776 0.107223 0.351415
O O9 0.111364 0.000000 0.126227
O O10 0.000000 0.069288 0.000000
O O11 0.854893 0.242264 0.449190
O O12 0.662592 0.364183 0.643386
O O13 0.000000 0.338603 0.500000
O O14 0.406596 0.500000 0.234728
O O15 0.500000 0.392891 0.000000
#
# Coordination Sequence:
#
# PCOD8058967 Si02
#       6
#     4   4   4   4   4   4
#     4  10  18  32  57  84 117 156 193 245 300 349
#     4  12  22  39  66  91 123 159 204 253 305 358
#     4   9  17  30  49  82 121 155 194 242 298 357
#     4  12  23  38  65  93 114 158 208 248 299 369
#     4  10  19  32  55  86 116 152 198 247 295 348
#     4  11  26  45  63  90 126 160 199 253 310 368
#
# _framework density 19.186184000000001
#
# number of rings (size 3 to 8) (size 9 to 14) (size 15 to 20)
#    0.000    1.333    6.667    0.500    0.000    2.667 
#    0.000    4.167    0.000    0.500    0.000    1.167 
#    0.000    0.000    0.000    0.000    0.000    0.000 
#
# Total GULP energy -297469.586362 kJ/mol
# GULP energy per Si atom -12394.566098 kJ/mol
# Density = 1.914252 g / cm^3
# Si number density = 19.186184 Si / 1000 Ang^3
#
#
#
# Elastic Constant Matrix: (Units=GPa)
#
#
# Indices 1 2 3 4 5 6 
#
# 1 95.6508 16.8398 39.8991 0.0000 -1.2941 0.0000
# 2 16.8398 86.4164 38.0452 0.0000 -1.4448 0.0000
# 3 39.8991 38.0452 119.0747 0.0000 -4.5998 0.0000
# 4 0.0000 0.0000 0.0000 19.9837 0.0000 -6.6803
# 5 -1.2941 -1.4448 -4.5998 0.0000 21.0805 0.0000
# 6 0.0000 0.0000 0.0000 -6.6803 0.0000 13.1683
#
#
#
# Elastic Compliance Matrix: (Units=1/GPa)
#
#
# Indices 1 2 3 4 5 6 
#
# 1 0.012187 -0.000671 -0.003875 0.000000 -0.000143 0.000000
# 2 -0.000671 0.013503 -0.004090 0.000000 -0.000008 0.000000
# 3 -0.003875 -0.004090 0.011076 0.000000 0.001899 0.000000
# 4 0.000000 0.000000 0.000000 0.060260 0.000000 0.030570
# 5 -0.000143 -0.000008 0.001899 0.000000 0.047842 0.000000
# 6 0.000000 0.000000 0.000000 0.030570 0.000000 0.091449
#
#
# Mechanical properties :
#
#
# Convention : Reuss Voigt Hill
#
# Bulk Modulus (GPa) = 51.29475 54.52337 52.90906
# Shear Modulus (GPa) = 19.22430 24.60367 21.91399
#
# Velocity S-wave (km/s) = 3.16885 3.58490 3.38328
# Velocity P-wave (km/s) = 6.33894 6.75389 6.54970
#
# Compressibility (1/GPa) = 0.01949517
#
# Stress axis : x y z
#
# Youngs Moduli (GPa) = 82.05321 74.05719 90.28192
#
# Poissons Ratio (x) = 0.04973 0.34981
# Poissons Ratio (y) = 0.05510 0.36922
# Poissons Ratio (z) = 0.31793 0.30287
#
# Static dielectric constant tensor:
#      x y z
#    x 3.201460 0.000000 -0.199240 
#    y 0.000000 3.550580 0.000000 
#    z -0.199240 0.000000 3.607070 
# 
# 
# High freq. dielectric constant tensor:
#      x y z
#    x 1.718620 0.000000 -0.019300 
#    y 0.000000 1.739120 0.000000 
#    z -0.019300 0.000000 1.757930 
# 
# From -- ./inp_files/20135.got.cif
#   From: 2010.06.25/outbox.cif.g09.slc.cpg/sg10_11_cif.got.tgz:20135.got - 2010.06.27 22:07:45.
