data_PCOD8058774
_publ_section_title
;
Structure prediction by ZEFSAII (Michael W. Deem and Ramdas Pophale) SiO2 
 PCOD8058774
Probable space group: P 2/M
;
_chemical_formula_sum "Si O2"
_cell_formula_units_Z 28
_cell_length_a 9.669118
_cell_length_b 8.702687
_cell_length_c 29.070235
_cell_angle_alpha 90.000000
_cell_angle_beta 141.956203
_cell_angle_gamma 90.000000
_cell_volume 1507.493056
_symmetry_space_group_name_H-M "P 2/M"
_symmetry_group_IT_number 10
_symmetry_cell_setting 'monoclinic'
loop_
_space_group_symop_operation_xyz
x,y,z
-x,y,-z
-x,-y,-z
x,-y,z
loop_
_atom_site_type_symbol
_atom_site_label
_atom_site_fract_x
_atom_site_fract_y
_atom_site_fract_z
Si Si1 0.320091 0.179352 0.416924
Si Si2 0.544504 0.320649 0.737143
Si Si3 0.870815 0.678922 0.904814
Si Si4 0.300753 0.819874 0.047658
Si Si5 0.189070 0.178600 0.704047
Si Si6 0.255531 0.680363 0.816621
Si Si7 0.245290 0.318291 0.302116
O O1 0.500000 0.247820 0.500000
O O2 0.362550 0.255699 0.378629
O O3 0.073026 0.216271 0.371829
O O4 0.358931 0.000000 0.420326
O O5 0.484803 0.500000 0.720611
O O6 0.750721 0.286323 0.825288
O O7 0.322648 0.226717 0.693229
O O8 0.617013 0.260232 0.705943
O O9 0.856156 0.500000 0.914267
O O10 0.755138 0.778264 0.914302
O O11 0.130542 0.731481 0.968786
O O12 0.554946 0.765938 0.103607
O O13 0.277080 0.000000 0.033414
O O14 0.288904 0.279463 0.771655
O O15 0.225918 0.000000 0.725055
O O16 0.285186 0.500000 0.831207
O O17 0.011861 0.740882 0.768939
O O18 0.241816 0.500000 0.303742
#
# Coordination Sequence:
#
# PCOD8058774 Si02
#       7
#     4   4   4   4   4   4   4
#     4   9  19  37  58  81 108 137 170 208 252 306
#     4  10  20  35  53  76 107 138 171 214 261 311
#     4  10  19  31  49  71 100 138 175 214 267 311
#     4  11  20  30  47  73 103 132 175 225 264 304
#     4  10  19  31  53  80 103 133 173 213 254 304
#     4  10  18  32  52  73 100 135 176 219 259 307
#     4   9  20  36  55  79 105 136 174 213 257 307
#
# _framework density 18.573884
#
# number of rings (size 3 to 8) (size 9 to 14) (size 15 to 20)
#    0.000    2.143    1.429    3.429    0.000    2.571 
#    0.000    1.429    0.000    8.571    0.000    0.000 
#    0.000    0.000    0.000    0.000    0.000    0.000 
#
# Total GULP energy -347232.847990 kJ/mol
# GULP energy per Si atom -12401.173143 kJ/mol
# Density = 1.853161 g / cm^3
# Si number density = 18.573884 Si / 1000 Ang^3
#
#
#
# Elastic Constant Matrix: (Units=GPa)
#
#
# Indices 1 2 3 4 5 6 
#
# 1 111.0462 20.5734 42.1261 0.0000 -3.3659 0.0000
# 2 20.5734 47.5547 20.5600 0.0000 0.7612 0.0000
# 3 42.1261 20.5600 104.8543 0.0000 2.0575 0.0000
# 4 0.0000 0.0000 0.0000 25.5087 0.0000 5.6460
# 5 -3.3659 0.7612 2.0575 0.0000 21.5488 0.0000
# 6 0.0000 0.0000 0.0000 5.6460 0.0000 14.8603
#
#
#
# Elastic Compliance Matrix: (Units=1/GPa)
#
#
# Indices 1 2 3 4 5 6 
#
# 1 0.011138 -0.003169 -0.003897 0.000000 0.002224 0.000000
# 2 -0.003169 0.023881 -0.003389 0.000000 -0.001015 0.000000
# 3 -0.003897 -0.003389 0.011799 0.000000 -0.001616 0.000000
# 4 0.000000 0.000000 0.000000 0.042802 0.000000 -0.016262
# 5 0.002224 -0.001015 -0.001616 0.000000 0.046944 0.000000
# 6 0.000000 0.000000 0.000000 -0.016262 0.000000 0.073472
#
#
# Mechanical properties :
#
#
# Convention : Reuss Voigt Hill
#
# Bulk Modulus (GPa) = 38.60004 47.77490 43.18747
# Shear Modulus (GPa) = 20.86957 24.39661 22.63309
#
# Velocity S-wave (km/s) = 3.35565 3.62814 3.49455
# Velocity P-wave (km/s) = 5.98672 6.58245 6.29164
#
# Compressibility (1/GPa) = 0.02590671
#
# Stress axis : x y z
#
# Youngs Moduli (GPa) = 89.78085 41.87393 84.75279
#
# Poissons Ratio (x) = 0.13272 0.33029
# Poissons Ratio (y) = 0.28455 0.28726
# Poissons Ratio (z) = 0.34988 0.14193
#
# Static dielectric constant tensor:
#      x y z
#    x 3.341620 0.000000 0.183620 
#    y 0.000000 3.343600 0.000000 
#    z 0.183620 0.000000 3.598750 
# 
# 
# High freq. dielectric constant tensor:
#      x y z
#    x 1.698950 0.000000 0.016360 
#    y 0.000000 1.721120 0.000000 
#    z 0.016360 0.000000 1.716800 
# 
# From -- ./inp_files/79280.got.cif
#   From: 2010.06.25/outbox.cif.g09.slc.cpg/sg10_40_cif.got.tgz:79280.got - 2010.06.27 22:07:45.
