data_PCOD8058662
_publ_section_title
;
Structure prediction by ZEFSAII (Michael W. Deem and Ramdas Pophale) SiO2 
 PCOD8058662
Probable space group: P 2/M
;
_chemical_formula_sum "Si O2"
_cell_formula_units_Z 28
_cell_length_a 15.145144
_cell_length_b 8.786580
_cell_length_c 16.990136
_cell_angle_alpha 90.000000
_cell_angle_beta 45.508089
_cell_angle_gamma 90.000000
_cell_volume 1612.844241
_symmetry_space_group_name_H-M "P 2/M"
_symmetry_group_IT_number 10
_symmetry_cell_setting 'monoclinic'
loop_
_space_group_symop_operation_xyz
x,y,z
-x,y,-z
-x,-y,-z
x,-y,z
loop_
_atom_site_type_symbol
_atom_site_label
_atom_site_fract_x
_atom_site_fract_y
_atom_site_fract_z
Si Si1 0.563275 0.820642 0.846951
Si Si2 0.617063 0.177273 0.478981
Si Si3 0.506109 0.177763 0.713786
Si Si4 0.840447 0.321390 0.254164
Si Si5 0.687867 0.180793 0.919965
Si Si6 0.240261 0.320782 0.868579
Si Si7 0.101159 0.180458 0.099807
O O1 0.585970 0.776124 0.741591
O O2 0.670952 0.760826 0.839524
O O3 0.559206 0.000000 0.859155
O O4 0.429306 0.757408 0.957133
O O5 0.500000 0.226708 0.500000
O O6 0.589350 0.217254 0.586832
O O7 0.734044 0.276437 0.381731
O O8 0.647044 0.000000 0.447675
O O9 0.381091 0.272883 0.792729
O O10 0.469474 0.000000 0.737568
O O11 0.862751 0.500000 0.243477
O O12 0.802199 0.267196 0.191139
O O13 0.964429 0.237808 0.203435
O O14 0.812203 0.243869 0.883159
O O15 0.692812 0.000000 0.919823
O O16 0.228032 0.500000 0.886536
O O17 0.148997 0.241955 0.986834
O O18 0.102492 0.000000 0.095140
#
# Coordination Sequence:
#
# PCOD8058662 Si02
#       7
#     4   4   4   4   4   4   4
#     4   8  13  25  47  77 106 128 159 202 252 302
#     4  10  20  34  54  78 102 129 170 220 255 288
#     4  10  18  31  54  79 104 133 167 208 254 296
#     4  11  24  38  51  70 102 142 176 206 250 305
#     4   8  14  25  47  77 104 129 159 203 253 301
#     4  11  22  34  49  73 106 139 169 202 249 307
#     4  11  21  34  54  77 102 134 172 211 254 298
#
# _framework density 17.360634999999998
#
# number of rings (size 3 to 8) (size 9 to 14) (size 15 to 20)
#    0.000    2.143    2.857    2.571    0.000    4.286 
#    0.000    0.000    0.000    3.429    0.000    6.000 
#    0.000    0.000    0.000    0.000    0.000    0.000 
#
# Total GULP energy -347102.124341 kJ/mol
# GULP energy per Si atom -12396.504441 kJ/mol
# Density = 1.732112 g / cm^3
# Si number density = 17.360635 Si / 1000 Ang^3
#
#
#
# Elastic Constant Matrix: (Units=GPa)
#
#
# Indices 1 2 3 4 5 6 
#
# 1 127.6418 19.8266 69.3713 0.0000 20.5101 0.0000
# 2 19.8266 34.7698 25.0957 0.0000 1.9218 0.0000
# 3 69.3713 25.0957 101.5429 0.0000 5.2467 0.0000
# 4 0.0000 0.0000 0.0000 19.2294 0.0000 0.1848
# 5 20.5101 1.9218 5.2467 0.0000 27.7411 0.0000
# 6 0.0000 0.0000 0.0000 0.1848 0.0000 8.3911
#
#
#
# Elastic Compliance Matrix: (Units=1/GPa)
#
#
# Indices 1 2 3 4 5 6 
#
# 1 0.014360 -0.001155 -0.009069 0.000000 -0.008822 0.000000
# 2 -0.001155 0.035115 -0.007885 0.000000 -0.000087 0.000000
# 3 -0.009069 -0.007885 0.017792 0.000000 0.003887 0.000000
# 4 0.000000 0.000000 0.000000 0.052015 0.000000 -0.001146
# 5 -0.008822 -0.000087 0.003887 0.000000 0.041841 0.000000
# 6 0.000000 0.000000 0.000000 -0.001146 0.000000 0.119199
#
#
# Mechanical properties :
#
#
# Convention : Reuss Voigt Hill
#
# Bulk Modulus (GPa) = 32.20735 54.72686 43.46710
# Shear Modulus (GPa) = 15.29566 21.04972 18.17269
#
# Velocity S-wave (km/s) = 2.97148 3.48587 3.23890
# Velocity P-wave (km/s) = 5.51045 6.91330 6.25135
#
# Compressibility (1/GPa) = 0.03104882
#
# Stress axis : x y z
#
# Youngs Moduli (GPa) = 69.63569 28.47777 56.20555
#
# Poissons Ratio (x) = 0.03290 0.50975
# Poissons Ratio (y) = 0.08044 0.44317
# Poissons Ratio (z) = 0.63155 0.22454
#
# Static dielectric constant tensor:
#      x y z
#    x 3.706330 0.000000 0.182310 
#    y 0.000000 2.982600 0.000000 
#    z 0.182310 0.000000 3.134390 
# 
# 
# High freq. dielectric constant tensor:
#      x y z
#    x 1.680720 0.000000 0.010500 
#    y 0.000000 1.647020 0.000000 
#    z 0.010500 0.000000 1.651610 
# 
# From -- ./inp_files/63215.got.cif
#   From: 2010.06.25/outbox.cif.g09.slc.cpg/sg10_32_cif.got.tgz:63215.got - 2010.06.27 22:07:45.
