data_PCOD8058905
_publ_section_title
;
Structure prediction by ZEFSAII (Michael W. Deem and Ramdas Pophale) SiO2 
 PCOD8058905
Probable space group: P 2/M
;
_chemical_formula_sum "Si O2"
_cell_formula_units_Z 28
_cell_length_a 21.938145
_cell_length_b 9.396923
_cell_length_c 17.772783
_cell_angle_alpha 90.000000
_cell_angle_beta 153.256571
_cell_angle_gamma 90.000000
_cell_volume 1648.730560
_symmetry_space_group_name_H-M "P 2/M"
_symmetry_group_IT_number 10
_symmetry_cell_setting 'monoclinic'
loop_
_space_group_symop_operation_xyz
x,y,z
-x,y,-z
-x,-y,-z
x,-y,z
loop_
_atom_site_type_symbol
_atom_site_label
_atom_site_fract_x
_atom_site_fract_y
_atom_site_fract_z
Si Si1 0.628878 0.659240 0.492991
Si Si2 0.660544 0.159711 0.665771
Si Si3 0.152193 0.835368 0.694269
Si Si4 0.574441 0.332082 0.272733
Si Si5 0.271581 0.332233 0.955669
Si Si6 0.651677 0.663905 0.195552
Si Si7 0.691035 0.342486 0.836067
O O1 0.689101 0.500000 0.567908
O O2 0.701309 0.759769 0.633823
O O3 0.651650 0.722338 0.433432
O O4 0.469321 0.655177 0.330759
O O5 0.500000 0.162655 0.500000
O O6 0.733913 0.233939 0.817669
O O7 0.715919 0.000000 0.721246
O O8 0.165643 0.755196 0.788782
O O9 0.248897 0.766329 0.738803
O O10 0.000000 0.816034 0.500000
O O11 0.191624 0.000000 0.747275
O O12 0.558924 0.500000 0.264876
O O13 0.658619 0.291367 0.291262
O O14 0.420897 0.273915 0.097963
O O15 0.256770 0.500000 0.922399
O O16 0.240917 0.298730 0.009565
O O17 0.696435 0.500000 0.233395
O O18 0.500000 0.685372 0.000000
O O19 0.740167 0.500000 0.866493
#
# Coordination Sequence:
#
# PCOD8058905 Si02
#       7
#     4   4   4   4   4   4   4
#     4   8  13  22  36  53  80 114 145 177 221 273
#     4   9  15  21  30  49  81 116 149 181 216 261
#     4  11  24  37  47  66  99 132 160 194 238 287
#     4   8  14  26  45  69  90 112 147 195 241 276
#     4   9  16  30  49  67  87 115 156 200 237 278
#     4  10  18  32  55  75  93 118 157 205 244 283
#     4   8  14  23  38  57  78 109 148 186 226 272
#
# _framework density 16.982761
#
# number of rings (size 3 to 8) (size 9 to 14) (size 15 to 20)
#    0.000    3.000    1.429    2.571    0.000    3.714 
#    0.000    2.857    0.000    0.000    0.000    0.000 
#    0.000    1.143    0.000   12.857    0.000   10.000 
#
# Total GULP energy -347027.690348 kJ/mol
# GULP energy per Si atom -12393.846084 kJ/mol
# Density = 1.694411 g / cm^3
# Si number density = 16.982761 Si / 1000 Ang^3
#
#
#
# Elastic Constant Matrix: (Units=GPa)
#
#
# Indices 1 2 3 4 5 6 
#
# 1 104.2689 64.4813 49.9675 0.0000 -44.0499 0.0000
# 2 64.4813 109.8772 50.0225 0.0000 -27.3326 0.0000
# 3 49.9675 50.0225 52.6028 0.0000 -23.7205 0.0000
# 4 0.0000 0.0000 0.0000 9.2718 0.0000 9.0029
# 5 -44.0499 -27.3326 -23.7205 0.0000 30.6298 0.0000
# 6 0.0000 0.0000 0.0000 9.0029 0.0000 -0.7578
#
#
#
# Elastic Compliance Matrix: (Units=1/GPa)
#
#
# Indices 1 2 3 4 5 6 
#
# 1 0.031953 -0.006169 -0.009598 0.000000 0.033014 0.000000
# 2 -0.006169 0.017541 -0.011928 0.000000 -0.002457 0.000000
# 3 -0.009598 -0.011928 0.043711 0.000000 0.009404 0.000000
# 4 0.000000 0.000000 0.000000 0.008604 0.000000 0.102214
# 5 0.033014 -0.002457 0.009404 0.000000 0.085217 0.000000
# 6 0.000000 0.000000 0.000000 0.102214 0.000000 -0.105267
#
#
# Mechanical properties :
#
#
# Convention : Reuss Voigt Hill
#
# Bulk Modulus (GPa) = 26.44545 66.18794 46.31669
# Shear Modulus (GPa) = 33.38833 14.64725 24.01779
#
# Velocity S-wave (km/s) = 4.43878 2.93998 3.76473
# Velocity P-wave (km/s) = 6.47118 7.11216 6.79923
#
# Compressibility (1/GPa) = 0.03781369
#
# Stress axis : x y z
#
# Youngs Moduli (GPa) = 31.29633 57.01056 22.87765
#
# Poissons Ratio (x) = 0.35172 0.21957
# Poissons Ratio (y) = 0.19308 0.27288
# Poissons Ratio (z) = 0.30037 0.68002
#
# Static dielectric constant tensor:
#      x y z
#    x 4.035450 0.000000 -0.297610 
#    y 0.000000 3.155460 0.000000 
#    z -0.297610 0.000000 2.915040 
# 
# 
# High freq. dielectric constant tensor:
#      x y z
#    x 1.651340 0.000000 -0.046420 
#    y 0.000000 1.640690 0.000000 
#    z -0.046420 0.000000 1.606740 
# 
# From -- ./inp_files/79323.got.cif
#   From: 2010.06.25/outbox.cif.g09.slc.cpg/sg10_40_cif.got.tgz:79323.got - 2010.06.27 22:07:45.
