data_PCOD8058830
_publ_section_title
;
Structure prediction by ZEFSAII (Michael W. Deem and Ramdas Pophale) SiO2 
 PCOD8058830
Probable space group: P 2/M
;
_chemical_formula_sum "Si O2"
_cell_formula_units_Z 32
_cell_length_a 20.088269
_cell_length_b 8.748302
_cell_length_c 12.051809
_cell_angle_alpha 90.000000
_cell_angle_beta 56.812259
_cell_angle_gamma 90.000000
_cell_volume 1772.484575
_symmetry_space_group_name_H-M "P 2/M"
_symmetry_group_IT_number 10
_symmetry_cell_setting 'monoclinic'
loop_
_space_group_symop_operation_xyz
x,y,z
-x,y,-z
-x,-y,-z
x,-y,z
loop_
_atom_site_type_symbol
_atom_site_label
_atom_site_fract_x
_atom_site_fract_y
_atom_site_fract_z
Si Si1 0.133032 0.181746 0.184475
Si Si2 0.044457 0.819464 0.702207
Si Si3 0.163780 0.321065 0.745819
Si Si4 0.561087 0.320120 0.581669
Si Si5 0.401318 0.180639 0.686314
Si Si6 0.717705 0.677551 0.554601
Si Si7 0.162146 0.180127 0.406715
Si Si8 0.758950 0.680676 0.097497
O O1 0.145348 0.239755 0.298765
O O2 0.046007 0.236075 0.224810
O O3 0.144092 0.000000 0.162628
O O4 0.197569 0.270049 0.053644
O O5 0.081658 0.758920 0.783417
O O6 0.094821 0.753680 0.551636
O O7 0.048550 0.000000 0.697723
O O8 0.148826 0.500000 0.757276
O O9 0.234333 0.271063 0.598846
O O10 0.187759 0.265512 0.846575
O O11 0.543872 0.500000 0.589639
O O12 0.480209 0.229383 0.682965
O O13 0.598043 0.266656 0.431523
O O14 0.624910 0.283495 0.620080
O O15 0.325098 0.232999 0.825064
O O16 0.401050 0.000000 0.667557
O O17 0.730375 0.500000 0.565532
O O18 0.750629 0.766775 0.631798
O O19 0.158689 0.000000 0.410150
O O20 0.743925 0.500000 0.114215
#
# Coordination Sequence:
#
# PCOD8058830 Si02
#       8
#     4   4   4   4   4   4   4   4
#     4  10  21  36  52  74 103 136 176 218 260 308
#     4   9  18  33  54  77 101 132 170 216 265 310
#     4   9  18  33  50  72 102 135 171 211 256 306
#     4  10  18  32  53  78 110 142 170 205 255 306
#     4  11  21  32  50  79 109 137 172 213 253 302
#     4   9  17  31  52  77 105 135 169 211 254 301
#     4   9  18  33  54  77 102 134 172 217 264 306
#     4  11  22  37  53  71 103 144 178 209 257 315
#
# _framework density 18.053754000000001
#
# number of rings (size 3 to 8) (size 9 to 14) (size 15 to 20)
#    0.000    2.250    1.250    3.000    0.000    5.000 
#    0.000    2.500    0.000    4.500    0.000    5.250 
#    0.000    0.000    0.000    0.000    0.000    0.000 
#
# Total GULP energy -396811.332107 kJ/mol
# GULP energy per Si atom -12400.354128 kJ/mol
# Density = 1.801266 g / cm^3
# Si number density = 18.053754 Si / 1000 Ang^3
#
#
#
# Elastic Constant Matrix: (Units=GPa)
#
#
# Indices 1 2 3 4 5 6 
#
# 1 102.6058 22.9259 40.5899 0.0000 -21.3245 0.0000
# 2 22.9259 35.7367 17.8949 0.0000 -4.4517 0.0000
# 3 40.5899 17.8949 74.5697 0.0000 -12.5076 0.0000
# 4 0.0000 0.0000 0.0000 24.1710 0.0000 -0.7387
# 5 -21.3245 -4.4517 -12.5076 0.0000 19.8997 0.0000
# 6 0.0000 0.0000 0.0000 -0.7387 0.0000 31.6913
#
#
#
# Elastic Compliance Matrix: (Units=1/GPa)
#
#
# Indices 1 2 3 4 5 6 
#
# 1 0.015607 -0.005980 -0.005007 0.000000 0.012239 0.000000
# 2 -0.005980 0.034216 -0.005306 0.000000 -0.002089 0.000000
# 3 -0.005007 -0.005306 0.018232 0.000000 0.004907 0.000000
# 4 0.000000 0.000000 0.000000 0.041401 0.000000 0.000965
# 5 0.012239 -0.002089 0.004907 0.000000 0.065984 0.000000
# 6 0.000000 0.000000 0.000000 0.000965 0.000000 0.031577
#
#
# Mechanical properties :
#
#
# Convention : Reuss Voigt Hill
#
# Bulk Modulus (GPa) = 28.19482 41.74819 34.97150
# Shear Modulus (GPa) = 19.88657 23.91919 21.90288
#
# Velocity S-wave (km/s) = 3.32252 3.64385 3.48689
# Velocity P-wave (km/s) = 5.51089 6.39360 5.96858
#
# Compressibility (1/GPa) = 0.03546751
#
# Stress axis : x y z
#
# Youngs Moduli (GPa) = 64.07539 29.22642 54.84824
#
# Poissons Ratio (x) = 0.17478 0.27463
# Poissons Ratio (y) = 0.38318 0.29104
# Poissons Ratio (z) = 0.32083 0.15508
#
# Static dielectric constant tensor:
#      x y z
#    x 3.587890 0.000000 -0.065610 
#    y 0.000000 3.220370 0.000000 
#    z -0.065610 0.000000 3.146000 
# 
# 
# High freq. dielectric constant tensor:
#      x y z
#    x 1.710570 0.000000 -0.008340 
#    y 0.000000 1.695560 0.000000 
#    z -0.008340 0.000000 1.666770 
# 
# From -- ./inp_files/54849.got.cif
#   From: 2010.06.25/outbox.cif.g09.slc.cpg/sg10_28_cif.got.tgz:54849.got - 2010.06.27 22:07:45.
