data_PCOD8058683
_publ_section_title
;
Structure prediction by ZEFSAII (Michael W. Deem and Ramdas Pophale) SiO2 
 PCOD8058683
Probable space group: P 2/M
;
_chemical_formula_sum "Si O2"
_cell_formula_units_Z 32
_cell_length_a 23.447217
_cell_length_b 8.844493
_cell_length_c 14.490094
_cell_angle_alpha 90.000000
_cell_angle_beta 148.114436
_cell_angle_gamma 90.000000
_cell_volume 1587.281369
_symmetry_space_group_name_H-M "P 2/M"
_symmetry_group_IT_number 10
_symmetry_cell_setting 'monoclinic'
loop_
_space_group_symop_operation_xyz
x,y,z
-x,y,-z
-x,-y,-z
x,-y,z
loop_
_atom_site_type_symbol
_atom_site_label
_atom_site_fract_x
_atom_site_fract_y
_atom_site_fract_z
Si Si1 0.501556 0.321153 0.759852
Si Si2 0.981257 0.320230 0.368400
Si Si3 0.259474 0.679338 0.439534
Si Si4 0.400015 0.679445 0.919300
Si Si5 0.825359 0.822673 0.014101
Si Si6 0.404067 0.678485 0.299463
Si Si7 0.184856 0.679826 0.533430
Si Si8 0.104903 0.177009 0.090064
O O1 0.491001 0.500000 0.738467
O O2 0.381529 0.256931 0.613455
O O3 0.583677 0.272257 0.952822
O O4 0.554757 0.256640 0.741104
O O5 0.971541 0.500000 0.354002
O O6 0.078952 0.258124 0.439198
O O7 0.000000 0.264610 0.500000
O O8 0.873168 0.254202 0.172576
O O9 0.259774 0.500000 0.434947
O O10 0.191878 0.734287 0.436721
O O11 0.208338 0.742682 0.276178
O O12 0.398104 0.500000 0.903786
O O13 0.500000 0.747875 0.000000
O O14 0.287918 0.747683 0.729049
O O15 0.819925 0.000000 0.024536
O O16 0.706460 0.761871 0.827377
O O17 0.898845 0.785028 0.024510
O O18 0.500000 0.721548 0.500000
O O19 0.381158 0.500000 0.267617
O O20 0.185411 0.500000 0.539611
O O21 0.117386 0.000000 0.123913
O O22 0.000000 0.239960 0.000000
#
# Coordination Sequence:
#
# PCOD8058683 Si02
#       8
#     4   4   4   4   4   4   4   4
#     4   9  17  28  48  78 110 142 175 215 273 334
#     4  10  22  38  58  85 115 150 193 238 283 333
#     4  10  18  31  54  85 112 136 175 227 278 327
#     4   9  14  24  44  75 112 144 173 215 270 330
#     4  11  24  41  60  82 112 151 193 235 281 337
#     4  10  21  37  58  85 116 148 185 233 285 336
#     4   9  17  29  49  81 116 145 180 227 279 329
#     4  10  22  39  57  77 104 142 185 223 273 334
#
# _framework density 20.160254999999999
#
# number of rings (size 3 to 8) (size 9 to 14) (size 15 to 20)
#    0.000    2.250    1.250    1.875    1.750    2.750 
#    0.000    0.625    0.000    0.000    0.000    0.875 
#    0.000    0.000    0.000    0.000    0.000    0.000 
#
# Total GULP energy -396708.341436 kJ/mol
# GULP energy per Si atom -12397.135670 kJ/mol
# Density = 2.011437 g / cm^3
# Si number density = 20.160255 Si / 1000 Ang^3
#
#
#
# Elastic Constant Matrix: (Units=GPa)
#
#
# Indices 1 2 3 4 5 6 
#
# 1 127.5679 24.6595 40.8061 0.0000 -9.0264 0.0000
# 2 24.6595 25.7108 25.0695 0.0000 -2.8374 0.0000
# 3 40.8061 25.0695 120.6017 0.0000 -10.6776 0.0000
# 4 0.0000 0.0000 0.0000 6.8492 0.0000 0.3508
# 5 -9.0264 -2.8374 -10.6776 0.0000 40.1255 0.0000
# 6 0.0000 0.0000 0.0000 0.3508 0.0000 17.7660
#
#
#
# Elastic Compliance Matrix: (Units=1/GPa)
#
#
# Indices 1 2 3 4 5 6 
#
# 1 0.009963 -0.007824 -0.001634 0.000000 0.001253 0.000000
# 2 -0.007824 0.054949 -0.008794 0.000000 -0.000215 0.000000
# 3 -0.001634 -0.008794 0.010840 0.000000 0.001895 0.000000
# 4 0.000000 0.000000 0.000000 0.146150 0.000000 -0.002886
# 5 0.001253 -0.000215 0.001895 0.000000 0.025693 0.000000
# 6 0.000000 0.000000 0.000000 -0.002886 0.000000 0.056344
#
#
# Mechanical properties :
#
#
# Convention : Reuss Voigt Hill
#
# Bulk Modulus (GPa) = 25.47840 50.55006 38.01423
# Shear Modulus (GPa) = 14.14324 25.17116 19.65720
#
# Velocity S-wave (km/s) = 2.65154 3.53732 3.12596
# Velocity P-wave (km/s) = 4.69463 6.46623 5.65029
#
# Compressibility (1/GPa) = 0.03924894
#
# Stress axis : x y z
#
# Youngs Moduli (GPa) = 100.37522 18.19853 92.24848
#
# Poissons Ratio (x) = 0.14239 0.15069
# Poissons Ratio (y) = 0.78536 0.81123
# Poissons Ratio (z) = 0.16397 0.16004
#
# Static dielectric constant tensor:
#      x y z
#    x 3.969810 0.000000 -0.007610 
#    y 0.000000 3.053020 0.000000 
#    z -0.007610 0.000000 3.760520 
# 
# 
# High freq. dielectric constant tensor:
#      x y z
#    x 1.800810 0.000000 -0.004100 
#    y 0.000000 1.727870 0.000000 
#    z -0.004100 0.000000 1.800400 
# 
# From -- ./inp_files/71707.got.cif
#   From: 2010.06.25/outbox.cif.g09.slc.cpg/sg10_36_cif.got.tgz:71707.got - 2010.06.27 22:07:45.
