data_PCOD8058346
_publ_section_title
;
Structure prediction by ZEFSAII (Michael W. Deem and Ramdas Pophale) SiO2 
 PCOD8058346
Probable space group: P 2/M
;
_chemical_formula_sum "Si O2"
_cell_formula_units_Z 24
_cell_length_a 25.320211
_cell_length_b 7.775490
_cell_length_c 11.260657
_cell_angle_alpha 90.000000
_cell_angle_beta 35.250640
_cell_angle_gamma 90.000000
_cell_volume 1279.530853
_symmetry_space_group_name_H-M "P 2/M"
_symmetry_group_IT_number 10
_symmetry_cell_setting 'monoclinic'
loop_
_space_group_symop_operation_xyz
x,y,z
-x,y,-z
-x,-y,-z
x,-y,z
loop_
_atom_site_type_symbol
_atom_site_label
_atom_site_fract_x
_atom_site_fract_y
_atom_site_fract_z
Si Si1 0.717787 0.194669 0.480279
Si Si2 0.564305 0.500000 0.496785
Si Si3 0.953908 0.702260 0.410299
Si Si4 0.306482 0.188320 0.740766
Si Si5 0.138415 0.297484 0.183920
Si Si6 0.090320 0.295778 0.765185
Si Si7 0.423096 0.500000 0.245531
O O1 0.739234 0.222747 0.302579
O O2 0.815194 0.219025 0.362711
O O3 0.639684 0.331070 0.662233
O O4 0.682160 0.000000 0.571957
O O5 0.500000 0.500000 0.500000
O O6 0.617853 0.327332 0.372814
O O7 0.534623 0.500000 0.694497
O O8 0.966426 0.500000 0.377537
O O9 0.878221 0.746531 0.647756
O O10 0.920462 0.778317 0.347641
O O11 0.053057 0.775384 0.264707
O O12 0.352680 0.000000 0.661609
O O13 0.228399 0.196394 0.982779
O O14 0.152552 0.500000 0.136823
O O15 0.097467 0.500000 0.758583
O O16 0.000000 0.230838 0.000000
O O17 0.500000 0.500000 0.000000
#
# Coordination Sequence:
#
# PCOD8058346 Si02
#       7
#     4   2   4   4   4   4   2
#     4  10  21  37  58  85 115 148 189 232 277 338
#     4  10  22  42  64  88 109 140 177 229 292 344
#     4   8  16  27  46  76 111 150 190 230 264 311
#     4  10  20  35  58  83 109 141 182 226 272 333
#     4   9  15  30  51  74 107 150 190 223 270 322
#     4  10  18  30  51  81 116 154 193 232 273 323
#     4  10  22  44  67  87 111 149 189 235 293 349
#
# _framework density 18.756874
#
# number of rings (size 3 to 8) (size 9 to 14) (size 15 to 20)
#    0.000    2.500    1.667    2.000    0.000    2.333 
#    3.000    3.333    0.000    0.000    0.000    0.000 
#    0.000    0.000    0.000    0.000    0.000    0.000 
#
# Total GULP energy -297344.851652 kJ/mol
# GULP energy per Si atom -12389.368819 kJ/mol
# Density = 1.871418 g / cm^3
# Si number density = 18.756874 Si / 1000 Ang^3
#
#
#
# Elastic Constant Matrix: (Units=GPa)
#
#
# Indices 1 2 3 4 5 6 
#
# 1 152.2144 45.5460 63.3408 0.0000 1.5465 0.0000
# 2 45.5460 98.9635 51.8568 0.0000 -2.0820 0.0000
# 3 63.3408 51.8568 125.0676 0.0000 11.9810 0.0000
# 4 0.0000 0.0000 0.0000 40.0371 0.0000 -14.7081
# 5 1.5465 -2.0820 11.9810 0.0000 22.9732 0.0000
# 6 0.0000 0.0000 0.0000 -14.7081 0.0000 24.9016
#
#
#
# Elastic Compliance Matrix: (Units=1/GPa)
#
#
# Indices 1 2 3 4 5 6 
#
# 1 0.008698 -0.002062 -0.003659 0.000000 0.001136 0.000000
# 2 -0.002062 0.013789 -0.005059 0.000000 0.004027 0.000000
# 3 -0.003659 -0.005059 0.012596 0.000000 -0.006781 0.000000
# 4 0.000000 0.000000 0.000000 0.031898 0.000000 0.018841
# 5 0.001136 0.004027 -0.006781 0.000000 0.047354 0.000000
# 6 0.000000 0.000000 0.000000 0.018841 0.000000 0.051286
#
#
# Mechanical properties :
#
#
# Convention : Reuss Voigt Hill
#
# Bulk Modulus (GPa) = 73.94515 77.52585 75.73550
# Shear Modulus (GPa) = 26.08396 31.94917 29.01656
#
# Velocity S-wave (km/s) = 3.73317 4.13162 3.93744
# Velocity P-wave (km/s) = 7.62172 8.01137 7.81897
#
# Compressibility (1/GPa) = 0.01352354
#
# Stress axis : x y z
#
# Youngs Moduli (GPa) = 114.97385 72.52017 79.39050
#
# Poissons Ratio (x) = 0.14952 0.29048
# Poissons Ratio (y) = 0.23705 0.40164
# Poissons Ratio (z) = 0.42067 0.36688
#
# Static dielectric constant tensor:
#      x y z
#    x 3.800830 0.000000 0.233270 
#    y 0.000000 2.452770 0.000000 
#    z 0.233270 0.000000 3.293760 
# 
# 
# High freq. dielectric constant tensor:
#      x y z
#    x 1.727040 0.000000 0.012900 
#    y 0.000000 1.728230 0.000000 
#    z 0.012900 0.000000 1.708600 
# 
# From -- ./inp_files/56568.got.cif
#   From: 2010.06.25/outbox.cif.g09.slc.cpg/sg10_29_cif.got.tgz:56568.got - 2010.06.27 22:07:45.
