data_PCOD8058026
_publ_section_title
;
Structure prediction by ZEFSAII (Michael W. Deem and Ramdas Pophale) SiO2 
 PCOD8058026
Probable space group: P 2/M
;
_chemical_formula_sum "Si O2"
_cell_formula_units_Z 28
_cell_length_a 12.707236
_cell_length_b 8.763758
_cell_length_c 22.050021
_cell_angle_alpha 90.000000
_cell_angle_beta 139.042120
_cell_angle_gamma 90.000000
_cell_volume 1609.629239
_symmetry_space_group_name_H-M "P 2/M"
_symmetry_group_IT_number 10
_symmetry_cell_setting 'monoclinic'
loop_
_space_group_symop_operation_xyz
x,y,z
-x,y,-z
-x,-y,-z
x,-y,z
loop_
_atom_site_type_symbol
_atom_site_label
_atom_site_fract_x
_atom_site_fract_y
_atom_site_fract_z
Si Si1 0.466554 0.678013 0.397745
Si Si2 0.976409 0.819357 0.105716
Si Si3 0.300069 0.677863 0.201857
Si Si4 0.063595 0.180674 0.776067
Si Si5 0.731613 0.820459 0.582190
Si Si6 0.413621 0.818296 0.902209
Si Si7 0.647382 0.180559 0.899989
O O1 0.445238 0.500000 0.403545
O O2 0.422331 0.715902 0.309555
O O3 0.650184 0.729930 0.490800
O O4 0.351751 0.776295 0.390879
O O5 0.128502 0.754265 0.137012
O O6 0.967175 0.752342 0.169977
O O7 0.991807 0.000000 0.113309
O O8 0.818054 0.767207 0.001087
O O9 0.270830 0.500000 0.182504
O O10 0.382821 0.742379 0.177745
O O11 0.230528 0.243675 0.821260
O O12 0.918657 0.227564 0.668150
O O13 0.074185 0.000000 0.787300
O O14 0.711823 0.000000 0.563050
O O15 0.507190 0.759636 0.883640
O O16 0.417743 0.000000 0.905654
O O17 0.500000 0.754259 0.000000
O O18 0.640455 0.000000 0.889315
#
# Coordination Sequence:
#
# PCOD8058026 Si02
#       7
#     4   4   4   4   4   4   4
#     4  10  20  33  48  68  97 132 166 201 243 296
#     4  10  18  31  50  75 103 131 164 201 242 293
#     4  11  23  35  48  68 101 140 169 202 247 292
#     4   9  16  27  48  77 106 127 153 199 249 294
#     4  10  18  29  50  77 100 125 155 201 254 293
#     4   9  15  28  50  76 102 128 161 201 245 288
#     4  10  20  32  52  76  99 133 171 204 239 289
#
# _framework density 17.395311
#
# number of rings (size 3 to 8) (size 9 to 14) (size 15 to 20)
#    0.000    2.143    2.857    2.571    0.000    4.000 
#    0.000    0.000    0.000    3.857    0.000    6.000 
#    0.000    0.000    0.000    0.000    0.000    0.000 
#
# Total GULP energy -347167.341533 kJ/mol
# GULP energy per Si atom -12398.833626 kJ/mol
# Density = 1.735572 g / cm^3
# Si number density = 17.395311 Si / 1000 Ang^3
#
#
#
# Elastic Constant Matrix: (Units=GPa)
#
#
# Indices 1 2 3 4 5 6 
#
# 1 123.1655 12.1851 68.1424 0.0000 3.2261 0.0000
# 2 12.1851 23.5287 27.4644 0.0000 0.4385 0.0000
# 3 68.1424 27.4644 130.8069 0.0000 8.3583 0.0000
# 4 0.0000 0.0000 0.0000 21.6508 0.0000 -7.9357
# 5 3.2261 0.4385 8.3583 0.0000 29.1325 0.0000
# 6 0.0000 0.0000 0.0000 -7.9357 0.0000 1.4061
#
#
#
# Elastic Compliance Matrix: (Units=1/GPa)
#
#
# Indices 1 2 3 4 5 6 
#
# 1 0.011447 0.001406 -0.006292 0.000000 0.000516 0.000000
# 2 0.001406 0.056665 -0.012800 0.000000 0.002664 0.000000
# 3 -0.006292 -0.012800 0.013806 0.000000 -0.003072 0.000000
# 4 0.000000 0.000000 0.000000 -0.043219 0.000000 -0.243926
# 5 0.000516 0.002664 -0.003072 0.000000 0.035110 0.000000
# 6 0.000000 0.000000 0.000000 -0.243926 0.000000 -0.665495
#
#
# Mechanical properties :
#
#
# Convention : Reuss Voigt Hill
#
# Bulk Modulus (GPa) = 21.48373 54.78723 38.13548
# Shear Modulus (GPa) = -9.24558 21.75183 6.25312
#
# Velocity S-wave (km/s) = -2.30793 3.53999 1.89803
# Velocity P-wave (km/s) = 2.29675 6.94784 5.17434
#
# Compressibility (1/GPa) = 0.04654685
#
# Stress axis : x y z
#
# Youngs Moduli (GPa) = 87.35604 17.64772 72.43135
#
# Poissons Ratio (x) = -0.02481 0.45571
# Poissons Ratio (y) = -0.12282 0.92712
# Poissons Ratio (z) = 0.54961 0.22589
#
# Static dielectric constant tensor:
#      x y z
#    x 3.354810 0.000000 0.062090 
#    y 0.000000 2.969150 0.000000 
#    z 0.062090 0.000000 3.555520 
# 
# 
# High freq. dielectric constant tensor:
#      x y z
#    x 1.654030 0.000000 0.005690 
#    y 0.000000 1.647530 0.000000 
#    z 0.005690 0.000000 1.679000 
# 
# From -- ./inp_files/55011.got.cif
#   From: 2010.06.25/outbox.cif.g09.slc.cpg/sg10_28_cif.got.tgz:55011.got - 2010.06.27 22:07:45.
