data_PCOD8058075
_publ_section_title
;
Structure prediction by ZEFSAII (Michael W. Deem and Ramdas Pophale) SiO2 
 PCOD8058075
Probable space group: P 2/M
;
_chemical_formula_sum "Si O2"
_cell_formula_units_Z 24
_cell_length_a 29.551066
_cell_length_b 7.938442
_cell_length_c 15.150185
_cell_angle_alpha 90.000000
_cell_angle_beta 23.535946
_cell_angle_gamma 90.000000
_cell_volume 1419.227892
_symmetry_space_group_name_H-M "P 2/M"
_symmetry_group_IT_number 10
_symmetry_cell_setting 'monoclinic'
loop_
_space_group_symop_operation_xyz
x,y,z
-x,y,-z
-x,-y,-z
x,-y,z
loop_
_atom_site_type_symbol
_atom_site_label
_atom_site_fract_x
_atom_site_fract_y
_atom_site_fract_z
Si Si1 0.399705 0.697390 0.240971
Si Si2 0.062815 0.307602 0.020697
Si Si3 0.154032 0.808365 0.673114
Si Si4 0.316443 0.000000 0.807529
Si Si5 0.450185 0.690571 0.351032
Si Si6 0.537013 0.000000 0.292363
Si Si7 0.771116 0.306652 0.133936
O O1 0.384564 0.500000 0.255796
O O2 0.283755 0.781640 0.414378
O O3 0.425083 0.745950 0.295975
O O4 0.500000 0.767718 0.000000
O O5 0.083276 0.500000 0.001434
O O6 0.130040 0.266603 0.811604
O O7 0.122251 0.229098 0.001254
O O8 0.929254 0.269253 0.252204
O O9 0.120440 0.000000 0.737567
O O10 0.247155 0.826744 0.912791
O O11 0.427153 0.000000 0.549626
O O12 0.349766 0.000000 0.850933
O O13 0.502113 0.500000 0.262204
O O14 0.334386 0.695457 0.611422
O O15 0.537870 0.828711 0.232533
O O16 0.787827 0.500000 0.067951
#
# Coordination Sequence:
#
# PCOD8058075 Si02
#       7
#     4   4   4   2   4   2   4
#     4  10  20  34  49  65  91 128 165 198 230 267
#     4  10  18  30  46  64  92 126 160 192 224 278
#     4  11  21  28  43  68  93 123 159 195 233 271
#     4   9  18  28  44  62  94 115 151 191 232 278
#     4   9  17  30  46  64  89 121 158 192 227 275
#     4   9  18  30  43  65  85 124 150 190 234 278
#     4   9  17  27  45  66  90 123 153 186 230 278
#
# _framework density 16.910603999999999
#
# number of rings (size 3 to 8) (size 9 to 14) (size 15 to 20)
#    0.000    2.333    1.667    3.000    3.500    1.000 
#    0.000    3.333    0.000    0.000    0.000    0.000 
#    0.000    2.667    0.000    9.833    0.000    0.333 
#
# Total GULP energy -297431.394295 kJ/mol
# GULP energy per Si atom -12392.974762 kJ/mol
# Density = 1.687211 g / cm^3
# Si number density = 16.910604 Si / 1000 Ang^3
#
#
#
# Elastic Constant Matrix: (Units=GPa)
#
#
# Indices 1 2 3 4 5 6 
#
# 1 121.4247 55.2571 26.6320 0.0000 -29.9462 0.0000
# 2 55.2571 87.6458 10.3556 0.0000 -11.9350 0.0000
# 3 26.6320 10.3556 55.3578 0.0000 -14.4025 0.0000
# 4 0.0000 0.0000 0.0000 16.2572 0.0000 -0.4931
# 5 -29.9462 -11.9350 -14.4025 0.0000 18.8728 0.0000
# 6 0.0000 0.0000 0.0000 -0.4931 0.0000 32.2456
#
#
#
# Elastic Compliance Matrix: (Units=1/GPa)
#
#
# Indices 1 2 3 4 5 6 
#
# 1 0.017481 -0.007907 -0.001267 0.000000 0.021770 0.000000
# 2 -0.007907 0.016066 0.000222 0.000000 -0.002216 0.000000
# 3 -0.001267 0.000222 0.022641 0.000000 0.015409 0.000000
# 4 0.000000 0.000000 0.000000 0.061540 0.000000 0.000941
# 5 0.021770 -0.002216 0.015409 0.000000 0.097888 0.000000
# 6 0.000000 0.000000 0.000000 0.000941 0.000000 0.031026
#
#
# Mechanical properties :
#
#
# Convention : Reuss Voigt Hill
#
# Bulk Modulus (GPa) = 26.11992 49.87975 37.99983
# Shear Modulus (GPa) = 18.03060 24.95402 21.49231
#
# Velocity S-wave (km/s) = 3.26886 3.84558 3.56889
# Velocity P-wave (km/s) = 5.45222 7.01984 6.28509
#
# Compressibility (1/GPa) = 0.03828496
#
# Stress axis : x y z
#
# Youngs Moduli (GPa) = 57.20647 62.24194 44.16755
#
# Poissons Ratio (x) = 0.49212 0.05594
# Poissons Ratio (y) = 0.45231 -0.00979
# Poissons Ratio (z) = 0.07246 -0.01380
#
# Static dielectric constant tensor:
#      x y z
#    x 3.149600 0.000000 -0.186750 
#    y 0.000000 3.404370 0.000000 
#    z -0.186750 0.000000 2.786720 
# 
# 
# High freq. dielectric constant tensor:
#      x y z
#    x 1.646200 0.000000 -0.025800 
#    y 0.000000 1.668350 0.000000 
#    z -0.025800 0.000000 1.591670 
# 
# From -- ./inp_files/48678.got.cif
#   From: 2010.06.25/outbox.cif.g09.slc.cpg/sg10_25_cif.got.tgz:48678.got - 2010.06.27 22:07:45.
