data_PCOD8058651
_publ_section_title
;
Structure prediction by ZEFSAII (Michael W. Deem and Ramdas Pophale) SiO2 
 PCOD8058651
Probable space group: P 2/M
;
_chemical_formula_sum "Si O2"
_cell_formula_units_Z 28
_cell_length_a 21.096856
_cell_length_b 8.906974
_cell_length_c 11.879280
_cell_angle_alpha 90.000000
_cell_angle_beta 140.632555
_cell_angle_gamma 90.000000
_cell_volume 1415.881251
_symmetry_space_group_name_H-M "P 2/M"
_symmetry_group_IT_number 10
_symmetry_cell_setting 'monoclinic'
loop_
_space_group_symop_operation_xyz
x,y,z
-x,y,-z
-x,-y,-z
x,-y,z
loop_
_atom_site_type_symbol
_atom_site_label
_atom_site_fract_x
_atom_site_fract_y
_atom_site_fract_z
Si Si1 0.512274 0.679298 0.144874
Si Si2 0.819764 0.333050 0.386158
Si Si3 0.010718 0.168110 0.647116
Si Si4 0.114537 0.177308 0.141355
Si Si5 0.273078 0.332994 0.510370
Si Si6 0.316502 0.322493 0.995963
Si Si7 0.818599 0.675199 0.994428
O O1 0.513130 0.500000 0.141396
O O2 0.614705 0.733950 0.347231
O O3 0.500000 0.742183 0.000000
O O4 0.424229 0.741717 0.106122
O O5 0.862558 0.500000 0.418006
O O6 0.737713 0.344320 0.370416
O O7 0.767931 0.259312 0.205201
O O8 0.906099 0.225430 0.552658
O O9 0.000000 0.172251 0.500000
O O10 0.032771 0.000000 0.723040
O O11 0.094340 0.284036 0.799536
O O12 0.186655 0.229871 0.340120
O O13 0.166741 0.232639 0.098847
O O14 0.111069 0.000000 0.134739
O O15 0.000000 0.238927 0.000000
O O16 0.264282 0.500000 0.444042
O O17 0.317875 0.500000 0.980869
O O18 0.285415 0.282616 0.082644
O O19 0.822407 0.500000 0.970505
#
# Coordination Sequence:
#
# PCOD8058651 Si02
#       7
#     4   4   4   4   4   4   4
#     4   9  15  29  55  89 124 151 181 229 285 338
#     4  10  18  31  53  83 115 146 185 232 279 331
#     4  11  22  33  48  76 114 152 186 223 279 347
#     4  11  25  44  62  79 110 154 196 240 290 345
#     4  10  20  34  60  91 115 147 192 238 283 334
#     4   9  17  30  52  85 119 147 178 226 286 335
#     4  11  22  37  59  83 112 148 192 242 285 335
#
# _framework density 19.775670999999999
#
# number of rings (size 3 to 8) (size 9 to 14) (size 15 to 20)
#    0.000    1.857    2.857    2.143    0.000    4.571 
#    0.000    0.714    0.000    7.286    0.000    0.000 
#    0.000    0.000    0.000    0.000    0.000    0.000 
#
# Total GULP energy -346995.394333 kJ/mol
# GULP energy per Si atom -12392.692655 kJ/mol
# Density = 1.973066 g / cm^3
# Si number density = 19.775671 Si / 1000 Ang^3
#
#
#
# Elastic Constant Matrix: (Units=GPa)
#
#
# Indices 1 2 3 4 5 6 
#
# 1 129.4776 24.3473 47.3093 0.0000 12.8079 0.0000
# 2 24.3473 42.1915 22.4763 0.0000 0.1676 0.0000
# 3 47.3093 22.4763 93.7513 0.0000 13.1142 0.0000
# 4 0.0000 0.0000 0.0000 10.2073 0.0000 -8.2194
# 5 12.8079 0.1676 13.1142 0.0000 33.3058 0.0000
# 6 0.0000 0.0000 0.0000 -8.2194 0.0000 13.3254
#
#
#
# Elastic Compliance Matrix: (Units=1/GPa)
#
#
# Indices 1 2 3 4 5 6 
#
# 1 0.010068 -0.003746 -0.003856 0.000000 -0.002335 0.000000
# 2 -0.003746 0.028775 -0.005492 0.000000 0.003458 0.000000
# 3 -0.003856 -0.005492 0.014517 0.000000 -0.004206 0.000000
# 4 0.000000 0.000000 0.000000 0.194652 0.000000 0.120066
# 5 -0.002335 0.003458 -0.004206 0.000000 0.032561 0.000000
# 6 0.000000 0.000000 0.000000 0.120066 0.000000 0.149104
#
#
# Mechanical properties :
#
#
# Convention : Reuss Voigt Hill
#
# Bulk Modulus (GPa) = 36.80245 50.40957 43.60601
# Shear Modulus (GPa) = 10.75450 22.78687 16.77069
#
# Velocity S-wave (km/s) = 2.33453 3.39819 2.91528
# Velocity P-wave (km/s) = 5.09088 6.39867 5.78187
#
# Compressibility (1/GPa) = 0.02717210
#
# Stress axis : x y z
#
# Youngs Moduli (GPa) = 99.32914 34.75198 68.88410
#
# Poissons Ratio (x) = 0.13020 0.26559
# Poissons Ratio (y) = 0.37213 0.37831
# Poissons Ratio (z) = 0.38297 0.19086
#
# Static dielectric constant tensor:
#      x y z
#    x 3.924830 0.000000 0.169260 
#    y 0.000000 3.356030 0.000000 
#    z 0.169260 0.000000 3.536010 
# 
# 
# High freq. dielectric constant tensor:
#      x y z
#    x 1.783380 0.000000 0.007790 
#    y 0.000000 1.732960 0.000000 
#    z 0.007790 0.000000 1.756600 
# 
# From -- ./inp_files/55411.got.cif
#   From: 2010.06.25/outbox.cif.g09.slc.cpg/sg10_28_cif.got.tgz:55411.got - 2010.06.27 22:07:45.
