data_PCOD8058034
_publ_section_title
;
Structure prediction by ZEFSAII (Michael W. Deem and Ramdas Pophale) SiO2 
 PCOD8058034
Probable space group: P 2/M
;
_chemical_formula_sum "Si O2"
_cell_formula_units_Z 32
_cell_length_a 19.787561
_cell_length_b 8.556896
_cell_length_c 27.729711
_cell_angle_alpha 90.000000
_cell_angle_beta 158.760031
_cell_angle_gamma 90.000000
_cell_volume 1700.952022
_symmetry_space_group_name_H-M "P 2/M"
_symmetry_group_IT_number 10
_symmetry_cell_setting 'monoclinic'
loop_
_space_group_symop_operation_xyz
x,y,z
-x,y,-z
-x,-y,-z
x,-y,z
loop_
_atom_site_type_symbol
_atom_site_label
_atom_site_fract_x
_atom_site_fract_y
_atom_site_fract_z
Si Si1 0.970874 0.180177 0.425679
Si Si2 0.589095 0.316897 0.845209
Si Si3 0.546961 0.180734 0.146472
Si Si4 0.277416 0.318675 0.563667
Si Si5 0.165993 0.818231 0.392430
Si Si6 0.703574 0.316264 0.620481
Si Si7 0.800784 0.682360 0.121925
Si Si8 0.934481 0.817566 0.111474
O O1 0.756791 0.205816 0.267717
O O2 0.000000 0.233857 0.500000
O O3 0.094643 0.286803 0.473750
O O4 0.031839 0.000000 0.460048
O O5 0.626134 0.500000 0.870869
O O6 0.480558 0.269174 0.821423
O O7 0.462153 0.268483 0.715535
O O8 0.789413 0.228300 0.972543
O O9 0.501895 0.000000 0.125913
O O10 0.408209 0.246975 0.012603
O O11 0.280308 0.500000 0.551870
O O12 0.278728 0.218177 0.515844
O O13 0.258792 0.725941 0.410007
O O14 0.949934 0.765234 0.256522
O O15 0.173788 0.000000 0.385532
O O16 0.500000 0.255324 0.500000
O O17 0.721422 0.500000 0.639606
O O18 0.851310 0.232457 0.755145
O O19 0.796998 0.500000 0.130976
O O20 0.866680 0.714960 0.111468
O O21 0.923464 0.000000 0.115810
#
# Coordination Sequence:
#
# PCOD8058034 Si02
#       8
#     4   4   4   4   4   4   4   4
#     4  10  20  34  51  74 105 140 179 226 274 319
#     4  10  19  31  49  74 104 139 179 221 264 310
#     4  10  18  30  50  74 102 134 176 225 271 316
#     4  11  23  36  53  76 106 143 182 223 268 319
#     4  11  22  37  57  79 108 141 176 216 261 317
#     4  10  20  36  60  87 114 141 170 209 257 309
#     4  10  18  31  51  73 102 135 174 220 265 314
#     4  10  18  29  50  79 109 138 173 216 257 303
#
# _framework density 18.812994
#
# number of rings (size 3 to 8) (size 9 to 14) (size 15 to 20)
#    0.000    1.750    1.250    7.875    0.000    3.750 
#    0.000    0.625    0.000    4.500    0.000    5.250 
#    0.000    0.000    0.000    0.000    0.000    0.000 
#
# Total GULP energy -396765.975902 kJ/mol
# GULP energy per Si atom -12398.936747 kJ/mol
# Density = 1.877017 g / cm^3
# Si number density = 18.812994 Si / 1000 Ang^3
#
#
#
# Elastic Constant Matrix: (Units=GPa)
#
#
# Indices 1 2 3 4 5 6 
#
# 1 44.6563 10.5648 41.1849 0.0000 -4.1780 0.0000
# 2 10.5648 55.8329 45.4892 0.0000 -0.1715 0.0000
# 3 41.1849 45.4892 155.2951 0.0000 0.3562 0.0000
# 4 0.0000 0.0000 0.0000 32.0411 0.0000 -1.4598
# 5 -4.1780 -0.1715 0.3562 0.0000 26.7666 0.0000
# 6 0.0000 0.0000 0.0000 -1.4598 0.0000 14.0292
#
#
#
# Elastic Compliance Matrix: (Units=1/GPa)
#
#
# Indices 1 2 3 4 5 6 
#
# 1 0.030307 0.001100 -0.008371 0.000000 0.004849 0.000000
# 2 0.001100 0.023566 -0.007196 0.000000 0.000418 0.000000
# 3 -0.008371 -0.007196 0.010771 0.000000 -0.001496 0.000000
# 4 0.000000 0.000000 0.000000 0.031359 0.000000 0.003263
# 5 0.004849 0.000418 -0.001496 0.000000 0.038139 0.000000
# 6 0.000000 0.000000 0.000000 0.003263 0.000000 0.071620
#
#
# Mechanical properties :
#
#
# Convention : Reuss Voigt Hill
#
# Bulk Modulus (GPa) = 28.00269 50.02910 39.01589
# Shear Modulus (GPa) = 20.27592 25.13708 22.70650
#
# Velocity S-wave (km/s) = 3.28649 3.65931 3.47790
# Velocity P-wave (km/s) = 5.41465 6.67118 6.07549
#
# Compressibility (1/GPa) = 0.03571086
#
# Stress axis : x y z
#
# Youngs Moduli (GPa) = 32.99595 42.43329 92.84544
#
# Poissons Ratio (x) = -0.04669 0.77720
# Poissons Ratio (y) = -0.03631 0.66810
# Poissons Ratio (z) = 0.27621 0.30534
#
# Static dielectric constant tensor:
#      x y z
#    x 2.949800 0.000000 -0.060480 
#    y 0.000000 3.460380 0.000000 
#    z -0.060480 0.000000 4.220520 
# 
# 
# High freq. dielectric constant tensor:
#      x y z
#    x 1.669920 0.000000 -0.007260 
#    y 0.000000 1.744010 0.000000 
#    z -0.007260 0.000000 1.754630 
# 
# From -- ./inp_files/95679.got.cif
#   From: 2010.06.25/outbox.cif.g09.slc.cpg/sg10_48_cif.got.tgz:95679.got - 2010.06.27 22:07:45.
