data_PCOD8058474
_publ_section_title
;
Structure prediction by ZEFSAII (Michael W. Deem and Ramdas Pophale) SiO2 
 PCOD8058474
Probable space group: P 2/M
;
_chemical_formula_sum "Si O2"
_cell_formula_units_Z 28
_cell_length_a 19.098412
_cell_length_b 9.044293
_cell_length_c 17.752770
_cell_angle_alpha 90.000000
_cell_angle_beta 32.599896
_cell_angle_gamma 90.000000
_cell_volume 1652.117050
_symmetry_space_group_name_H-M "P 2/M"
_symmetry_group_IT_number 10
_symmetry_cell_setting 'monoclinic'
loop_
_space_group_symop_operation_xyz
x,y,z
-x,y,-z
-x,-y,-z
x,-y,z
loop_
_atom_site_type_symbol
_atom_site_label
_atom_site_fract_x
_atom_site_fract_y
_atom_site_fract_z
Si Si1 0.652986 0.834357 0.346351
Si Si2 0.292929 0.673895 0.396931
Si Si3 0.565899 0.175826 0.132803
Si Si4 0.690486 0.663650 0.454046
Si Si5 0.140279 0.674427 0.391773
Si Si6 0.614108 0.666221 0.237514
Si Si7 0.632632 0.673728 0.923046
O O1 0.500000 0.829400 0.500000
O O2 0.728087 0.772102 0.351806
O O3 0.689356 0.738956 0.239909
O O4 0.701928 0.000000 0.288299
O O5 0.330637 0.500000 0.356977
O O6 0.418897 0.767143 0.261232
O O7 0.243184 0.712059 0.526780
O O8 0.179122 0.716854 0.442075
O O9 0.639720 0.238480 0.139459
O O10 0.567007 0.000000 0.135190
O O11 0.642558 0.233935 0.990688
O O12 0.736442 0.500000 0.388841
O O13 0.537576 0.664384 0.607368
O O14 0.132206 0.500000 0.390675
O O15 0.248869 0.732186 0.235541
O O16 0.000000 0.746200 0.500000
O O17 0.666811 0.500000 0.178165
O O18 0.642173 0.500000 0.932791
O O19 0.500000 0.710042 0.000000
#
# Coordination Sequence:
#
# PCOD8058474 Si02
#       7
#     4   4   4   4   4   4   4
#     4   9  15  22  33  52  81 113 146 182 222 266
#     4   9  16  29  45  63  88 118 153 191 233 274
#     4  11  20  28  42  65  91 117 153 192 229 271
#     4   8  14  22  35  53  77 112 149 181 217 268
#     4   9  17  30  50  72  91 116 155 198 234 271
#     4   9  16  26  39  55  81 115 150 184 226 272
#     4  10  18  31  50  68  90 120 154 191 233 277
#
# _framework density 16.947952000000001
#
# number of rings (size 3 to 8) (size 9 to 14) (size 15 to 20)
#    0.000    2.714    1.429    3.000    0.000    5.429 
#    0.000    0.000    0.000    1.714    0.000    0.000 
#    0.000    1.143    0.000   13.429    0.000    5.714 
#
# Total GULP energy -347077.852281 kJ/mol
# GULP energy per Si atom -12395.637581 kJ/mol
# Density = 1.690938 g / cm^3
# Si number density = 16.947952 Si / 1000 Ang^3
#
#
#
# Elastic Constant Matrix: (Units=GPa)
#
#
# Indices 1 2 3 4 5 6 
#
# 1 142.6416 59.7827 60.8693 0.0000 35.4478 0.0000
# 2 59.7827 99.8455 31.9428 0.0000 20.1705 0.0000
# 3 60.8693 31.9428 60.5846 0.0000 9.8021 0.0000
# 4 0.0000 0.0000 0.0000 11.0653 0.0000 7.6990
# 5 35.4478 20.1705 9.8021 0.0000 26.7647 0.0000
# 6 0.0000 0.0000 0.0000 7.6990 0.0000 13.6835
#
#
#
# Elastic Compliance Matrix: (Units=1/GPa)
#
#
# Indices 1 2 3 4 5 6 
#
# 1 0.018737 -0.003146 -0.014387 0.000000 -0.017175 0.000000
# 2 -0.003146 0.014030 -0.003401 0.000000 -0.005161 0.000000
# 3 -0.014387 -0.003401 0.031099 0.000000 0.010229 0.000000
# 4 0.000000 0.000000 0.000000 0.148511 0.000000 -0.083560
# 5 -0.017175 -0.005161 0.010229 0.000000 0.060253 0.000000
# 6 0.000000 0.000000 0.000000 -0.083560 0.000000 0.120096
#
#
# Mechanical properties :
#
#
# Convention : Reuss Voigt Hill
#
# Bulk Modulus (GPa) = 45.46177 67.58457 56.52317
# Shear Modulus (GPa) = 11.31406 20.33450 15.82428
#
# Velocity S-wave (km/s) = 2.58655 3.46760 3.05896
# Velocity P-wave (km/s) = 5.98355 7.48309 6.77494
#
# Compressibility (1/GPa) = 0.02199650
#
# Stress axis : x y z
#
# Youngs Moduli (GPa) = 53.37053 71.27597 32.15522
#
# Poissons Ratio (x) = 0.22425 0.46263
# Poissons Ratio (y) = 0.16792 0.10937
# Poissons Ratio (z) = 0.76786 0.24243
#
# Static dielectric constant tensor:
#      x y z
#    x 3.436570 0.000000 0.341080 
#    y 0.000000 3.091760 0.000000 
#    z 0.341080 0.000000 2.833630 
# 
# 
# High freq. dielectric constant tensor:
#      x y z
#    x 1.655670 0.000000 0.043710 
#    y 0.000000 1.641780 0.000000 
#    z 0.043710 0.000000 1.595920 
# 
# From -- ./inp_files/54535.got.cif
#   From: 2010.06.25/outbox.cif.g09.slc.cpg/sg10_28_cif.got.tgz:54535.got - 2010.06.27 22:07:45.
