data_PCOD8058126
_publ_section_title
;
Structure prediction by ZEFSAII (Michael W. Deem and Ramdas Pophale) SiO2 
 PCOD8058126
Probable space group: P 2/M
;
_chemical_formula_sum "Si O2"
_cell_formula_units_Z 28
_cell_length_a 31.734470
_cell_length_b 9.030987
_cell_length_c 9.674753
_cell_angle_alpha 90.000000
_cell_angle_beta 34.075305
_cell_angle_gamma 90.000000
_cell_volume 1553.506429
_symmetry_space_group_name_H-M "P 2/M"
_symmetry_group_IT_number 10
_symmetry_cell_setting 'monoclinic'
loop_
_space_group_symop_operation_xyz
x,y,z
-x,y,-z
-x,-y,-z
x,-y,z
loop_
_atom_site_type_symbol
_atom_site_label
_atom_site_fract_x
_atom_site_fract_y
_atom_site_fract_z
Si Si1 0.290214 0.173083 0.752799
Si Si2 0.264871 0.828049 0.127512
Si Si3 0.415852 0.174281 0.197161
Si Si4 0.314488 0.674361 0.263470
Si Si5 0.953520 0.325482 0.947303
Si Si6 0.906150 0.826272 0.356168
Si Si7 0.191060 0.671328 0.817263
O O1 0.364625 0.221355 0.467176
O O2 0.215800 0.244223 0.887842
O O3 0.276386 0.000000 0.783357
O O4 0.299155 0.222872 0.887374
O O5 0.306981 0.734795 0.129351
O O6 0.176179 0.794467 0.361813
O O7 0.279840 0.000000 0.117548
O O8 0.388214 0.256161 0.134204
O O9 0.411782 0.000000 0.180887
O O10 0.500000 0.227313 0.000000
O O11 0.324451 0.500000 0.229337
O O12 0.241184 0.723267 0.550052
O O13 0.966922 0.500000 0.930997
O O14 0.032405 0.241784 0.703579
O O15 0.915687 0.260071 0.187251
O O16 0.896360 0.294852 0.976258
O O17 0.921143 0.000000 0.293433
O O18 0.205456 0.500000 0.805171
#
# Coordination Sequence:
#
# PCOD8058126 Si02
#       7
#     4   4   4   4   4   4   4
#     4   9  19  34  53  75 100 132 166 204 251 298
#     4  10  20  34  50  73 104 134 168 207 249 299
#     4   9  18  35  58  81 103 129 164 205 248 295
#     4  10  19  32  53  78 102 132 169 206 245 294
#     4  10  18  30  47  69  98 129 167 212 254 295
#     4  10  19  29  45  70  98 129 167 210 252 292
#     4   9  18  32  49  72  98 128 169 211 249 294
#
# _framework density 18.023744000000001
#
# number of rings (size 3 to 8) (size 9 to 14) (size 15 to 20)
#    0.000    2.429    1.429    2.143    0.000    3.143 
#    0.000    1.429    0.000    8.571    0.000    0.000 
#    0.000    0.000    0.000    0.000    0.000    0.000 
#
# Total GULP energy -347182.700616 kJ/mol
# GULP energy per Si atom -12399.382165 kJ/mol
# Density = 1.798272 g / cm^3
# Si number density = 18.023744 Si / 1000 Ang^3
#
#
#
# Elastic Constant Matrix: (Units=GPa)
#
#
# Indices 1 2 3 4 5 6 
#
# 1 153.0675 56.7236 61.4331 0.0000 -5.2536 0.0000
# 2 56.7236 60.7226 30.4010 0.0000 -2.1369 0.0000
# 3 61.4331 30.4010 69.1057 0.0000 -3.0490 0.0000
# 4 0.0000 0.0000 0.0000 15.8521 0.0000 -2.4532
# 5 -5.2536 -2.1369 -3.0490 0.0000 29.5228 0.0000
# 6 0.0000 0.0000 0.0000 -2.4532 0.0000 31.2601
#
#
#
# Elastic Compliance Matrix: (Units=1/GPa)
#
#
# Indices 1 2 3 4 5 6 
#
# 1 0.012549 -0.007856 -0.007661 0.000000 0.000873 0.000000
# 2 -0.007856 0.026048 -0.004474 0.000000 0.000025 0.000000
# 3 -0.007661 -0.004474 0.023281 0.000000 0.000717 0.000000
# 4 0.000000 0.000000 0.000000 0.063859 0.000000 0.005012
# 5 0.000873 0.000025 0.000717 0.000000 0.034103 0.000000
# 6 0.000000 0.000000 0.000000 0.005012 0.000000 0.032383
#
#
# Mechanical properties :
#
#
# Convention : Reuss Voigt Hill
#
# Bulk Modulus (GPa) = 45.67168 64.44567 55.05868
# Shear Modulus (GPa) = 20.87642 24.28289 22.57966
#
# Velocity S-wave (km/s) = 3.40703 3.67450 3.54329
# Velocity P-wave (km/s) = 6.39311 7.33732 6.88143
#
# Compressibility (1/GPa) = 0.02189541
#
# Stress axis : x y z
#
# Youngs Moduli (GPa) = 79.68577 38.39055 42.95354
#
# Poissons Ratio (x) = 0.30161 0.32908
# Poissons Ratio (y) = 0.62605 0.19216
# Poissons Ratio (z) = 0.61049 0.17175
#
# Static dielectric constant tensor:
#      x y z
#    x 3.400960 0.000000 -0.121570 
#    y 0.000000 3.308010 0.000000 
#    z -0.121570 0.000000 3.275610 
# 
# 
# High freq. dielectric constant tensor:
#      x y z
#    x 1.700280 0.000000 -0.008710 
#    y 0.000000 1.700510 0.000000 
#    z -0.008710 0.000000 1.670660 
# 
# From -- ./inp_files/37974.got.cif
#   From: 2010.06.25/outbox.cif.g09.slc.cpg/sg10_19_cif.got.tgz:37974.got - 2010.06.27 22:07:45.
