data_PCOD8058249
_publ_section_title
;
Structure prediction by ZEFSAII (Michael W. Deem and Ramdas Pophale) SiO2 
 PCOD8058249
Probable space group: P 2/M
;
_chemical_formula_sum "Si O2"
_cell_formula_units_Z 20
_cell_length_a 5.274454
_cell_length_b 14.228818
_cell_length_c 15.676737
_cell_angle_alpha 90.000000
_cell_angle_beta 98.540177
_cell_angle_gamma 90.000000
_cell_volume 1163.481926
_symmetry_space_group_name_H-M "P 2/M"
_symmetry_group_IT_number 10
_symmetry_cell_setting 'monoclinic'
loop_
_space_group_symop_operation_xyz
x,y,z
-x,y,-z
-x,-y,-z
x,-y,z
loop_
_atom_site_type_symbol
_atom_site_label
_atom_site_fract_x
_atom_site_fract_y
_atom_site_fract_z
Si Si1 0.382131 0.393932 0.592201
Si Si2 0.773681 0.897672 0.556027
Si Si3 0.279280 0.605360 0.238309
Si Si4 0.890227 0.700410 0.615367
Si Si5 0.272845 0.611934 0.047617
O O1 0.317156 0.500000 0.558250
O O2 0.450770 0.394768 0.697106
O O3 0.645617 0.354957 0.558258
O O4 0.140521 0.323114 0.571047
O O5 0.500000 0.879003 0.500000
O O6 0.834310 0.811356 0.621729
O O7 0.000000 0.899148 0.500000
O O8 0.768490 0.000000 0.603064
O O9 0.167736 0.500000 0.224203
O O10 0.076506 0.664478 0.285606
O O11 0.313156 0.649584 0.146147
O O12 0.284508 0.500000 0.046301
O O13 0.500000 0.653495 0.000000
O O14 0.000000 0.648849 0.000000
#
# Coordination Sequence:
#
# PCOD8058249 Si02
#       5
#     4   4   4   4   4
#     4   9  17  28  46  67  92 123 156 186 217 263
#     4  10  21  37  55  73  93 116 145 189 244 289
#     4   8  17  28  44  63  91 126 158 186 219 263
#     4  10  18  30  50  69  89 121 157 188 225 275
#     4   9  17  25  36  57  87 122 156 187 219 254
#
# _framework density 17.189782000000001
#
# number of rings (size 3 to 8) (size 9 to 14) (size 15 to 20)
#    1.200    1.600    0.000    2.400    2.800    0.000 
#    0.000    0.000    0.000   20.400    0.000    0.000 
#    0.000    1.600    0.000    0.200    0.000    0.000 
#
# Total GULP energy -247780.176985 kJ/mol
# GULP energy per Si atom -12389.008849 kJ/mol
# Density = 1.715066 g / cm^3
# Si number density = 17.189782 Si / 1000 Ang^3
#
#
#
# Elastic Constant Matrix: (Units=GPa)
#
#
# Indices 1 2 3 4 5 6 
#
# 1 137.4986 36.6776 43.1070 0.0000 -11.0783 0.0000
# 2 36.6776 115.2967 20.1299 0.0000 -5.4692 0.0000
# 3 43.1070 20.1299 52.7664 0.0000 -5.0704 0.0000
# 4 0.0000 0.0000 0.0000 7.4018 0.0000 -0.0099
# 5 -11.0783 -5.4692 -5.0704 0.0000 21.5800 0.0000
# 6 0.0000 0.0000 0.0000 -0.0099 0.0000 20.1425
#
#
#
# Elastic Compliance Matrix: (Units=1/GPa)
#
#
# Indices 1 2 3 4 5 6 
#
# 1 0.010352 -0.001844 -0.007456 0.000000 0.003095 0.000000
# 2 -0.001844 0.009672 -0.002086 0.000000 0.001014 0.000000
# 3 -0.007456 -0.002086 0.026006 0.000000 0.001755 0.000000
# 4 0.000000 0.000000 0.000000 0.135102 0.000000 0.000066
# 5 0.003095 0.001014 0.001755 0.000000 0.048597 0.000000
# 6 0.000000 0.000000 0.000000 0.000066 0.000000 0.049646
#
#
# Mechanical properties :
#
#
# Convention : Reuss Voigt Hill
#
# Bulk Modulus (GPa) = 42.99408 56.15452 49.57430
# Shear Modulus (GPa) = 16.13423 23.53466 19.83445
#
# Velocity S-wave (km/s) = 3.06697 3.70416 3.40052
# Velocity P-wave (km/s) = 6.13249 7.14372 6.65733
#
# Compressibility (1/GPa) = 0.02325902
#
# Stress axis : x y z
#
# Youngs Moduli (GPa) = 96.60386 103.38824 38.45200
#
# Poissons Ratio (x) = 0.19070 0.28668
# Poissons Ratio (y) = 0.17818 0.08019
# Poissons Ratio (z) = 0.72024 0.21562
#
# Static dielectric constant tensor:
#      x y z
#    x 3.283630 0.000000 -0.054390 
#    y 0.000000 3.188310 0.000000 
#    z -0.054390 0.000000 3.218240 
# 
# 
# High freq. dielectric constant tensor:
#      x y z
#    x 1.679580 0.000000 -0.002820 
#    y 0.000000 1.617940 0.000000 
#    z -0.002820 0.000000 1.645970 
# 
# From -- ./inp_files/73264.got.cif
#   From: 2010.06.25/outbox.cif.g09.slc.cpg/sg10_37_cif.got.tgz:73264.got - 2010.06.27 22:07:45.
