data_PCOD8058074
_publ_section_title
;
Structure prediction by ZEFSAII (Michael W. Deem and Ramdas Pophale) SiO2 
 PCOD8058074
Probable space group: P 2/M
;
_chemical_formula_sum "Si O2"
_cell_formula_units_Z 28
_cell_length_a 13.624419
_cell_length_b 8.569168
_cell_length_c 14.588786
_cell_angle_alpha 90.000000
_cell_angle_beta 76.592968
_cell_angle_gamma 90.000000
_cell_volume 1656.822156
_symmetry_space_group_name_H-M "P 2/M"
_symmetry_group_IT_number 10
_symmetry_cell_setting 'monoclinic'
loop_
_space_group_symop_operation_xyz
x,y,z
-x,y,-z
-x,-y,-z
x,-y,z
loop_
_atom_site_type_symbol
_atom_site_label
_atom_site_fract_x
_atom_site_fract_y
_atom_site_fract_z
Si Si1 0.728745 0.820104 0.204552
Si Si2 0.629948 0.179799 0.406924
Si Si3 0.627190 0.178522 0.772335
Si Si4 0.429381 0.679817 0.890664
Si Si5 0.286515 0.183017 0.061635
Si Si6 0.889525 0.181416 0.028424
Si Si7 0.420391 0.680115 0.401123
O O1 0.720869 0.786362 0.315322
O O2 0.653837 0.704212 0.169558
O O3 0.840984 0.789414 0.139977
O O4 0.697330 0.000000 0.191624
O O5 0.647833 0.279689 0.495219
O O6 0.523643 0.221664 0.381833
O O7 0.627326 0.000000 0.436115
O O8 0.523164 0.211828 0.846340
O O9 0.715568 0.213707 0.828123
O O10 0.641304 0.282103 0.678118
O O11 0.630356 0.000000 0.740119
O O12 0.463162 0.500000 0.884804
O O13 0.383247 0.727465 0.998798
O O14 0.299808 0.000000 0.036774
O O15 0.184257 0.247614 0.035723
O O16 0.903754 0.000000 0.005432
O O17 0.000000 0.263234 0.000000
O O18 0.449525 0.500000 0.396476
#
# Coordination Sequence:
#
# PCOD8058074 Si02
#       7
#     4   4   4   4   4   4   4
#     4   9  17  29  47  68  92 123 154 183 223 274
#     4  10  18  30  46  63  89 125 159 187 223 268
#     4  11  20  31  44  60  88 125 159 186 220 270
#     4  11  20  28  42  64  91 121 154 190 223 260
#     4   9  19  32  46  64  88 121 154 184 224 276
#     4   8  14  28  50  74  94 112 143 188 232 272
#     4  11  21  30  43  64  91 120 157 196 229 260
#
# _framework density 16.899822
#
# number of rings (size 3 to 8) (size 9 to 14) (size 15 to 20)
#    0.000    2.143    1.429    5.571    0.000    3.429 
#    0.000    0.000    0.000    6.857    0.000    1.000 
#    0.000    8.000    0.000    0.000    0.000    0.000 
#
# Total GULP energy -347039.990029 kJ/mol
# GULP energy per Si atom -12394.285358 kJ/mol
# Density = 1.686136 g / cm^3
# Si number density = 16.899822 Si / 1000 Ang^3
#
#
#
# Elastic Constant Matrix: (Units=GPa)
#
#
# Indices 1 2 3 4 5 6 
#
# 1 60.8119 4.5598 45.9117 0.0000 -3.6561 0.0000
# 2 4.5598 43.4491 20.0761 0.0000 2.9365 0.0000
# 3 45.9117 20.0761 136.9793 0.0000 7.5377 0.0000
# 4 0.0000 0.0000 0.0000 16.8854 0.0000 3.5143
# 5 -3.6561 2.9365 7.5377 0.0000 18.9249 0.0000
# 6 0.0000 0.0000 0.0000 3.5143 0.0000 4.8568
#
#
#
# Elastic Compliance Matrix: (Units=1/GPa)
#
#
# Indices 1 2 3 4 5 6 
#
# 1 0.023096 0.000892 -0.008291 0.000000 0.007626 0.000000
# 2 0.000892 0.024833 -0.003820 0.000000 -0.002160 0.000000
# 3 -0.008291 -0.003820 0.010934 0.000000 -0.005364 0.000000
# 4 0.000000 0.000000 0.000000 0.069723 0.000000 -0.050450
# 5 0.007626 -0.002160 -0.005364 0.000000 0.056785 0.000000
# 6 0.000000 0.000000 0.000000 -0.050450 0.000000 0.242401
#
#
# Mechanical properties :
#
#
# Convention : Reuss Voigt Hill
#
# Bulk Modulus (GPa) = 27.45409 42.48175 34.96792
# Shear Modulus (GPa) = 10.81427 19.51291 15.16359
#
# Velocity S-wave (km/s) = 2.53238 3.40166 2.99869
# Velocity P-wave (km/s) = 4.98308 6.37341 5.72064
#
# Compressibility (1/GPa) = 0.03642444
#
# Stress axis : x y z
#
# Youngs Moduli (GPa) = 43.29842 40.26946 91.45432
#
# Poissons Ratio (x) = -0.03592 0.75828
# Poissons Ratio (y) = -0.03862 0.34933
# Poissons Ratio (z) = 0.35900 0.15382
#
# Static dielectric constant tensor:
#      x y z
#    x 3.021450 0.000000 0.060830 
#    y 0.000000 3.013390 0.000000 
#    z 0.060830 0.000000 3.415210 
# 
# 
# High freq. dielectric constant tensor:
#      x y z
#    x 1.594490 0.000000 0.008840 
#    y 0.000000 1.644230 0.000000 
#    z 0.008840 0.000000 1.659920 
# 
# From -- ./inp_files/65734.got.cif
#   From: 2010.06.25/outbox.cif.g09.slc.cpg/sg10_33_cif.got.tgz:65734.got - 2010.06.27 22:07:45.
