data_PCOD8058617
_publ_section_title
;
Structure prediction by ZEFSAII (Michael W. Deem and Ramdas Pophale) SiO2 
 PCOD8058617
Probable space group: P 2/M
;
_chemical_formula_sum "Si O2"
_cell_formula_units_Z 28
_cell_length_a 28.502397
_cell_length_b 8.809598
_cell_length_c 9.957558
_cell_angle_alpha 90.000000
_cell_angle_beta 37.444982
_cell_angle_gamma 90.000000
_cell_volume 1520.174436
_symmetry_space_group_name_H-M "P 2/M"
_symmetry_group_IT_number 10
_symmetry_cell_setting 'monoclinic'
loop_
_space_group_symop_operation_xyz
x,y,z
-x,y,-z
-x,-y,-z
x,-y,z
loop_
_atom_site_type_symbol
_atom_site_label
_atom_site_fract_x
_atom_site_fract_y
_atom_site_fract_z
Si Si1 0.632762 0.819951 0.850912
Si Si2 0.496907 0.819116 0.353807
Si Si3 0.047738 0.678598 0.262665
Si Si4 0.047910 0.320047 0.768715
Si Si5 0.633066 0.177325 0.547730
Si Si6 0.806553 0.177637 0.172134
Si Si7 0.207315 0.678534 0.512888
O O1 0.614950 0.758411 0.739650
O O2 0.715453 0.760407 0.712498
O O3 0.636213 0.000000 0.839126
O O4 0.570411 0.762227 0.100673
O O5 0.500000 0.754247 0.500000
O O6 0.422295 0.753743 0.442504
O O7 0.494938 0.000000 0.365180
O O8 0.064530 0.500000 0.214191
O O9 0.000000 0.723705 0.500000
O O10 0.992764 0.742483 0.271064
O O11 0.129583 0.765633 0.078512
O O12 0.041945 0.500000 0.787050
O O13 0.138104 0.273713 0.569673
O O14 0.000000 0.248143 0.000000
O O15 0.721381 0.212802 0.306593
O O16 0.616109 0.000000 0.591855
O O17 0.818982 0.270377 0.279957
O O18 0.814930 0.000000 0.183664
O O19 0.221779 0.500000 0.481452
#
# Coordination Sequence:
#
# PCOD8058617 Si02
#       7
#     4   4   4   4   4   4   4
#     4   9  17  30  49  74 100 124 159 204 245 286
#     4   9  16  28  48  72  97 128 164 197 235 291
#     4  10  20  35  53  72  97 133 174 205 236 292
#     4   9  16  30  52  73  94 126 168 206 239 284
#     4   8  15  28  47  69  94 127 160 194 241 292
#     4  10  19  32  51  75 104 129 160 206 255 291
#     4  10  18  31  53  75  98 129 167 204 246 292
#
# _framework density 18.418939999999999
#
# number of rings (size 3 to 8) (size 9 to 14) (size 15 to 20)
#    0.000    2.714    1.429    2.143    0.000    2.000 
#    2.571    2.143    0.000    8.143    0.000    0.000 
#    0.000    0.000    0.000    0.000    0.000    0.000 
#
# Total GULP energy -347023.082957 kJ/mol
# GULP energy per Si atom -12393.681534 kJ/mol
# Density = 1.837702 g / cm^3
# Si number density = 18.418940 Si / 1000 Ang^3
#
#
#
# Elastic Constant Matrix: (Units=GPa)
#
#
# Indices 1 2 3 4 5 6 
#
# 1 143.9119 18.8148 94.1944 0.0000 -6.8830 0.0000
# 2 18.8148 13.4159 18.1495 0.0000 -4.8477 0.0000
# 3 94.1944 18.1495 149.6124 0.0000 -10.4153 0.0000
# 4 0.0000 0.0000 0.0000 16.8839 0.0000 -6.2314
# 5 -6.8830 -4.8477 -10.4153 0.0000 29.7260 0.0000
# 6 0.0000 0.0000 0.0000 -6.2314 0.0000 15.9751
#
#
#
# Elastic Compliance Matrix: (Units=1/GPa)
#
#
# Indices 1 2 3 4 5 6 
#
# 1 0.012564 -0.008571 -0.006934 0.000000 -0.000918 0.000000
# 2 -0.008571 0.098687 -0.005733 0.000000 0.012101 0.000000
# 3 -0.006934 -0.005733 0.011858 0.000000 0.001614 0.000000
# 4 0.000000 0.000000 0.000000 0.069189 0.000000 0.026989
# 5 -0.000918 0.012101 0.001614 0.000000 0.035967 0.000000
# 6 0.000000 0.000000 0.000000 0.026989 0.000000 0.073125
#
#
# Mechanical properties :
#
#
# Convention : Reuss Voigt Hill
#
# Bulk Modulus (GPa) = 12.40202 63.25086 37.82644
# Shear Modulus (GPa) = 13.48639 24.23577 18.86108
#
# Velocity S-wave (km/s) = 2.70886 3.63134 3.20348
# Velocity P-wave (km/s) = 4.06593 7.21088 5.85357
#
# Compressibility (1/GPa) = 0.08063202
#
# Stress axis : x y z
#
# Youngs Moduli (GPa) = 79.59177 10.13300 84.33395
#
# Poissons Ratio (x) = 0.08685 0.58481
# Poissons Ratio (y) = 0.68218 0.48350
# Poissons Ratio (z) = 0.55192 0.05809
#
# Static dielectric constant tensor:
#      x y z
#    x 3.776460 0.000000 -0.047560 
#    y 0.000000 2.949550 0.000000 
#    z -0.047560 0.000000 3.478760 
# 
# 
# High freq. dielectric constant tensor:
#      x y z
#    x 1.717860 0.000000 -0.016950 
#    y 0.000000 1.669310 0.000000 
#    z -0.016950 0.000000 1.712280 
# 
# From -- ./inp_files/37961.got.cif
#   From: 2010.06.25/outbox.cif.g09.slc.cpg/sg10_19_cif.got.tgz:37961.got - 2010.06.27 22:07:45.
