data_PCOD8058723
_publ_section_title
;
Structure prediction by ZEFSAII (Michael W. Deem and Ramdas Pophale) SiO2 
 PCOD8058723
Probable space group: P 2/M
;
_chemical_formula_sum "Si O2"
_cell_formula_units_Z 18
_cell_length_a 9.222593
_cell_length_b 9.548289
_cell_length_c 11.470307
_cell_angle_alpha 90.000000
_cell_angle_beta 90.945635
_cell_angle_gamma 90.000000
_cell_volume 1009.937475
_symmetry_space_group_name_H-M "P 2/M"
_symmetry_group_IT_number 10
_symmetry_cell_setting 'monoclinic'
loop_
_space_group_symop_operation_xyz
x,y,z
-x,y,-z
-x,-y,-z
x,-y,z
loop_
_atom_site_type_symbol
_atom_site_label
_atom_site_fract_x
_atom_site_fract_y
_atom_site_fract_z
Si Si1 0.296219 0.657530 0.199194
Si Si2 0.500000 0.733167 0.000000
Si Si3 0.716036 0.839720 0.187739
Si Si4 0.515358 0.164777 0.634960
Si Si5 0.975993 0.156762 0.864500
O O1 0.260171 0.500000 0.239297
O O2 0.411587 0.644222 0.094496
O O3 0.354884 0.744986 0.309901
O O4 0.151346 0.734714 0.159009
O O5 0.618393 0.824585 0.070450
O O6 0.631814 0.787162 0.301589
O O7 0.875872 0.770601 0.183981
O O8 0.754168 0.000000 0.200372
O O9 0.500000 0.201751 0.500000
O O10 0.546326 0.000000 0.656337
O O11 0.941415 0.000000 0.812657
O O12 0.000000 0.138184 0.000000
#
# Coordination Sequence:
#
# PCOD8058723 Si02
#       5
#     4   2   4   4   4
#     4  11  22  34  51  77 108 141 172 209 258 310
#     4  10  18  32  48  76 105 138 171 210 255 312
#     4   9  17  30  53  79 104 132 170 215 260 303
#     4   9  19  37  59  79  99 131 177 223 259 297
#     4  10  19  33  51  77 108 140 171 207 255 310
#
# _framework density 17.822884999999999
#
# number of rings (size 3 to 8) (size 9 to 14) (size 15 to 20)
#    0.000    2.222    2.222    1.333    0.000    2.667 
#    0.000    2.222    0.000    6.667    0.000    0.000 
#    0.000    0.000    0.000    0.000    0.000    0.000 
#
# Total GULP energy -223030.067335 kJ/mol
# GULP energy per Si atom -12390.559296 kJ/mol
# Density = 1.778232 g / cm^3
# Si number density = 17.822885 Si / 1000 Ang^3
#
#
#
# Elastic Constant Matrix: (Units=GPa)
#
#
# Indices 1 2 3 4 5 6 
#
# 1 127.9823 51.9746 40.1710 0.0000 6.0975 0.0000
# 2 51.9746 77.9817 34.6634 0.0000 9.1510 0.0000
# 3 40.1710 34.6634 105.9023 0.0000 3.7904 0.0000
# 4 0.0000 0.0000 0.0000 8.7745 0.0000 -6.1353
# 5 6.0975 9.1510 3.7904 0.0000 19.0137 0.0000
# 6 0.0000 0.0000 0.0000 -6.1353 0.0000 7.2881
#
#
#
# Elastic Compliance Matrix: (Units=1/GPa)
#
#
# Indices 1 2 3 4 5 6 
#
# 1 0.011096 -0.006461 -0.002093 0.000000 -0.000031 0.000000
# 2 -0.006461 0.019555 -0.003714 0.000000 -0.006599 0.000000
# 3 -0.002093 -0.003714 0.011446 0.000000 0.000177 0.000000
# 4 0.000000 0.000000 0.000000 0.277037 0.000000 0.233217
# 5 -0.000031 -0.006599 0.000177 0.000000 0.055745 0.000000
# 6 0.000000 0.000000 0.000000 0.233217 0.000000 0.333539
#
#
# Mechanical properties :
#
#
# Convention : Reuss Voigt Hill
#
# Bulk Modulus (GPa) = 56.94405 62.83158 59.88781
# Shear Modulus (GPa) = 6.76767 19.35241 13.06004
#
# Velocity S-wave (km/s) = 1.95075 3.29875 2.70991
# Velocity P-wave (km/s) = 6.09042 7.05966 6.59288
#
# Compressibility (1/GPa) = 0.01756110
#
# Stress axis : x y z
#
# Youngs Moduli (GPa) = 90.12217 51.13733 87.36892
#
# Poissons Ratio (x) = 0.33042 0.18285
# Poissons Ratio (y) = 0.58232 0.32445
# Poissons Ratio (z) = 0.18862 0.18990
#
# Static dielectric constant tensor:
#      x y z
#    x 0.415840 0.000000 -0.778360 
#    y 0.000000 3.061940 0.000000 
#    z -0.778360 0.000000 3.074750 
# 
# 
# High freq. dielectric constant tensor:
#      x y z
#    x 1.700970 0.000000 -0.006380 
#    y 0.000000 1.666980 0.000000 
#    z -0.006380 0.000000 1.670230 
# 
# From -- ./inp_files/21571.got.cif
#   From: 2010.06.25/outbox.cif.g09.slc.cpg/sg10_11_cif.got.tgz:21571.got - 2010.06.27 22:07:45.
