data_PCOD8058083
_publ_section_title
;
Structure prediction by ZEFSAII (Michael W. Deem and Ramdas Pophale) SiO2 
 PCOD8058083
Probable space group: P 2/M
;
_chemical_formula_sum "Si O2"
_cell_formula_units_Z 32
_cell_length_a 12.265797
_cell_length_b 8.996788
_cell_length_c 21.765501
_cell_angle_alpha 90.000000
_cell_angle_beta 133.440911
_cell_angle_gamma 90.000000
_cell_volume 1743.968856
_symmetry_space_group_name_H-M "P 2/M"
_symmetry_group_IT_number 10
_symmetry_cell_setting 'monoclinic'
loop_
_space_group_symop_operation_xyz
x,y,z
-x,y,-z
-x,-y,-z
x,-y,z
loop_
_atom_site_type_symbol
_atom_site_label
_atom_site_fract_x
_atom_site_fract_y
_atom_site_fract_z
Si Si1 0.245052 0.173376 0.274331
Si Si2 0.495591 0.670418 0.299744
Si Si3 0.616808 0.824040 0.096605
Si Si4 0.953381 0.176507 0.360807
Si Si5 0.356438 0.328105 0.767955
Si Si6 0.223311 0.674128 0.513279
Si Si7 0.047928 0.824745 0.778789
Si Si8 0.330129 0.660206 0.422101
O O1 0.338455 0.251612 0.256371
O O2 0.320480 0.209551 0.368613
O O3 0.071843 0.232423 0.216081
O O4 0.250833 0.000000 0.262690
O O5 0.480472 0.500000 0.314613
O O6 0.516236 0.688209 0.234908
O O7 0.643347 0.736943 0.391594
O O8 0.575458 0.743508 0.144069
O O9 0.783239 0.773677 0.139042
O O10 0.608923 0.000000 0.104830
O O11 0.500000 0.771011 0.000000
O O12 0.790211 0.242528 0.312625
O O13 0.995166 0.229911 0.306949
O O14 0.064553 0.238975 0.457233
O O15 0.945526 0.000000 0.362150
O O16 0.315753 0.500000 0.763554
O O17 0.198249 0.500000 0.516482
O O18 0.260068 0.715031 0.457932
O O19 0.038658 0.000000 0.774946
O O20 0.500000 0.626266 0.500000
O O21 0.258955 0.500000 0.373020
#
# Coordination Sequence:
#
# PCOD8058083 Si02
#       8
#     4   4   4   4   4   4   4   4
#     4  11  20  30  48  73 103 135 173 220 263 306
#     4  10  22  38  50  67 101 145 186 219 257 307
#     4   9  18  36  63  88 109 132 158 199 260 321
#     4  10  19  33  51  72 104 136 173 225 271 310
#     4  10  21  37  56  76 103 137 174 215 257 310
#     4  10  19  31  48  68  95 137 186 226 263 306
#     4   8  16  30  48  76 107 130 158 205 258 305
#     4  10  18  30  46  65  95 136 182 227 261 300
#
# _framework density 18.348951
#
# number of rings (size 3 to 8) (size 9 to 14) (size 15 to 20)
#    0.000    2.250    2.500    1.875    0.000    2.500 
#    0.000    3.125    0.000    0.750    0.000    5.250 
#    0.000    0.000    0.000    0.000    0.000    0.000 
#
# Total GULP energy -396503.352794 kJ/mol
# GULP energy per Si atom -12390.729775 kJ/mol
# Density = 1.830719 g / cm^3
# Si number density = 18.348951 Si / 1000 Ang^3
#
#
#
# Elastic Constant Matrix: (Units=GPa)
#
#
# Indices 1 2 3 4 5 6 
#
# 1 110.0464 39.6616 51.3504 0.0000 1.7256 0.0000
# 2 39.6616 61.2302 30.3510 0.0000 -0.4186 0.0000
# 3 51.3504 30.3510 92.9967 0.0000 13.6234 0.0000
# 4 0.0000 0.0000 0.0000 20.0396 0.0000 -0.5466
# 5 1.7256 -0.4186 13.6234 0.0000 17.5709 0.0000
# 6 0.0000 0.0000 0.0000 -0.5466 0.0000 26.9736
#
#
#
# Elastic Compliance Matrix: (Units=1/GPa)
#
#
# Indices 1 2 3 4 5 6 
#
# 1 0.014164 -0.005998 -0.006361 0.000000 0.003398 0.000000
# 2 -0.005998 0.022618 -0.004778 0.000000 0.004832 0.000000
# 3 -0.006361 -0.004778 0.017768 0.000000 -0.013265 0.000000
# 4 0.000000 0.000000 0.000000 0.049929 0.000000 0.001012
# 5 0.003398 0.004832 -0.013265 0.000000 0.066979 0.000000
# 6 0.000000 0.000000 0.000000 0.001012 0.000000 0.037094
#
#
# Mechanical properties :
#
#
# Convention : Reuss Voigt Hill
#
# Bulk Modulus (GPa) = 49.31875 56.33327 52.82601
# Shear Modulus (GPa) = 20.03326 22.44416 21.23871
#
# Velocity S-wave (km/s) = 3.30781 3.50120 3.40588
# Velocity P-wave (km/s) = 6.44402 6.86384 6.65724
#
# Compressibility (1/GPa) = 0.02027626
#
# Stress axis : x y z
#
# Youngs Moduli (GPa) = 70.60221 44.21163 56.28061
#
# Poissons Ratio (x) = 0.26519 0.35801
# Poissons Ratio (y) = 0.42349 0.26889
# Poissons Ratio (z) = 0.44911 0.21123
#
# Static dielectric constant tensor:
#      x y z
#    x 3.566980 0.000000 0.178750 
#    y 0.000000 3.314230 0.000000 
#    z 0.178750 0.000000 3.185740 
# 
# 
# High freq. dielectric constant tensor:
#      x y z
#    x 1.717890 0.000000 0.009460 
#    y 0.000000 1.701900 0.000000 
#    z 0.009460 0.000000 1.671670 
# 
# From -- ./inp_files/83631.got.cif
#   From: 2010.06.25/outbox.cif.g09.slc.cpg/sg10_42_cif.got.tgz:83631.got - 2010.06.27 22:07:45.
