data_PCOD8058730
_publ_section_title
;
Structure prediction by ZEFSAII (Michael W. Deem and Ramdas Pophale) SiO2 
 PCOD8058730
Probable space group: P 2/M
;
_chemical_formula_sum "Si O2"
_cell_formula_units_Z 30
_cell_length_a 12.123656
_cell_length_b 14.189537
_cell_length_c 11.774677
_cell_angle_alpha 90.000000
_cell_angle_beta 57.401025
_cell_angle_gamma 90.000000
_cell_volume 1706.479877
_symmetry_space_group_name_H-M "P 2/M"
_symmetry_group_IT_number 10
_symmetry_cell_setting 'monoclinic'
loop_
_space_group_symop_operation_xyz
x,y,z
-x,y,-z
-x,-y,-z
x,-y,z
loop_
_atom_site_type_symbol
_atom_site_label
_atom_site_fract_x
_atom_site_fract_y
_atom_site_fract_z
Si Si1 0.236396 0.609055 0.108005
Si Si2 0.152614 0.602950 0.903981
Si Si3 0.500000 0.281448 0.000000
Si Si4 0.458687 0.239491 0.273071
Si Si5 0.988043 0.389328 0.381875
Si Si6 0.313057 0.731928 0.678897
Si Si7 0.634273 0.104769 0.494822
Si Si8 0.687793 0.389287 0.521251
O O1 0.248246 0.500000 0.133527
O O2 0.368959 0.657290 0.075090
O O3 0.105041 0.653108 0.239147
O O4 0.224439 0.625120 0.981135
O O5 0.201027 0.500000 0.831897
O O6 0.181770 0.684580 0.798425
O O7 0.000000 0.598588 0.000000
O O8 0.508796 0.220233 0.878176
O O9 0.592613 0.252313 0.267460
O O10 0.384266 0.149016 0.368929
O O11 0.370558 0.334892 0.335969
O O12 0.011543 0.500000 0.375000
O O13 0.000000 0.343977 0.500000
O O14 0.842343 0.368756 0.418101
O O15 0.273560 0.828000 0.633740
O O16 0.379677 0.659300 0.551409
O O17 0.500000 0.101673 0.500000
O O18 0.694582 0.000000 0.473835
O O19 0.655581 0.500000 0.550482
#
# Coordination Sequence:
#
# PCOD8058730 Si02
#       8
#     4   4   2   4   4   4   4   4
#     4  10  20  31  44  63  94 142 181 207 242 285
#     4  10  19  31  47  70 104 143 178 208 242 291
#     4  12  21  34  45  66 106 138 166 210 244 310
#     4  10  21  32  48  73 102 131 166 207 254 305
#     4   9  17  30  44  61  87 126 179 218 239 276
#     4  10  18  32  49  74 100 127 166 216 256 303
#     4   8  16  33  56  76  95 120 159 211 267 314
#     4  10  19  30  47  69  97 130 168 215 255 289
#
# _framework density 17.580048000000001
#
# number of rings (size 3 to 8) (size 9 to 14) (size 15 to 20)
#    0.000    2.267    1.333    3.400    0.000    5.867 
#    0.000    0.333    0.000    0.400    0.000    0.000 
#    0.000   48.000    0.000    0.000    0.000    0.000 
#
# Total GULP energy -371671.687396 kJ/mol
# GULP energy per Si atom -12389.056247 kJ/mol
# Density = 1.754004 g / cm^3
# Si number density = 17.580048 Si / 1000 Ang^3
#
#
#
# Elastic Constant Matrix: (Units=GPa)
#
#
# Indices 1 2 3 4 5 6 
#
# 1 52.7399 18.9526 25.3545 0.0000 11.2072 0.0000
# 2 18.9526 110.9578 61.2376 0.0000 7.9883 0.0000
# 3 25.3545 61.2376 118.6040 0.0000 10.5126 0.0000
# 4 0.0000 0.0000 0.0000 23.7693 0.0000 0.5029
# 5 11.2072 7.9883 10.5126 0.0000 25.5748 0.0000
# 6 0.0000 0.0000 0.0000 0.5029 0.0000 7.8224
#
#
#
# Elastic Compliance Matrix: (Units=1/GPa)
#
#
# Indices 1 2 3 4 5 6 
#
# 1 0.022855 -0.001425 -0.003427 0.000000 -0.008162 0.000000
# 2 -0.001425 0.012735 -0.006199 0.000000 -0.000805 0.000000
# 3 -0.003427 -0.006199 0.012516 0.000000 -0.001707 0.000000
# 4 0.000000 0.000000 0.000000 0.042128 0.000000 -0.002708
# 5 -0.008162 -0.000805 -0.001707 0.000000 0.043631 0.000000
# 6 0.000000 0.000000 0.000000 -0.002708 0.000000 0.128013
#
#
# Mechanical properties :
#
#
# Convention : Reuss Voigt Hill
#
# Bulk Modulus (GPa) = 38.45572 54.82122 46.63847
# Shear Modulus (GPa) = 17.08537 23.21710 20.15124
#
# Velocity S-wave (km/s) = 3.12085 3.63802 3.38931
# Velocity P-wave (km/s) = 5.90833 6.99274 6.47328
#
# Compressibility (1/GPa) = 0.02600393
#
# Stress axis : x y z
#
# Youngs Moduli (GPa) = 43.75461 78.52189 79.89693
#
# Poissons Ratio (x) = 0.11190 0.27377
# Poissons Ratio (y) = 0.06236 0.49532
# Poissons Ratio (z) = 0.14993 0.48679
#
# Static dielectric constant tensor:
#      x y z
#    x 1.753840 0.000000 -1.379930 
#    y 0.000000 3.217110 0.000000 
#    z -1.379930 0.000000 1.956300 
# 
# 
# High freq. dielectric constant tensor:
#      x y z
#    x 1.672540 0.000000 0.008490 
#    y 0.000000 1.628810 0.000000 
#    z 0.008490 0.000000 1.690410 
# 
# From -- ./inp_files/47359.got.cif
#   From: 2010.06.25/outbox.cif.g09.slc.cpg/sg10_24_cif.got.tgz:47359.got - 2010.06.27 22:07:45.
