data_PCOD8058164
_publ_section_title
;
Structure prediction by ZEFSAII (Michael W. Deem and Ramdas Pophale) SiO2 
 PCOD8058164
Probable space group: P 2/M
;
_chemical_formula_sum "Si O2"
_cell_formula_units_Z 22
_cell_length_a 15.951429
_cell_length_b 10.751784
_cell_length_c 19.838876
_cell_angle_alpha 90.000000
_cell_angle_beta 162.500150
_cell_angle_gamma 90.000000
_cell_volume 1023.140762
_symmetry_space_group_name_H-M "P 2/M"
_symmetry_group_IT_number 10
_symmetry_cell_setting 'monoclinic'
loop_
_space_group_symop_operation_xyz
x,y,z
-x,y,-z
-x,-y,-z
x,-y,z
loop_
_atom_site_type_symbol
_atom_site_label
_atom_site_fract_x
_atom_site_fract_y
_atom_site_fract_z
Si Si1 0.208948 0.262851 0.975628
Si Si2 0.710453 0.134223 0.297801
Si Si3 0.500000 0.811637 0.000000
Si Si4 0.376819 0.857898 0.479224
Si Si5 0.077449 0.634251 0.735171
Si Si6 0.461206 0.642170 0.296267
O O1 0.166559 0.358174 0.882057
O O2 0.955962 0.164189 0.779130
O O3 0.513556 0.200744 0.200643
O O4 0.215447 0.331317 0.053378
O O5 0.000000 0.205486 0.500000
O O6 0.789098 0.000000 0.389529
O O7 0.537984 0.109669 0.096545
O O8 0.778602 0.730953 0.203790
O O9 0.500000 0.845354 0.500000
O O10 0.535801 0.751404 0.644962
O O11 0.425429 0.000000 0.544282
O O12 0.171405 0.500000 0.781165
O O13 0.748188 0.650619 0.475554
O O14 0.421008 0.500000 0.295093
#
# Coordination Sequence:
#
# PCOD8058164 Si02
#       6
#     4   4   2   4   4   4
#     4  10  20  36  57  82 112 148 187 231 286 338
#     4  10  20  32  48  74 107 143 185 230 276 330
#     4  10  18  30  48  70 102 144 188 232 278 324
#     4  10  23  42  62  86 115 148 190 237 284 340
#     4   9  18  32  51  77 109 145 187 232 278 332
#     4  10  21  38  61  87 116 150 188 234 288 343
#
# _framework density 21.502417000000001
#
# number of rings (size 3 to 8) (size 9 to 14) (size 15 to 20)
#    0.000    2.182    0.000    2.727    0.000    3.273 
#    0.000    7.273    0.000    8.727    0.000    0.000 
#    0.000    0.000    0.000    0.000    0.000    0.000 
#
# Total GULP energy -272548.652947 kJ/mol
# GULP energy per Si atom -12388.575134 kJ/mol
# Density = 2.145348 g / cm^3
# Si number density = 21.502417 Si / 1000 Ang^3
#
#
#
# Elastic Constant Matrix: (Units=GPa)
#
#
# Indices 1 2 3 4 5 6 
#
# 1 68.8006 35.0612 14.9752 0.0000 -1.8000 0.0000
# 2 35.0612 130.3059 15.4479 0.0000 -14.3618 0.0000
# 3 14.9752 15.4479 54.8961 0.0000 -12.1044 0.0000
# 4 0.0000 0.0000 0.0000 13.6980 0.0000 7.8414
# 5 -1.8000 -14.3618 -12.1044 0.0000 36.7911 0.0000
# 6 0.0000 0.0000 0.0000 7.8414 0.0000 -78.6046
#
#
#
# Elastic Compliance Matrix: (Units=1/GPa)
#
#
# Indices 1 2 3 4 5 6 
#
# 1 0.017658 -0.004518 -0.004037 0.000000 -0.002228 0.000000
# 2 -0.004518 0.009323 -0.000687 0.000000 0.003192 0.000000
# 3 -0.004037 -0.000687 0.020926 0.000000 0.006419 0.000000
# 4 0.000000 0.000000 0.000000 0.069059 0.000000 0.006889
# 5 -0.002228 0.003192 0.006419 0.000000 0.030430 0.000000
# 6 0.000000 0.000000 0.000000 0.006889 0.000000 -0.012035
#
#
# Mechanical properties :
#
#
# Convention : Reuss Voigt Hill
#
# Bulk Modulus (GPa) = 33.98699 42.77459 38.38079
# Shear Modulus (GPa) = 30.55250 6.94480 18.74865
#
# Velocity S-wave (km/s) = 3.77355 1.79911 2.95605
# Velocity P-wave (km/s) = 5.90142 4.92461 5.43500
#
# Compressibility (1/GPa) = 0.02942302
#
# Stress axis : x y z
#
# Youngs Moduli (GPa) = 56.63303 107.25893 47.78716
#
# Poissons Ratio (x) = 0.48460 0.19290
# Poissons Ratio (y) = 0.25587 0.03284
# Poissons Ratio (z) = 0.22861 0.07371
#
# Static dielectric constant tensor:
#      x y z
#    x 3.641040 0.000000 0.097830 
#    y 0.000000 3.908680 0.000000 
#    z 0.097830 0.000000 3.829590 
# 
# 
# High freq. dielectric constant tensor:
#      x y z
#    x 1.829490 0.000000 0.000760 
#    y 0.000000 1.840760 0.000000 
#    z 0.000760 0.000000 1.843840 
# 
# From -- ./inp_files/78158.got.cif
#   From: 2010.06.25/outbox.cif.g09.slc.cpg/sg10_40_cif.got.tgz:78158.got - 2010.06.27 22:07:45.
