data_PCOD8058264
_publ_section_title
;
Structure prediction by ZEFSAII (Michael W. Deem and Ramdas Pophale) SiO2 
 PCOD8058264
Probable space group: P 2/M
;
_chemical_formula_sum "Si O2"
_cell_formula_units_Z 28
_cell_length_a 18.873789
_cell_length_b 8.699892
_cell_length_c 10.805632
_cell_angle_alpha 90.000000
_cell_angle_beta 55.915185
_cell_angle_gamma 90.000000
_cell_volume 1469.477762
_symmetry_space_group_name_H-M "P 2/M"
_symmetry_group_IT_number 10
_symmetry_cell_setting 'monoclinic'
loop_
_space_group_symop_operation_xyz
x,y,z
-x,y,-z
-x,-y,-z
x,-y,z
loop_
_atom_site_type_symbol
_atom_site_label
_atom_site_fract_x
_atom_site_fract_y
_atom_site_fract_z
Si Si1 0.941830 0.817863 0.671980
Si Si2 0.578531 0.326740 0.015336
Si Si3 0.746595 0.179455 0.875492
Si Si4 0.760626 0.323952 0.115993
Si Si5 0.042743 0.677496 0.082131
Si Si6 0.618697 0.324185 0.427696
Si Si7 0.517899 0.175334 0.311745
O O1 0.843117 0.760480 0.748980
O O2 0.981223 0.757465 0.763522
O O3 0.000000 0.758597 0.500000
O O4 0.943071 0.000000 0.677663
O O5 0.589998 0.500000 0.054543
O O6 0.550718 0.203083 0.143441
O O7 0.500000 0.322515 0.000000
O O8 0.671531 0.268306 0.871646
O O9 0.739447 0.000000 0.854570
O O10 0.726911 0.214149 0.039306
O O11 0.740642 0.500000 0.097590
O O12 0.715420 0.282835 0.291216
O O13 0.858976 0.296109 0.042322
O O14 0.016536 0.500000 0.121735
O O15 0.000000 0.749513 0.000000
O O16 0.611181 0.500000 0.477791
O O17 0.563977 0.294343 0.357325
O O18 0.583984 0.216390 0.573411
O O19 0.534708 0.000000 0.333690
#
# Coordination Sequence:
#
# PCOD8058264 Si02
#       7
#     4   4   4   4   4   4   4
#     4   9  19  36  57  82 112 145 181 220 271 333
#     4  11  23  38  54  72 100 139 179 219 267 323
#     4  10  19  32  54  79 103 134 176 224 264 311
#     4   9  17  30  51  75 103 138 173 213 258 311
#     4   9  18  33  53  80 111 141 178 224 270 316
#     4  10  18  30  50  73 101 134 168 207 255 304
#     4  11  21  32  49  73 101 129 166 212 256 301
#
# _framework density 19.054387999999999
#
# number of rings (size 3 to 8) (size 9 to 14) (size 15 to 20)
#    0.000    2.143    1.429    3.429    0.000    2.857 
#    0.000    1.429    0.000    5.143    0.000    0.000 
#    0.000    0.000    0.000    0.000    0.000    0.000 
#
# Total GULP energy -346896.645400 kJ/mol
# GULP energy per Si atom -12389.165907 kJ/mol
# Density = 1.901102 g / cm^3
# Si number density = 19.054388 Si / 1000 Ang^3
#
#
#
# Elastic Constant Matrix: (Units=GPa)
#
#
# Indices 1 2 3 4 5 6 
#
# 1 92.6624 26.7031 42.2975 0.0000 -4.6279 0.0000
# 2 26.7031 56.6285 26.7223 0.0000 -4.5701 0.0000
# 3 42.2975 26.7223 116.5992 0.0000 -10.8645 0.0000
# 4 0.0000 0.0000 0.0000 26.4757 0.0000 -1.1571
# 5 -4.6279 -4.5701 -10.8645 0.0000 20.5166 0.0000
# 6 0.0000 0.0000 0.0000 -1.1571 0.0000 19.4548
#
#
#
# Elastic Compliance Matrix: (Units=1/GPa)
#
#
# Indices 1 2 3 4 5 6 
#
# 1 0.013968 -0.004705 -0.003990 0.000000 -0.000010 0.000000
# 2 -0.004705 0.021472 -0.003016 0.000000 0.002124 0.000000
# 3 -0.003990 -0.003016 0.011117 0.000000 0.004315 0.000000
# 4 0.000000 0.000000 0.000000 0.037869 0.000000 0.002252
# 5 -0.000010 0.002124 0.004315 0.000000 0.051497 0.000000
# 6 0.000000 0.000000 0.000000 0.002252 0.000000 0.051535
#
#
# Mechanical properties :
#
#
# Convention : Reuss Voigt Hill
#
# Bulk Modulus (GPa) = 43.22309 50.81507 47.01908
# Shear Modulus (GPa) = 22.87354 24.63390 23.75372
#
# Velocity S-wave (km/s) = 3.46849 3.59948 3.53459
# Velocity P-wave (km/s) = 6.22686 6.63335 6.43332
#
# Compressibility (1/GPa) = 0.02313578
#
# Stress axis : x y z
#
# Youngs Moduli (GPa) = 71.58996 46.57153 89.95133
#
# Poissons Ratio (x) = 0.21911 0.35889
# Poissons Ratio (y) = 0.33682 0.27133
# Poissons Ratio (z) = 0.28563 0.14048
#
# Static dielectric constant tensor:
#      x y z
#    x 3.501380 0.000000 -0.345860 
#    y 0.000000 3.434890 0.000000 
#    z -0.345860 0.000000 4.079010 
# 
# 
# High freq. dielectric constant tensor:
#      x y z
#    x 1.712460 0.000000 -0.026820 
#    y 0.000000 1.737190 0.000000 
#    z -0.026820 0.000000 1.740730 
# 
# From -- ./inp_files/54719.got.cif
#   From: 2010.06.25/outbox.cif.g09.slc.cpg/sg10_28_cif.got.tgz:54719.got - 2010.06.27 22:07:45.
