data_PCOD8058687
_publ_section_title
;
Structure prediction by ZEFSAII (Michael W. Deem and Ramdas Pophale) SiO2 
 PCOD8058687
Probable space group: P 2/M
;
_chemical_formula_sum "Si O2"
_cell_formula_units_Z 32
_cell_length_a 21.610139
_cell_length_b 9.072915
_cell_length_c 28.017220
_cell_angle_alpha 90.000000
_cell_angle_beta 161.163079
_cell_angle_gamma 90.000000
_cell_volume 1773.636943
_symmetry_space_group_name_H-M "P 2/M"
_symmetry_group_IT_number 10
_symmetry_cell_setting 'monoclinic'
loop_
_space_group_symop_operation_xyz
x,y,z
-x,y,-z
-x,-y,-z
x,-y,z
loop_
_atom_site_type_symbol
_atom_site_label
_atom_site_fract_x
_atom_site_fract_y
_atom_site_fract_z
Si Si1 0.957711 0.831423 0.666703
Si Si2 0.289807 0.171287 0.841703
Si Si3 0.287120 0.671344 0.587156
Si Si4 0.425756 0.327021 0.352552
Si Si5 0.936347 0.672866 0.846276
Si Si6 0.015253 0.824923 0.456910
Si Si7 0.188934 0.828764 0.338092
Si Si8 0.324109 0.328064 0.174592
O O1 0.811792 0.723349 0.533876
O O2 0.945020 0.801864 0.713566
O O3 0.173656 0.799620 0.805940
O O4 0.901468 0.000000 0.612835
O O5 0.167173 0.233567 0.707106
O O6 0.320975 0.000000 0.854597
O O7 0.500000 0.247557 0.000000
O O8 0.243816 0.500000 0.562792
O O9 0.513267 0.702779 0.746395
O O10 0.209443 0.759129 0.576249
O O11 0.473359 0.500000 0.385673
O O12 0.245855 0.292348 0.254444
O O13 0.605150 0.244845 0.505984
O O14 0.382137 0.260158 0.268258
O O15 0.957136 0.500000 0.850966
O O16 0.924192 0.756482 0.787677
O O17 0.123725 0.737347 0.009811
O O18 0.000000 0.768764 0.500000
O O19 0.031010 0.000000 0.465752
O O20 0.221314 0.000000 0.351717
O O21 0.295636 0.500000 0.163117
#
# Coordination Sequence:
#
# PCOD8058687 Si02
#       8
#     4   4   4   4   4   4   4   4
#     4   9  18  33  52  74 101 135 173 208 249 303
#     4   8  14  28  51  73  93 122 165 208 240 280
#     4  10  18  31  55  80 102 132 171 213 256 302
#     4  10  19  35  59  79  96 132 182 220 256 311
#     4  10  21  36  54  76 104 136 173 219 264 309
#     4   9  18  33  51  75 104 135 170 206 246 297
#     4  11  22  35  51  76 110 140 170 213 263 314
#     4   9  18  34  55  79 103 131 174 221 263 306
#
# _framework density 18.042023
#
# number of rings (size 3 to 8) (size 9 to 14) (size 15 to 20)
#    0.000    2.500    1.250    2.250    0.000    4.250 
#    2.250    1.875    0.000    7.500    0.000    0.000 
#    0.000    0.000    0.000    0.000    0.000    0.000 
#
# Total GULP energy -396751.036555 kJ/mol
# GULP energy per Si atom -12398.469892 kJ/mol
# Density = 1.800096 g / cm^3
# Si number density = 18.042023 Si / 1000 Ang^3
#
#
#
# Elastic Constant Matrix: (Units=GPa)
#
#
# Indices 1 2 3 4 5 6 
#
# 1 119.9108 32.6467 42.0908 0.0000 -3.6730 0.0000
# 2 32.6467 35.2370 20.2814 0.0000 3.1273 0.0000
# 3 42.0908 20.2814 92.8063 0.0000 4.7898 0.0000
# 4 0.0000 0.0000 0.0000 10.8991 0.0000 1.6685
# 5 -3.6730 3.1273 4.7898 0.0000 27.5675 0.0000
# 6 0.0000 0.0000 0.0000 1.6685 0.0000 27.8245
#
#
#
# Elastic Compliance Matrix: (Units=1/GPa)
#
#
# Indices 1 2 3 4 5 6 
#
# 1 0.012355 -0.009632 -0.003673 0.000000 0.003377 0.000000
# 2 -0.009632 0.040140 -0.004139 0.000000 -0.005118 0.000000
# 3 -0.003673 -0.004139 0.013467 0.000000 -0.002360 0.000000
# 4 0.000000 0.000000 0.000000 0.092601 0.000000 -0.005553
# 5 0.003377 -0.005118 -0.002360 0.000000 0.037715 0.000000
# 6 0.000000 0.000000 0.000000 -0.005553 0.000000 0.036273
#
#
# Mechanical properties :
#
#
# Convention : Reuss Voigt Hill
#
# Bulk Modulus (GPa) = 32.18171 48.66576 40.42373
# Shear Modulus (GPa) = 17.99883 23.45392 20.72637
#
# Velocity S-wave (km/s) = 3.16192 3.60941 3.39305
# Velocity P-wave (km/s) = 5.58624 6.66352 6.14852
#
# Compressibility (1/GPa) = 0.03107355
#
# Stress axis : x y z
#
# Youngs Moduli (GPa) = 80.94197 24.91280 74.25506
#
# Poissons Ratio (x) = 0.23997 0.27270
# Poissons Ratio (y) = 0.77965 0.30736
# Poissons Ratio (z) = 0.29726 0.10312
#
# Static dielectric constant tensor:
#      x y z
#    x 3.481690 0.000000 0.033900 
#    y 0.000000 3.102770 0.000000 
#    z 0.033900 0.000000 3.468440 
# 
# 
# High freq. dielectric constant tensor:
#      x y z
#    x 1.708070 0.000000 0.007120 
#    y 0.000000 1.671070 0.000000 
#    z 0.007120 0.000000 1.694460 
# 
# From -- ./inp_files/86879.got.cif
#   From: 2010.06.25/outbox.cif.g09.slc.cpg/sg10_44_cif.got.tgz:86879.got - 2010.06.27 22:07:45.
