data_PCOD8058896
_publ_section_title
;
Structure prediction by ZEFSAII (Michael W. Deem and Ramdas Pophale) SiO2 
 PCOD8058896
Probable space group: P 2/M
;
_chemical_formula_sum "Si O2"
_cell_formula_units_Z 30
_cell_length_a 14.503089
_cell_length_b 9.596435
_cell_length_c 12.444382
_cell_angle_alpha 90.000000
_cell_angle_beta 106.897715
_cell_angle_gamma 90.000000
_cell_volume 1657.205502
_symmetry_space_group_name_H-M "P 2/M"
_symmetry_group_IT_number 10
_symmetry_cell_setting 'monoclinic'
loop_
_space_group_symop_operation_xyz
x,y,z
-x,y,-z
-x,-y,-z
x,-y,z
loop_
_atom_site_type_symbol
_atom_site_label
_atom_site_fract_x
_atom_site_fract_y
_atom_site_fract_z
Si Si1 0.690511 0.340391 0.306617
Si Si2 0.224223 0.661647 0.891600
Si Si3 0.526943 0.654491 0.740960
Si Si4 0.835807 0.161308 0.753298
Si Si5 0.500000 0.251388 0.500000
Si Si6 0.295209 0.843446 0.487780
Si Si7 0.308678 0.163279 0.106410
Si Si8 0.992670 0.338255 0.120594
O O1 0.707303 0.500000 0.344732
O O2 0.750240 0.299761 0.221543
O O3 0.577965 0.312300 0.245655
O O4 0.729883 0.250417 0.418612
O O5 0.247052 0.500000 0.925368
O O6 0.112511 0.695288 0.870256
O O7 0.289347 0.758539 0.988696
O O8 0.561773 0.500000 0.788818
O O9 0.522116 0.652498 0.609998
O O10 0.596138 0.774204 0.807479
O O11 0.767575 0.211534 0.633419
O O12 0.781559 0.189264 0.846660
O O13 0.932737 0.251183 0.782655
O O14 0.863414 0.000000 0.750898
O O15 0.592397 0.156290 0.506165
O O16 0.265949 0.000000 0.507549
O O17 0.326390 0.000000 0.091749
O O18 0.019594 0.500000 0.140569
O O19 0.000000 0.289290 0.000000
#
# Coordination Sequence:
#
# PCOD8058896 Si02
#       8
#     4   4   4   4   2   4   4   4
#     4   9  21  39  57  79 109 149 188 224 269 325
#     4  10  21  40  60  79 110 144 182 230 278 326
#     4  10  20  34  53  80 111 147 188 224 268 320
#     4  10  21  36  53  82 116 144 174 220 279 330
#     4  10  18  32  54  82 110 144 186 228 270 318
#     4  10  20  35  56  81 112 147 183 225 271 321
#     4  11  22  35  54  83 115 146 182 221 274 330
#     4  10  20  35  58  86 106 135 182 230 278 326
#
# _framework density 18.102764000000001
#
# number of rings (size 3 to 8) (size 9 to 14) (size 15 to 20)
#    0.000    2.000    2.667    0.800    0.000    5.600 
#    0.000    3.333    0.000    4.000    0.000    0.000 
#    0.000    0.000    0.000    0.000    0.000    0.000 
#
# Total GULP energy -372080.351952 kJ/mol
# GULP energy per Si atom -12402.678398 kJ/mol
# Density = 1.806156 g / cm^3
# Si number density = 18.102764 Si / 1000 Ang^3
#
#
#
# Elastic Constant Matrix: (Units=GPa)
#
#
# Indices 1 2 3 4 5 6 
#
# 1 96.4638 42.8252 60.6745 0.0000 -8.8148 0.0000
# 2 42.8252 85.3431 58.7456 0.0000 3.9576 0.0000
# 3 60.6745 58.7456 116.9806 0.0000 0.3188 0.0000
# 4 0.0000 0.0000 0.0000 35.2681 0.0000 4.2296
# 5 -8.8148 3.9576 0.3188 0.0000 31.7300 0.0000
# 6 0.0000 0.0000 0.0000 4.2296 0.0000 23.7448
#
#
#
# Elastic Compliance Matrix: (Units=1/GPa)
#
#
# Indices 1 2 3 4 5 6 
#
# 1 0.016893 -0.004096 -0.006719 0.000000 0.005271 0.000000
# 2 -0.004096 0.019048 -0.007432 0.000000 -0.003439 0.000000
# 3 -0.006719 -0.007432 0.015769 0.000000 -0.001098 0.000000
# 4 0.000000 0.000000 0.000000 0.028973 0.000000 -0.005161
# 5 0.005271 -0.003439 -0.001098 0.000000 0.033420 0.000000
# 6 0.000000 0.000000 0.000000 -0.005161 0.000000 0.043034
#
#
# Mechanical properties :
#
#
# Convention : Reuss Voigt Hill
#
# Bulk Modulus (GPa) = 65.72296 69.25313 67.48804
# Shear Modulus (GPa) = 25.16322 27.25140 26.20731
#
# Velocity S-wave (km/s) = 3.73234 3.88412 3.80899
# Velocity P-wave (km/s) = 7.41338 7.64551 7.53034
#
# Compressibility (1/GPa) = 0.01521538
#
# Stress axis : x y z
#
# Youngs Moduli (GPa) = 59.19545 52.49940 63.41754
#
# Poissons Ratio (x) = 0.21505 0.42612
# Poissons Ratio (y) = 0.24248 0.47129
# Poissons Ratio (z) = 0.39775 0.39015
#
# Static dielectric constant tensor:
#      x y z
#    x 3.288310 0.000000 -0.039940 
#    y 0.000000 3.265580 0.000000 
#    z -0.039940 0.000000 3.288640 
# 
# 
# High freq. dielectric constant tensor:
#      x y z
#    x 1.693830 0.000000 0.001970 
#    y 0.000000 1.702210 0.000000 
#    z 0.001970 0.000000 1.698350 
# 
# From -- ./inp_files/50018.got.cif
#   From: 2010.06.25/outbox.cif.g09.slc.cpg/sg10_26_cif.got.tgz:50018.got - 2010.06.27 22:07:45.
