data_PCOD8058030
_publ_section_title
;
Structure prediction by ZEFSAII (Michael W. Deem and Ramdas Pophale) SiO2 
 PCOD8058030
Probable space group: P 2/M
;
_chemical_formula_sum "Si O2"
_cell_formula_units_Z 30
_cell_length_a 28.782781
_cell_length_b 14.533532
_cell_length_c 12.204038
_cell_angle_alpha 90.000000
_cell_angle_beta 19.915709
_cell_angle_gamma 90.000000
_cell_volume 1739.000585
_symmetry_space_group_name_H-M "P 2/M"
_symmetry_group_IT_number 10
_symmetry_cell_setting 'monoclinic'
loop_
_space_group_symop_operation_xyz
x,y,z
-x,y,-z
-x,-y,-z
x,-y,z
loop_
_atom_site_type_symbol
_atom_site_label
_atom_site_fract_x
_atom_site_fract_y
_atom_site_fract_z
Si Si1 0.315639 0.600959 0.219863
Si Si2 0.157523 0.218320 0.624476
Si Si3 0.640348 0.171713 0.644709
Si Si4 0.608766 0.894235 0.484596
Si Si5 0.356731 0.600258 0.877330
Si Si6 0.703630 0.893473 0.860073
Si Si7 0.500000 0.346572 0.000000
Si Si8 0.660159 0.788431 0.164655
O O1 0.245230 0.500000 0.374658
O O2 0.208448 0.677377 0.495572
O O3 0.437200 0.594530 0.040072
O O4 0.374731 0.623297 0.967336
O O5 0.235213 0.161125 0.547030
O O6 0.183269 0.162488 0.456852
O O7 0.000000 0.221627 0.000000
O O8 0.680135 0.123737 0.442687
O O9 0.613286 0.281106 0.690365
O O10 0.500000 0.123984 0.000000
O O11 0.686921 0.827138 0.226625
O O12 0.627035 0.000000 0.407185
O O13 0.448100 0.869417 0.847842
O O14 0.500000 0.591381 0.500000
O O15 0.281852 0.500000 0.029703
O O16 0.275725 0.685985 0.999747
O O17 0.736706 0.000000 0.776325
O O18 0.721111 0.863434 0.946894
O O19 0.500000 0.779571 0.500000
#
# Coordination Sequence:
#
# PCOD8058030 Si02
#       8
#     4   4   4   4   4   4   2   4
#     4  10  18  32  51  76 105 136 169 209 256 303
#     4  11  22  36  51  74 104 138 175 210 252 302
#     4   9  18  32  51  72 101 136 171 209 255 299
#     4  10  18  29  50  78 103 132 169 211 260 307
#     4   9  17  26  45  74 105 133 162 203 259 307
#     4  10  18  31  49  73 101 133 168 210 260 304
#     4   8  17  28  47  72 102 134 167 202 257 294
#     4   9  17  27  47  71 106 129 164 211 256 303
#
# _framework density 17.251287000000001
#
# number of rings (size 3 to 8) (size 9 to 14) (size 15 to 20)
#    0.400    2.000    2.667    0.600    3.733    2.933 
#    0.000    0.000    0.000    0.800    0.000    1.867 
#    0.000    2.133    0.000    0.000    0.000    0.000 
#
# Total GULP energy -371674.544431 kJ/mol
# GULP energy per Si atom -12389.151481 kJ/mol
# Density = 1.721202 g / cm^3
# Si number density = 17.251287 Si / 1000 Ang^3
#
#
#
# Elastic Constant Matrix: (Units=GPa)
#
#
# Indices 1 2 3 4 5 6 
#
# 1 106.3381 39.1571 42.4579 0.0000 22.9255 0.0000
# 2 39.1571 104.7257 27.9742 0.0000 14.4904 0.0000
# 3 42.4579 27.9742 70.8027 0.0000 6.4512 0.0000
# 4 0.0000 0.0000 0.0000 5.7714 0.0000 6.4391
# 5 22.9255 14.4904 6.4512 0.0000 18.8262 0.0000
# 6 0.0000 0.0000 0.0000 6.4391 0.0000 24.8155
#
#
#
# Elastic Compliance Matrix: (Units=1/GPa)
#
#
# Indices 1 2 3 4 5 6 
#
# 1 0.016716 -0.001928 -0.007786 0.000000 -0.016204 0.000000
# 2 -0.001928 0.011870 -0.003009 0.000000 -0.005757 0.000000
# 3 -0.007786 -0.003009 0.019516 0.000000 0.005109 0.000000
# 4 0.000000 0.000000 0.000000 0.243871 0.000000 -0.063280
# 5 -0.016204 -0.005757 0.005109 0.000000 0.075530 0.000000
# 6 0.000000 0.000000 0.000000 -0.063280 0.000000 0.056717
#
#
# Mechanical properties :
#
#
# Convention : Reuss Voigt Hill
#
# Bulk Modulus (GPa) = 44.13863 55.67165 49.90514
# Shear Modulus (GPa) = 10.93570 21.36774 16.15172
#
# Velocity S-wave (km/s) = 2.52048 3.52322 3.06316
# Velocity P-wave (km/s) = 5.84052 6.99227 6.44219
#
# Compressibility (1/GPa) = 0.02265589
#
# Stress axis : x y z
#
# Youngs Moduli (GPa) = 59.82270 84.24522 51.24036
#
# Poissons Ratio (x) = 0.16246 0.39894
# Poissons Ratio (y) = 0.11536 0.15418
# Poissons Ratio (z) = 0.46576 0.25349
#
# Static dielectric constant tensor:
#      x y z
#    x 3.190520 0.000000 0.262910 
#    y 0.000000 3.553830 0.000000 
#    z 0.262910 0.000000 2.692860 
# 
# 
# High freq. dielectric constant tensor:
#      x y z
#    x 1.662630 0.000000 0.036050 
#    y 0.000000 1.682830 0.000000 
#    z 0.036050 0.000000 1.599040 
# 
# From -- ./inp_files/57786.got.cif
#   From: 2010.06.25/outbox.cif.g09.slc.cpg/sg10_29_cif.got.tgz:57786.got - 2010.06.27 22:07:45.
