data_PCOD8058498
_publ_section_title
;
Structure prediction by ZEFSAII (Michael W. Deem and Ramdas Pophale) SiO2 
 PCOD8058498
Probable space group: P 2/M
;
_chemical_formula_sum "Si O2"
_cell_formula_units_Z 30
_cell_length_a 15.693223
_cell_length_b 20.544425
_cell_length_c 16.342083
_cell_angle_alpha 90.000000
_cell_angle_beta 161.780697
_cell_angle_gamma 90.000000
_cell_volume 1647.323347
_symmetry_space_group_name_H-M "P 2/M"
_symmetry_group_IT_number 10
_symmetry_cell_setting 'monoclinic'
loop_
_space_group_symop_operation_xyz
x,y,z
-x,y,-z
-x,-y,-z
x,-y,z
loop_
_atom_site_type_symbol
_atom_site_label
_atom_site_fract_x
_atom_site_fract_y
_atom_site_fract_z
Si Si1 0.598685 0.648995 0.326133
Si Si2 0.254971 0.146055 0.602760
Si Si3 0.295404 0.721045 0.737926
Si Si4 0.315661 0.074586 0.910824
Si Si5 0.005098 0.248197 0.100148
Si Si6 0.807858 0.500000 0.748052
Si Si7 0.021532 0.615079 0.833275
Si Si8 0.432133 0.784722 0.610060
O O1 0.615704 0.666031 0.245796
O O2 0.576407 0.713923 0.358492
O O3 0.868886 0.613525 0.606150
O O4 0.339930 0.601304 0.105385
O O5 0.294968 0.208374 0.696452
O O6 0.497461 0.095366 0.842390
O O7 0.285497 0.163706 0.535441
O O8 0.956684 0.116940 0.346045
O O9 0.000000 0.701702 0.500000
O O10 0.500000 0.721627 0.000000
O O11 0.226030 0.000000 0.839208
O O12 0.500000 0.086030 0.000000
O O13 0.990362 0.315868 0.133647
O O14 0.276979 0.212571 0.381021
O O15 0.751023 0.200231 0.887840
O O16 0.000000 0.263266 0.000000
O O17 0.500000 0.500000 0.500000
O O18 0.872590 0.563445 0.754558
O O19 0.000000 0.500000 0.000000
#
# Coordination Sequence:
#
# PCOD8058498 Si02
#       8
#     4   4   4   4   4   2   4   4
#     4   9  19  34  50  71 102 134 166 202 253 306
#     4  11  20  34  50  70 105 136 165 208 251 292
#     4  11  20  31  52  80 102 129 170 213 256 297
#     4  11  22  34  49  71 101 139 176 204 237 287
#     4  10  18  31  50  73 103 132 159 196 250 304
#     4  12  24  36  54  82 106 132 178 214 236 288
#     4  10  20  35  51  72 103 139 166 199 246 296
#     4   9  19  31  48  72  98 131 165 200 246 304
#
# _framework density 18.211361
#
# number of rings (size 3 to 8) (size 9 to 14) (size 15 to 20)
#    0.000    1.733    0.000    6.000    0.000    7.467 
#    0.000    0.000    0.000    0.000    0.000    9.333 
#    0.000   37.333    0.000    0.000    0.000    0.000 
#
# Total GULP energy -371904.431971 kJ/mol
# GULP energy per Si atom -12396.814399 kJ/mol
# Density = 1.816991 g / cm^3
# Si number density = 18.211361 Si / 1000 Ang^3
#
#
#
# Elastic Constant Matrix: (Units=GPa)
#
#
# Indices 1 2 3 4 5 6 
#
# 1 87.6158 31.1423 64.5971 0.0000 -2.1972 0.0000
# 2 31.1423 54.1069 40.7253 0.0000 3.6070 0.0000
# 3 64.5971 40.7253 166.2952 0.0000 -4.5995 0.0000
# 4 0.0000 0.0000 0.0000 14.4533 0.0000 0.5949
# 5 -2.1972 3.6070 -4.5995 0.0000 37.3927 0.0000
# 6 0.0000 0.0000 0.0000 0.5949 0.0000 20.7822
#
#
#
# Elastic Compliance Matrix: (Units=1/GPa)
#
#
# Indices 1 2 3 4 5 6 
#
# 1 0.017517 -0.006187 -0.005262 0.000000 0.000979 0.000000
# 2 -0.006187 0.025157 -0.003848 0.000000 -0.003264 0.000000
# 3 -0.005262 -0.003848 0.009032 0.000000 0.001173 0.000000
# 4 0.000000 0.000000 0.000000 0.069270 0.000000 -0.001983
# 5 0.000979 -0.003264 0.001173 0.000000 0.027260 0.000000
# 6 0.000000 0.000000 0.000000 -0.001983 0.000000 0.048175
#
#
# Mechanical properties :
#
#
# Convention : Reuss Voigt Hill
#
# Bulk Modulus (GPa) = 47.36593 64.54971 55.95782
# Shear Modulus (GPa) = 21.36381 25.96252 23.66317
#
# Velocity S-wave (km/s) = 3.42878 3.77984 3.60858
# Velocity P-wave (km/s) = 6.46071 7.38724 6.93945
#
# Compressibility (1/GPa) = 0.02111222
#
# Stress axis : x y z
#
# Youngs Moduli (GPa) = 57.08855 39.75112 110.71425
#
# Poissons Ratio (x) = 0.24592 0.58260
# Poissons Ratio (y) = 0.35318 0.42601
# Poissons Ratio (z) = 0.30041 0.15296
#
# Static dielectric constant tensor:
#      x y z
#    x 3.352320 0.000000 0.025150 
#    y 0.000000 3.097440 0.000000 
#    z 0.025150 0.000000 3.796540 
# 
# 
# High freq. dielectric constant tensor:
#      x y z
#    x 1.699080 0.000000 -0.000370 
#    y 0.000000 1.661600 0.000000 
#    z -0.000370 0.000000 1.735850 
# 
# From -- ./inp_files/67875.got.cif
#   From: 2010.06.25/outbox.cif.g09.slc.cpg/sg10_34_cif.got.tgz:67875.got - 2010.06.27 22:07:45.
