data_PCOD8058300
_publ_section_title
;
Structure prediction by ZEFSAII (Michael W. Deem and Ramdas Pophale) SiO2 
 PCOD8058300
Probable space group: P 2/M
;
_chemical_formula_sum "Si O2"
_cell_formula_units_Z 32
_cell_length_a 21.066542
_cell_length_b 9.312744
_cell_length_c 11.784436
_cell_angle_alpha 90.000000
_cell_angle_beta 127.984963
_cell_angle_gamma 90.000000
_cell_volume 1822.220341
_symmetry_space_group_name_H-M "P 2/M"
_symmetry_group_IT_number 10
_symmetry_cell_setting 'monoclinic'
loop_
_space_group_symop_operation_xyz
x,y,z
-x,y,-z
-x,-y,-z
x,-y,z
loop_
_atom_site_type_symbol
_atom_site_label
_atom_site_fract_x
_atom_site_fract_y
_atom_site_fract_z
Si Si1 0.164902 0.834161 0.741656
Si Si2 0.422970 0.835056 0.267252
Si Si3 0.286375 0.667369 0.012915
Si Si4 0.134311 0.832644 0.448632
Si Si5 0.243626 0.329805 0.400194
Si Si6 0.835947 0.333916 0.921442
Si Si7 0.955305 0.167223 0.193181
Si Si8 0.395759 0.834688 0.496766
O O1 0.243038 0.739536 0.857499
O O2 0.136750 0.799478 0.584374
O O3 0.090851 0.792005 0.741794
O O4 0.188691 0.000000 0.783063
O O5 0.400974 0.790617 0.371082
O O6 0.517601 0.811333 0.349340
O O7 0.399187 0.000000 0.219875
O O8 0.374423 0.735728 0.126257
O O9 0.296046 0.500000 0.999322
O O10 0.235297 0.701033 0.069406
O O11 0.201821 0.737027 0.463849
O O12 0.047404 0.784364 0.306767
O O13 0.150551 0.000000 0.441888
O O14 0.249184 0.500000 0.418544
O O15 0.192877 0.283402 0.233741
O O16 0.333409 0.267707 0.491788
O O17 0.858693 0.500000 0.948101
O O18 0.916417 0.248263 0.043266
O O19 0.948468 0.000000 0.160226
O O20 0.368557 0.000000 0.478809
#
# Coordination Sequence:
#
# PCOD8058300 Si02
#       8
#     4   4   4   4   4   4   4   4
#     4   9  18  34  55  76  99 129 168 216 263 301
#     4   9  17  30  51  79 106 132 165 205 251 298
#     4  10  18  30  50  77 107 135 167 206 249 300
#     4  10  21  36  53  74  99 131 173 216 258 303
#     4  11  22  35  50  71 105 143 174 203 245 304
#     4   9  19  33  47  70 104 138 167 201 249 302
#     4   9  18  33  55  78  97 124 167 219 262 299
#     4   9  18  32  51  76 105 135 168 206 246 295
#
# _framework density 17.560994999999998
#
# number of rings (size 3 to 8) (size 9 to 14) (size 15 to 20)
#    0.000    2.500    1.250    1.875    0.000    5.000 
#    0.000    3.750    0.000    4.500    0.000    5.250 
#    0.000    0.000    0.000    0.000    0.000    0.000 
#
# Total GULP energy -396881.015688 kJ/mol
# GULP energy per Si atom -12402.531740 kJ/mol
# Density = 1.752103 g / cm^3
# Si number density = 17.560995 Si / 1000 Ang^3
#
#
#
# Elastic Constant Matrix: (Units=GPa)
#
#
# Indices 1 2 3 4 5 6 
#
# 1 75.7486 37.2507 23.7777 0.0000 14.2403 0.0000
# 2 37.2507 68.2755 35.8203 0.0000 15.2290 0.0000
# 3 23.7777 35.8203 58.7154 0.0000 22.8152 0.0000
# 4 0.0000 0.0000 0.0000 25.7470 0.0000 -1.9684
# 5 14.2403 15.2290 22.8152 0.0000 24.9358 0.0000
# 6 0.0000 0.0000 0.0000 -1.9684 0.0000 18.8561
#
#
#
# Elastic Compliance Matrix: (Units=1/GPa)
#
#
# Indices 1 2 3 4 5 6 
#
# 1 0.018591 -0.008966 -0.000095 0.000000 -0.005054 0.000000
# 2 -0.008966 0.025915 -0.012442 0.000000 0.000677 0.000000
# 3 -0.000095 -0.012442 0.033650 0.000000 -0.023136 0.000000
# 4 0.000000 0.000000 0.000000 0.039152 0.000000 0.004087
# 5 -0.005054 0.000677 -0.023136 0.000000 0.063744 0.000000
# 6 0.000000 0.000000 0.000000 0.004087 0.000000 0.053460
#
#
# Mechanical properties :
#
#
# Convention : Reuss Voigt Hill
#
# Bulk Modulus (GPa) = 28.44953 44.04853 36.24903
# Shear Modulus (GPa) = 17.28708 20.96717 19.12712
#
# Velocity S-wave (km/s) = 3.14092 3.45912 3.30386
# Velocity P-wave (km/s) = 5.42120 6.41028 5.93638
#
# Compressibility (1/GPa) = 0.03514997
#
# Stress axis : x y z
#
# Youngs Moduli (GPa) = 53.79065 38.58793 29.71754
#
# Poissons Ratio (x) = 0.34597 0.00282
# Poissons Ratio (y) = 0.48228 0.36975
# Poissons Ratio (z) = 0.00511 0.48012
#
# Static dielectric constant tensor:
#      x y z
#    x 3.048500 0.000000 0.120000 
#    y 0.000000 3.193580 0.000000 
#    z 0.120000 0.000000 3.263060 
# 
# 
# High freq. dielectric constant tensor:
#      x y z
#    x 1.656150 0.000000 0.014480 
#    y 0.000000 1.677520 0.000000 
#    z 0.014480 0.000000 1.677970 
# 
# From -- ./inp_files/49767.got.cif
#   From: 2010.06.25/outbox.cif.g09.slc.cpg/sg10_25_cif.got.tgz:49767.got - 2010.06.27 22:07:45.
