data_PCOD8058326
_publ_section_title
;
Structure prediction by ZEFSAII (Michael W. Deem and Ramdas Pophale) SiO2 
 PCOD8058326
Probable space group: P 2/M
;
_chemical_formula_sum "Si O2"
_cell_formula_units_Z 24
_cell_length_a 25.808616
_cell_length_b 12.888882
_cell_length_c 11.642466
_cell_angle_alpha 90.000000
_cell_angle_beta 161.256696
_cell_angle_gamma 90.000000
_cell_volume 1244.441803
_symmetry_space_group_name_H-M "P 2/M"
_symmetry_group_IT_number 10
_symmetry_cell_setting 'monoclinic'
loop_
_space_group_symop_operation_xyz
x,y,z
-x,y,-z
-x,-y,-z
x,-y,z
loop_
_atom_site_type_symbol
_atom_site_label
_atom_site_fract_x
_atom_site_fract_y
_atom_site_fract_z
Si Si1 0.290164 0.615322 0.173373
Si Si2 0.176307 0.118760 0.318529
Si Si3 0.267468 0.806363 0.270852
Si Si4 0.670939 0.000000 0.001062
Si Si5 0.709942 0.000000 0.828265
Si Si6 0.648927 0.194112 0.100890
Si Si7 0.671488 0.615357 0.001720
O O1 0.227774 0.500000 0.075465
O O2 0.210907 0.698691 0.093129
O O3 0.481162 0.621012 0.585381
O O4 0.244926 0.640518 0.945736
O O5 0.172128 0.178498 0.188945
O O6 0.298603 0.180227 0.657665
O O7 0.236156 0.000000 0.427271
O O8 0.000000 0.121886 0.000000
O O9 0.218943 0.898191 0.082582
O O10 0.456882 0.807206 0.694391
O O11 0.763541 0.000000 0.073868
O O12 0.481659 0.000000 0.582519
O O13 0.723972 0.100744 0.183706
O O14 0.722829 0.300764 0.204969
O O15 0.722158 0.500000 0.149846
#
# Coordination Sequence:
#
# PCOD8058326 Si02
#       7
#     4   4   4   2   2   4   4
#     4   8  14  26  47  77 108 131 153 190 242 292
#     4  11  23  37  50  65  94 134 169 204 249 292
#     4  10  18  30  51  75  98 126 163 201 237 284
#     4   9  16  25  43  74 102 119 146 195 246 285
#     4   9  16  25  43  74 102 119 146 195 246 285
#     4  10  18  30  51  75  98 126 163 201 237 284
#     4   8  14  26  47  77 108 131 153 190 242 292
#
# _framework density 19.285755000000002
#
# number of rings (size 3 to 8) (size 9 to 14) (size 15 to 20)
#    0.000    2.667    1.667    2.500    0.000    4.667 
#    0.000    0.833    0.000   11.000    0.000    2.333 
#    0.000    0.000    0.000    0.000    0.000    0.000 
#
# Total GULP energy -297546.864608 kJ/mol
# GULP energy per Si atom -12397.786025 kJ/mol
# Density = 1.924186 g / cm^3
# Si number density = 19.285755 Si / 1000 Ang^3
#
#
#
# Elastic Constant Matrix: (Units=GPa)
#
#
# Indices 1 2 3 4 5 6 
#
# 1 145.1451 80.9585 5.4382 0.0000 -13.4812 0.0000
# 2 80.9585 162.1219 8.0423 0.0000 -6.9375 0.0000
# 3 5.4382 8.0423 7.1070 0.0000 -0.1124 0.0000
# 4 0.0000 0.0000 0.0000 10.1468 0.0000 -6.5853
# 5 -13.4812 -6.9375 -0.1124 0.0000 11.2079 0.0000
# 6 0.0000 0.0000 0.0000 -6.5853 0.0000 32.8409
#
#
#
# Elastic Compliance Matrix: (Units=1/GPa)
#
#
# Indices 1 2 3 4 5 6 
#
# 1 0.010513 -0.004707 -0.002564 0.000000 0.009706 0.000000
# 2 -0.004707 0.008824 -0.006388 0.000000 -0.000264 0.000000
# 3 -0.002564 -0.006388 0.149809 0.000000 -0.005536 0.000000
# 4 0.000000 0.000000 0.000000 0.113298 0.000000 0.022719
# 5 0.009706 -0.000264 -0.005536 0.000000 0.100678 0.000000
# 6 0.000000 0.000000 0.000000 0.022719 0.000000 0.035005
#
#
# Mechanical properties :
#
#
# Convention : Reuss Voigt Hill
#
# Bulk Modulus (GPa) = 7.05083 55.91689 31.48386
# Shear Modulus (GPa) = 10.14772 25.50145 17.82459
#
# Velocity S-wave (km/s) = 2.29634 3.64028 3.04342
# Velocity P-wave (km/s) = 3.27030 6.83562 5.35820
#
# Compressibility (1/GPa) = 0.14182736
#
# Stress axis : x y z
#
# Youngs Moduli (GPa) = 95.12224 113.32179 6.67518
#
# Poissons Ratio (x) = 0.53343 0.01712
# Poissons Ratio (y) = 0.44776 0.04264
# Poissons Ratio (z) = 0.24390 0.72389
#
# Static dielectric constant tensor:
#      x y z
#    x 3.571160 0.000000 -0.215090 
#    y 0.000000 3.860600 0.000000 
#    z -0.215090 0.000000 2.993770 
# 
# 
# High freq. dielectric constant tensor:
#      x y z
#    x 1.748180 0.000000 -0.012870 
#    y 0.000000 1.754400 0.000000 
#    z -0.012870 0.000000 1.699930 
# 
# From -- ./inp_files/50622.got.cif
#   From: 2010.06.25/outbox.cif.g09.slc.cpg/sg10_26_cif.got.tgz:50622.got - 2010.06.27 22:07:45.
