data_PCOD8058205
_publ_section_title
;
Structure prediction by ZEFSAII (Michael W. Deem and Ramdas Pophale) SiO2 
 PCOD8058205
Probable space group: P 2/M
;
_chemical_formula_sum "Si O2"
_cell_formula_units_Z 32
_cell_length_a 15.509363
_cell_length_b 8.810033
_cell_length_c 14.465551
_cell_angle_alpha 90.000000
_cell_angle_beta 90.708404
_cell_angle_gamma 90.000000
_cell_volume 1976.392882
_symmetry_space_group_name_H-M "P 2/M"
_symmetry_group_IT_number 10
_symmetry_cell_setting 'monoclinic'
loop_
_space_group_symop_operation_xyz
x,y,z
-x,y,-z
-x,-y,-z
x,-y,z
loop_
_atom_site_type_symbol
_atom_site_label
_atom_site_fract_x
_atom_site_fract_y
_atom_site_fract_z
Si Si1 0.672133 0.819755 0.710613
Si Si2 0.512821 0.322359 0.606838
Si Si3 0.597684 0.180268 0.898849
Si Si4 0.351230 0.821095 0.704524
Si Si5 0.000939 0.167233 0.390310
Si Si6 0.404148 0.820886 0.900771
Si Si7 0.173327 0.677869 0.389945
Si Si8 0.185412 0.820960 0.588407
O O1 0.597448 0.764611 0.641359
O O2 0.655024 0.758354 0.814757
O O3 0.763751 0.753731 0.682813
O O4 0.675477 0.000000 0.705604
O O5 0.500000 0.281730 0.500000
O O6 0.526613 0.500000 0.623010
O O7 0.429237 0.268446 0.660443
O O8 0.500457 0.242963 0.884972
O O9 0.597826 0.000000 0.893736
O O10 0.632796 0.237431 0.000213
O O11 0.344529 0.774559 0.813052
O O12 0.262130 0.770674 0.656689
O O13 0.368515 0.000000 0.693042
O O14 0.075367 0.281558 0.358342
O O15 0.000000 0.156793 0.500000
O O16 0.904620 0.223813 0.361386
O O17 0.019871 0.000000 0.348732
O O18 0.411486 0.000000 0.907906
O O19 0.185937 0.500000 0.387253
O O20 0.196761 0.735169 0.492224
O O21 0.186352 0.000000 0.567014
#
# Coordination Sequence:
#
# PCOD8058205 Si02
#       8
#     4   4   4   4   4   4   4   4
#     4  11  20  32  49  67  87 120 158 189 225 270
#     4  11  23  34  42  59  92 128 157 187 221 259
#     4   8  14  25  45  69  90 112 144 189 232 266
#     4  10  18  30  49  70  90 119 154 185 221 270
#     4   8  15  30  48  66  90 118 150 190 229 265
#     4   8  13  25  45  70  92 110 143 189 230 267
#     4  11  21  31  45  67  94 123 153 189 229 269
#     4   9  18  31  48  70  94 121 154 189 223 265
#
# _framework density 16.191112
#
# number of rings (size 3 to 8) (size 9 to 14) (size 15 to 20)
#    0.000    2.500    1.250    4.125    0.000    5.750 
#    0.000    0.000    0.000    2.250    0.000    0.875 
#    0.000    7.000    0.000    0.000    0.000    0.000 
#
# Total GULP energy -396585.034637 kJ/mol
# GULP energy per Si atom -12393.282332 kJ/mol
# Density = 1.615426 g / cm^3
# Si number density = 16.191112 Si / 1000 Ang^3
#
#
#
# Elastic Constant Matrix: (Units=GPa)
#
#
# Indices 1 2 3 4 5 6 
#
# 1 81.9340 20.4211 41.5770 0.0000 -19.2716 0.0000
# 2 20.4211 50.8983 30.4076 0.0000 -9.9115 0.0000
# 3 41.5770 30.4076 109.7690 0.0000 -14.1886 0.0000
# 4 0.0000 0.0000 0.0000 2.8002 0.0000 1.1455
# 5 -19.2716 -9.9115 -14.1886 0.0000 14.8319 0.0000
# 6 0.0000 0.0000 0.0000 1.1455 0.0000 10.6591
#
#
#
# Elastic Compliance Matrix: (Units=1/GPa)
#
#
# Indices 1 2 3 4 5 6 
#
# 1 0.019543 -0.001234 -0.004433 0.000000 0.020328 0.000000
# 2 -0.001234 0.025252 -0.005196 0.000000 0.010300 0.000000
# 3 -0.004433 -0.005196 0.012592 0.000000 0.002814 0.000000
# 4 0.000000 0.000000 0.000000 0.373542 0.000000 -0.040142
# 5 0.020328 0.010300 0.002814 0.000000 0.103410 0.000000
# 6 0.000000 0.000000 0.000000 -0.040142 0.000000 0.098131
#
#
# Mechanical properties :
#
#
# Convention : Reuss Voigt Hill
#
# Bulk Modulus (GPa) = 28.04194 47.49028 37.76611
# Shear Modulus (GPa) = 7.50656 15.67127 11.58891
#
# Velocity S-wave (km/s) = 2.15552 3.11447 2.67827
# Velocity P-wave (km/s) = 4.85304 6.50600 5.73934
#
# Compressibility (1/GPa) = 0.03566087
#
# Stress axis : x y z
#
# Youngs Moduli (GPa) = 51.16841 39.60018 79.41380
#
# Poissons Ratio (x) = 0.04888 0.35203
# Poissons Ratio (y) = 0.06316 0.41266
# Poissons Ratio (z) = 0.22683 0.20578
#
# Static dielectric constant tensor:
#      x y z
#    x 3.340270 0.000000 0.035420 
#    y 0.000000 2.867980 0.000000 
#    z 0.035420 0.000000 3.306590 
# 
# 
# High freq. dielectric constant tensor:
#      x y z
#    x 1.613020 0.000000 -0.002940 
#    y 0.000000 1.603550 0.000000 
#    z -0.002940 0.000000 1.609140 
# 
# From -- ./inp_files/66034.got.cif
#   From: 2010.06.25/outbox.cif.g09.slc.cpg/sg10_34_cif.got.tgz:66034.got - 2010.06.27 22:07:45.
