data_PCOD8058745
_publ_section_title
;
Structure prediction by ZEFSAII (Michael W. Deem and Ramdas Pophale) SiO2 
 PCOD8058745
Probable space group: P 2/M
;
_chemical_formula_sum "Si O2"
_cell_formula_units_Z 30
_cell_length_a 29.677728
_cell_length_b 9.174118
_cell_length_c 12.142592
_cell_angle_alpha 90.000000
_cell_angle_beta 29.648886
_cell_angle_gamma 90.000000
_cell_volume 1635.437120
_symmetry_space_group_name_H-M "P 2/M"
_symmetry_group_IT_number 10
_symmetry_cell_setting 'monoclinic'
loop_
_space_group_symop_operation_xyz
x,y,z
-x,y,-z
-x,-y,-z
x,-y,z
loop_
_atom_site_type_symbol
_atom_site_label
_atom_site_fract_x
_atom_site_fract_y
_atom_site_fract_z
Si Si1 0.586322 0.173578 0.696704
Si Si2 0.256289 0.831316 0.801652
Si Si3 0.000000 0.256277 0.500000
Si Si4 0.046636 0.673544 0.793279
Si Si5 0.233007 0.328570 0.306176
Si Si6 0.191352 0.836105 0.173209
Si Si7 0.397255 0.325193 0.115015
Si Si8 0.911358 0.339889 0.902139
O O1 0.646937 0.204051 0.459592
O O2 0.491249 0.253590 0.875092
O O3 0.573585 0.000000 0.743726
O O4 0.631521 0.248726 0.708596
O O5 0.232769 0.000000 0.845988
O O6 0.249556 0.779948 0.943197
O O7 0.178751 0.754569 0.894969
O O8 0.082372 0.163881 0.380085
O O9 0.047781 0.355122 0.306887
O O10 0.045736 0.500000 0.800812
O O11 0.149934 0.728662 0.558890
O O12 0.988574 0.731904 0.813842
O O13 0.000000 0.742276 0.000000
O O14 0.226330 0.500000 0.302627
O O15 0.225153 0.261678 0.201868
O O16 0.324976 0.285106 0.173936
O O17 0.219288 0.000000 0.143154
O O18 0.406422 0.500000 0.111792
O O19 0.885183 0.500000 0.000528
#
# Coordination Sequence:
#
# PCOD8058745 Si02
#       8
#     4   4   2   4   4   4   4   4
#     4  10  20  38  61  82 109 142 179 223 271 327
#     4   9  21  37  53  77 110 141 176 225 274 317
#     4  10  18  32  50  76 108 140 180 228 268 306
#     4   9  18  32  49  72 105 142 177 211 258 316
#     4  10  21  37  55  79 112 143 178 225 270 319
#     4  10  20  35  55  77 105 144 186 224 268 319
#     4  10  21  36  59  86 112 140 176 224 275 323
#     4  10  19  30  52  78 102 140 183 220 261 314
#
# _framework density 18.343720999999999
#
# number of rings (size 3 to 8) (size 9 to 14) (size 15 to 20)
#    0.000    2.267    1.333    2.000    1.867    4.800 
#    0.000    0.667    0.000    4.800    0.000    0.000 
#    0.000    0.000    0.000    0.000    0.000    0.000 
#
# Total GULP energy -371793.662008 kJ/mol
# GULP energy per Si atom -12393.122067 kJ/mol
# Density = 1.830197 g / cm^3
# Si number density = 18.343721 Si / 1000 Ang^3
#
#
#
# Elastic Constant Matrix: (Units=GPa)
#
#
# Indices 1 2 3 4 5 6 
#
# 1 142.3925 46.1704 66.8073 0.0000 -7.7371 0.0000
# 2 46.1704 66.2087 42.7463 0.0000 -2.9074 0.0000
# 3 66.8073 42.7463 132.3958 0.0000 7.3332 0.0000
# 4 0.0000 0.0000 0.0000 23.7097 0.0000 2.3979
# 5 -7.7371 -2.9074 7.3332 0.0000 23.5860 0.0000
# 6 0.0000 0.0000 0.0000 2.3979 0.0000 18.1780
#
#
#
# Elastic Compliance Matrix: (Units=1/GPa)
#
#
# Indices 1 2 3 4 5 6 
#
# 1 0.010685 -0.004590 -0.004144 0.000000 0.004228 0.000000
# 2 -0.004590 0.021500 -0.004771 0.000000 0.002628 0.000000
# 3 -0.004144 -0.004771 0.011490 0.000000 -0.005520 0.000000
# 4 0.000000 0.000000 0.000000 0.042747 0.000000 -0.005639
# 5 0.004228 0.002628 -0.005520 0.000000 0.045825 0.000000
# 6 0.000000 0.000000 0.000000 -0.005639 0.000000 0.055755
#
#
# Mechanical properties :
#
#
# Convention : Reuss Voigt Hill
#
# Bulk Modulus (GPa) = 60.00418 72.49389 66.24903
# Shear Modulus (GPa) = 22.66865 25.44629 24.05747
#
# Velocity S-wave (km/s) = 3.51917 3.72854 3.62537
# Velocity P-wave (km/s) = 7.02102 7.62506 7.32927
#
# Compressibility (1/GPa) = 0.01666551
#
# Stress axis : x y z
#
# Youngs Moduli (GPa) = 93.58796 46.51055 87.02978
#
# Poissons Ratio (x) = 0.21349 0.36064
# Poissons Ratio (y) = 0.42959 0.41523
# Poissons Ratio (z) = 0.38782 0.22191
#
# Static dielectric constant tensor:
#      x y z
#    x 3.396460 0.000000 0.086200 
#    y 0.000000 3.222350 0.000000 
#    z 0.086200 0.000000 3.517210 
# 
# 
# High freq. dielectric constant tensor:
#      x y z
#    x 1.707860 0.000000 0.005840 
#    y 0.000000 1.698270 0.000000 
#    z 0.005840 0.000000 1.713190 
# 
# From -- ./inp_files/57991.got.cif
#   From: 2010.06.25/outbox.cif.g09.slc.cpg/sg10_29_cif.got.tgz:57991.got - 2010.06.27 22:07:45.
