data_PCOD8058073
_publ_section_title
;
Structure prediction by ZEFSAII (Michael W. Deem and Ramdas Pophale) SiO2 
 PCOD8058073
Probable space group: P 2/M
;
_chemical_formula_sum "Si O2"
_cell_formula_units_Z 32
_cell_length_a 7.636476
_cell_length_b 14.473642
_cell_length_c 28.708195
_cell_angle_alpha 90.000000
_cell_angle_beta 142.743690
_cell_angle_gamma 90.000000
_cell_volume 1920.905308
_symmetry_space_group_name_H-M "P 2/M"
_symmetry_group_IT_number 10
_symmetry_cell_setting 'monoclinic'
loop_
_space_group_symop_operation_xyz
x,y,z
-x,y,-z
-x,-y,-z
x,-y,z
loop_
_atom_site_type_symbol
_atom_site_label
_atom_site_fract_x
_atom_site_fract_y
_atom_site_fract_z
Si Si1 0.893894 0.891610 0.701705
Si Si2 0.740348 0.786701 0.846765
Si Si3 0.533389 0.600916 0.914546
Si Si4 0.349205 0.212955 0.850420
Si Si5 0.942291 0.399142 0.911832
Si Si6 0.251805 0.109122 0.585299
Si Si7 0.288477 0.105121 0.998248
Si Si8 0.291705 0.892071 0.698867
O O1 0.562766 0.856798 0.631926
O O2 0.047880 0.839544 0.777786
O O3 0.036612 0.868846 0.681669
O O4 0.917268 0.000000 0.717651
O O5 0.485760 0.773454 0.829217
O O6 0.863798 0.684420 0.859777
O O7 0.592276 0.837325 0.771700
O O8 0.988384 0.848221 0.921785
O O9 0.377409 0.500000 0.882620
O O10 0.302089 0.685097 0.863539
O O11 0.742330 0.607089 0.914667
O O12 0.725762 0.612942 0.001737
O O13 0.567663 0.153571 0.927364
O O14 0.903165 0.500000 0.879254
O O15 0.191510 0.137867 0.626072
O O16 0.000000 0.153933 0.500000
O O17 0.240785 0.000000 0.578245
O O18 0.224280 0.000000 0.998554
O O19 0.500000 0.112916 0.000000
O O20 0.370154 0.000000 0.717622
#
# Coordination Sequence:
#
# PCOD8058073 Si02
#       8
#     4   4   4   4   4   4   4   4
#     4   9  18  30  45  67  93 120 151 188 226 267
#     4  10  18  30  46  63  85 117 154 189 226 265
#     4   8  13  23  41  63  84 109 147 191 228 262
#     4  10  18  30  46  63  85 117 154 189 226 265
#     4   8  13  23  41  63  84 109 147 191 228 262
#     4   9  18  32  50  69  90 119 148 177 224 281
#     4  11  23  31  38  57  84 120 161 193 220 259
#     4   9  18  30  45  67  93 120 151 188 226 267
#
# _framework density 16.658811
#
# number of rings (size 3 to 8) (size 9 to 14) (size 15 to 20)
#    0.000    2.750    1.250    1.875    1.750    2.500 
#    0.000    2.500    0.000    1.500    0.000    0.000 
#    0.000    2.000    0.000    9.750    0.000    0.250 
#
# Total GULP energy -396516.221747 kJ/mol
# GULP energy per Si atom -12391.131930 kJ/mol
# Density = 1.662090 g / cm^3
# Si number density = 16.658811 Si / 1000 Ang^3
#
#
#
# Elastic Constant Matrix: (Units=GPa)
#
#
# Indices 1 2 3 4 5 6 
#
# 1 43.1360 16.2308 23.2443 0.0000 10.1963 0.0000
# 2 16.2308 108.9901 48.0877 0.0000 5.6647 0.0000
# 3 23.2443 48.0877 111.3072 0.0000 18.4903 0.0000
# 4 0.0000 0.0000 0.0000 8.5997 0.0000 -0.2373
# 5 10.1963 5.6647 18.4903 0.0000 9.9928 0.0000
# 6 0.0000 0.0000 0.0000 -0.2373 0.0000 1.4519
#
#
#
# Elastic Compliance Matrix: (Units=1/GPa)
#
#
# Indices 1 2 3 4 5 6 
#
# 1 0.031553 -0.003001 -0.000328 0.000000 -0.029888 0.000000
# 2 -0.003001 0.011722 -0.005548 0.000000 0.006682 0.000000
# 3 -0.000328 -0.005548 0.015696 0.000000 -0.025564 0.000000
# 4 0.000000 0.000000 0.000000 0.116810 0.000000 0.019088
# 5 -0.029888 0.006682 -0.025564 0.000000 0.174083 0.000000
# 6 0.000000 0.000000 0.000000 0.019088 0.000000 0.691855
#
#
# Mechanical properties :
#
#
# Convention : Reuss Voigt Hill
#
# Bulk Modulus (GPa) = 24.26087 48.72878 36.49483
# Shear Modulus (GPa) = 4.65891 15.73358 10.19625
#
# Velocity S-wave (km/s) = 1.67414 3.07654 2.47668
# Velocity P-wave (km/s) = 4.28159 6.47570 5.48938
#
# Compressibility (1/GPa) = 0.04121863
#
# Stress axis : x y z
#
# Youngs Moduli (GPa) = 31.69274 85.30616 63.71009
#
# Poissons Ratio (x) = 0.25599 0.02089
# Poissons Ratio (y) = 0.09510 0.35345
# Poissons Ratio (z) = 0.01039 0.47326
#
# Static dielectric constant tensor:
#      x y z
#    x 3.013120 0.000000 0.014170 
#    y 0.000000 3.452460 0.000000 
#    z 0.014170 0.000000 3.160820 
# 
# 
# High freq. dielectric constant tensor:
#      x y z
#    x 1.636250 0.000000 -0.000560 
#    y 0.000000 1.628190 0.000000 
#    z -0.000560 0.000000 1.609570 
# 
# From -- ./inp_files/29487.got.cif
#   From: 2010.06.25/outbox.cif.g09.slc.cpg/sg10_15_cif.got.tgz:29487.got - 2010.06.27 22:07:45.
