data_PCOD8058097
_publ_section_title
;
Structure prediction by ZEFSAII (Michael W. Deem and Ramdas Pophale) SiO2 
 PCOD8058097
Probable space group: P 2/M
;
_chemical_formula_sum "Si O2"
_cell_formula_units_Z 32
_cell_length_a 15.256619
_cell_length_b 8.866007
_cell_length_c 15.135126
_cell_angle_alpha 90.000000
_cell_angle_beta 79.454820
_cell_angle_gamma 90.000000
_cell_volume 2012.680892
_symmetry_space_group_name_H-M "P 2/M"
_symmetry_group_IT_number 10
_symmetry_cell_setting 'monoclinic'
loop_
_space_group_symop_operation_xyz
x,y,z
-x,y,-z
-x,-y,-z
x,-y,z
loop_
_atom_site_type_symbol
_atom_site_label
_atom_site_fract_x
_atom_site_fract_y
_atom_site_fract_z
Si Si1 0.566082 0.821358 0.115497
Si Si2 0.302674 0.823098 0.583347
Si Si3 0.888135 0.178959 0.436382
Si Si4 0.746035 0.179602 0.745904
Si Si5 0.425154 0.677710 0.702472
Si Si6 0.919572 0.179433 0.626945
Si Si7 0.375576 0.178645 0.081077
Si Si8 0.389196 0.176224 0.379307
O O1 0.600135 0.737989 0.195982
O O2 0.465141 0.768802 0.114302
O O3 0.572194 0.000000 0.129337
O O4 0.626687 0.767484 0.020555
O O5 0.200544 0.763127 0.596015
O O6 0.346611 0.728937 0.652781
O O7 0.352567 0.788433 0.482864
O O8 0.307437 0.000000 0.604814
O O9 0.892145 0.241837 0.535591
O O10 0.978962 0.230926 0.368410
O O11 0.882913 0.000000 0.442668
O O12 0.846843 0.241099 0.711155
O O13 0.709052 0.240416 0.847156
O O14 0.682010 0.236107 0.678970
O O15 0.746235 0.000000 0.745626
O O16 0.430063 0.500000 0.704103
O O17 0.518286 0.739616 0.650040
O O18 0.915831 0.000000 0.625448
O O19 0.376837 0.000000 0.080017
O O20 0.407749 0.000000 0.362200
#
# Coordination Sequence:
#
# PCOD8058097 Si02
#       8
#     4   4   4   4   4   4   4   4
#     4   9  16  30  48  65  84 112 148 185 218 262
#     4  10  19  31  47  65  86 120 159 186 209 251
#     4   8  13  22  37  63  94 118 140 173 217 255
#     4   9  13  21  41  69  94 116 140 171 214 264
#     4  12  24  33  42  60  88 122 153 188 226 255
#     4   8  12  19  36  65  98 117 132 171 221 262
#     4   8  14  24  45  69  88 110 142 181 221 260
#     4  10  18  30  47  65  87 119 156 183 206 251
#
# _framework density 15.899191999999999
#
# number of rings (size 3 to 8) (size 9 to 14) (size 15 to 20)
#    0.000    2.750    2.500    3.000    0.000    2.000 
#    0.000    1.250    0.000    0.000    0.000    3.500 
#    0.000    7.000    0.000    0.000    0.000    0.000 
#
# Total GULP energy -396514.116955 kJ/mol
# GULP energy per Si atom -12391.066155 kJ/mol
# Density = 1.586300 g / cm^3
# Si number density = 15.899192 Si / 1000 Ang^3
#
#
#
# Elastic Constant Matrix: (Units=GPa)
#
#
# Indices 1 2 3 4 5 6 
#
# 1 127.8961 29.5034 76.9333 0.0000 -15.7262 0.0000
# 2 29.5034 32.2343 30.6437 0.0000 2.2550 0.0000
# 3 76.9333 30.6437 124.8842 0.0000 -14.2974 0.0000
# 4 0.0000 0.0000 0.0000 0.3451 0.0000 -2.0222
# 5 -15.7262 2.2550 -14.2974 0.0000 26.0514 0.0000
# 6 0.0000 0.0000 0.0000 -2.0222 0.0000 -1.5278
#
#
#
# Elastic Compliance Matrix: (Units=1/GPa)
#
#
# Indices 1 2 3 4 5 6 
#
# 1 0.013868 -0.007279 -0.006110 0.000000 0.005648 0.000000
# 2 -0.007279 0.046639 -0.008456 0.000000 -0.013072 0.000000
# 3 -0.006110 -0.008456 0.014414 0.000000 0.004954 0.000000
# 4 0.000000 0.000000 0.000000 0.330939 0.000000 -0.438028
# 5 0.005648 -0.013072 0.004954 0.000000 0.045646 0.000000
# 6 0.000000 0.000000 0.000000 -0.438028 0.000000 -0.074749
#
#
# Mechanical properties :
#
#
# Convention : Reuss Voigt Hill
#
# Bulk Modulus (GPa) = 32.02190 62.13060 47.07625
# Shear Modulus (GPa) = 11.60473 14.83601 13.22037
#
# Velocity S-wave (km/s) = 2.70459 3.05803 2.88672
# Velocity P-wave (km/s) = 5.47150 7.18550 6.38627
#
# Compressibility (1/GPa) = 0.03122862
#
# Stress axis : x y z
#
# Youngs Moduli (GPa) = 72.10712 21.44121 69.37783
#
# Poissons Ratio (x) = 0.15608 0.42393
# Poissons Ratio (y) = 0.52490 0.58668
# Poissons Ratio (z) = 0.44061 0.18131
#
# Static dielectric constant tensor:
#      x y z
#    x 3.259700 0.000000 -0.273160 
#    y 0.000000 2.522460 0.000000 
#    z -0.273160 0.000000 3.259780 
# 
# 
# High freq. dielectric constant tensor:
#      x y z
#    x 1.600660 0.000000 -0.015060 
#    y 0.000000 1.559600 0.000000 
#    z -0.015060 0.000000 1.604760 
# 
# From -- ./inp_files/66052.got.cif
#   From: 2010.06.25/outbox.cif.g09.slc.cpg/sg10_34_cif.got.tgz:66052.got - 2010.06.27 22:07:45.
