data_PCOD8058826
_publ_section_title
;
Structure prediction by ZEFSAII (Michael W. Deem and Ramdas Pophale) SiO2 
 PCOD8058826
Probable space group: P 2/M
;
_chemical_formula_sum "Si O2"
_cell_formula_units_Z 32
_cell_length_a 20.035181
_cell_length_b 9.036155
_cell_length_c 24.938678
_cell_angle_alpha 90.000000
_cell_angle_beta 157.280285
_cell_angle_gamma 90.000000
_cell_volume 1743.769258
_symmetry_space_group_name_H-M "P 2/M"
_symmetry_group_IT_number 10
_symmetry_cell_setting 'monoclinic'
loop_
_space_group_symop_operation_xyz
x,y,z
-x,y,-z
-x,-y,-z
x,-y,z
loop_
_atom_site_type_symbol
_atom_site_label
_atom_site_fract_x
_atom_site_fract_y
_atom_site_fract_z
Si Si1 0.842073 0.173021 0.344362
Si Si2 0.470480 0.671276 0.599468
Si Si3 0.133912 0.172336 0.847858
Si Si4 0.866137 0.327748 0.720123
Si Si5 0.371791 0.674584 0.643588
Si Si6 0.330275 0.833322 0.338282
Si Si7 0.020674 0.675721 0.655260
Si Si8 0.485250 0.170297 0.830835
O O1 0.856205 0.265323 0.300348
O O2 0.666504 0.226315 0.242576
O O3 0.000000 0.213335 0.500000
O O4 0.838771 0.000000 0.327420
O O5 0.520887 0.500000 0.632308
O O6 0.286520 0.699737 0.435345
O O7 0.455550 0.725653 0.649516
O O8 0.623543 0.763851 0.685134
O O9 0.082854 0.257670 0.756853
O O10 0.033437 0.240300 0.823924
O O11 0.087363 0.000000 0.807816
O O12 0.336210 0.197605 0.006765
O O13 0.910229 0.500000 0.758788
O O14 0.816673 0.263870 0.741811
O O15 0.377452 0.500000 0.652493
O O16 0.484295 0.742305 0.774447
O O17 0.174233 0.730034 0.500771
O O18 0.500000 0.830219 0.500000
O O19 0.262206 0.000000 0.279728
O O20 0.032289 0.500000 0.667977
O O21 0.454675 0.000000 0.793755
#
# Coordination Sequence:
#
# PCOD8058826 Si02
#       8
#     4   4   4   4   4   4   4   4
#     4  10  20  37  60  83 109 145 185 228 278 331
#     4   9  17  31  50  77 110 143 179 225 274 322
#     4  11  23  38  56  80 113 149 185 229 276 329
#     4  10  18  32  53  77 110 148 183 224 274 328
#     4  10  20  35  56  82 111 143 183 229 275 326
#     4   9  17  28  45  77 112 143 182 224 269 323
#     4  11  22  37  58  85 112 143 185 229 276 330
#     4  10  23  40  57  81 111 145 186 228 278 334
#
# _framework density 18.351051999999999
#
# number of rings (size 3 to 8) (size 9 to 14) (size 15 to 20)
#    0.000    2.000    2.500    1.500    0.000    5.250 
#    0.000    2.500    0.000    0.750    0.000    5.250 
#    0.000    0.000    0.000    0.000    0.000    0.000 
#
# Total GULP energy -396915.666986 kJ/mol
# GULP energy per Si atom -12403.614593 kJ/mol
# Density = 1.830928 g / cm^3
# Si number density = 18.351052 Si / 1000 Ang^3
#
#
#
# Elastic Constant Matrix: (Units=GPa)
#
#
# Indices 1 2 3 4 5 6 
#
# 1 128.9146 48.6117 26.2580 0.0000 16.2276 0.0000
# 2 48.6117 76.1982 26.1300 0.0000 6.2997 0.0000
# 3 26.2580 26.1300 46.0733 0.0000 9.3699 0.0000
# 4 0.0000 0.0000 0.0000 20.4561 0.0000 1.1954
# 5 16.2276 6.2997 9.3699 0.0000 23.6517 0.0000
# 6 0.0000 0.0000 0.0000 1.1954 0.0000 37.8468
#
#
#
# Elastic Compliance Matrix: (Units=1/GPa)
#
#
# Indices 1 2 3 4 5 6 
#
# 1 0.011050 -0.005986 -0.001833 0.000000 -0.005261 0.000000
# 2 -0.005986 0.019547 -0.008104 0.000000 0.002111 0.000000
# 3 -0.001833 -0.008104 0.028986 0.000000 -0.008067 0.000000
# 4 0.000000 0.000000 0.000000 0.048976 0.000000 -0.001547
# 5 -0.005261 0.002111 -0.008067 0.000000 0.048523 0.000000
# 6 0.000000 0.000000 0.000000 -0.001547 0.000000 0.026471
#
#
# Mechanical properties :
#
#
# Convention : Reuss Voigt Hill
#
# Bulk Modulus (GPa) = 36.05205 50.35395 43.20300
# Shear Modulus (GPa) = 22.25753 26.40333 24.33043
#
# Velocity S-wave (km/s) = 3.48641 3.79726 3.64515
# Velocity P-wave (km/s) = 5.99126 6.83552 6.42727
#
# Compressibility (1/GPa) = 0.02773767
#
# Stress axis : x y z
#
# Youngs Moduli (GPa) = 90.49916 51.15897 34.49992
#
# Poissons Ratio (x) = 0.30624 0.06323
# Poissons Ratio (y) = 0.54173 0.27958
# Poissons Ratio (z) = 0.16586 0.41457
#
# Static dielectric constant tensor:
#      x y z
#    x 3.577140 0.000000 0.201850 
#    y 0.000000 3.400560 0.000000 
#    z 0.201850 0.000000 3.137630 
# 
# 
# High freq. dielectric constant tensor:
#      x y z
#    x 1.725910 0.000000 0.012270 
#    y 0.000000 1.715910 0.000000 
#    z 0.012270 0.000000 1.679180 
# 
# From -- ./inp_files/93724.got.cif
#   From: 2010.06.25/outbox.cif.g09.slc.cpg/sg10_47_cif.got.tgz:93724.got - 2010.06.27 22:07:45.
