data_PCOD8058598
_publ_section_title
;
Structure prediction by ZEFSAII (Michael W. Deem and Ramdas Pophale) SiO2 
 PCOD8058598
Probable space group: P 2/M
;
_chemical_formula_sum "Si O2"
_cell_formula_units_Z 26
_cell_length_a 23.184672
_cell_length_b 13.361385
_cell_length_c 15.307064
_cell_angle_alpha 90.000000
_cell_angle_beta 160.384638
_cell_angle_gamma 90.000000
_cell_volume 1591.845922
_symmetry_space_group_name_H-M "P 2/M"
_symmetry_group_IT_number 10
_symmetry_cell_setting 'monoclinic'
loop_
_space_group_symop_operation_xyz
x,y,z
-x,y,-z
-x,-y,-z
x,-y,z
loop_
_atom_site_type_symbol
_atom_site_label
_atom_site_fract_x
_atom_site_fract_y
_atom_site_fract_z
Si Si1 0.412564 0.114077 0.179845
Si Si2 0.503701 0.245054 0.144312
Si Si3 0.104223 0.117800 0.858012
Si Si4 0.000000 0.739085 0.000000
Si Si5 0.766327 0.885964 0.767080
Si Si6 0.794941 0.617655 0.568151
Si Si7 0.769664 0.756503 0.386285
O O1 0.456970 0.175457 0.157566
O O2 0.561313 0.122463 0.464878
O O3 0.389261 0.000000 0.116305
O O4 0.238280 0.154342 0.975599
O O5 0.599961 0.346566 0.314986
O O6 0.639846 0.190723 0.271923
O O7 0.330002 0.272434 0.844489
O O8 0.923574 0.170006 0.581923
O O9 0.075531 0.000000 0.810859
O O10 0.178676 0.148225 0.058223
O O11 0.152522 0.811198 0.187078
O O12 0.065786 0.668503 0.170677
O O13 0.826918 0.000000 0.834881
O O14 0.810607 0.500000 0.598758
O O15 0.837126 0.653937 0.528800
#
# Coordination Sequence:
#
# PCOD8058598 Si02
#       7
#     4   4   4   2   4   4   4
#     4  10  20  33  51  77 110 145 176 207 251 311
#     4   9  19  35  53  76 103 138 176 215 259 302
#     4  10  20  33  51  77 110 145 176 207 251 311
#     4  12  18  32  56  86 104 128 168 214 268 310
#     4  10  18  31  52  78 110 141 171 207 256 313
#     4  10  20  35  56  81 104 128 169 222 271 311
#     4   9  19  35  53  76 103 138 176 215 259 302
#
# _framework density 16.33324
#
# number of rings (size 3 to 8) (size 9 to 14) (size 15 to 20)
#    0.923    1.231    3.077    0.923    0.000    4.923 
#    0.000    3.077    0.000    0.923    0.000    4.308 
#    0.000    0.000    0.000    0.000    0.000    0.000 
#
# Total GULP energy -322191.651097 kJ/mol
# GULP energy per Si atom -12391.986581 kJ/mol
# Density = 1.629606 g / cm^3
# Si number density = 16.333240 Si / 1000 Ang^3
#
#
#
# Elastic Constant Matrix: (Units=GPa)
#
#
# Indices 1 2 3 4 5 6 
#
# 1 49.2090 27.6298 29.1809 0.0000 4.0075 0.0000
# 2 27.6298 71.2521 34.4986 0.0000 4.9070 0.0000
# 3 29.1809 34.4986 96.7821 0.0000 -4.6059 0.0000
# 4 0.0000 0.0000 0.0000 11.2641 0.0000 -1.4494
# 5 4.0075 4.9070 -4.6059 0.0000 33.1759 0.0000
# 6 0.0000 0.0000 0.0000 -1.4494 0.0000 7.4428
#
#
#
# Elastic Compliance Matrix: (Units=1/GPa)
#
#
# Indices 1 2 3 4 5 6 
#
# 1 0.028572 -0.008006 -0.005908 0.000000 -0.003087 0.000000
# 2 -0.008006 0.019589 -0.004691 0.000000 -0.002581 0.000000
# 3 -0.005908 -0.004691 0.013945 0.000000 0.003344 0.000000
# 4 0.000000 0.000000 0.000000 0.091059 0.000000 0.017733
# 5 -0.003087 -0.002581 0.003344 0.000000 0.031361 0.000000
# 6 0.000000 0.000000 0.000000 0.017733 0.000000 0.137812
#
#
# Mechanical properties :
#
#
# Convention : Reuss Voigt Hill
#
# Bulk Modulus (GPa) = 40.16949 44.42908 42.29929
# Shear Modulus (GPa) = 13.59262 18.77216 16.18239
#
# Velocity S-wave (km/s) = 2.88793 3.39384 3.15106
# Velocity P-wave (km/s) = 5.98057 6.52827 6.26041
#
# Compressibility (1/GPa) = 0.02489451
#
# Stress axis : x y z
#
# Youngs Moduli (GPa) = 34.99989 51.05027 71.70988
#
# Poissons Ratio (x) = 0.40873 0.42364
# Poissons Ratio (y) = 0.28022 0.33641
# Poissons Ratio (z) = 0.20677 0.23949
#
# Static dielectric constant tensor:
#      x y z
#    x 3.004130 0.000000 -0.077700 
#    y 0.000000 2.775430 0.000000 
#    z -0.077700 0.000000 3.181860 
# 
# 
# High freq. dielectric constant tensor:
#      x y z
#    x 1.621040 0.000000 -0.013790 
#    y 0.000000 1.595760 0.000000 
#    z -0.013790 0.000000 1.639810 
# 
# From -- ./inp_files/70678.got.cif
#   From: 2010.06.25/outbox.cif.g09.slc.cpg/sg10_36_cif.got.tgz:70678.got - 2010.06.27 22:07:45.
