data_PCOD8058926
_publ_section_title
;
Structure prediction by ZEFSAII (Michael W. Deem and Ramdas Pophale) SiO2 
 PCOD8058926
Probable space group: P 2/M
;
_chemical_formula_sum "Si O2"
_cell_formula_units_Z 32
_cell_length_a 15.281021
_cell_length_b 8.529332
_cell_length_c 13.027293
_cell_angle_alpha 90.000000
_cell_angle_beta 67.624351
_cell_angle_gamma 90.000000
_cell_volume 1570.095773
_symmetry_space_group_name_H-M "P 2/M"
_symmetry_group_IT_number 10
_symmetry_cell_setting 'monoclinic'
loop_
_space_group_symop_operation_xyz
x,y,z
-x,y,-z
-x,-y,-z
x,-y,z
loop_
_atom_site_type_symbol
_atom_site_label
_atom_site_fract_x
_atom_site_fract_y
_atom_site_fract_z
Si Si1 0.231304 0.313464 0.543778
Si Si2 0.897682 0.313049 0.580371
Si Si3 0.902009 0.818275 0.996535
Si Si4 0.396184 0.686582 0.012348
Si Si5 0.809140 0.686039 0.833480
Si Si6 0.410809 0.320926 0.783081
Si Si7 0.439694 0.312098 0.433056
Si Si8 0.784117 0.678942 0.223260
O O1 0.236762 0.500000 0.537171
O O2 0.169695 0.246245 0.478672
O O3 0.335170 0.240536 0.482547
O O4 0.187815 0.265854 0.674260
O O5 0.897487 0.500000 0.583125
O O6 0.861679 0.249098 0.707244
O O7 0.000000 0.249347 0.500000
O O8 0.869972 0.734761 0.905978
O O9 0.912713 0.000000 0.965803
O O10 0.826162 0.793663 0.119992
O O11 0.000000 0.749984 0.000000
O O12 0.395935 0.500000 0.021087
O O13 0.301117 0.747106 0.114816
O O14 0.500000 0.751318 0.000000
O O15 0.382075 0.756318 0.903867
O O16 0.808422 0.500000 0.832193
O O17 0.431039 0.500000 0.801966
O O18 0.507817 0.250819 0.693554
O O19 0.329290 0.307886 0.733913
O O20 0.500000 0.245127 0.500000
O O21 0.437748 0.500000 0.437107
O O22 0.817163 0.500000 0.187126
#
# Coordination Sequence:
#
# PCOD8058926 Si02
#       8
#     4   4   4   4   4   4   4   4
#     4   9  17  27  44  74 111 144 174 211 262 315
#     4   9  19  32  46  72 108 141 173 214 261 309
#     4  11  25  41  57  78 105 137 177 230 287 334
#     4   9  17  27  43  73 110 143 173 214 263 310
#     4  10  20  36  58  83 111 143 181 221 267 324
#     4   9  15  24  40  68 107 139 171 211 255 311
#     4   9  14  21  35  63 105 143 165 197 252 308
#     4  10  18  32  55  82 108 137 177 222 268 322
#
# _framework density 20.380922000000002
#
# number of rings (size 3 to 8) (size 9 to 14) (size 15 to 20)
#    0.000    2.500    2.500    0.375    3.500    1.000 
#    0.000    0.000    0.000    1.500    0.000    1.750 
#    0.000    0.000    0.000    0.000    0.000    0.000 
#
# Total GULP energy -396442.187255 kJ/mol
# GULP energy per Si atom -12388.818352 kJ/mol
# Density = 2.033453 g / cm^3
# Si number density = 20.380922 Si / 1000 Ang^3
#
#
#
# Elastic Constant Matrix: (Units=GPa)
#
#
# Indices 1 2 3 4 5 6 
#
# 1 153.9073 7.8062 84.8536 0.0000 1.7937 0.0000
# 2 7.8062 9.2950 8.2242 0.0000 -0.7252 0.0000
# 3 84.8536 8.2242 182.3270 0.0000 3.7244 0.0000
# 4 0.0000 0.0000 0.0000 3.3741 0.0000 1.2826
# 5 1.7937 -0.7252 3.7244 0.0000 37.2759 0.0000
# 6 0.0000 0.0000 0.0000 1.2826 0.0000 7.0411
#
#
#
# Elastic Compliance Matrix: (Units=1/GPa)
#
#
# Indices 1 2 3 4 5 6 
#
# 1 0.008878 -0.003969 -0.003950 0.000000 -0.000110 0.000000
# 2 -0.003969 0.114101 -0.003356 0.000000 0.002746 0.000000
# 3 -0.003950 -0.003356 0.007487 0.000000 -0.000623 0.000000
# 4 0.000000 0.000000 0.000000 0.318419 0.000000 -0.058002
# 5 -0.000110 0.002746 -0.000623 0.000000 0.026948 0.000000
# 6 0.000000 0.000000 0.000000 -0.058002 0.000000 0.152589
#
#
# Mechanical properties :
#
#
# Convention : Reuss Voigt Hill
#
# Bulk Modulus (GPa) = 9.26649 60.81082 35.03865
# Shear Modulus (GPa) = 7.27861 25.84791 16.56326
#
# Velocity S-wave (km/s) = 1.89184 3.56510 2.85386
# Velocity P-wave (km/s) = 3.05427 6.84460 5.29986
#
# Compressibility (1/GPa) = 0.10791576
#
# Stress axis : x y z
#
# Youngs Moduli (GPa) = 112.63749 8.76416 133.55998
#
# Poissons Ratio (x) = 0.03479 0.52763
# Poissons Ratio (y) = 0.44708 0.44818
# Poissons Ratio (z) = 0.44497 0.02941
#
# Static dielectric constant tensor:
#      x y z
#    x 3.967800 0.000000 -0.037660 
#    y 0.000000 2.851770 0.000000 
#    z -0.037660 0.000000 4.005300 
# 
# 
# High freq. dielectric constant tensor:
#      x y z
#    x 1.803880 0.000000 -0.001980 
#    y 0.000000 1.708440 0.000000 
#    z -0.001980 0.000000 1.815410 
# 
# From -- ./inp_files/66502.got.cif
#   From: 2010.06.25/outbox.cif.g09.slc.cpg/sg10_34_cif.got.tgz:66502.got - 2010.06.27 22:07:45.
