data_PCOD8058293
_publ_section_title
;
Structure prediction by ZEFSAII (Michael W. Deem and Ramdas Pophale) SiO2 
 PCOD8058293
Probable space group: P 2/M
;
_chemical_formula_sum "Si O2"
_cell_formula_units_Z 32
_cell_length_a 9.111619
_cell_length_b 16.158666
_cell_length_c 11.431287
_cell_angle_alpha 90.000000
_cell_angle_beta 89.131281
_cell_angle_gamma 90.000000
_cell_volume 1682.853317
_symmetry_space_group_name_H-M "P 2/M"
_symmetry_group_IT_number 10
_symmetry_cell_setting 'monoclinic'
loop_
_space_group_symop_operation_xyz
x,y,z
-x,y,-z
-x,-y,-z
x,-y,z
loop_
_atom_site_type_symbol
_atom_site_label
_atom_site_fract_x
_atom_site_fract_y
_atom_site_fract_z
Si Si1 0.139963 0.808509 0.675940
Si Si2 0.844207 0.907448 0.730319
Si Si3 0.631578 0.592516 0.272689
Si Si4 0.655685 0.133658 0.520171
Si Si5 0.663765 0.222603 0.861396
Si Si6 0.855016 0.362871 0.449236
Si Si7 0.332513 0.257119 0.878753
Si Si8 0.363782 0.309699 0.365179
O O1 0.254279 0.863982 0.601914
O O2 0.103127 0.728522 0.597988
O O3 0.212033 0.785635 0.798873
O O4 0.992119 0.857542 0.703264
O O5 0.752474 0.915473 0.612180
O O6 0.746857 0.862755 0.830905
O O7 0.881734 0.000000 0.773861
O O8 0.578952 0.500000 0.240171
O O9 0.783113 0.586084 0.343878
O O10 0.651736 0.645667 0.154287
O O11 0.517008 0.640921 0.356978
O O12 0.500000 0.087490 0.500000
O O13 0.610352 0.223238 0.570858
O O14 0.487485 0.209392 0.861853
O O15 0.702595 0.292248 0.763685
O O16 0.720054 0.253612 0.986608
O O17 0.748084 0.364612 0.561507
O O18 0.000000 0.406122 0.500000
#
# Coordination Sequence:
#
# PCOD8058293 Si02
#       8
#     4   4   4   4   4   4   4   4
#     4  10  19  33  53  79 108 143 182 217 258 316
#     4  11  23  36  53  81 112 136 171 227 278 313
#     4  10  20  33  52  80 110 134 167 222 274 308
#     4  10  18  33  56  78 107 146 182 212 253 319
#     4   9  18  37  58  76 101 139 183 220 259 319
#     4  10  18  30  50  75 105 145 181 207 248 314
#     4   9  19  37  59  77  99 140 187 218 256 321
#     4   9  17  31  52  77 105 139 177 212 254 313
#
# _framework density 19.015322000000001
#
# number of rings (size 3 to 8) (size 9 to 14) (size 15 to 20)
#    0.000    2.250    0.000    6.750    0.000    3.000 
#    0.000    9.375    0.000    0.000    0.000   11.375 
#    0.000    0.000    0.000    0.000    0.000    0.000 
#
# Total GULP energy -396693.687222 kJ/mol
# GULP energy per Si atom -12396.677726 kJ/mol
# Density = 1.897204 g / cm^3
# Si number density = 19.015322 Si / 1000 Ang^3
#
#
#
# Elastic Constant Matrix: (Units=GPa)
#
#
# Indices 1 2 3 4 5 6 
#
# 1 99.9910 37.5200 46.0746 0.0000 8.0826 0.0000
# 2 37.5200 96.2036 28.7714 0.0000 -8.7938 0.0000
# 3 46.0746 28.7714 131.1042 0.0000 5.0159 0.0000
# 4 0.0000 0.0000 0.0000 6.2170 0.0000 0.4794
# 5 8.0826 -8.7938 5.0159 0.0000 24.7074 0.0000
# 6 0.0000 0.0000 0.0000 0.4794 0.0000 11.8096
#
#
#
# Elastic Compliance Matrix: (Units=1/GPa)
#
#
# Indices 1 2 3 4 5 6 
#
# 1 0.013943 -0.004863 -0.003620 0.000000 -0.005557 0.000000
# 2 -0.004863 0.013338 -0.001472 0.000000 0.006637 0.000000
# 3 -0.003620 -0.001472 0.009270 0.000000 -0.001221 0.000000
# 4 0.000000 0.000000 0.000000 0.161355 0.000000 -0.006550
# 5 -0.005557 0.006637 -0.001221 0.000000 0.044902 0.000000
# 6 0.000000 0.000000 0.000000 -0.006550 0.000000 0.084943
#
#
# Mechanical properties :
#
#
# Convention : Reuss Voigt Hill
#
# Bulk Modulus (GPa) = 60.09579 61.33676 60.71627
# Shear Modulus (GPa) = 14.15598 22.87565 18.51581
#
# Velocity S-wave (km/s) = 2.73142 3.47221 3.12385
# Velocity P-wave (km/s) = 6.45136 6.95712 6.70901
#
# Compressibility (1/GPa) = 0.01664010
#
# Stress axis : x y z
#
# Youngs Moduli (GPa) = 71.72015 74.97269 107.88003
#
# Poissons Ratio (x) = 0.36461 0.39055
# Poissons Ratio (y) = 0.34879 0.15880
# Poissons Ratio (z) = 0.25964 0.11036
#
# Static dielectric constant tensor:
#      x y z
#    x 3.548460 0.000000 0.003530 
#    y 0.000000 3.158670 0.000000 
#    z 0.003530 0.000000 3.578070 
# 
# 
# High freq. dielectric constant tensor:
#      x y z
#    x 1.744160 0.000000 0.003610 
#    y 0.000000 1.706770 0.000000 
#    z 0.003610 0.000000 1.736090 
# 
# From -- ./inp_files/43287.got.cif
#   From: 2010.06.25/outbox.cif.g09.slc.cpg/sg10_22_cif.got.tgz:43287.got - 2010.06.27 22:07:45.
