data_PCOD8058562
_publ_section_title
;
Structure prediction by ZEFSAII (Michael W. Deem and Ramdas Pophale) SiO2 
 PCOD8058562
Probable space group: P 2/M
;
_chemical_formula_sum "Si O2"
_cell_formula_units_Z 32
_cell_length_a 10.307556
_cell_length_b 8.728605
_cell_length_c 23.656349
_cell_angle_alpha 90.000000
_cell_angle_beta 123.500919
_cell_angle_gamma 90.000000
_cell_volume 1774.803357
_symmetry_space_group_name_H-M "P 2/M"
_symmetry_group_IT_number 10
_symmetry_cell_setting 'monoclinic'
loop_
_space_group_symop_operation_xyz
x,y,z
-x,y,-z
-x,-y,-z
x,-y,z
loop_
_atom_site_type_symbol
_atom_site_label
_atom_site_fract_x
_atom_site_fract_y
_atom_site_fract_z
Si Si1 0.323191 0.181503 0.462565
Si Si2 0.040239 0.682453 0.921270
Si Si3 0.878955 0.679935 0.181603
Si Si4 0.757840 0.682148 0.926685
Si Si5 0.584764 0.682012 0.178784
Si Si6 0.172502 0.819185 0.540646
Si Si7 0.238333 0.820548 0.679822
Si Si8 0.946238 0.679760 0.666074
O O1 0.500000 0.234399 0.500000
O O2 0.265198 0.244971 0.509115
O O3 0.226652 0.261999 0.389123
O O4 0.304798 0.000000 0.451856
O O5 0.038554 0.500000 0.918033
O O6 0.076171 0.754402 0.868127
O O7 0.872054 0.739600 0.903765
O O8 0.174533 0.737936 0.996792
O O9 0.860948 0.500000 0.169075
O O10 0.713388 0.744479 0.164982
O O11 0.014672 0.718404 0.259134
O O12 0.750948 0.500000 0.924020
O O13 0.584734 0.750552 0.877124
O O14 0.582705 0.500000 0.177612
O O15 0.630392 0.734372 0.252652
O O16 0.264514 0.777930 0.620326
O O17 0.000000 0.745972 0.500000
O O18 0.157188 0.000000 0.530897
O O19 0.064915 0.768746 0.654178
O O20 0.253249 0.000000 0.694539
O O21 0.964144 0.500000 0.659094
#
# Coordination Sequence:
#
# PCOD8058562 Si02
#       8
#     4   4   4   4   4   4   4   4
#     4  10  20  35  53  71  93 125 161 196 233 277
#     4   8  13  24  41  63  89 124 158 184 221 276
#     4   8  15  26  41  61  90 122 150 182 229 277
#     4   8  14  24  41  64  93 121 152 190 227 268
#     4   9  17  29  43  68  99 120 144 193 241 271
#     4   9  16  30  52  72  89 116 159 201 230 266
#     4  10  18  31  52  71  91 124 162 193 230 281
#     4  10  19  32  49  71 100 126 152 193 242 282
#
# _framework density 18.030165
#
# number of rings (size 3 to 8) (size 9 to 14) (size 15 to 20)
#    0.000    3.000    1.250    2.250    0.000    0.750 
#    2.250    4.375    0.000    0.000    0.000    9.625 
#    0.000    0.000    0.000    0.000    0.000    0.000 
#
# Total GULP energy -396625.878868 kJ/mol
# GULP energy per Si atom -12394.558715 kJ/mol
# Density = 1.798913 g / cm^3
# Si number density = 18.030165 Si / 1000 Ang^3
#
#
#
# Elastic Constant Matrix: (Units=GPa)
#
#
# Indices 1 2 3 4 5 6 
#
# 1 136.7239 10.7144 102.5886 0.0000 -0.7508 0.0000
# 2 10.7144 10.3620 14.8690 0.0000 -1.9700 0.0000
# 3 102.5886 14.8690 152.7827 0.0000 3.2031 0.0000
# 4 0.0000 0.0000 0.0000 13.6255 0.0000 -0.3318
# 5 -0.7508 -1.9700 3.2031 0.0000 34.2858 0.0000
# 6 0.0000 0.0000 0.0000 -0.3318 0.0000 10.8500
#
#
#
# Elastic Compliance Matrix: (Units=1/GPa)
#
#
# Indices 1 2 3 4 5 6 
#
# 1 0.014802 -0.000907 -0.009876 0.000000 0.001195 0.000000
# 2 -0.000907 0.114175 -0.010661 0.000000 0.007536 0.000000
# 3 -0.009876 -0.010661 0.014259 0.000000 -0.002161 0.000000
# 4 0.000000 0.000000 0.000000 0.073447 0.000000 0.002246
# 5 0.001195 0.007536 -0.002161 0.000000 0.029828 0.000000
# 6 0.000000 0.000000 0.000000 0.002246 0.000000 0.092235
#
#
# Mechanical properties :
#
#
# Convention : Reuss Voigt Hill
#
# Bulk Modulus (GPa) = 9.96517 61.80140 35.88328
# Shear Modulus (GPa) = 12.04584 23.19870 17.62227
#
# Velocity S-wave (km/s) = 2.58755 3.59090 3.12969
# Velocity P-wave (km/s) = 3.80344 7.17940 5.74500
#
# Compressibility (1/GPa) = 0.10034954
#
# Stress axis : x y z
#
# Youngs Moduli (GPa) = 67.56013 8.75847 70.13013
#
# Poissons Ratio (x) = 0.00794 0.69258
# Poissons Ratio (y) = 0.06127 0.74764
# Poissons Ratio (z) = 0.66720 0.09337
#
# Static dielectric constant tensor:
#      x y z
#    x 3.581550 0.000000 -0.062950 
#    y 0.000000 2.829770 0.000000 
#    z -0.062950 0.000000 3.566100 
# 
# 
# High freq. dielectric constant tensor:
#      x y z
#    x 1.689900 0.000000 -0.002290 
#    y 0.000000 1.648000 0.000000 
#    z -0.002290 0.000000 1.708270 
# 
# From -- ./inp_files/88565.got.cif
#   From: 2010.06.25/outbox.cif.g09.slc.cpg/sg10_45_cif.got.tgz:88565.got - 2010.06.27 22:07:45.
