data_PCOD8058717
_publ_section_title
;
Structure prediction by ZEFSAII (Michael W. Deem and Ramdas Pophale) SiO2 
 PCOD8058717
Probable space group: P 2/M
;
_chemical_formula_sum "Si O2"
_cell_formula_units_Z 30
_cell_length_a 11.645586
_cell_length_b 18.746794
_cell_length_c 9.186348
_cell_angle_alpha 90.000000
_cell_angle_beta 114.196982
_cell_angle_gamma 90.000000
_cell_volume 1829.336339
_symmetry_space_group_name_H-M "P 2/M"
_symmetry_group_IT_number 10
_symmetry_cell_setting 'monoclinic'
loop_
_space_group_symop_operation_xyz
x,y,z
-x,y,-z
-x,-y,-z
x,-y,z
loop_
_atom_site_type_symbol
_atom_site_label
_atom_site_fract_x
_atom_site_fract_y
_atom_site_fract_z
Si Si1 0.000000 0.326061 0.500000
Si Si2 0.192975 0.773925 0.150925
Si Si3 0.026098 0.921900 0.680213
Si Si4 0.520739 0.583600 0.173199
Si Si5 0.942010 0.228524 0.203072
Si Si6 0.235313 0.416277 0.521882
Si Si7 0.864972 0.923305 0.853393
Si Si8 0.622108 0.658529 0.653908
O O1 0.064231 0.278023 0.658122
O O2 0.106947 0.375700 0.487928
O O3 0.228188 0.858378 0.154696
O O4 0.312775 0.732346 0.270434
O O5 0.082724 0.768706 0.212824
O O6 0.152088 0.743294 0.971538
O O7 0.892083 0.925187 0.694414
O O8 0.000000 0.907956 0.500000
O O9 0.101572 0.852657 0.778539
O O10 0.094643 0.000000 0.739122
O O11 0.497255 0.500000 0.166881
O O12 0.661187 0.602253 0.301068
O O13 0.414380 0.617592 0.218986
O O14 0.500000 0.613619 0.000000
O O15 0.206785 0.500000 0.501415
O O16 0.286121 0.392329 0.390728
O O17 0.808695 0.000000 0.875252
O O18 0.000000 0.908490 0.000000
O O19 0.500000 0.680107 0.500000
#
# Coordination Sequence:
#
# PCOD8058717 Si02
#       8
#     2   4   4   4   4   4   4   4
#     4  12  21  32  49  74 108 136 160 196 245 320
#     4  10  18  32  47  71 100 131 166 206 247 295
#     4   9  15  24  39  63  96 129 163 196 231 283
#     4   9  19  36  56  76  94 119 165 217 251 285
#     4  10  19  29  46  70 103 136 161 194 252 295
#     4  10  21  36  53  72  97 134 167 200 249 304
#     4   9  15  25  43  66  95 131 165 198 237 286
#     4  10  20  35  55  73  96 130 168 210 249 294
#
# _framework density 16.39939
#
# number of rings (size 3 to 8) (size 9 to 14) (size 15 to 20)
#    0.000    2.267    4.667    0.600    1.867    1.600 
#    0.000    0.000    0.000    1.200    0.000    0.000 
#    0.000    0.533    0.000    0.933    0.000    0.000 
#
# Total GULP energy -371721.207007 kJ/mol
# GULP energy per Si atom -12390.706900 kJ/mol
# Density = 1.636206 g / cm^3
# Si number density = 16.399390 Si / 1000 Ang^3
#
#
#
# Elastic Constant Matrix: (Units=GPa)
#
#
# Indices 1 2 3 4 5 6 
#
# 1 68.6900 40.0469 39.8426 0.0000 -7.3427 0.0000
# 2 40.0469 102.5516 41.4000 0.0000 0.9136 0.0000
# 3 39.8426 41.4000 92.9511 0.0000 -20.4056 0.0000
# 4 0.0000 0.0000 0.0000 19.3935 0.0000 -2.1822
# 5 -7.3427 0.9136 -20.4056 0.0000 20.5032 0.0000
# 6 0.0000 0.0000 0.0000 -2.1822 0.0000 20.5231
#
#
#
# Elastic Compliance Matrix: (Units=1/GPa)
#
#
# Indices 1 2 3 4 5 6 
#
# 1 0.021933 -0.006035 -0.006308 0.000000 0.001845 0.000000
# 2 -0.006035 0.014502 -0.005744 0.000000 -0.008524 0.000000
# 3 -0.006308 -0.005744 0.019937 0.000000 0.017839 0.000000
# 4 0.000000 0.000000 0.000000 0.052188 0.000000 0.005549
# 5 0.001845 -0.008524 0.017839 0.000000 0.067567 0.000000
# 6 0.000000 0.000000 0.000000 0.005549 0.000000 0.049316
#
#
# Mechanical properties :
#
#
# Convention : Reuss Voigt Hill
#
# Bulk Modulus (GPa) = 49.50940 56.30799 52.90870
# Shear Modulus (GPa) = 18.63239 21.61082 20.12160
#
# Velocity S-wave (km/s) = 3.37436 3.63406 3.50662
# Velocity P-wave (km/s) = 6.74070 7.21239 6.98053
#
# Compressibility (1/GPa) = 0.02019818
#
# Stress axis : x y z
#
# Youngs Moduli (GPa) = 45.59393 68.95365 50.15830
#
# Poissons Ratio (x) = 0.41611 0.31642
# Poissons Ratio (y) = 0.27514 0.28811
# Poissons Ratio (z) = 0.28763 0.39607
#
# Static dielectric constant tensor:
#      x y z
#    x 2.815910 0.000000 -0.299820 
#    y 0.000000 3.295580 0.000000 
#    z -0.299820 0.000000 3.260380 
# 
# 
# High freq. dielectric constant tensor:
#      x y z
#    x 1.585990 0.000000 -0.032200 
#    y 0.000000 1.643650 0.000000 
#    z -0.032200 0.000000 1.635980 
# 
# From -- ./inp_files/25863.got.cif
#   From: 2010.06.25/outbox.cif.g09.slc.cpg/sg10_13_cif.got.tgz:25863.got - 2010.06.27 22:07:45.
