data_PCOD8058641
_publ_section_title
;
Structure prediction by ZEFSAII (Michael W. Deem and Ramdas Pophale) SiO2 
 PCOD8058641
Probable space group: P 2/M
;
_chemical_formula_sum "Si O2"
_cell_formula_units_Z 32
_cell_length_a 12.704539
_cell_length_b 9.289343
_cell_length_c 31.426254
_cell_angle_alpha 90.000000
_cell_angle_beta 27.809437
_cell_angle_gamma 90.000000
_cell_volume 1730.287505
_symmetry_space_group_name_H-M "P 2/M"
_symmetry_group_IT_number 10
_symmetry_cell_setting 'monoclinic'
loop_
_space_group_symop_operation_xyz
x,y,z
-x,y,-z
-x,-y,-z
x,-y,z
loop_
_atom_site_type_symbol
_atom_site_label
_atom_site_fract_x
_atom_site_fract_y
_atom_site_fract_z
Si Si1 0.762620 0.663244 0.096403
Si Si2 0.036516 0.169822 0.661849
Si Si3 0.477027 0.666873 0.364065
Si Si4 0.574618 0.672081 0.713027
Si Si5 0.606547 0.663124 0.840676
Si Si6 0.354270 0.836260 0.093469
Si Si7 0.840832 0.835123 0.287843
Si Si8 0.060734 0.667286 0.571502
O O1 0.815741 0.500000 0.091354
O O2 0.623240 0.734304 0.185460
O O3 0.620566 0.668043 0.104459
O O4 0.000000 0.742319 0.000000
O O5 0.788325 0.237020 0.752719
O O6 0.169423 0.204525 0.658131
O O7 0.153619 0.243273 0.579083
O O8 0.018266 0.000000 0.661343
O O9 0.538552 0.500000 0.340937
O O10 0.470969 0.729860 0.318299
O O11 0.667784 0.740393 0.323773
O O12 0.232166 0.693414 0.471678
O O13 0.580325 0.500000 0.711931
O O14 0.817376 0.726184 0.643253
O O15 0.699086 0.500000 0.811269
O O16 0.545513 0.725729 0.908447
O O17 0.090193 0.804251 0.180142
O O18 0.379783 0.000000 0.101098
O O19 0.500000 0.809046 0.000000
O O20 0.772309 0.000000 0.305775
O O21 0.048516 0.500000 0.588887
#
# Coordination Sequence:
#
# PCOD8058641 Si02
#       8
#     4   4   4   4   4   4   4   4
#     4   9  17  29  49  79 109 137 169 211 269 323
#     4  10  20  35  56  78 103 142 182 219 268 326
#     4  10  21  34  54  80 107 141 180 223 268 325
#     4   9  17  33  53  75 108 143 174 215 268 322
#     4  10  18  31  53  80 107 137 175 225 271 313
#     4   9  19  36  56  76 103 145 186 219 265 326
#     4   9  20  37  53  73 107 144 177 218 271 322
#     4  10  19  34  56  81 104 136 182 225 270 320
#
# _framework density 18.494036999999999
#
# number of rings (size 3 to 8) (size 9 to 14) (size 15 to 20)
#    0.000    2.500    1.250    1.875    0.000    6.250 
#    0.000    4.375    0.000    3.000    0.000    0.000 
#    0.000    0.000    0.000    0.000    0.000    0.000 
#
# Total GULP energy -396702.775433 kJ/mol
# GULP energy per Si atom -12396.961732 kJ/mol
# Density = 1.845194 g / cm^3
# Si number density = 18.494037 Si / 1000 Ang^3
#
#
#
# Elastic Constant Matrix: (Units=GPa)
#
#
# Indices 1 2 3 4 5 6 
#
# 1 129.1539 51.4835 72.1489 0.0000 8.7391 0.0000
# 2 51.4835 58.7127 39.3968 0.0000 6.5881 0.0000
# 3 72.1489 39.3968 120.7532 0.0000 9.9907 0.0000
# 4 0.0000 0.0000 0.0000 22.2703 0.0000 1.5561
# 5 8.7391 6.5881 9.9907 0.0000 23.1587 0.0000
# 6 0.0000 0.0000 0.0000 1.5561 0.0000 4.7395
#
#
#
# Elastic Compliance Matrix: (Units=1/GPa)
#
#
# Indices 1 2 3 4 5 6 
#
# 1 0.014494 -0.008797 -0.005750 0.000000 -0.000487 0.000000
# 2 -0.008797 0.027383 -0.003431 0.000000 -0.002990 0.000000
# 3 -0.005750 -0.003431 0.013041 0.000000 -0.002480 0.000000
# 4 0.000000 0.000000 0.000000 0.045957 0.000000 -0.015088
# 5 -0.000487 -0.002990 -0.002480 0.000000 0.045285 0.000000
# 6 0.000000 0.000000 0.000000 -0.015088 0.000000 0.215944
#
#
# Mechanical properties :
#
#
# Convention : Reuss Voigt Hill
#
# Bulk Modulus (GPa) = 52.73073 70.51979 61.62526
# Shear Modulus (GPa) = 12.36458 19.73975 16.05216
#
# Velocity S-wave (km/s) = 2.58848 3.27059 2.94932
# Velocity P-wave (km/s) = 6.12436 7.24405 6.70761
#
# Compressibility (1/GPa) = 0.01896428
#
# Stress axis : x y z
#
# Youngs Moduli (GPa) = 68.99292 36.51865 76.67911
#
# Poissons Ratio (x) = 0.32125 0.44090
# Poissons Ratio (y) = 0.60691 0.26306
# Poissons Ratio (z) = 0.39670 0.12528
#
# Static dielectric constant tensor:
#      x y z
#    x 3.469020 0.000000 0.202450 
#    y 0.000000 3.270350 0.000000 
#    z 0.202450 0.000000 3.580850 
# 
# 
# High freq. dielectric constant tensor:
#      x y z
#    x 1.719550 0.000000 0.009620 
#    y 0.000000 1.688500 0.000000 
#    z 0.009620 0.000000 1.721960 
# 
# From -- ./inp_files/55316.got.cif
#   From: 2010.06.25/outbox.cif.g09.slc.cpg/sg10_28_cif.got.tgz:55316.got - 2010.06.27 22:07:45.
