data_PCOD8058487
_publ_section_title
;
Structure prediction by ZEFSAII (Michael W. Deem and Ramdas Pophale) SiO2 
 PCOD8058487
Probable space group: P 2/M
;
_chemical_formula_sum "Si O2"
_cell_formula_units_Z 28
_cell_length_a 22.243886
_cell_length_b 13.538029
_cell_length_c 27.902487
_cell_angle_alpha 90.000000
_cell_angle_beta 169.073878
_cell_angle_gamma 90.000000
_cell_volume 1592.637818
_symmetry_space_group_name_H-M "P 2/M"
_symmetry_group_IT_number 10
_symmetry_cell_setting 'monoclinic'
loop_
_space_group_symop_operation_xyz
x,y,z
-x,y,-z
-x,-y,-z
x,-y,z
loop_
_atom_site_type_symbol
_atom_site_label
_atom_site_fract_x
_atom_site_fract_y
_atom_site_fract_z
Si Si1 0.096867 0.111973 0.807982
Si Si2 0.637350 0.613186 0.931008
Si Si3 0.730724 0.702679 0.545834
Si Si4 0.719019 0.615874 0.884637
Si Si5 0.746366 0.792852 0.343060
Si Si6 0.150261 0.886533 0.737949
Si Si7 0.734913 0.391591 0.752295
O O1 0.074705 0.127386 0.734140
O O2 0.838173 0.183126 0.630133
O O3 0.014686 0.000000 0.758399
O O4 0.449819 0.135983 0.101703
O O5 0.534114 0.500000 0.855483
O O6 0.681963 0.644951 0.910721
O O7 0.360852 0.678851 0.738041
O O8 0.962699 0.631925 0.214164
O O9 0.531552 0.677953 0.342485
O O10 0.530746 0.685516 0.438193
O O11 0.657259 0.500000 0.826918
O O12 0.082808 0.642516 0.153527
O O13 0.000000 0.807624 0.500000
O O14 0.896157 0.822020 0.510841
O O15 0.124739 0.000000 0.701325
O O16 0.500000 0.845571 0.000000
O O17 0.575090 0.500000 0.619890
O O18 0.000000 0.401038 0.000000
#
# Coordination Sequence:
#
# PCOD8058487 Si02
#       7
#     4   4   4   4   4   4   4
#     4  10  21  34  50  74  99 126 160 201 246 288
#     4  10  21  33  48  72  99 132 166 194 235 289
#     4  10  18  31  50  71 100 130 158 196 242 288
#     4   9  17  31  51  74 101 128 159 202 240 277
#     4  11  21  34  52  72  98 128 160 202 246 288
#     4  10  19  32  53  75  93 116 154 205 250 286
#     4   8  14  26  48  75  98 124 159 198 238 278
#
# _framework density 17.580897
#
# number of rings (size 3 to 8) (size 9 to 14) (size 15 to 20)
#    0.000    2.286    1.429    3.429    0.000    1.429 
#    0.000    2.143    0.000    4.286    0.000    4.000 
#    0.000    0.000    0.000    0.000    0.000    0.000 
#
# Total GULP energy -347189.684027 kJ/mol
# GULP energy per Si atom -12399.631572 kJ/mol
# Density = 1.754088 g / cm^3
# Si number density = 17.580897 Si / 1000 Ang^3
#
#
#
# Elastic Constant Matrix: (Units=GPa)
#
#
# Indices 1 2 3 4 5 6 
#
# 1 50.3261 31.8388 27.7513 0.0000 0.0337 0.0000
# 2 31.8388 100.7092 55.9332 0.0000 4.1763 0.0000
# 3 27.7513 55.9332 90.2625 0.0000 5.3824 0.0000
# 4 0.0000 0.0000 0.0000 32.5611 0.0000 10.8080
# 5 0.0337 4.1763 5.3824 0.0000 25.3898 0.0000
# 6 0.0000 0.0000 0.0000 10.8080 0.0000 29.0650
#
#
#
# Elastic Compliance Matrix: (Units=1/GPa)
#
#
# Indices 1 2 3 4 5 6 
#
# 1 0.026030 -0.005794 -0.004524 0.000000 0.001878 0.000000
# 2 -0.005794 0.016437 -0.008349 0.000000 -0.000926 0.000000
# 3 -0.004524 -0.008349 0.017786 0.000000 -0.002391 0.000000
# 4 0.000000 0.000000 0.000000 0.035036 0.000000 -0.013028
# 5 0.001878 -0.000926 -0.002391 0.000000 0.040043 0.000000
# 6 0.000000 0.000000 0.000000 -0.013028 0.000000 0.039250
#
#
# Mechanical properties :
#
#
# Convention : Reuss Voigt Hill
#
# Bulk Modulus (GPa) = 43.63434 52.48272 48.05853
# Shear Modulus (GPa) = 22.77339 25.78815 24.28077
#
# Velocity S-wave (km/s) = 3.60300 3.83407 3.72033
# Velocity P-wave (km/s) = 6.49476 7.03684 6.77122
#
# Compressibility (1/GPa) = 0.02291773
#
# Stress axis : x y z
#
# Youngs Moduli (GPa) = 38.41764 60.83984 56.22476
#
# Poissons Ratio (x) = 0.35253 0.25437
# Poissons Ratio (y) = 0.22260 0.46940
# Poissons Ratio (z) = 0.17381 0.50793
#
# Static dielectric constant tensor:
#      x y z
#    x 3.336250 0.000000 0.038660 
#    y 0.000000 3.149330 0.000000 
#    z 0.038660 0.000000 3.295890 
# 
# 
# High freq. dielectric constant tensor:
#      x y z
#    x 1.678140 0.000000 -0.007820 
#    y 0.000000 1.658890 0.000000 
#    z -0.007820 0.000000 1.683570 
# 
# From -- ./inp_files/79562.got.cif
#   From: 2010.06.25/outbox.cif.g09.slc.cpg/sg10_40_cif.got.tgz:79562.got - 2010.06.27 22:07:45.
