data_PCOD8058374
_publ_section_title
;
Structure prediction by ZEFSAII (Michael W. Deem and Ramdas Pophale) SiO2 
 PCOD8058374
Probable space group: P 2/M
;
_chemical_formula_sum "Si O2"
_cell_formula_units_Z 28
_cell_length_a 18.361064
_cell_length_b 12.599474
_cell_length_c 10.099996
_cell_angle_alpha 90.000000
_cell_angle_beta 47.131095
_cell_angle_gamma 90.000000
_cell_volume 1712.471793
_symmetry_space_group_name_H-M "P 2/M"
_symmetry_group_IT_number 10
_symmetry_cell_setting 'monoclinic'
loop_
_space_group_symop_operation_xyz
x,y,z
-x,y,-z
-x,-y,-z
x,-y,z
loop_
_atom_site_type_symbol
_atom_site_label
_atom_site_fract_x
_atom_site_fract_y
_atom_site_fract_z
Si Si1 0.412324 0.621923 0.706523
Si Si2 0.735379 0.194582 0.109958
Si Si3 0.407701 0.000000 0.017331
Si Si4 0.413497 0.378380 0.007724
Si Si5 0.059507 0.124547 0.056239
Si Si6 0.267634 0.804950 0.190705
Si Si7 0.067713 0.875333 0.537667
Si Si8 0.594037 0.000000 0.288806
O O1 0.500000 0.657570 0.500000
O O2 0.382277 0.500000 0.718498
O O3 0.315028 0.692073 0.798054
O O4 0.449354 0.639782 0.811838
O O5 0.658060 0.103325 0.244547
O O6 0.835660 0.186040 0.071809
O O7 0.766727 0.181656 0.918434
O O8 0.345622 0.104048 0.129660
O O9 0.500000 0.000000 0.000000
O O10 0.440278 0.000000 0.822542
O O11 0.383737 0.500000 0.070030
O O12 0.316286 0.309205 0.157585
O O13 0.500000 0.342053 0.000000
O O14 0.988655 0.161326 0.261923
O O15 0.083298 0.000000 0.036263
O O16 0.000000 0.156221 0.000000
O O17 0.171980 0.813694 0.402587
O O18 0.000000 0.840536 0.500000
O O19 0.090800 0.000000 0.506248
O O20 0.500000 0.000000 0.500000
#
# Coordination Sequence:
#
# PCOD8058374 Si02
#       8
#     4   4   2   4   4   4   4   2
#     4   9  18  33  53  74  94 126 171 203 230 286
#     4  10  18  32  52  69  98 131 157 197 247 286
#     4  10  20  32  44  69 104 126 150 199 243 280
#     4   9  18  33  52  72  99 130 160 201 245 283
#     4  10  20  34  49  72 102 128 161 204 243 284
#     4  10  18  31  51  73  96 128 163 196 238 290
#     4  10  18  30  53  72  93 127 170 199 230 292
#     4  10  20  32  46  68  98 132 158 184 239 304
#
# _framework density 16.350632999999998
#
# number of rings (size 3 to 8) (size 9 to 14) (size 15 to 20)
#    0.000    2.286    2.857    0.857    0.000    0.000 
#    5.143    0.000    0.000    1.714    0.000    0.000 
#    0.000    0.000    0.000    0.000    0.000    0.000 
#
# Total GULP energy -347242.884172 kJ/mol
# GULP energy per Si atom -12401.531578 kJ/mol
# Density = 1.631342 g / cm^3
# Si number density = 16.350633 Si / 1000 Ang^3
#
#
#
# Elastic Constant Matrix: (Units=GPa)
#
#
# Indices 1 2 3 4 5 6 
#
# 1 125.3472 45.3768 71.2095 0.0000 -10.6907 0.0000
# 2 45.3768 69.6954 42.6263 0.0000 -9.2027 0.0000
# 3 71.2095 42.6263 125.3543 0.0000 -11.6187 0.0000
# 4 0.0000 0.0000 0.0000 19.7387 0.0000 -5.4288
# 5 -10.6907 -9.2027 -11.6187 0.0000 22.4787 0.0000
# 6 0.0000 0.0000 0.0000 -5.4288 0.0000 17.1244
#
#
#
# Elastic Compliance Matrix: (Units=1/GPa)
#
#
# Indices 1 2 3 4 5 6 
#
# 1 0.013059 -0.004883 -0.005638 0.000000 0.001298 0.000000
# 2 -0.004883 0.020375 -0.003778 0.000000 0.004066 0.000000
# 3 -0.005638 -0.003778 0.012680 0.000000 0.002326 0.000000
# 4 0.000000 0.000000 0.000000 0.055501 0.000000 0.017595
# 5 0.001298 0.004066 0.002326 0.000000 0.047971 0.000000
# 6 0.000000 0.000000 0.000000 0.017595 0.000000 0.063974
#
#
# Mechanical properties :
#
#
# Convention : Reuss Voigt Hill
#
# Bulk Modulus (GPa) = 57.08614 70.98021 64.03317
# Shear Modulus (GPa) = 20.16166 22.61398 21.38782
#
# Velocity S-wave (km/s) = 3.51533 3.72299 3.62065
# Velocity P-wave (km/s) = 7.17400 7.87315 7.53169
#
# Compressibility (1/GPa) = 0.01751739
#
# Stress axis : x y z
#
# Youngs Moduli (GPa) = 76.57612 49.08060 78.86374
#
# Poissons Ratio (x) = 0.23966 0.44460
# Poissons Ratio (y) = 0.37392 0.29791
# Poissons Ratio (z) = 0.43171 0.18541
#
# Static dielectric constant tensor:
#      x y z
#    x 3.004450 0.000000 0.034760 
#    y 0.000000 3.016830 0.000000 
#    z 0.034760 0.000000 3.012300 
# 
# 
# High freq. dielectric constant tensor:
#      x y z
#    x 1.623850 0.000000 -0.001200 
#    y 0.000000 1.615710 0.000000 
#    z -0.001200 0.000000 1.627240 
# 
# From -- ./inp_files/29462.got.cif
#   From: 2010.06.25/outbox.cif.g09.slc.cpg/sg10_15_cif.got.tgz:29462.got - 2010.06.27 22:07:45.
