data_PCOD8058430
_publ_section_title
;
Structure prediction by ZEFSAII (Michael W. Deem and Ramdas Pophale) SiO2 
 PCOD8058430
Probable space group: P 2/M
;
_chemical_formula_sum "Si O2"
_cell_formula_units_Z 32
_cell_length_a 21.380278
_cell_length_b 13.714047
_cell_length_c 17.831839
_cell_angle_alpha 90.000000
_cell_angle_beta 160.320536
_cell_angle_gamma 90.000000
_cell_volume 1760.730032
_symmetry_space_group_name_H-M "P 2/M"
_symmetry_group_IT_number 10
_symmetry_cell_setting 'monoclinic'
loop_
_space_group_symop_operation_xyz
x,y,z
-x,y,-z
-x,-y,-z
x,-y,z
loop_
_atom_site_type_symbol
_atom_site_label
_atom_site_fract_x
_atom_site_fract_y
_atom_site_fract_z
Si Si1 0.779410 0.387155 0.247102
Si Si2 0.140993 0.392557 0.397944
Si Si3 0.780257 0.386673 0.754385
Si Si4 0.612737 0.239181 0.956896
Si Si5 0.272891 0.744024 0.673573
Si Si6 0.217462 0.390490 0.080678
Si Si7 0.965836 0.111222 0.373953
Si Si8 0.553732 0.662106 0.364463
O O1 0.715275 0.500000 0.183202
O O2 0.687794 0.316218 0.205872
O O3 0.000000 0.377696 0.500000
O O4 0.707280 0.343642 0.086215
O O5 0.080082 0.500000 0.355650
O O6 0.175919 0.333613 0.511421
O O7 0.324199 0.403406 0.553629
O O8 0.971314 0.339455 0.162184
O O9 0.720018 0.500000 0.670722
O O10 0.713318 0.348000 0.761091
O O11 0.684163 0.315535 0.584174
O O12 0.000000 0.375208 0.000000
O O13 0.459928 0.212823 0.847758
O O14 0.516939 0.246268 0.765935
O O15 0.766323 0.155319 0.127130
O O16 0.135391 0.834675 0.525818
O O17 0.156641 0.500000 0.032072
O O18 0.372539 0.390932 0.191792
O O19 0.000000 0.121510 0.500000
O O20 0.966691 0.000000 0.347685
#
# Coordination Sequence:
#
# PCOD8058430 Si02
#       8
#     4   4   4   4   4   4   4   4
#     4  11  22  36  54  76 113 159 192 220 259 311
#     4  10  20  32  48  75 109 148 185 225 263 306
#     4  10  18  31  47  67 104 148 193 232 262 303
#     4  11  23  38  57  82 114 141 185 235 271 326
#     4  11  21  37  57  79 111 143 185 227 271 327
#     4  10  19  29  47  67  98 146 191 230 264 301
#     4  11  23  42  64  83 106 136 178 233 296 345
#     4  11  21  32  49  72 105 143 185 226 266 312
#
# _framework density 18.174278999999999
#
# number of rings (size 3 to 8) (size 9 to 14) (size 15 to 20)
#    0.000    1.375    3.750    3.000    0.000    5.500 
#    0.000    1.250    0.000    0.000    0.000    0.000 
#    0.000    8.500    0.000    3.250    0.000    0.000 
#
# Total GULP energy -396537.396667 kJ/mol
# GULP energy per Si atom -12391.793646 kJ/mol
# Density = 1.813291 g / cm^3
# Si number density = 18.174279 Si / 1000 Ang^3
#
#
#
# Elastic Constant Matrix: (Units=GPa)
#
#
# Indices 1 2 3 4 5 6 
#
# 1 87.2424 32.0159 37.9363 0.0000 -1.0741 0.0000
# 2 32.0159 79.2777 39.4241 0.0000 4.8694 0.0000
# 3 37.9363 39.4241 111.5663 0.0000 1.3500 0.0000
# 4 0.0000 0.0000 0.0000 16.5900 0.0000 -1.0932
# 5 -1.0741 4.8694 1.3500 0.0000 36.1719 0.0000
# 6 0.0000 0.0000 0.0000 -1.0932 0.0000 15.3415
#
#
#
# Elastic Compliance Matrix: (Units=1/GPa)
#
#
# Indices 1 2 3 4 5 6 
#
# 1 0.014529 -0.004214 -0.003465 0.000000 0.001128 0.000000
# 2 -0.004214 0.016651 -0.004425 0.000000 -0.002201 0.000000
# 3 -0.003465 -0.004425 0.011704 0.000000 0.000056 0.000000
# 4 0.000000 0.000000 0.000000 0.060561 0.000000 0.004315
# 5 0.001128 -0.002201 0.000056 0.000000 0.027974 0.000000
# 6 0.000000 0.000000 0.000000 0.004315 0.000000 0.065490
#
#
# Mechanical properties :
#
#
# Convention : Reuss Voigt Hill
#
# Bulk Modulus (GPa) = 53.53885 55.20435 54.37160
# Shear Modulus (GPa) = 21.99325 24.86804 23.43065
#
# Velocity S-wave (km/s) = 3.48247 3.70308 3.59447
# Velocity P-wave (km/s) = 6.75963 6.98031 6.87086
#
# Compressibility (1/GPa) = 0.01867802
#
# Stress axis : x y z
#
# Youngs Moduli (GPa) = 68.82647 60.05624 85.43830
#
# Poissons Ratio (x) = 0.25306 0.29605
# Poissons Ratio (y) = 0.29001 0.37802
# Poissons Ratio (z) = 0.23849 0.26572
#
# Static dielectric constant tensor:
#      x y z
#    x 3.605770 0.000000 -0.090840 
#    y 0.000000 2.924010 0.000000 
#    z -0.090840 0.000000 3.629280 
# 
# 
# High freq. dielectric constant tensor:
#      x y z
#    x 1.716620 0.000000 0.004480 
#    y 0.000000 1.626580 0.000000 
#    z 0.004480 0.000000 1.731620 
# 
# From -- ./inp_files/79749.got.cif
#   From: 2010.06.25/outbox.cif.g09.slc.cpg/sg10_40_cif.got.tgz:79749.got - 2010.06.27 22:07:45.
