data_PCOD8058418
_publ_section_title
;
Structure prediction by ZEFSAII (Michael W. Deem and Ramdas Pophale) SiO2 
 PCOD8058418
Probable space group: P 2/M
;
_chemical_formula_sum "Si O2"
_cell_formula_units_Z 32
_cell_length_a 22.732581
_cell_length_b 13.146701
_cell_length_c 22.700456
_cell_angle_alpha 90.000000
_cell_angle_beta 161.589726
_cell_angle_gamma 90.000000
_cell_volume 2142.587739
_symmetry_space_group_name_H-M "P 2/M"
_symmetry_group_IT_number 10
_symmetry_cell_setting 'monoclinic'
loop_
_space_group_symop_operation_xyz
x,y,z
-x,y,-z
-x,-y,-z
x,-y,z
loop_
_atom_site_type_symbol
_atom_site_label
_atom_site_fract_x
_atom_site_fract_y
_atom_site_fract_z
Si Si1 0.286974 0.614679 0.281879
Si Si2 0.298054 0.266538 0.177101
Si Si3 0.871218 0.620285 0.211790
Si Si4 0.718278 0.620172 0.377337
Si Si5 0.531837 0.621470 0.965027
Si Si6 0.558652 0.883799 0.490290
Si Si7 0.929235 0.203951 0.869994
Si Si8 0.623453 0.619224 0.867450
O O1 0.500000 0.627875 0.500000
O O2 0.216445 0.500000 0.224365
O O3 0.268523 0.644080 0.196179
O O4 0.161528 0.685172 0.204586
O O5 0.457518 0.186932 0.346850
O O6 0.353016 0.313414 0.167539
O O7 0.098983 0.209562 0.985013
O O8 0.883867 0.500000 0.228793
O O9 0.077309 0.668750 0.416424
O O10 0.730967 0.660541 0.129365
O O11 0.788464 0.648997 0.069346
O O12 0.736745 0.500000 0.391046
O O13 0.634377 0.660553 0.235598
O O14 0.576923 0.648356 0.295546
O O15 0.531401 0.500000 0.965534
O O16 0.500000 0.666555 0.000000
O O17 0.500000 0.848681 0.500000
O O18 0.781171 0.870471 0.698532
O O19 0.503426 0.000000 0.425104
O O20 0.000000 0.158303 0.000000
O O21 0.631655 0.500000 0.859413
#
# Coordination Sequence:
#
# PCOD8058418 Si02
#       8
#     4   4   4   4   4   4   4   4
#     4  10  18  31  46  61  88 114 131 162 208 252
#     4  11  20  32  48  66  84 106 139 171 209 258
#     4   8  14  25  36  50  75 108 143 176 210 244
#     4   8  14  25  38  51  75 110 143 174 210 244
#     4   8  13  20  32  52  75 100 138 186 222 244
#     4  11  21  36  52  67  85 102 128 169 218 266
#     4  10  19  33  47  67  85 104 133 163 204 259
#     4   9  18  29  41  59  83 110 142 177 206 243
#
# _framework density 14.935211000000001
#
# number of rings (size 3 to 8) (size 9 to 14) (size 15 to 20)
#    0.000    2.625    3.750    1.875    0.000    5.000 
#    0.000    2.500    0.000    0.000    0.000    0.000 
#    0.000    0.000    0.000    0.000    0.000   10.000 
#
# Total GULP energy -396621.997527 kJ/mol
# GULP energy per Si atom -12394.437423 kJ/mol
# Density = 1.490122 g / cm^3
# Si number density = 14.935211 Si / 1000 Ang^3
#
#
#
# Elastic Constant Matrix: (Units=GPa)
#
#
# Indices 1 2 3 4 5 6 
#
# 1 104.2635 25.7980 54.4117 0.0000 -2.5913 0.0000
# 2 25.7980 35.6464 21.4817 0.0000 -4.4142 0.0000
# 3 54.4117 21.4817 130.1249 0.0000 9.6829 0.0000
# 4 0.0000 0.0000 0.0000 87.5300 0.0000 41.9868
# 5 -2.5913 -4.4142 9.6829 0.0000 15.8903 0.0000
# 6 0.0000 0.0000 0.0000 41.9868 0.0000 29.5634
#
#
#
# Elastic Compliance Matrix: (Units=1/GPa)
#
#
# Indices 1 2 3 4 5 6 
#
# 1 0.013921 -0.006644 -0.004982 0.000000 0.003460 0.000000
# 2 -0.006644 0.036822 -0.004170 0.000000 0.011687 0.000000
# 3 -0.004982 -0.004170 0.011107 0.000000 -0.008739 0.000000
# 4 0.000000 0.000000 0.000000 0.035843 0.000000 -0.050906
# 5 0.003460 0.011687 -0.008739 0.000000 0.072067 0.000000
# 6 0.000000 0.000000 0.000000 -0.050906 0.000000 0.106124
#
#
# Mechanical properties :
#
#
# Convention : Reuss Voigt Hill
#
# Bulk Modulus (GPa) = 33.04944 52.60197 42.82570
# Shear Modulus (GPa) = 15.74497 37.81964 26.78230
#
# Velocity S-wave (km/s) = 3.25039 5.03760 4.23925
# Velocity P-wave (km/s) = 6.02190 8.31463 7.25936
#
# Compressibility (1/GPa) = 0.03025770
#
# Stress axis : x y z
#
# Youngs Moduli (GPa) = 71.83505 27.15762 90.03600
#
# Poissons Ratio (x) = 0.18044 0.44852
# Poissons Ratio (y) = 0.47729 0.37546
# Poissons Ratio (z) = 0.35785 0.11325
#
# Static dielectric constant tensor:
#      x y z
#    x 2.807370 0.000000 0.109550 
#    y 0.000000 2.443330 0.000000 
#    z 0.109550 0.000000 3.420200 
# 
# 
# High freq. dielectric constant tensor:
#      x y z
#    x 1.550970 0.000000 0.008310 
#    y 0.000000 1.511900 0.000000 
#    z 0.008310 0.000000 1.594020 
# 
# From -- ./inp_files/86358.got.cif
#   From: 2010.06.25/outbox.cif.g09.slc.cpg/sg10_44_cif.got.tgz:86358.got - 2010.06.27 22:07:45.
