data_PCOD8058807
_publ_section_title
;
Structure prediction by ZEFSAII (Michael W. Deem and Ramdas Pophale) SiO2 
 PCOD8058807
Probable space group: P 2/M
;
_chemical_formula_sum "Si O2"
_cell_formula_units_Z 32
_cell_length_a 18.058547
_cell_length_b 8.868539
_cell_length_c 24.882257
_cell_angle_alpha 90.000000
_cell_angle_beta 153.849170
_cell_angle_gamma 90.000000
_cell_volume 1756.316852
_symmetry_space_group_name_H-M "P 2/M"
_symmetry_group_IT_number 10
_symmetry_cell_setting 'monoclinic'
loop_
_space_group_symop_operation_xyz
x,y,z
-x,y,-z
-x,-y,-z
x,-y,z
loop_
_atom_site_type_symbol
_atom_site_label
_atom_site_fract_x
_atom_site_fract_y
_atom_site_fract_z
Si Si1 0.677755 0.178203 0.005153
Si Si2 0.389378 0.669053 0.874952
Si Si3 0.783743 0.177878 0.957971
Si Si4 0.893395 0.177669 0.248698
Si Si5 0.425494 0.178025 0.279939
Si Si6 0.318383 0.827753 0.401277
Si Si7 0.756383 0.322502 0.538062
Si Si8 0.853281 0.172659 0.821429
O O1 0.739913 0.242490 0.988266
O O2 0.813938 0.223585 0.139220
O O3 0.650468 0.000000 0.986665
O O4 0.496856 0.252938 0.898052
O O5 0.339462 0.500000 0.824833
O O6 0.222486 0.765355 0.777866
O O7 0.500000 0.666297 0.000000
O O8 0.961027 0.245846 0.051203
O O9 0.809360 0.000000 0.980356
O O10 0.636339 0.217244 0.820326
O O11 0.072612 0.254436 0.373574
O O12 0.914702 0.000000 0.266911
O O13 0.602198 0.258495 0.403233
O O14 0.289164 0.246956 0.233505
O O15 0.450141 0.000000 0.304971
O O16 0.500000 0.774809 0.500000
O O17 0.259350 0.719757 0.409901
O O18 0.188725 0.811397 0.268531
O O19 0.325767 0.000000 0.427510
O O20 0.761271 0.500000 0.534829
O O21 0.859896 0.000000 0.844431
#
# Coordination Sequence:
#
# PCOD8058807 Si02
#       8
#     4   4   4   4   4   4   4   4
#     4   9  17  31  52  80 109 135 167 209 257 305
#     4   9  17  30  50  78 111 140 166 199 249 310
#     4   9  17  29  51  79 102 128 171 223 259 296
#     4  10  19  33  55  80 107 136 170 209 253 305
#     4  10  19  34  53  72  97 135 180 219 259 301
#     4  10  18  32  53  75 100 132 170 211 256 306
#     4  12  24  35  49  72 106 140 174 213 259 310
#     4   9  16  29  51  78 102 127 169 222 265 300
#
# _framework density 18.219947000000001
#
# number of rings (size 3 to 8) (size 9 to 14) (size 15 to 20)
#    0.000    2.250    1.250    3.000    0.000    5.750 
#    0.000    0.625    0.000    3.750    0.000    5.250 
#    0.000    0.000    0.000    0.000    0.000    0.000 
#
# Total GULP energy -396765.494111 kJ/mol
# GULP energy per Si atom -12398.921691 kJ/mol
# Density = 1.817848 g / cm^3
# Si number density = 18.219947 Si / 1000 Ang^3
#
#
#
# Elastic Constant Matrix: (Units=GPa)
#
#
# Indices 1 2 3 4 5 6 
#
# 1 102.6636 35.7274 65.9651 0.0000 25.3041 0.0000
# 2 35.7274 68.2044 42.3771 0.0000 14.7295 0.0000
# 3 65.9651 42.3771 108.6934 0.0000 24.4541 0.0000
# 4 0.0000 0.0000 0.0000 11.7598 0.0000 1.9234
# 5 25.3041 14.7295 24.4541 0.0000 29.4908 0.0000
# 6 0.0000 0.0000 0.0000 1.9234 0.0000 12.6292
#
#
#
# Elastic Compliance Matrix: (Units=1/GPa)
#
#
# Indices 1 2 3 4 5 6 
#
# 1 0.017581 -0.002693 -0.008026 0.000000 -0.007085 0.000000
# 2 -0.002693 0.020192 -0.005519 0.000000 -0.003199 0.000000
# 3 -0.008026 -0.005519 0.017276 0.000000 -0.004683 0.000000
# 4 0.000000 0.000000 0.000000 0.087207 0.000000 -0.013281
# 5 -0.007085 -0.003199 -0.004683 0.000000 0.045469 0.000000
# 6 0.000000 0.000000 0.000000 -0.013281 0.000000 0.081204
#
#
# Mechanical properties :
#
#
# Convention : Reuss Voigt Hill
#
# Bulk Modulus (GPa) = 44.29740 63.07785 53.68762
# Shear Modulus (GPa) = 16.18499 19.80873 17.99686
#
# Velocity S-wave (km/s) = 2.98369 3.30085 3.14627
# Velocity P-wave (km/s) = 6.01957 7.01590 6.53675
#
# Compressibility (1/GPa) = 0.02257469
#
# Stress axis : x y z
#
# Youngs Moduli (GPa) = 56.88040 49.52475 57.88321
#
# Poissons Ratio (x) = 0.13335 0.46456
# Poissons Ratio (y) = 0.15315 0.31944
# Poissons Ratio (z) = 0.45651 0.27331
#
# Static dielectric constant tensor:
#      x y z
#    x 3.477920 0.000000 0.182870 
#    y 0.000000 3.096520 0.000000 
#    z 0.182870 0.000000 3.333700 
# 
# 
# High freq. dielectric constant tensor:
#      x y z
#    x 1.703560 0.000000 0.017100 
#    y 0.000000 1.673500 0.000000 
#    z 0.017100 0.000000 1.698560 
# 
# From -- ./inp_files/89977.got.cif
#   From: 2010.06.25/outbox.cif.g09.slc.cpg/sg10_45_cif.got.tgz:89977.got - 2010.06.27 22:07:45.
