data_PCOD8058282
_publ_section_title
;
Structure prediction by ZEFSAII (Michael W. Deem and Ramdas Pophale) SiO2 
 PCOD8058282
Probable space group: P 2/M
;
_chemical_formula_sum "Si O2"
_cell_formula_units_Z 26
_cell_length_a 26.056551
_cell_length_b 9.304362
_cell_length_c 8.875674
_cell_angle_alpha 90.000000
_cell_angle_beta 144.667108
_cell_angle_gamma 90.000000
_cell_volume 1244.450502
_symmetry_space_group_name_H-M "P 2/M"
_symmetry_group_IT_number 10
_symmetry_cell_setting 'monoclinic'
loop_
_space_group_symop_operation_xyz
x,y,z
-x,y,-z
-x,-y,-z
x,-y,z
loop_
_atom_site_type_symbol
_atom_site_label
_atom_site_fract_x
_atom_site_fract_y
_atom_site_fract_z
Si Si1 0.885388 0.667806 0.782905
Si Si2 0.501935 0.165299 0.834328
Si Si3 0.591943 0.338399 0.808783
Si Si4 0.052650 0.164913 0.315238
Si Si5 0.320435 0.834334 0.227708
Si Si6 0.180845 0.656731 0.064320
Si Si7 0.000000 0.260821 0.500000
O O1 0.904361 0.500000 0.795588
O O2 0.864970 0.751358 0.574239
O O3 0.810539 0.683632 0.733800
O O4 0.968680 0.748750 0.054510
O O5 0.576505 0.259070 0.929823
O O6 0.404560 0.189750 0.535260
O O7 0.530974 0.000000 0.889628
O O8 0.500000 0.218902 0.000000
O O9 0.500000 0.337066 0.500000
O O10 0.625517 0.500000 0.919122
O O11 0.667160 0.254198 0.896356
O O12 0.052112 0.168948 0.496206
O O13 0.052812 0.000000 0.263828
O O14 0.233341 0.780859 0.104881
O O15 0.306609 0.000000 0.151878
O O16 0.222378 0.500000 0.126915
O O17 0.077515 0.648263 0.765878
#
# Coordination Sequence:
#
# PCOD8058282 Si02
#       7
#     4   4   4   4   4   4   2
#     4   9  18  32  50  71  97 132 171 212 263 320
#     4   9  18  34  56  82 112 145 179 216 262 317
#     4   9  17  31  53  80 110 144 180 217 260 314
#     4  10  18  30  50  74  98 126 167 218 267 316
#     4  10  20  34  55  81 109 142 178 219 267 318
#     4  10  21  37  56  77 104 139 180 224 269 320
#     4  10  22  36  54  78 104 138 180 226 274 320
#
# _framework density 20.892757
#
# number of rings (size 3 to 8) (size 9 to 14) (size 15 to 20)
#    0.000    2.462    0.000    3.231    0.000    8.308 
#    0.000    1.538    0.000    3.692    0.000    0.000 
#    0.000    0.000    0.000    0.000    0.000    0.000 
#
# Total GULP energy -322099.286171 kJ/mol
# GULP energy per Si atom -12388.434084 kJ/mol
# Density = 2.084520 g / cm^3
# Si number density = 20.892757 Si / 1000 Ang^3
#
#
#
# Elastic Constant Matrix: (Units=GPa)
#
#
# Indices 1 2 3 4 5 6 
#
# 1 180.3258 94.4323 34.3950 0.0000 -28.7442 0.0000
# 2 94.4323 171.4401 25.2212 0.0000 -13.6225 0.0000
# 3 34.3950 25.2212 24.8948 0.0000 -14.2434 0.0000
# 4 0.0000 0.0000 0.0000 10.9544 0.0000 -1.1114
# 5 -28.7442 -13.6225 -14.2434 0.0000 31.6626 0.0000
# 6 0.0000 0.0000 0.0000 -1.1114 0.0000 46.7304
#
#
#
# Elastic Compliance Matrix: (Units=1/GPa)
#
#
# Indices 1 2 3 4 5 6 
#
# 1 0.009550 -0.003922 -0.007038 0.000000 0.003817 0.000000
# 2 -0.003922 0.008466 -0.004191 0.000000 -0.001803 0.000000
# 3 -0.007038 -0.004191 0.066590 0.000000 0.021764 0.000000
# 4 0.000000 0.000000 0.000000 0.091508 0.000000 0.002176
# 5 0.003817 -0.001803 0.021764 0.000000 0.044062 0.000000
# 6 0.000000 0.000000 0.000000 0.002176 0.000000 0.021451
#
#
# Mechanical properties :
#
#
# Convention : Reuss Voigt Hill
#
# Bulk Modulus (GPa) = 18.41404 76.08419 47.24911
# Shear Modulus (GPa) = 17.23964 32.71030 24.97497
#
# Velocity S-wave (km/s) = 2.87566 3.96110 3.46119
# Velocity P-wave (km/s) = 4.45630 7.57733 6.21589
#
# Compressibility (1/GPa) = 0.05430639
#
# Stress axis : x y z
#
# Youngs Moduli (GPa) = 104.71313 118.11517 15.01732
#
# Poissons Ratio (x) = 0.46321 0.10569
# Poissons Ratio (y) = 0.41065 0.06293
# Poissons Ratio (z) = 0.73693 0.49497
#
# Static dielectric constant tensor:
#      x y z
#    x 4.903210 0.000000 -0.682460 
#    y 0.000000 3.797600 0.000000 
#    z -0.682460 0.000000 3.439320 
# 
# 
# High freq. dielectric constant tensor:
#      x y z
#    x 1.837220 0.000000 -0.024210 
#    y 0.000000 1.824020 0.000000 
#    z -0.024210 0.000000 1.767690 
# 
# From -- ./inp_files/36814.got.cif
#   From: 2010.06.25/outbox.cif.g09.slc.cpg/sg10_19_cif.got.tgz:36814.got - 2010.06.27 22:07:45.
