data_PCOD8058453
_publ_section_title
;
Structure prediction by ZEFSAII (Michael W. Deem and Ramdas Pophale) SiO2 
 PCOD8058453
Probable space group: P 2/M
;
_chemical_formula_sum "Si O2"
_cell_formula_units_Z 32
_cell_length_a 20.717216
_cell_length_b 8.712884
_cell_length_c 14.511158
_cell_angle_alpha 90.000000
_cell_angle_beta 137.396702
_cell_angle_gamma 90.000000
_cell_volume 1773.093661
_symmetry_space_group_name_H-M "P 2/M"
_symmetry_group_IT_number 10
_symmetry_cell_setting 'monoclinic'
loop_
_space_group_symop_operation_xyz
x,y,z
-x,y,-z
-x,-y,-z
x,-y,z
loop_
_atom_site_type_symbol
_atom_site_label
_atom_site_fract_x
_atom_site_fract_y
_atom_site_fract_z
Si Si1 0.513818 0.320609 0.913878
Si Si2 0.686435 0.172734 0.686012
Si Si3 0.994233 0.319806 0.889162
Si Si4 0.800212 0.182610 0.636852
Si Si5 0.823298 0.826883 0.001722
Si Si6 0.474386 0.182530 0.356850
Si Si7 0.668150 0.678193 0.939824
Si Si8 0.376804 0.682539 0.609703
O O1 0.493002 0.500000 0.899779
O O2 0.437515 0.255005 0.760172
O O3 0.500000 0.242879 0.000000
O O4 0.622059 0.290487 0.992256
O O5 0.751013 0.257078 0.677486
O O6 0.575394 0.223009 0.593746
O O7 0.679034 0.000000 0.641916
O O8 0.743008 0.184745 0.840243
O O9 0.979869 0.500000 0.876601
O O10 0.906749 0.245389 0.742063
O O11 0.088128 0.279230 0.930730
O O12 0.000000 0.253840 0.000000
O O13 0.730511 0.253033 0.485232
O O14 0.805545 0.000000 0.637349
O O15 0.769353 0.766684 0.037002
O O16 0.859901 0.000000 0.054533
O O17 0.581966 0.242583 0.444410
O O18 0.466883 0.000000 0.334732
O O19 0.410865 0.270013 0.215746
O O20 0.688753 0.500000 0.945151
O O21 0.379197 0.500000 0.602665
#
# Coordination Sequence:
#
# PCOD8058453 Si02
#       8
#     4   4   4   4   4   4   4   4
#     4   8  15  30  53  77 101 130 160 192 238 299
#     4   8  16  28  44  64  86 122 167 203 229 274
#     4  11  22  34  49  72  97 125 167 220 259 279
#     4  11  21  34  49  65  92 131 171 204 243 294
#     4  10  18  31  49  68  95 132 170 204 244 292
#     4   9  16  29  46  64  89 126 166 198 236 286
#     4   9  16  27  46  74 102 125 157 203 247 285
#     4  10  20  33  47  69  98 125 159 205 248 287
#
# _framework density 18.047550000000001
#
# number of rings (size 3 to 8) (size 9 to 14) (size 15 to 20)
#    0.000    2.500    1.250    3.750    0.000    1.000 
#    0.000    4.375    0.000   13.500    0.000    0.875 
#    0.000    7.000    0.000    0.000    0.000    0.000 
#
# Total GULP energy -396483.438992 kJ/mol
# GULP energy per Si atom -12390.107468 kJ/mol
# Density = 1.800647 g / cm^3
# Si number density = 18.047550 Si / 1000 Ang^3
#
#
#
# Elastic Constant Matrix: (Units=GPa)
#
#
# Indices 1 2 3 4 5 6 
#
# 1 91.6663 21.2342 40.8753 0.0000 15.5334 0.0000
# 2 21.2342 61.5695 18.1643 0.0000 3.0210 0.0000
# 3 40.8753 18.1643 61.8598 0.0000 15.5222 0.0000
# 4 0.0000 0.0000 0.0000 20.3950 0.0000 11.4109
# 5 15.5334 3.0210 15.5222 0.0000 25.3274 0.0000
# 6 0.0000 0.0000 0.0000 11.4109 0.0000 23.2331
#
#
#
# Elastic Compliance Matrix: (Units=1/GPa)
#
#
# Indices 1 2 3 4 5 6 
#
# 1 0.016204 -0.002775 -0.008842 0.000000 -0.004188 0.000000
# 2 -0.002775 0.018292 -0.004038 0.000000 0.001995 0.000000
# 3 -0.008842 -0.004038 0.025658 0.000000 -0.009820 0.000000
# 4 0.000000 0.000000 0.000000 0.067611 0.000000 -0.033207
# 5 -0.004188 0.001995 -0.009820 0.000000 0.047832 0.000000
# 6 0.000000 0.000000 0.000000 -0.033207 0.000000 0.059351
#
#
# Mechanical properties :
#
#
# Convention : Reuss Voigt Hill
#
# Bulk Modulus (GPa) = 34.66792 41.73816 38.20304
# Shear Modulus (GPa) = 18.12427 22.77922 20.45174
#
# Velocity S-wave (km/s) = 3.17243 3.55657 3.36998
# Velocity P-wave (km/s) = 5.71577 6.32792 6.02962
#
# Compressibility (1/GPa) = 0.02884511
#
# Stress axis : x y z
#
# Youngs Moduli (GPa) = 61.71232 54.66790 38.97428
#
# Poissons Ratio (x) = 0.15168 0.34460
# Poissons Ratio (y) = 0.17123 0.15740
# Poissons Ratio (z) = 0.54564 0.22077
#
# Static dielectric constant tensor:
#      x y z
#    x 3.660700 0.000000 0.099360 
#    y 0.000000 3.200340 0.000000 
#    z 0.099360 0.000000 3.326070 
# 
# 
# High freq. dielectric constant tensor:
#      x y z
#    x 1.692860 0.000000 0.028610 
#    y 0.000000 1.688120 0.000000 
#    z 0.028610 0.000000 1.676000 
# 
# From -- ./inp_files/70012.got.cif
#   From: 2010.06.25/outbox.cif.g09.slc.cpg/sg10_36_cif.got.tgz:70012.got - 2010.06.27 22:07:45.
