data_PCOD8058303
_publ_section_title
;
Structure prediction by ZEFSAII (Michael W. Deem and Ramdas Pophale) SiO2 
 PCOD8058303
Probable space group: P 2/M
;
_chemical_formula_sum "Si O2"
_cell_formula_units_Z 22
_cell_length_a 12.174334
_cell_length_b 20.616078
_cell_length_c 5.006123
_cell_angle_alpha 90.000000
_cell_angle_beta 105.940069
_cell_angle_gamma 90.000000
_cell_volume 1208.159899
_symmetry_space_group_name_H-M "P 2/M"
_symmetry_group_IT_number 10
_symmetry_cell_setting 'monoclinic'
loop_
_space_group_symop_operation_xyz
x,y,z
-x,y,-z
-x,-y,-z
x,-y,z
loop_
_atom_site_type_symbol
_atom_site_label
_atom_site_fract_x
_atom_site_fract_y
_atom_site_fract_z
Si Si1 0.238373 0.257258 0.765025
Si Si2 0.082078 0.859858 0.803484
Si Si3 0.370520 0.296417 0.343953
Si Si4 0.876895 0.611025 0.300607
Si Si5 0.079603 0.000000 0.805024
Si Si6 0.746603 0.428071 0.713975
O O1 0.183701 0.189961 0.819761
O O2 0.287213 0.259416 0.496813
O O3 0.139966 0.311540 0.724093
O O4 0.344362 0.269673 0.032847
O O5 0.000000 0.858387 0.500000
O O6 0.146366 0.930867 0.864513
O O7 0.000000 0.843360 0.000000
O O8 0.500000 0.280997 0.500000
O O9 0.351164 0.374066 0.315304
O O10 0.787499 0.577049 0.437207
O O11 0.000000 0.593843 0.500000
O O12 0.853552 0.583444 0.988015
O O13 0.000000 0.000000 0.500000
O O14 0.000000 0.000000 0.000000
O O15 0.695138 0.500000 0.725268
#
# Coordination Sequence:
#
# PCOD8058303 Si02
#       6
#     4   4   4   4   2   4
#     4  10  20  33  51  75  97 127 166 199 241 292
#     4  10  18  30  50  77 110 138 161 191 231 282
#     4  10  21  37  53  70  93 121 163 216 256 286
#     4  10  20  32  47  69  99 127 154 190 232 288
#     4   8  16  28  44  72 107 140 165 186 220 276
#     4  10  21  34  49  70  92 120 160 197 241 300
#
# _framework density 18.209510999999999
#
# number of rings (size 3 to 8) (size 9 to 14) (size 15 to 20)
#    0.000    2.182    0.000    3.273    0.000    5.455 
#    0.000    0.000    0.000    6.545    0.000    3.818 
#    0.000    0.000    0.000    0.000    0.000    0.000 
#
# Total GULP energy -272604.772187 kJ/mol
# GULP energy per Si atom -12391.126008 kJ/mol
# Density = 1.816807 g / cm^3
# Si number density = 18.209511 Si / 1000 Ang^3
#
#
#
# Elastic Constant Matrix: (Units=GPa)
#
#
# Indices 1 2 3 4 5 6 
#
# 1 42.1047 32.7863 9.7001 0.0000 4.1323 0.0000
# 2 32.7863 130.7770 9.3059 0.0000 -4.9464 0.0000
# 3 9.7001 9.3059 83.5708 0.0000 -11.5621 0.0000
# 4 0.0000 0.0000 0.0000 14.1869 0.0000 -5.0084
# 5 4.1323 -4.9464 -11.5621 0.0000 27.3602 0.0000
# 6 0.0000 0.0000 0.0000 -5.0084 0.0000 15.7771
#
#
#
# Elastic Compliance Matrix: (Units=1/GPa)
#
#
# Indices 1 2 3 4 5 6 
#
# 1 0.031596 -0.007943 -0.003868 0.000000 -0.007842 0.000000
# 2 -0.007943 0.009735 0.000263 0.000000 0.003071 0.000000
# 3 -0.003868 0.000263 0.013248 0.000000 0.006230 0.000000
# 4 0.000000 0.000000 0.000000 0.079384 0.000000 0.025200
# 5 -0.007842 0.003071 0.006230 0.000000 0.040922 0.000000
# 6 0.000000 0.000000 0.000000 0.025200 0.000000 0.071383
#
#
# Mechanical properties :
#
#
# Convention : Reuss Voigt Hill
#
# Bulk Modulus (GPa) = 31.76320 40.00412 35.88366
# Shear Modulus (GPa) = 17.86625 25.10886 21.48755
#
# Velocity S-wave (km/s) = 3.13573 3.71737 3.43887
# Velocity P-wave (km/s) = 5.53095 6.35937 5.95957
#
# Compressibility (1/GPa) = 0.03148298
#
# Stress axis : x y z
#
# Youngs Moduli (GPa) = 31.64973 102.71905 75.48583
#
# Poissons Ratio (x) = 0.81586 0.29197
# Poissons Ratio (y) = 0.25138 -0.01983
# Poissons Ratio (z) = 0.12242 -0.02698
#
# Static dielectric constant tensor:
#      x y z
#    x 2.869650 0.000000 -0.191130 
#    y 0.000000 3.658190 0.000000 
#    z -0.191130 0.000000 3.592020 
# 
# 
# High freq. dielectric constant tensor:
#      x y z
#    x 1.659500 0.000000 -0.020370 
#    y 0.000000 1.705660 0.000000 
#    z -0.020370 0.000000 1.730200 
# 
# From -- ./inp_files/7274.got.cif
#   From: 2010.06.25/outbox.cif.g09.slc.cpg/sg10_4_cif.got.tgz:7274.got - 2010.06.27 22:07:45.
