data_PCOD8058004
_publ_section_title
;
Structure prediction by ZEFSAII (Michael W. Deem and Ramdas Pophale) SiO2 
 PCOD8058004
Probable space group: P 2/M
;
_chemical_formula_sum "Si O2"
_cell_formula_units_Z 28
_cell_length_a 15.906537
_cell_length_b 13.541292
_cell_length_c 7.271765
_cell_angle_alpha 90.000000
_cell_angle_beta 120.904649
_cell_angle_gamma 90.000000
_cell_volume 1343.923743
_symmetry_space_group_name_H-M "P 2/M"
_symmetry_group_IT_number 10
_symmetry_cell_setting 'monoclinic'
loop_
_space_group_symop_operation_xyz
x,y,z
-x,y,-z
-x,-y,-z
x,-y,z
loop_
_atom_site_type_symbol
_atom_site_label
_atom_site_fract_x
_atom_site_fract_y
_atom_site_fract_z
Si Si1 0.722121 0.885272 0.025328
Si Si2 0.677013 0.112504 0.553344
Si Si3 0.871133 0.197377 0.686241
Si Si4 0.771755 0.611413 0.448861
Si Si5 0.080536 0.190376 0.853102
Si Si6 0.394011 0.244796 0.811597
Si Si7 0.093368 0.605689 0.730613
O O1 0.839593 0.865223 0.185222
O O2 0.661100 0.816657 0.091615
O O3 0.699702 0.000000 0.039644
O O4 0.693160 0.856065 0.782840
O O5 0.774485 0.132372 0.535109
O O6 0.593493 0.177311 0.358994
O O7 0.644804 0.000000 0.502767
O O8 0.841812 0.313775 0.643266
O O9 0.966041 0.173514 0.661998
O O10 0.904938 0.158718 0.922138
O O11 0.769806 0.500000 0.534080
O O12 0.662600 0.655811 0.310766
O O13 0.810106 0.605101 0.285055
O O14 0.102640 0.307326 0.886208
O O15 0.500000 0.277098 0.000000
O O16 0.083419 0.500000 0.822423
O O17 0.000000 0.625200 0.500000
#
# Coordination Sequence:
#
# PCOD8058004 Si02
#       7
#     4   4   4   4   4   4   4
#     4  10  21  37  57  81 112 147 180 219 269 321
#     4   9  20  38  56  81 113 142 177 222 270 319
#     4   9  19  31  52  79 110 147 178 216 256 309
#     4  10  20  36  55  76 106 141 176 221 273 321
#     4  10  18  32  50  78 112 145 182 213 255 312
#     4  11  23  39  60  82 104 135 182 234 279 328
#     4  10  18  29  49  75 104 139 175 215 260 314
#
# _framework density 20.834517000000002
#
# number of rings (size 3 to 8) (size 9 to 14) (size 15 to 20)
#    0.000    2.143    2.857    0.429    0.000    3.143 
#    0.000    5.714    0.000    3.000    0.000    4.000 
#    0.000    0.000    0.000    0.000    0.000    0.000 
#
# Total GULP energy -346871.030408 kJ/mol
# GULP energy per Si atom -12388.251086 kJ/mol
# Density = 2.078710 g / cm^3
# Si number density = 20.834517 Si / 1000 Ang^3
#
#
#
# Elastic Constant Matrix: (Units=GPa)
#
#
# Indices 1 2 3 4 5 6 
#
# 1 55.7413 6.2256 9.1872 0.0000 9.5040 0.0000
# 2 6.2256 59.9449 5.9029 0.0000 3.2974 0.0000
# 3 9.1872 5.9029 48.2896 0.0000 19.3997 0.0000
# 4 0.0000 0.0000 0.0000 26.2372 0.0000 -3.2118
# 5 9.5040 3.2974 19.3997 0.0000 26.2201 0.0000
# 6 0.0000 0.0000 0.0000 -3.2118 0.0000 28.2266
#
#
#
# Elastic Compliance Matrix: (Units=1/GPa)
#
#
# Indices 1 2 3 4 5 6 
#
# 1 0.019317 -0.001570 -0.001067 0.000000 -0.006015 0.000000
# 2 -0.001570 0.017026 -0.001638 0.000000 -0.000360 0.000000
# 3 -0.001067 -0.001638 0.029702 0.000000 -0.021383 0.000000
# 4 0.000000 0.000000 0.000000 0.038652 0.000000 0.004398
# 5 -0.006015 -0.000360 -0.021383 0.000000 0.056185 0.000000
# 6 0.000000 0.000000 0.000000 0.004398 0.000000 0.035928
#
#
# Mechanical properties :
#
#
# Convention : Reuss Voigt Hill
#
# Bulk Modulus (GPa) = 17.39266 22.95638 20.17452
# Shear Modulus (GPa) = 22.26923 25.64745 23.95834
#
# Velocity S-wave (km/s) = 3.27289 3.51238 3.39475
# Velocity P-wave (km/s) = 4.75905 5.24323 5.00699
#
# Compressibility (1/GPa) = 0.05749550
#
# Stress axis : x y z
#
# Youngs Moduli (GPa) = 51.76848 58.73314 33.66778
#
# Poissons Ratio (x) = 0.09223 0.03591
# Poissons Ratio (y) = 0.08129 0.05514
# Poissons Ratio (z) = 0.05522 0.09619
#
# Static dielectric constant tensor:
#      x y z
#    x 3.799700 0.000000 0.132170 
#    y 0.000000 3.825600 0.000000 
#    z 0.132170 0.000000 3.789640 
# 
# 
# High freq. dielectric constant tensor:
#      x y z
#    x 1.801010 0.000000 0.002670 
#    y 0.000000 1.806220 0.000000 
#    z 0.002670 0.000000 1.802290 
# 
# From -- ./inp_files/28664.got.cif
#   From: 2010.06.25/outbox.cif.g09.slc.cpg/sg10_15_cif.got.tgz:28664.got - 2010.06.27 22:07:45.
