data_PCOD8058869
_publ_section_title
;
Structure prediction by ZEFSAII (Michael W. Deem and Ramdas Pophale) SiO2 
 PCOD8058869
Probable space group: P 2/M
;
_chemical_formula_sum "Si O2"
_cell_formula_units_Z 26
_cell_length_a 14.514356
_cell_length_b 9.562377
_cell_length_c 11.500207
_cell_angle_alpha 90.000000
_cell_angle_beta 119.374591
_cell_angle_gamma 90.000000
_cell_volume 1390.921142
_symmetry_space_group_name_H-M "P 2/M"
_symmetry_group_IT_number 10
_symmetry_cell_setting 'monoclinic'
loop_
_space_group_symop_operation_xyz
x,y,z
-x,y,-z
-x,-y,-z
x,-y,z
loop_
_atom_site_type_symbol
_atom_site_label
_atom_site_fract_x
_atom_site_fract_y
_atom_site_fract_z
Si Si1 0.322765 0.161605 0.675696
Si Si2 0.000000 0.748928 0.500000
Si Si3 0.112453 0.166374 0.122552
Si Si4 0.152265 0.842998 0.402049
Si Si5 0.194538 0.347137 0.755809
Si Si6 0.255086 0.337341 0.042759
Si Si7 0.455453 0.160039 0.100644
O O1 0.260499 0.223890 0.523838
O O2 0.277769 0.233752 0.763321
O O3 0.448572 0.181606 0.747194
O O4 0.291743 0.000000 0.670518
O O5 0.940132 0.841869 0.558760
O O6 0.917469 0.654499 0.378813
O O7 0.117184 0.225306 0.258324
O O8 0.205313 0.248218 0.115281
O O9 0.130142 0.000000 0.121095
O O10 0.000000 0.209977 0.000000
O O11 0.178624 0.000000 0.384317
O O12 0.244897 0.500000 0.766357
O O13 0.178536 0.322179 0.883439
O O14 0.268980 0.500000 0.087536
O O15 0.368594 0.272431 0.081812
O O16 0.412663 0.000000 0.081536
O O17 0.500000 0.190132 0.000000
#
# Coordination Sequence:
#
# PCOD8058869 Si02
#       7
#     4   2   4   4   4   4   4
#     4   9  18  33  54  79 107 136 172 220 274 322
#     4  10  18  32  54  78 107 138 175 218 273 332
#     4  10  21  38  58  80 109 146 187 226 267 319
#     4   9  18  33  54  81 108 137 176 225 275 320
#     4  10  20  32  48  75 109 141 175 216 266 321
#     4  11  23  36  54  81 112 147 185 224 271 323
#     4  10  19  34  57  84 110 141 181 227 275 324
#
# _framework density 18.692647000000001
#
# number of rings (size 3 to 8) (size 9 to 14) (size 15 to 20)
#    0.000    2.154    1.538    1.846    0.000    2.462 
#    0.000    4.615    0.000    4.615    0.000    0.000 
#    0.000    0.000    0.000    0.000    0.000    0.000 
#
# Total GULP energy -322218.131757 kJ/mol
# GULP energy per Si atom -12393.005068 kJ/mol
# Density = 1.865010 g / cm^3
# Si number density = 18.692647 Si / 1000 Ang^3
#
#
#
# Elastic Constant Matrix: (Units=GPa)
#
#
# Indices 1 2 3 4 5 6 
#
# 1 96.5570 38.6216 54.1644 0.0000 -1.3281 0.0000
# 2 38.6216 64.1008 32.0567 0.0000 0.3615 0.0000
# 3 54.1644 32.0567 129.1113 0.0000 -5.2566 0.0000
# 4 0.0000 0.0000 0.0000 19.2386 0.0000 1.0457
# 5 -1.3281 0.3615 -5.2566 0.0000 28.0708 0.0000
# 6 0.0000 0.0000 0.0000 1.0457 0.0000 14.3947
#
#
#
# Elastic Compliance Matrix: (Units=1/GPa)
#
#
# Indices 1 2 3 4 5 6 
#
# 1 0.015988 -0.007167 -0.004931 0.000000 -0.000075 0.000000
# 2 -0.007167 0.021056 -0.002264 0.000000 -0.001034 0.000000
# 3 -0.004931 -0.002264 0.010447 0.000000 0.001752 0.000000
# 4 0.000000 0.000000 0.000000 0.052185 0.000000 -0.003791
# 5 -0.000075 -0.001034 0.001752 0.000000 0.035962 0.000000
# 6 0.000000 0.000000 0.000000 -0.003791 0.000000 0.069745
#
#
# Mechanical properties :
#
#
# Convention : Reuss Voigt Hill
#
# Bulk Modulus (GPa) = 53.27859 59.93939 56.60899
# Shear Modulus (GPa) = 20.80186 23.33592 22.06889
#
# Velocity S-wave (km/s) = 3.33954 3.53710 3.43974
# Velocity P-wave (km/s) = 6.59047 6.98691 6.79158
#
# Compressibility (1/GPa) = 0.01876926
#
# Stress axis : x y z
#
# Youngs Moduli (GPa) = 62.54603 47.49172 95.71918
#
# Poissons Ratio (x) = 0.34036 0.47199
# Poissons Ratio (y) = 0.44825 0.21666
# Poissons Ratio (z) = 0.30841 0.10750
#
# Static dielectric constant tensor:
#      x y z
#    x 3.184210 0.000000 0.122380 
#    y 0.000000 3.258860 0.000000 
#    z 0.122380 0.000000 3.884600 
# 
# 
# High freq. dielectric constant tensor:
#      x y z
#    x 1.702310 0.000000 0.012270 
#    y 0.000000 1.711200 0.000000 
#    z 0.012270 0.000000 1.741290 
# 
# From -- ./inp_files/49475.got.cif
#   From: 2010.06.25/outbox.cif.g09.slc.cpg/sg10_25_cif.got.tgz:49475.got - 2010.06.27 22:07:45.
