data_PCOD8058192
_publ_section_title
;
Structure prediction by ZEFSAII (Michael W. Deem and Ramdas Pophale) SiO2 
 PCOD8058192
Probable space group: P 2/M
;
_chemical_formula_sum "Si O2"
_cell_formula_units_Z 28
_cell_length_a 13.783069
_cell_length_b 9.073851
_cell_length_c 13.466943
_cell_angle_alpha 90.000000
_cell_angle_beta 121.892091
_cell_angle_gamma 90.000000
_cell_volume 1430.003539
_symmetry_space_group_name_H-M "P 2/M"
_symmetry_group_IT_number 10
_symmetry_cell_setting 'monoclinic'
loop_
_space_group_symop_operation_xyz
x,y,z
-x,y,-z
-x,-y,-z
x,-y,z
loop_
_atom_site_type_symbol
_atom_site_label
_atom_site_fract_x
_atom_site_fract_y
_atom_site_fract_z
Si Si1 0.179324 0.166562 0.924919
Si Si2 0.967664 0.673903 0.760015
Si Si3 0.563269 0.175108 0.936321
Si Si4 0.631336 0.669436 0.674170
Si Si5 0.561003 0.174398 0.330618
Si Si6 0.249982 0.666884 0.472190
Si Si7 0.161884 0.832642 0.140293
O O1 0.093688 0.259498 0.807815
O O2 0.183146 0.000000 0.885989
O O3 0.306662 0.236232 0.992742
O O4 0.124502 0.168842 0.005412
O O5 0.975721 0.500000 0.775052
O O6 0.880369 0.716490 0.623451
O O7 0.922121 0.734906 0.839759
O O8 0.490600 0.229256 0.802139
O O9 0.568561 0.000000 0.936930
O O10 0.500000 0.234671 0.000000
O O11 0.626888 0.500000 0.706742
O O12 0.506837 0.742783 0.617636
O O13 0.676269 0.680831 0.587461
O O14 0.711475 0.764692 0.789866
O O15 0.693250 0.227379 0.413776
O O16 0.553686 0.000000 0.339689
O O17 0.251013 0.500000 0.512860
O O18 0.163852 0.000000 0.182379
#
# Coordination Sequence:
#
# PCOD8058192 Si02
#       7
#     4   4   4   4   4   4   4
#     4  10  19  33  53  76 103 136 174 219 266 308
#     4  10  21  34  49  74 108 145 179 207 253 317
#     4   9  19  37  58  80 106 134 169 220 278 321
#     4  10  19  31  48  72 107 147 178 209 256 314
#     4  11  20  32  53  79 102 133 177 220 265 312
#     4   9  20  35  48  70 106 145 177 207 252 310
#     4  10  18  30  48  75 108 139 178 220 255 304
#
# _framework density 19.580369999999998
#
# number of rings (size 3 to 8) (size 9 to 14) (size 15 to 20)
#    0.000    2.143    1.429    3.429    0.000    8.000 
#    0.000    0.000    0.000    4.714    0.000    6.000 
#    0.000    0.000    0.000    0.000    0.000    0.000 
#
# Total GULP energy -347088.617276 kJ/mol
# GULP energy per Si atom -12396.022046 kJ/mol
# Density = 1.953580 g / cm^3
# Si number density = 19.580370 Si / 1000 Ang^3
#
#
#
# Elastic Constant Matrix: (Units=GPa)
#
#
# Indices 1 2 3 4 5 6 
#
# 1 58.6254 24.0241 50.8854 0.0000 18.9694 0.0000
# 2 24.0241 89.2996 58.1016 0.0000 19.6909 0.0000
# 3 50.8854 58.1016 133.0289 0.0000 42.5843 0.0000
# 4 0.0000 0.0000 0.0000 26.5773 0.0000 15.7826
# 5 18.9694 19.6909 42.5843 0.0000 29.3677 0.0000
# 6 0.0000 0.0000 0.0000 15.7826 0.0000 10.5222
#
#
#
# Elastic Compliance Matrix: (Units=1/GPa)
#
#
# Indices 1 2 3 4 5 6 
#
# 1 0.025864 -0.000654 -0.008212 0.000000 -0.004360 0.000000
# 2 -0.000654 0.015679 -0.006285 0.000000 -0.000977 0.000000
# 3 -0.008212 -0.006285 0.019328 0.000000 -0.018508 0.000000
# 4 0.000000 0.000000 0.000000 0.344281 0.000000 -0.516397
# 5 -0.004360 -0.000977 -0.018508 0.000000 0.064360 0.000000
# 6 0.000000 0.000000 0.000000 -0.516397 0.000000 0.869596
#
#
# Mechanical properties :
#
#
# Convention : Reuss Voigt Hill
#
# Bulk Modulus (GPa) = 32.71279 60.77510 46.74395
# Shear Modulus (GPa) = 3.62424 23.15629 13.39026
#
# Velocity S-wave (km/s) = 1.36197 3.44267 2.61791
# Velocity P-wave (km/s) = 4.38366 6.84900 5.75001
#
# Compressibility (1/GPa) = 0.03056908
#
# Stress axis : x y z
#
# Youngs Moduli (GPa) = 38.66368 63.78022 51.73771
#
# Poissons Ratio (x) = 0.04169 0.42488
# Poissons Ratio (y) = 0.02527 0.32519
# Poissons Ratio (z) = 0.31751 0.40088
#
# Static dielectric constant tensor:
#      x y z
#    x 3.337240 0.000000 0.416940 
#    y 0.000000 3.464930 0.000000 
#    z 0.416940 0.000000 3.839370 
# 
# 
# High freq. dielectric constant tensor:
#      x y z
#    x 1.723700 0.000000 0.036630 
#    y 0.000000 1.751320 0.000000 
#    z 0.036630 0.000000 1.765610 
# 
# From -- ./inp_files/66643.got.cif
#   From: 2010.06.25/outbox.cif.g09.slc.cpg/sg10_34_cif.got.tgz:66643.got - 2010.06.27 22:07:45.
