data_PCOD8058325
_publ_section_title
;
Structure prediction by ZEFSAII (Michael W. Deem and Ramdas Pophale) SiO2 
 PCOD8058325
Probable space group: P 2/M
;
_chemical_formula_sum "Si O2"
_cell_formula_units_Z 32
_cell_length_a 19.731674
_cell_length_b 9.212235
_cell_length_c 12.676484
_cell_angle_alpha 90.000000
_cell_angle_beta 131.857863
_cell_angle_gamma 90.000000
_cell_volume 1716.203848
_symmetry_space_group_name_H-M "P 2/M"
_symmetry_group_IT_number 10
_symmetry_cell_setting 'monoclinic'
loop_
_space_group_symop_operation_xyz
x,y,z
-x,y,-z
-x,-y,-z
x,-y,z
loop_
_atom_site_type_symbol
_atom_site_label
_atom_site_fract_x
_atom_site_fract_y
_atom_site_fract_z
Si Si1 0.025494 0.832198 0.912342
Si Si2 0.511280 0.828737 0.198205
Si Si3 0.462467 0.335918 0.570402
Si Si4 0.221359 0.173523 0.046289
Si Si5 0.835300 0.831768 0.639020
Si Si6 0.735086 0.334519 0.708261
Si Si7 0.295190 0.172806 0.680335
Si Si8 0.314901 0.171791 0.930858
O O1 0.944298 0.811037 0.742169
O O2 0.044647 0.000000 0.953891
O O3 0.117788 0.769088 0.956525
O O4 0.000000 0.760773 0.000000
O O5 0.497399 0.768304 0.300240
O O6 0.604574 0.765731 0.245394
O O7 0.518091 0.000000 0.212295
O O8 0.421328 0.780404 0.040796
O O9 0.500000 0.275519 0.500000
O O10 0.497252 0.500000 0.626330
O O11 0.353895 0.329142 0.456475
O O12 0.281714 0.249510 0.199581
O O13 0.231169 0.000000 0.064335
O O14 0.257468 0.232447 0.970528
O O15 0.811781 0.746093 0.720779
O O16 0.782622 0.769872 0.481132
O O17 0.809354 0.000000 0.629243
O O18 0.764000 0.500000 0.762035
O O19 0.272187 0.227216 0.775365
O O20 0.297312 0.000000 0.679793
O O21 0.310161 0.000000 0.931335
#
# Coordination Sequence:
#
# PCOD8058325 Si02
#       8
#     4   4   4   4   4   4   4   4
#     4   9  16  28  49  74 100 128 163 203 244 292
#     4  10  18  30  51  75  97 127 167 205 242 289
#     4  10  21  34  46  66 102 138 162 196 248 296
#     4  10  19  33  52  72  99 134 166 201 247 298
#     4  10  18  32  53  74  97 130 167 199 244 297
#     4  11  21  32  49  73 102 130 161 204 250 292
#     4   9  17  30  50  75 102 129 163 208 249 286
#     4   9  18  31  49  76 103 127 164 211 249 283
#
# _framework density 18.645803999999998
#
# number of rings (size 3 to 8) (size 9 to 14) (size 15 to 20)
#    0.000    2.250    2.500    1.500    0.000    2.250 
#    0.000    1.875    0.000    7.500    0.000    0.000 
#    0.000    2.000    0.000    0.000    0.000    0.000 
#
# Total GULP energy -396605.807231 kJ/mol
# GULP energy per Si atom -12393.931476 kJ/mol
# Density = 1.860337 g / cm^3
# Si number density = 18.645804 Si / 1000 Ang^3
#
#
#
# Elastic Constant Matrix: (Units=GPa)
#
#
# Indices 1 2 3 4 5 6 
#
# 1 74.3418 14.9095 48.2702 0.0000 -12.5105 0.0000
# 2 14.9095 24.3108 17.3805 0.0000 -0.8450 0.0000
# 3 48.2702 17.3805 119.3725 0.0000 -13.5868 0.0000
# 4 0.0000 0.0000 0.0000 7.2084 0.0000 1.9928
# 5 -12.5105 -0.8450 -13.5868 0.0000 31.1645 0.0000
# 6 0.0000 0.0000 0.0000 1.9928 0.0000 9.9027
#
#
#
# Elastic Compliance Matrix: (Units=1/GPa)
#
#
# Indices 1 2 3 4 5 6 
#
# 1 0.019958 -0.007483 -0.006410 0.000000 0.005014 0.000000
# 2 -0.007483 0.048811 -0.004495 0.000000 -0.003640 0.000000
# 3 -0.006410 -0.004495 0.011908 0.000000 0.002496 0.000000
# 4 0.000000 0.000000 0.000000 0.146899 0.000000 -0.029562
# 5 0.005014 -0.003640 0.002496 0.000000 0.035090 0.000000
# 6 0.000000 0.000000 0.000000 -0.029562 0.000000 0.106932
#
#
# Mechanical properties :
#
#
# Convention : Reuss Voigt Hill
#
# Bulk Modulus (GPa) = 22.77918 42.12729 32.45323
# Shear Modulus (GPa) = 11.87627 18.81945 15.34786
#
# Velocity S-wave (km/s) = 2.52651 3.18041 2.87213
# Velocity P-wave (km/s) = 4.55569 6.01076 5.33308
#
# Compressibility (1/GPa) = 0.04389973
#
# Stress axis : x y z
#
# Youngs Moduli (GPa) = 50.10504 20.48738 83.97846
#
# Poissons Ratio (x) = 0.15331 0.53831
# Poissons Ratio (y) = 0.37494 0.37750
# Poissons Ratio (z) = 0.32118 0.09210
#
# Static dielectric constant tensor:
#      x y z
#    x 3.572040 0.000000 0.010880 
#    y 0.000000 2.983330 0.000000 
#    z 0.010880 0.000000 3.596430 
# 
# 
# High freq. dielectric constant tensor:
#      x y z
#    x 1.720100 0.000000 0.003270 
#    y 0.000000 1.672160 0.000000 
#    z 0.003270 0.000000 1.728440 
# 
# From -- ./inp_files/55328.got.cif
#   From: 2010.06.25/outbox.cif.g09.slc.cpg/sg10_28_cif.got.tgz:55328.got - 2010.06.27 22:07:45.
