data_PCOD8058032
_publ_section_title
;
Structure prediction by ZEFSAII (Michael W. Deem and Ramdas Pophale) SiO2 
 PCOD8058032
Probable space group: P 2/M
;
_chemical_formula_sum "Si O2"
_cell_formula_units_Z 24
_cell_length_a 11.488942
_cell_length_b 9.294233
_cell_length_c 22.042550
_cell_angle_alpha 90.000000
_cell_angle_beta 148.105560
_cell_angle_gamma 90.000000
_cell_volume 1243.603764
_symmetry_space_group_name_H-M "P 2/M"
_symmetry_group_IT_number 10
_symmetry_cell_setting 'monoclinic'
loop_
_space_group_symop_operation_xyz
x,y,z
-x,y,-z
-x,-y,-z
x,-y,z
loop_
_atom_site_type_symbol
_atom_site_label
_atom_site_fract_x
_atom_site_fract_y
_atom_site_fract_z
Si Si1 0.011491 0.843227 0.576333
Si Si2 0.297084 0.831857 0.369466
Si Si3 0.854101 0.670298 0.174444
Si Si4 0.430727 0.668342 0.752339
Si Si5 0.531046 0.832712 0.352428
Si Si6 0.434296 0.332023 0.060309
O O1 0.194150 0.724161 0.671804
O O2 0.000000 0.863555 0.500000
O O3 0.766769 0.791076 0.487669
O O4 0.069201 0.000000 0.631211
O O5 0.500000 0.776731 0.500000
O O6 0.345591 0.798967 0.320036
O O7 0.078614 0.748472 0.292200
O O8 0.258499 0.000000 0.363725
O O9 0.895471 0.500000 0.196422
O O10 0.666934 0.728067 0.137875
O O11 0.775229 0.720958 0.071766
O O12 0.410135 0.500000 0.729839
O O13 0.519414 0.744345 0.731125
O O14 0.597360 0.702186 0.882070
O O15 0.535205 0.000000 0.335864
O O16 0.453435 0.500000 0.057153
#
# Coordination Sequence:
#
# PCOD8058032 Si02
#       6
#     4   4   4   4   4   4
#     4   8  15  28  45  66  97 137 170 199 247 306
#     4  10  22  38  55  76 106 140 174 216 261 305
#     4   9  18  37  59  77 103 139 176 213 258 312
#     4  10  18  29  50  79 104 129 169 217 259 300
#     4   9  19  35  49  68 104 143 171 203 257 314
#     4   8  17  34  56  80 107 136 167 215 270 307
#
# _framework density 19.298753000000001
#
# number of rings (size 3 to 8) (size 9 to 14) (size 15 to 20)
#    0.000    3.000    0.000    2.500    2.333    4.000 
#    0.000    5.000    0.000    5.000    0.000    0.000 
#    0.000    0.000    0.000    0.000    0.000    0.000 
#
# Total GULP energy -297384.099968 kJ/mol
# GULP energy per Si atom -12391.004165 kJ/mol
# Density = 1.925483 g / cm^3
# Si number density = 19.298753 Si / 1000 Ang^3
#
#
#
# Elastic Constant Matrix: (Units=GPa)
#
#
# Indices 1 2 3 4 5 6 
#
# 1 55.7219 27.2343 32.2170 0.0000 -8.2333 0.0000
# 2 27.2343 59.2996 36.9427 0.0000 -8.5225 0.0000
# 3 32.2170 36.9427 103.6267 0.0000 -5.6854 0.0000
# 4 0.0000 0.0000 0.0000 9.4079 0.0000 4.3390
# 5 -8.2333 -8.5225 -5.6854 0.0000 32.1652 0.0000
# 6 0.0000 0.0000 0.0000 4.3390 0.0000 27.1785
#
#
#
# Elastic Compliance Matrix: (Units=1/GPa)
#
#
# Indices 1 2 3 4 5 6 
#
# 1 0.025160 -0.008103 -0.004744 0.000000 0.003455 0.000000
# 2 -0.008103 0.024929 -0.006179 0.000000 0.003439 0.000000
# 3 -0.004744 -0.006179 0.013300 0.000000 -0.000501 0.000000
# 4 0.000000 0.000000 0.000000 0.114742 0.000000 -0.018318
# 5 0.003455 0.003439 -0.000501 0.000000 0.032796 0.000000
# 6 0.000000 0.000000 0.000000 -0.018318 0.000000 0.039718
#
#
# Mechanical properties :
#
#
# Convention : Reuss Voigt Hill
#
# Bulk Modulus (GPa) = 39.46865 45.71515 42.59190
# Shear Modulus (GPa) = 16.82686 21.90060 19.36373
#
# Velocity S-wave (km/s) = 2.95602 3.37236 3.17103
# Velocity P-wave (km/s) = 5.66979 6.23725 5.96028
#
# Compressibility (1/GPa) = 0.02533656
#
# Stress axis : x y z
#
# Youngs Moduli (GPa) = 39.74574 40.11417 75.18682
#
# Poissons Ratio (x) = 0.32506 0.35667
# Poissons Ratio (y) = 0.32207 0.46459
# Poissons Ratio (z) = 0.18854 0.24787
#
# Static dielectric constant tensor:
#      x y z
#    x 3.615570 0.000000 0.080780 
#    y 0.000000 3.278180 0.000000 
#    z 0.080780 0.000000 3.879600 
# 
# 
# High freq. dielectric constant tensor:
#      x y z
#    x 1.747880 0.000000 -0.012660 
#    y 0.000000 1.727120 0.000000 
#    z -0.012660 0.000000 1.737930 
# 
# From -- ./inp_files/88749.got.cif
#   From: 2010.06.25/outbox.cif.g09.slc.cpg/sg10_45_cif.got.tgz:88749.got - 2010.06.27 22:07:45.
