data_PCOD8058345
_publ_section_title
;
Structure prediction by ZEFSAII (Michael W. Deem and Ramdas Pophale) SiO2 
 PCOD8058345
Probable space group: P 2/M
;
_chemical_formula_sum "Si O2"
_cell_formula_units_Z 32
_cell_length_a 32.293371
_cell_length_b 9.178559
_cell_length_c 12.592260
_cell_angle_alpha 90.000000
_cell_angle_beta 153.438276
_cell_angle_gamma 90.000000
_cell_volume 1668.999180
_symmetry_space_group_name_H-M "P 2/M"
_symmetry_group_IT_number 10
_symmetry_cell_setting 'monoclinic'
loop_
_space_group_symop_operation_xyz
x,y,z
-x,y,-z
-x,-y,-z
x,-y,z
loop_
_atom_site_type_symbol
_atom_site_label
_atom_site_fract_x
_atom_site_fract_y
_atom_site_fract_z
Si Si1 0.231067 0.670886 0.666799
Si Si2 0.372008 0.332090 0.485340
Si Si3 0.070595 0.173218 0.895180
Si Si4 0.164877 0.162509 0.321940
Si Si5 0.367427 0.162877 0.691094
Si Si6 0.134163 0.829896 0.626347
Si Si7 0.206292 0.829983 0.023465
Si Si8 0.425686 0.666623 0.017465
O O1 0.214696 0.500000 0.636413
O O2 0.162134 0.733845 0.418346
O O3 0.208605 0.743514 0.727509
O O4 0.337977 0.711257 0.887776
O O5 0.343126 0.500000 0.423647
O O6 0.358957 0.264497 0.570740
O O7 0.305358 0.250981 0.249296
O O8 0.479867 0.313908 0.697945
O O9 0.968260 0.230467 0.633849
O O10 0.074161 0.000000 0.897127
O O11 0.098023 0.226395 0.076420
O O12 0.142850 0.233266 0.973285
O O13 0.267081 0.154922 0.511476
O O14 0.132267 0.000000 0.281188
O O15 0.435897 0.232885 0.935970
O O16 0.401872 0.000000 0.740580
O O17 0.142815 0.000000 0.619347
O O18 0.153717 0.798143 0.793857
O O19 0.226288 0.000000 0.085205
O O20 0.414215 0.500000 0.952288
#
# Coordination Sequence:
#
# PCOD8058345 Si02
#       8
#     4   4   4   4   4   4   4   4
#     4  10  21  38  56  75 109 147 184 225 264 314
#     4  11  21  33  52  78 109 144 181 219 267 326
#     4   9  17  34  59  85 110 138 174 219 272 329
#     4   9  17  32  55  81 111 142 176 217 263 322
#     4  10  18  30  51  81 113 142 175 220 271 319
#     4  10  21  37  60  82 104 141 184 226 271 320
#     4  10  20  37  58  83 111 138 178 226 271 321
#     4   9  20  36  52  74 106 148 187 217 261 323
#
# _framework density 19.173165999999998
#
# number of rings (size 3 to 8) (size 9 to 14) (size 15 to 20)
#    0.000    2.250    1.250    1.875    0.000    6.000 
#    0.000    4.375    0.000    5.250    0.000    0.000 
#    0.000    0.000    0.000    0.000    0.000    0.000 
#
# Total GULP energy -396802.502942 kJ/mol
# GULP energy per Si atom -12400.078217 kJ/mol
# Density = 1.912953 g / cm^3
# Si number density = 19.173166 Si / 1000 Ang^3
#
#
#
# Elastic Constant Matrix: (Units=GPa)
#
#
# Indices 1 2 3 4 5 6 
#
# 1 66.1505 33.3459 19.7659 0.0000 3.2656 0.0000
# 2 33.3459 73.2059 38.6876 0.0000 1.2890 0.0000
# 3 19.7659 38.6876 105.2509 0.0000 3.7127 0.0000
# 4 0.0000 0.0000 0.0000 19.4073 0.0000 1.1380
# 5 3.2656 1.2890 3.7127 0.0000 13.1945 0.0000
# 6 0.0000 0.0000 0.0000 1.1380 0.0000 25.3547
#
#
#
# Elastic Compliance Matrix: (Units=1/GPa)
#
#
# Indices 1 2 3 4 5 6 
#
# 1 0.019846 -0.008780 -0.000360 0.000000 -0.003953 0.000000
# 2 -0.008780 0.020838 -0.006076 0.000000 0.001847 0.000000
# 3 -0.000360 -0.006076 0.011896 0.000000 -0.002665 0.000000
# 4 0.000000 0.000000 0.000000 0.051663 0.000000 -0.002319
# 5 -0.003953 0.001847 -0.002665 0.000000 0.077337 0.000000
# 6 0.000000 0.000000 0.000000 -0.002319 0.000000 0.039545
#
#
# Mechanical properties :
#
#
# Convention : Reuss Voigt Hill
#
# Bulk Modulus (GPa) = 45.15144 47.57845 46.36494
# Shear Modulus (GPa) = 19.30964 21.77849 20.54406
#
# Velocity S-wave (km/s) = 3.17695 3.37394 3.27693
# Velocity P-wave (km/s) = 6.08751 6.32827 6.20906
#
# Compressibility (1/GPa) = 0.02214769
#
# Stress axis : x y z
#
# Youngs Moduli (GPa) = 50.38881 47.98977 84.06144
#
# Poissons Ratio (x) = 0.42134 0.03029
# Poissons Ratio (y) = 0.44241 0.51074
# Poissons Ratio (z) = 0.01815 0.29157
#
# Static dielectric constant tensor:
#      x y z
#    x 3.344650 0.000000 0.074560 
#    y 0.000000 3.491490 0.000000 
#    z 0.074560 0.000000 3.736070 
# 
# 
# High freq. dielectric constant tensor:
#      x y z
#    x 1.728390 0.000000 0.007230 
#    y 0.000000 1.730890 0.000000 
#    z 0.007230 0.000000 1.754230 
# 
# From -- ./inp_files/58322.got.cif
#   From: 2010.06.25/outbox.cif.g09.slc.cpg/sg10_30_cif.got.tgz:58322.got - 2010.06.27 22:07:45.
