data_PCOD8058267
_publ_section_title
;
Structure prediction by ZEFSAII (Michael W. Deem and Ramdas Pophale) SiO2 
 PCOD8058267
Probable space group: P 2/M
;
_chemical_formula_sum "Si O2"
_cell_formula_units_Z 32
_cell_length_a 23.401713
_cell_length_b 8.959790
_cell_length_c 12.403931
_cell_angle_alpha 90.000000
_cell_angle_beta 133.198483
_cell_angle_gamma 90.000000
_cell_volume 1895.939422
_symmetry_space_group_name_H-M "P 2/M"
_symmetry_group_IT_number 10
_symmetry_cell_setting 'monoclinic'
loop_
_space_group_symop_operation_xyz
x,y,z
-x,y,-z
-x,-y,-z
x,-y,z
loop_
_atom_site_type_symbol
_atom_site_label
_atom_site_fract_x
_atom_site_fract_y
_atom_site_fract_z
Si Si1 0.850501 0.173312 0.672529
Si Si2 0.686203 0.176548 0.380562
Si Si3 0.838121 0.826427 0.908797
Si Si4 0.413607 0.822294 0.547803
Si Si5 0.429452 0.329182 0.188468
Si Si6 0.582416 0.174407 0.050909
Si Si7 0.994276 0.332018 0.120547
Si Si8 0.682001 0.671337 0.762413
O O1 0.775776 0.232091 0.508035
O O2 0.831723 0.203393 0.773228
O O3 0.926161 0.262670 0.728283
O O4 0.867670 0.000000 0.675063
O O5 0.632827 0.240598 0.408117
O O6 0.651405 0.226330 0.220901
O O7 0.684079 0.000000 0.389010
O O8 0.768257 0.740959 0.877505
O O9 0.832491 0.000000 0.929013
O O10 0.919724 0.764204 0.061755
O O11 0.502251 0.766574 0.668606
O O12 0.373785 0.760949 0.389618
O O13 0.413078 0.000000 0.542205
O O14 0.457407 0.500000 0.215607
O O15 0.352411 0.314884 0.162178
O O16 0.406816 0.268832 0.042295
O O17 0.587868 0.000000 0.029165
O O18 0.500000 0.210642 0.000000
O O19 0.984869 0.500000 0.151434
O O20 0.000000 0.327078 0.000000
O O21 0.686702 0.500000 0.730598
#
# Coordination Sequence:
#
# PCOD8058267 Si02
#       8
#     4   4   4   4   4   4   4   4
#     4   9  16  29  47  70 101 131 164 204 247 297
#     4   9  17  31  51  76 101 128 164 212 259 293
#     4  10  18  30  50  73  98 133 172 204 244 299
#     4  11  20  35  55  75  99 132 174 213 253 302
#     4  11  24  38  50  71 103 137 172 213 258 303
#     4  10  19  35  57  75  96 129 172 218 259 299
#     4   9  17  28  43  68 102 135 165 198 243 297
#     4  11  23  36  49  71 106 139 169 209 256 303
#
# _framework density 16.878176
#
# number of rings (size 3 to 8) (size 9 to 14) (size 15 to 20)
#    0.000    2.000    2.500    2.250    0.000    5.750 
#    0.000    0.625    0.000    0.000    0.000    0.875 
#    0.000    7.000    0.000    0.000    0.000    0.000 
#
# Total GULP energy -396850.229539 kJ/mol
# GULP energy per Si atom -12401.569673 kJ/mol
# Density = 1.683976 g / cm^3
# Si number density = 16.878176 Si / 1000 Ang^3
#
#
#
# Elastic Constant Matrix: (Units=GPa)
#
#
# Indices 1 2 3 4 5 6 
#
# 1 86.3590 52.2410 60.8882 0.0000 12.7679 0.0000
# 2 52.2410 95.9494 46.2128 0.0000 7.4271 0.0000
# 3 60.8882 46.2128 94.5954 0.0000 23.7550 0.0000
# 4 0.0000 0.0000 0.0000 19.7414 0.0000 4.2059
# 5 12.7679 7.4271 23.7550 0.0000 30.9453 0.0000
# 6 0.0000 0.0000 0.0000 4.2059 0.0000 27.9271
#
#
#
# Elastic Compliance Matrix: (Units=1/GPa)
#
#
# Indices 1 2 3 4 5 6 
#
# 1 0.024871 -0.007554 -0.012632 0.000000 0.001248 0.000000
# 2 -0.007554 0.016054 -0.003464 0.000000 0.001922 0.000000
# 3 -0.012632 -0.003464 0.023384 0.000000 -0.011908 0.000000
# 4 0.000000 0.000000 0.000000 0.052334 0.000000 -0.007882
# 5 0.001248 0.001922 -0.011908 0.000000 0.040480 0.000000
# 6 0.000000 0.000000 0.000000 -0.007882 0.000000 0.036994
#
#
# Mechanical properties :
#
#
# Convention : Reuss Voigt Hill
#
# Bulk Modulus (GPa) = 58.78492 66.17642 62.48067
# Shear Modulus (GPa) = 20.23588 23.56022 21.89805
#
# Velocity S-wave (km/s) = 3.46632 3.74023 3.60588
# Velocity P-wave (km/s) = 7.13618 7.61221 7.37804
#
# Compressibility (1/GPa) = 0.01701116
#
# Stress axis : x y z
#
# Youngs Moduli (GPa) = 40.20808 62.28833 42.76390
#
# Poissons Ratio (x) = 0.47052 0.54017
# Poissons Ratio (y) = 0.30373 0.14811
# Poissons Ratio (z) = 0.50789 0.21574
#
# Static dielectric constant tensor:
#      x y z
#    x 3.078170 0.000000 0.243790 
#    y 0.000000 3.185560 0.000000 
#    z 0.243790 0.000000 3.288720 
# 
# 
# High freq. dielectric constant tensor:
#      x y z
#    x 1.631800 0.000000 0.023960 
#    y 0.000000 1.652360 0.000000 
#    z 0.023960 0.000000 1.638520 
# 
# From -- ./inp_files/54781.got.cif
#   From: 2010.06.25/outbox.cif.g09.slc.cpg/sg10_28_cif.got.tgz:54781.got - 2010.06.27 22:07:45.
