data_PCOD8058134
_publ_section_title
;
Structure prediction by ZEFSAII (Michael W. Deem and Ramdas Pophale) SiO2 
 PCOD8058134
Probable space group: P 2/M
;
_chemical_formula_sum "Si O2"
_cell_formula_units_Z 28
_cell_length_a 5.326321
_cell_length_b 13.379712
_cell_length_c 20.895745
_cell_angle_alpha 90.000000
_cell_angle_beta 97.322196
_cell_angle_gamma 90.000000
_cell_volume 1476.984144
_symmetry_space_group_name_H-M "P 2/M"
_symmetry_group_IT_number 10
_symmetry_cell_setting 'monoclinic'
loop_
_space_group_symop_operation_xyz
x,y,z
-x,y,-z
-x,-y,-z
x,-y,z
loop_
_atom_site_type_symbol
_atom_site_label
_atom_site_fract_x
_atom_site_fract_y
_atom_site_fract_z
Si Si1 0.190906 0.303768 0.381812
Si Si2 0.770476 0.887103 0.540953
Si Si3 0.964198 0.117687 0.928395
Si Si4 0.573949 0.117396 0.147898
Si Si5 0.880274 0.616354 0.760547
Si Si6 0.384460 0.700351 0.768920
Si Si7 0.685864 0.384492 0.371728
O O1 0.198918 0.186392 0.397836
O O2 0.152609 0.319581 0.305219
O O3 0.455167 0.356765 0.411965
O O4 0.956797 0.356765 0.411965
O O5 0.500000 0.866556 0.500000
O O6 0.000000 0.866556 0.500000
O O7 0.783938 0.000000 0.567876
O O8 0.198810 0.149998 0.891651
O O9 0.692842 0.149998 0.891651
O O10 0.967734 0.000000 0.935467
O O11 0.000000 0.166165 0.000000
O O12 0.606915 0.181863 0.213831
O O13 0.582886 0.000000 0.165773
O O14 0.871687 0.500000 0.743373
O O15 0.647915 0.647023 0.799343
O O16 0.151428 0.647023 0.799343
O O17 0.346033 0.684724 0.692064
O O18 0.675614 0.500000 0.351228
#
# Coordination Sequence:
#
# PCOD8058134 Si02
#       7
#     4   4   4   4   4   4   4
#     4  10  18  32  54  75  94 127 163 197 239 282
#     4  10  21  37  55  74  98 128 163 202 238 278
#     4   9  17  30  47  65  90 130 171 201 235 279
#     4  10  19  30  45  69 103 132 156 196 240 281
#     4  10  19  33  52  72  98 126 159 201 239 285
#     4  10  18  30  47  72 100 130 159 190 241 291
#     4  10  19  33  53  74 100 128 159 199 239 287
#
# _framework density 18.957550000000001
#
# number of rings (size 3 to 8) (size 9 to 14) (size 15 to 20)
#    0.000    2.143    0.000    6.429    0.000    1.714 
#    0.000    5.714    0.000   14.571    0.000    0.000 
#    0.000   66.286    0.000    0.000    0.000    0.000 
#
# Total GULP energy -346925.790432 kJ/mol
# GULP energy per Si atom -12390.206801 kJ/mol
# Density = 1.891440 g / cm^3
# Si number density = 18.957550 Si / 1000 Ang^3
#
#
#
# Elastic Constant Matrix: (Units=GPa)
#
#
# Indices 1 2 3 4 5 6 
#
# 1 217.0893 57.8067 25.3358 0.0000 17.6696 0.0000
# 2 57.8067 140.7162 61.7241 0.0000 -0.3838 0.0000
# 3 25.3358 61.7241 44.8858 0.0000 -0.7920 0.0000
# 4 0.0000 0.0000 0.0000 7.0620 0.0000 3.6508
# 5 17.6696 -0.3838 -0.7920 0.0000 7.5431 0.0000
# 6 0.0000 0.0000 0.0000 3.6508 0.0000 44.3111
#
#
#
# Elastic Compliance Matrix: (Units=1/GPa)
#
#
# Indices 1 2 3 4 5 6 
#
# 1 0.006619 -0.002524 -0.000542 0.000000 -0.015690 0.000000
# 2 -0.002524 0.018893 -0.024480 0.000000 0.004304 0.000000
# 3 -0.000542 -0.024480 0.056352 0.000000 0.005940 0.000000
# 4 0.000000 0.000000 0.000000 0.147903 0.000000 -0.012186
# 5 -0.015690 0.004304 0.005940 0.000000 0.170166 0.000000
# 6 0.000000 0.000000 0.000000 -0.012186 0.000000 0.023572
#
#
# Mechanical properties :
#
#
# Convention : Reuss Voigt Hill
#
# Bulk Modulus (GPa) = 37.35128 76.93606 57.14367
# Shear Modulus (GPa) = 10.25597 28.97157 19.61377
#
# Velocity S-wave (km/s) = 2.32846 3.91350 3.22003
# Velocity P-wave (km/s) = 5.19368 7.81614 6.63575
#
# Compressibility (1/GPa) = 0.02677285
#
# Stress axis : x y z
#
# Youngs Moduli (GPa) = 151.08470 52.92935 17.74545
#
# Poissons Ratio (x) = 0.13360 0.00961
# Poissons Ratio (y) = 0.38137 0.43441
# Poissons Ratio (z) = 0.08184 1.29570
#
# Static dielectric constant tensor:
#      x y z
#    x 1.887330 0.000000 -0.102110 
#    y 0.000000 3.325690 0.000000 
#    z -0.102110 0.000000 2.929540 
# 
# 
# High freq. dielectric constant tensor:
#      x y z
#    x 1.785540 0.000000 0.011160 
#    y 0.000000 1.721410 0.000000 
#    z 0.011160 0.000000 1.671700 
# 
# From -- ./inp_files/81218.got.cif
#   From: 2010.06.25/outbox.cif.g09.slc.cpg/sg10_41_cif.got.tgz:81218.got - 2010.06.27 22:07:45.
