data_PCOD8058588
_publ_section_title
;
Structure prediction by ZEFSAII (Michael W. Deem and Ramdas Pophale) SiO2 
 PCOD8058588
Probable space group: P 2/M
;
_chemical_formula_sum "Si O2"
_cell_formula_units_Z 28
_cell_length_a 7.656175
_cell_length_b 13.170024
_cell_length_c 16.108396
_cell_angle_alpha 90.000000
_cell_angle_beta 102.011487
_cell_angle_gamma 90.000000
_cell_volume 1588.680604
_symmetry_space_group_name_H-M "P 2/M"
_symmetry_group_IT_number 10
_symmetry_cell_setting 'monoclinic'
loop_
_space_group_symop_operation_xyz
x,y,z
-x,y,-z
-x,-y,-z
x,-y,z
loop_
_atom_site_type_symbol
_atom_site_label
_atom_site_fract_x
_atom_site_fract_y
_atom_site_fract_z
Si Si1 0.621294 0.383697 0.290787
Si Si2 0.096186 0.114387 0.706856
Si Si3 0.709601 0.383563 0.010485
Si Si4 0.361616 0.192049 0.602490
Si Si5 0.114336 0.302505 0.813450
Si Si6 0.749591 0.380470 0.827858
Si Si7 0.729659 0.119321 0.583013
O O1 0.610929 0.500000 0.321022
O O2 0.651999 0.310517 0.372607
O O3 0.781428 0.374833 0.240478
O O4 0.440170 0.347556 0.228005
O O5 0.253270 0.122284 0.655451
O O6 0.137533 0.185526 0.789351
O O7 0.911095 0.148792 0.646722
O O8 0.084219 0.000000 0.739090
O O9 0.769338 0.500000 0.030862
O O10 0.810190 0.313954 0.086621
O O11 0.500000 0.372550 0.000000
O O12 0.763980 0.344735 0.924807
O O13 0.564854 0.152556 0.624389
O O14 0.276419 0.181882 0.503142
O O15 0.905604 0.329885 0.789750
O O16 0.770539 0.500000 0.825601
O O17 0.718584 0.000000 0.561318
#
# Coordination Sequence:
#
# PCOD8058588 Si02
#       7
#     4   4   4   4   4   4   4
#     4  10  20  33  48  73 107 137 165 200 242 297
#     4  10  21  35  53  76 100 128 165 210 254 297
#     4  10  18  31  52  77 102 129 166 207 245 285
#     4  10  19  32  54  78 100 131 165 206 252 298
#     4  11  20  32  52  75 101 133 166 206 250 296
#     4  10  19  31  51  76 102 132 168 204 242 288
#     4  10  19  34  55  77  99 123 167 218 255 289
#
# _framework density 17.624686000000001
#
# number of rings (size 3 to 8) (size 9 to 14) (size 15 to 20)
#    0.000    1.857    1.429    4.714    0.000    2.286 
#    0.000    1.429    0.000   10.714    0.000    0.000 
#    0.000    0.000    0.000    0.000    0.000    0.000 
#
# Total GULP energy -347278.144508 kJ/mol
# GULP energy per Si atom -12402.790875 kJ/mol
# Density = 1.758457 g / cm^3
# Si number density = 17.624686 Si / 1000 Ang^3
#
#
#
# Elastic Constant Matrix: (Units=GPa)
#
#
# Indices 1 2 3 4 5 6 
#
# 1 114.6525 31.3177 39.7042 0.0000 -10.1769 0.0000
# 2 31.3177 70.5921 42.3622 0.0000 13.6041 0.0000
# 3 39.7042 42.3622 65.3655 0.0000 5.2803 0.0000
# 4 0.0000 0.0000 0.0000 25.2606 0.0000 2.7819
# 5 -10.1769 13.6041 5.2803 0.0000 18.1310 0.0000
# 6 0.0000 0.0000 0.0000 2.7819 0.0000 21.1729
#
#
#
# Elastic Compliance Matrix: (Units=1/GPa)
#
#
# Indices 1 2 3 4 5 6 
#
# 1 0.013213 -0.004708 -0.006000 0.000000 0.012696 0.000000
# 2 -0.004708 0.028500 -0.013999 0.000000 -0.019950 0.000000
# 3 -0.006000 -0.013999 0.028101 0.000000 -0.001048 0.000000
# 4 0.000000 0.000000 0.000000 0.040169 0.000000 -0.005278
# 5 0.012696 -0.019950 -0.001048 0.000000 0.077554 0.000000
# 6 0.000000 0.000000 0.000000 -0.005278 0.000000 0.047924
#
#
# Mechanical properties :
#
#
# Convention : Reuss Voigt Hill
#
# Bulk Modulus (GPa) = 49.02241 53.04203 51.03222
# Shear Modulus (GPa) = 17.14244 22.06129 19.60187
#
# Velocity S-wave (km/s) = 3.12210 3.54181 3.33856
# Velocity P-wave (km/s) = 6.39310 6.84738 6.62413
#
# Compressibility (1/GPa) = 0.02039884
#
# Stress axis : x y z
#
# Youngs Moduli (GPa) = 75.68429 35.08788 35.58651
#
# Poissons Ratio (x) = 0.16518 0.21353
# Poissons Ratio (y) = 0.35630 0.49818
# Poissons Ratio (z) = 0.45413 0.49120
#
# Static dielectric constant tensor:
#      x y z
#    x 3.566200 0.000000 -0.017370 
#    y 0.000000 3.102320 0.000000 
#    z -0.017370 0.000000 3.164590 
# 
# 
# High freq. dielectric constant tensor:
#      x y z
#    x 1.705650 0.000000 -0.001810 
#    y 0.000000 1.661120 0.000000 
#    z -0.001810 0.000000 1.667640 
# 
# From -- ./inp_files/61002.got.cif
#   From: 2010.06.25/outbox.cif.g09.slc.cpg/sg10_31_cif.got.tgz:61002.got - 2010.06.27 22:07:45.
