data_PCOD8058675
_publ_section_title
;
Structure prediction by ZEFSAII (Michael W. Deem and Ramdas Pophale) SiO2 
 PCOD8058675
Probable space group: P 2/M
;
_chemical_formula_sum "Si O2"
_cell_formula_units_Z 32
_cell_length_a 12.662559
_cell_length_b 14.331690
_cell_length_c 20.399496
_cell_angle_alpha 90.000000
_cell_angle_beta 152.648620
_cell_angle_gamma 90.000000
_cell_volume 1700.877455
_symmetry_space_group_name_H-M "P 2/M"
_symmetry_group_IT_number 10
_symmetry_cell_setting 'monoclinic'
loop_
_space_group_symop_operation_xyz
x,y,z
-x,y,-z
-x,-y,-z
x,-y,z
loop_
_atom_site_type_symbol
_atom_site_label
_atom_site_fract_x
_atom_site_fract_y
_atom_site_fract_z
Si Si1 0.459829 0.896504 0.827104
Si Si2 0.262157 0.209922 0.831317
Si Si3 0.775862 0.392769 0.417174
Si Si4 0.978409 0.396296 0.315836
Si Si5 0.735829 0.394521 0.655882
Si Si6 0.626219 0.751079 0.823060
Si Si7 0.940024 0.104881 0.165281
Si Si8 0.099846 0.751946 0.154760
O O1 0.269252 0.847134 0.767407
O O2 0.494347 0.841355 0.778302
O O3 0.374178 0.000000 0.761668
O O4 0.690959 0.901724 0.996257
O O5 0.069537 0.162124 0.771474
O O6 0.213290 0.316813 0.784694
O O7 0.500000 0.208093 0.000000
O O8 0.721206 0.500000 0.369730
O O9 0.824275 0.379045 0.521166
O O10 0.549715 0.335017 0.273338
O O11 0.000000 0.359080 0.500000
O O12 0.870035 0.500000 0.267698
O O13 0.078263 0.389830 0.298574
O O14 0.500000 0.348944 0.500000
O O15 0.689043 0.500000 0.653287
O O16 0.822322 0.341464 0.767001
O O17 0.720489 0.775993 0.803290
O O18 0.843380 0.728294 0.988812
O O19 0.107149 0.159861 0.207869
O O20 0.035320 0.000000 0.230156
#
# Coordination Sequence:
#
# PCOD8058675 Si02
#       8
#     4   4   4   4   4   4   4   4
#     4   9  18  32  52  79 108 142 185 228 273 327
#     4  10  18  31  54  81 112 141 179 229 280 324
#     4  10  21  38  57  79 109 150 195 228 267 330
#     4  10  20  34  53  79 108 142 183 221 270 330
#     4  10  20  35  55  79 108 143 182 222 271 333
#     4  10  21  35  56  81 113 147 187 229 279 328
#     4   9  17  31  52  79 110 143 179 224 278 331
#     4  10  20  35  54  85 114 145 182 230 282 331
#
# _framework density 18.813818999999999
#
# number of rings (size 3 to 8) (size 9 to 14) (size 15 to 20)
#    0.000    2.250    1.250    1.875    0.000    4.250 
#    0.000    3.750    0.000    4.500    0.000    0.000 
#    0.000    0.000    0.000    0.000    0.000    0.000 
#
# Total GULP energy -396756.665648 kJ/mol
# GULP energy per Si atom -12398.645801 kJ/mol
# Density = 1.877100 g / cm^3
# Si number density = 18.813819 Si / 1000 Ang^3
#
#
#
# Elastic Constant Matrix: (Units=GPa)
#
#
# Indices 1 2 3 4 5 6 
#
# 1 136.1648 73.2427 40.6997 0.0000 -8.4009 0.0000
# 2 73.2427 151.2237 46.5929 0.0000 -3.9285 0.0000
# 3 40.6997 46.5929 45.4984 0.0000 -4.4990 0.0000
# 4 0.0000 0.0000 0.0000 5.8430 0.0000 -5.2541
# 5 -8.4009 -3.9285 -4.4990 0.0000 24.8668 0.0000
# 6 0.0000 0.0000 0.0000 -5.2541 0.0000 26.8407
#
#
#
# Elastic Compliance Matrix: (Units=1/GPa)
#
#
# Indices 1 2 3 4 5 6 
#
# 1 0.011202 -0.003430 -0.006300 0.000000 0.002103 0.000000
# 2 -0.003430 0.010713 -0.007993 0.000000 -0.000912 0.000000
# 3 -0.006300 -0.007993 0.036110 0.000000 0.003142 0.000000
# 4 0.000000 0.000000 0.000000 0.207706 0.000000 0.040658
# 5 0.002103 -0.000912 0.003142 0.000000 0.041349 0.000000
# 6 0.000000 0.000000 0.000000 0.040658 0.000000 0.045216
#
#
# Mechanical properties :
#
#
# Convention : Reuss Voigt Hill
#
# Bulk Modulus (GPa) = 44.28799 72.66193 58.47496
# Shear Modulus (GPa) = 12.64967 23.00020 17.82493
#
# Velocity S-wave (km/s) = 2.59580 3.50024 3.08139
# Velocity P-wave (km/s) = 5.70750 7.41896 6.61878
#
# Compressibility (1/GPa) = 0.02257948
#
# Stress axis : x y z
#
# Youngs Moduli (GPa) = 89.27239 93.34729 27.69300
#
# Poissons Ratio (x) = 0.32014 0.17447
# Poissons Ratio (y) = 0.30617 0.22134
# Poissons Ratio (z) = 0.56244 0.74610
#
# Static dielectric constant tensor:
#      x y z
#    x 3.635850 0.000000 -0.096380 
#    y 0.000000 3.641610 0.000000 
#    z -0.096380 0.000000 3.107930 
# 
# 
# High freq. dielectric constant tensor:
#      x y z
#    x 1.744280 0.000000 -0.010340 
#    y 0.000000 1.734210 0.000000 
#    z -0.010340 0.000000 1.693980 
# 
# From -- ./inp_files/77039.got.cif
#   From: 2010.06.25/outbox.cif.g09.slc.cpg/sg10_39_cif.got.tgz:77039.got - 2010.06.27 22:07:45.
