data_PCOD8058472
_publ_section_title
;
Structure prediction by ZEFSAII (Michael W. Deem and Ramdas Pophale) SiO2 
 PCOD8058472
Probable space group: P 2/M
;
_chemical_formula_sum "Si O2"
_cell_formula_units_Z 32
_cell_length_a 19.512125
_cell_length_b 9.501856
_cell_length_c 11.627856
_cell_angle_alpha 90.000000
_cell_angle_beta 120.915618
_cell_angle_gamma 90.000000
_cell_volume 1849.532327
_symmetry_space_group_name_H-M "P 2/M"
_symmetry_group_IT_number 10
_symmetry_cell_setting 'monoclinic'
loop_
_space_group_symop_operation_xyz
x,y,z
-x,y,-z
-x,-y,-z
x,-y,z
loop_
_atom_site_type_symbol
_atom_site_label
_atom_site_fract_x
_atom_site_fract_y
_atom_site_fract_z
Si Si1 0.660485 0.155471 0.870150
Si Si2 0.905272 0.166137 0.154419
Si Si3 0.260923 0.339300 0.378762
Si Si4 0.416985 0.664921 0.376743
Si Si5 0.209414 0.664264 0.586032
Si Si6 0.949420 0.839210 0.571640
Si Si7 0.244256 0.834132 0.830575
Si Si8 0.822141 0.843124 0.865194
O O1 0.597781 0.262974 0.759774
O O2 0.741888 0.154640 0.869612
O O3 0.621964 0.000000 0.834502
O O4 0.681887 0.197775 0.019795
O O5 0.838717 0.223270 0.186162
O O6 0.993774 0.206351 0.272735
O O7 0.892049 0.000000 0.140373
O O8 0.890336 0.219933 0.010262
O O9 0.243946 0.500000 0.331950
O O10 0.347592 0.292875 0.406742
O O11 0.260488 0.314381 0.514376
O O12 0.189343 0.252080 0.257269
O O13 0.500000 0.720932 0.500000
O O14 0.420596 0.500000 0.356593
O O15 0.199515 0.500000 0.607954
O O16 0.122766 0.731544 0.493588
O O17 0.258374 0.744666 0.727349
O O18 0.000000 0.827066 0.500000
O O19 0.918664 0.000000 0.559889
O O20 0.239173 0.000000 0.796696
O O21 0.844640 0.000000 0.841988
#
# Coordination Sequence:
#
# PCOD8058472 Si02
#       8
#     4   4   4   4   4   4   4   4
#     4   8  15  27  47  74  99 119 146 193 239 272
#     4   8  14  27  47  69  89 112 151 202 241 267
#     4   9  19  34  47  65  97 127 152 187 234 281
#     4   9  17  31  53  76  96 122 156 191 228 277
#     4  11  22  32  44  66  97 128 156 193 236 279
#     4  10  18  31  50  67  89 124 161 198 239 277
#     4   9  16  30  49  68  92 124 160 194 232 276
#     4   8  14  27  48  69  88 114 153 195 231 274
#
# _framework density 17.301670999999999
#
# number of rings (size 3 to 8) (size 9 to 14) (size 15 to 20)
#    0.000    3.000    1.250    1.875    0.000    2.000 
#    0.000    3.125    0.000    4.500    0.000    5.250 
#    0.000    0.000    0.000    0.000    0.000    0.000 
#
# Total GULP energy -396630.636498 kJ/mol
# GULP energy per Si atom -12394.707391 kJ/mol
# Density = 1.726229 g / cm^3
# Si number density = 17.301671 Si / 1000 Ang^3
#
#
#
# Elastic Constant Matrix: (Units=GPa)
#
#
# Indices 1 2 3 4 5 6 
#
# 1 38.3122 30.2215 40.8180 0.0000 0.0984 0.0000
# 2 30.2215 75.5819 69.6188 0.0000 -0.5280 0.0000
# 3 40.8180 69.6188 153.0202 0.0000 5.6985 0.0000
# 4 0.0000 0.0000 0.0000 24.1482 0.0000 -0.5570
# 5 0.0984 -0.5280 5.6985 0.0000 22.7969 0.0000
# 6 0.0000 0.0000 0.0000 -0.5570 0.0000 15.6844
#
#
#
# Elastic Compliance Matrix: (Units=1/GPa)
#
#
# Indices 1 2 3 4 5 6 
#
# 1 0.041124 -0.010834 -0.006081 0.000000 0.001092 0.000000
# 2 -0.010834 0.025855 -0.008981 0.000000 0.002890 0.000000
# 3 -0.006081 -0.008981 0.012365 0.000000 -0.003273 0.000000
# 4 0.000000 0.000000 0.000000 0.041445 0.000000 0.001472
# 5 0.001092 0.002890 -0.003273 0.000000 0.044746 0.000000
# 6 0.000000 0.000000 0.000000 0.001472 0.000000 0.063810
#
#
# Mechanical properties :
#
#
# Convention : Reuss Voigt Hill
#
# Bulk Modulus (GPa) = 36.29577 60.91455 48.60516
# Shear Modulus (GPa) = 17.22231 20.94298 19.08264
#
# Velocity S-wave (km/s) = 3.15844 3.48294 3.32465
# Velocity P-wave (km/s) = 5.85873 7.17344 6.54916
#
# Compressibility (1/GPa) = 0.02755142
#
# Stress axis : x y z
#
# Youngs Moduli (GPa) = 24.31686 38.67683 80.87310
#
# Poissons Ratio (x) = 0.41904 0.49180
# Poissons Ratio (y) = 0.26346 0.72631
# Poissons Ratio (z) = 0.14787 0.34735
#
# Static dielectric constant tensor:
#      x y z
#    x 2.884960 0.000000 0.029420 
#    y 0.000000 3.170990 0.000000 
#    z 0.029420 0.000000 3.654060 
# 
# 
# High freq. dielectric constant tensor:
#      x y z
#    x 1.621110 0.000000 -0.002910 
#    y 0.000000 1.651870 0.000000 
#    z -0.002910 0.000000 1.684210 
# 
# From -- ./inp_files/54875.got.cif
#   From: 2010.06.25/outbox.cif.g09.slc.cpg/sg10_28_cif.got.tgz:54875.got - 2010.06.27 22:07:45.
