data_PCOD8058494
_publ_section_title
;
Structure prediction by ZEFSAII (Michael W. Deem and Ramdas Pophale) SiO2 
 PCOD8058494
Probable space group: P 2/M
;
_chemical_formula_sum "Si O2"
_cell_formula_units_Z 24
_cell_length_a 16.812346
_cell_length_b 8.619890
_cell_length_c 23.153766
_cell_angle_alpha 90.000000
_cell_angle_beta 23.350737
_cell_angle_gamma 90.000000
_cell_volume 1329.964446
_symmetry_space_group_name_H-M "P 2/M"
_symmetry_group_IT_number 10
_symmetry_cell_setting 'monoclinic'
loop_
_space_group_symop_operation_xyz
x,y,z
-x,y,-z
-x,-y,-z
x,-y,z
loop_
_atom_site_type_symbol
_atom_site_label
_atom_site_fract_x
_atom_site_fract_y
_atom_site_fract_z
Si Si1 0.511538 0.825861 0.082398
Si Si2 0.486686 0.819049 0.575243
Si Si3 0.074641 0.679404 0.886296
Si Si4 0.824440 0.824268 0.770239
Si Si5 0.148510 0.184761 0.067606
Si Si6 0.883553 0.319995 0.343764
O O1 0.299892 0.749262 0.201860
O O2 0.452503 0.000000 0.137971
O O3 0.671136 0.826051 0.924965
O O4 0.630835 0.752611 0.057666
O O5 0.500000 0.765965 0.500000
O O6 0.268700 0.782679 0.745324
O O7 0.649464 0.723102 0.503642
O O8 0.531991 0.000000 0.551852
O O9 0.127719 0.500000 0.841100
O O10 0.896362 0.730124 0.962297
O O11 0.000000 0.713297 0.000000
O O12 0.015644 0.721940 0.661400
O O13 0.895372 0.000000 0.709380
O O14 0.977629 0.223093 0.228401
O O15 0.150011 0.000000 0.058187
O O16 0.914227 0.500000 0.310613
#
# Coordination Sequence:
#
# PCOD8058494 Si02
#       6
#     4   4   4   4   4   4
#     4   7  12  23  42  65  92 128 166 206 247 290
#     4  11  22  36  56  78  99 133 178 217 252 302
#     4  11  24  39  54  76 106 137 169 210 261 312
#     4   8  13  25  42  63  95 131 166 203 246 297
#     4  10  18  31  50  72  98 133 176 212 249 299
#     4  11  20  29  46  73 105 135 165 208 260 305
#
# _framework density 18.045594999999999
#
# number of rings (size 3 to 8) (size 9 to 14) (size 15 to 20)
#    0.000    2.333    1.667    5.000    0.000    2.000 
#    0.000    7.500    0.000    0.000    0.000    1.167 
#    0.000    9.333    0.000    0.000    0.000    0.000 
#
# Total GULP energy -297360.662110 kJ/mol
# GULP energy per Si atom -12390.027588 kJ/mol
# Density = 1.800452 g / cm^3
# Si number density = 18.045595 Si / 1000 Ang^3
#
#
#
# Elastic Constant Matrix: (Units=GPa)
#
#
# Indices 1 2 3 4 5 6 
#
# 1 144.6465 27.6549 51.8025 0.0000 -37.3006 0.0000
# 2 27.6549 49.9449 20.8562 0.0000 -6.6212 0.0000
# 3 51.8025 20.8562 51.1139 0.0000 -15.2275 0.0000
# 4 0.0000 0.0000 0.0000 13.8001 0.0000 0.1472
# 5 -37.3006 -6.6212 -15.2275 0.0000 30.5111 0.0000
# 6 0.0000 0.0000 0.0000 0.1472 0.0000 13.7038
#
#
#
# Elastic Compliance Matrix: (Units=1/GPa)
#
#
# Indices 1 2 3 4 5 6 
#
# 1 0.013733 -0.002047 -0.009648 0.000000 0.011530 0.000000
# 2 -0.002047 0.024443 -0.008298 0.000000 -0.001339 0.000000
# 3 -0.009648 -0.008298 0.033687 0.000000 0.003216 0.000000
# 4 0.000000 0.000000 0.000000 0.072472 0.000000 -0.000778
# 5 0.011530 -0.001339 0.003216 0.000000 0.048185 0.000000
# 6 0.000000 0.000000 0.000000 -0.000778 0.000000 0.072981
#
#
# Mechanical properties :
#
#
# Convention : Reuss Voigt Hill
#
# Bulk Modulus (GPa) = 31.37125 49.59250 40.48187
# Shear Modulus (GPa) = 15.81716 21.29578 18.55647
#
# Velocity S-wave (km/s) = 2.96380 3.43900 3.21021
# Velocity P-wave (km/s) = 5.39763 6.58106 6.01850
#
# Compressibility (1/GPa) = 0.03187632
#
# Stress axis : x y z
#
# Youngs Moduli (GPa) = 72.81550 40.91148 29.68546
#
# Poissons Ratio (x) = 0.08374 0.28641
# Poissons Ratio (y) = 0.14904 0.24634
# Poissons Ratio (z) = 0.70254 0.33949
#
# Static dielectric constant tensor:
#      x y z
#    x 4.066760 0.000000 -0.585450 
#    y 0.000000 3.188360 0.000000 
#    z -0.585450 0.000000 2.962680 
# 
# 
# High freq. dielectric constant tensor:
#      x y z
#    x 1.709640 0.000000 -0.046770 
#    y 0.000000 1.685860 0.000000 
#    z -0.046770 0.000000 1.645770 
# 
# From -- ./inp_files/48889.got.cif
#   From: 2010.06.25/outbox.cif.g09.slc.cpg/sg10_25_cif.got.tgz:48889.got - 2010.06.27 22:07:45.
