data_PCOD8058396
_publ_section_title
;
Structure prediction by ZEFSAII (Michael W. Deem and Ramdas Pophale) SiO2 
 PCOD8058396
Probable space group: P 2/M
;
_chemical_formula_sum "Si O2"
_cell_formula_units_Z 24
_cell_length_a 14.116799
_cell_length_b 8.491649
_cell_length_c 17.523373
_cell_angle_alpha 90.000000
_cell_angle_beta 144.072107
_cell_angle_gamma 90.000000
_cell_volume 1232.569401
_symmetry_space_group_name_H-M "P 2/M"
_symmetry_group_IT_number 10
_symmetry_cell_setting 'monoclinic'
loop_
_space_group_symop_operation_xyz
x,y,z
-x,y,-z
-x,-y,-z
x,-y,z
loop_
_atom_site_type_symbol
_atom_site_label
_atom_site_fract_x
_atom_site_fract_y
_atom_site_fract_z
Si Si1 0.976044 0.312732 0.224928
Si Si2 0.426757 0.182547 0.372626
Si Si3 0.079673 0.315171 0.128525
Si Si4 0.321233 0.311970 0.869419
Si Si5 0.823544 0.684462 0.380053
Si Si6 0.716350 0.315965 0.476828
O O1 0.976682 0.500000 0.225205
O O2 0.807219 0.250938 0.150680
O O3 0.997906 0.245960 0.152830
O O4 0.125757 0.254605 0.374809
O O5 0.500000 0.242039 0.500000
O O6 0.268960 0.281945 0.250848
O O7 0.560698 0.215302 0.396807
O O8 0.379724 0.000000 0.344507
O O9 0.050405 0.500000 0.108908
O O10 0.000000 0.240210 0.000000
O O11 0.324741 0.500000 0.873169
O O12 0.270562 0.244709 0.753675
O O13 0.500000 0.243295 0.000000
O O14 0.844850 0.500000 0.379317
O O15 0.729640 0.719005 0.396151
O O16 0.000000 0.763070 0.500000
O O17 0.687936 0.500000 0.475174
#
# Coordination Sequence:
#
# PCOD8058396 Si02
#       6
#     4   4   4   4   4   4
#     4   9  16  28  47  73 105 139 169 209 266 314
#     4  11  23  37  54  78 107 140 183 224 264 316
#     4  10  21  36  56  81 110 141 178 221 266 318
#     4   9  16  25  40  67 105 137 162 203 258 313
#     4   9  15  25  43  71  99 127 167 210 257 311
#     4  10  18  30  54  79 103 136 176 220 264 310
#
# _framework density 19.471519000000001
#
# number of rings (size 3 to 8) (size 9 to 14) (size 15 to 20)
#    0.000    2.333    3.333    0.500    0.000    2.333 
#    0.000    5.000    0.000    0.500    0.000    0.000 
#    0.000    3.333    0.000    0.000    0.000    0.000 
#
# Total GULP energy -297526.137740 kJ/mol
# GULP energy per Si atom -12396.922406 kJ/mol
# Density = 1.942720 g / cm^3
# Si number density = 19.471519 Si / 1000 Ang^3
#
#
#
# Elastic Constant Matrix: (Units=GPa)
#
#
# Indices 1 2 3 4 5 6 
#
# 1 148.3323 8.3693 93.9521 0.0000 2.0187 0.0000
# 2 8.3693 5.4391 2.6492 0.0000 -4.5201 0.0000
# 3 93.9521 2.6492 164.2664 0.0000 -7.8091 0.0000
# 4 0.0000 0.0000 0.0000 6.5792 0.0000 -1.7586
# 5 2.0187 -4.5201 -7.8091 0.0000 38.8227 0.0000
# 6 0.0000 0.0000 0.0000 -1.7586 0.0000 2.9963
#
#
#
# Elastic Compliance Matrix: (Units=1/GPa)
#
#
# Indices 1 2 3 4 5 6 
#
# 1 0.012238 -0.018991 -0.006894 0.000000 -0.004234 0.000000
# 2 -0.018991 0.233795 0.008514 0.000000 0.029921 0.000000
# 3 -0.006894 0.008514 0.010054 0.000000 0.003372 0.000000
# 4 0.000000 0.000000 0.000000 0.180275 0.000000 0.105806
# 5 -0.004234 0.029921 0.003372 0.000000 0.030140 0.000000
# 6 0.000000 0.000000 0.000000 0.105806 0.000000 0.395845
#
#
# Mechanical properties :
#
#
# Convention : Reuss Voigt Hill
#
# Bulk Modulus (GPa) = 4.51787 58.66430 31.59109
# Shear Modulus (GPa) = 5.15002 23.88412 14.51707
#
# Velocity S-wave (km/s) = 1.62808 3.50611 2.73345
# Velocity P-wave (km/s) = 2.42063 6.82525 5.12072
#
# Compressibility (1/GPa) = 0.22134332
#
# Stress axis : x y z
#
# Youngs Moduli (GPa) = 81.71597 4.27725 99.46453
#
# Poissons Ratio (x) = 0.08123 0.68573
# Poissons Ratio (y) = 1.55187 -0.84682
# Poissons Ratio (z) = 0.56337 -0.03642
#
# Static dielectric constant tensor:
#      x y z
#    x 3.820100 0.000000 -0.127740 
#    y 0.000000 2.869090 0.000000 
#    z -0.127740 0.000000 3.725640 
# 
# 
# High freq. dielectric constant tensor:
#      x y z
#    x 1.775570 0.000000 -0.002460 
#    y 0.000000 1.692260 0.000000 
#    z -0.002460 0.000000 1.760520 
# 
# From -- ./inp_files/27234.got.cif
#   From: 2010.06.25/outbox.cif.g09.slc.cpg/sg10_14_cif.got.tgz:27234.got - 2010.06.27 22:07:45.
