data_PCOD8058658
_publ_section_title
;
Structure prediction by ZEFSAII (Michael W. Deem and Ramdas Pophale) SiO2 
 PCOD8058658
Probable space group: P 2/M
;
_chemical_formula_sum "Si O2"
_cell_formula_units_Z 32
_cell_length_a 25.463972
_cell_length_b 9.180886
_cell_length_c 19.936496
_cell_angle_alpha 90.000000
_cell_angle_beta 21.637070
_cell_angle_gamma 90.000000
_cell_volume 1718.554764
_symmetry_space_group_name_H-M "P 2/M"
_symmetry_group_IT_number 10
_symmetry_cell_setting 'monoclinic'
loop_
_space_group_symop_operation_xyz
x,y,z
-x,y,-z
-x,-y,-z
x,-y,z
loop_
_atom_site_type_symbol
_atom_site_label
_atom_site_fract_x
_atom_site_fract_y
_atom_site_fract_z
Si Si1 0.650406 0.169485 0.008151
Si Si2 0.851609 0.329009 0.488704
Si Si3 0.370919 0.672561 0.833014
Si Si4 0.891958 0.673891 0.073153
Si Si5 0.420997 0.672771 0.529627
Si Si6 0.979202 0.168529 0.599557
Si Si7 0.526552 0.669851 0.891179
Si Si8 0.078835 0.327446 0.111977
O O1 0.818139 0.197292 0.811847
O O2 0.612015 0.000000 0.055597
O O3 0.587332 0.249762 0.147630
O O4 0.584748 0.237129 0.019124
O O5 0.870602 0.500000 0.476335
O O6 0.914295 0.255256 0.479926
O O7 0.686066 0.286843 0.678635
O O8 0.938341 0.276202 0.319587
O O9 0.366895 0.500000 0.849457
O O10 0.497624 0.721701 0.633585
O O11 0.220664 0.729369 0.981344
O O12 0.897091 0.500000 0.065393
O O13 0.739355 0.731879 0.279097
O O14 0.927944 0.735037 0.955884
O O15 0.000000 0.737035 0.000000
O O16 0.500000 0.740394 0.500000
O O17 0.421522 0.500000 0.534558
O O18 0.000000 0.227967 0.500000
O O19 0.021529 0.000000 0.553902
O O20 0.497631 0.500000 0.912580
O O21 0.500000 0.710009 0.000000
O O22 0.087647 0.500000 0.097627
#
# Coordination Sequence:
#
# PCOD8058658 Si02
#       8
#     4   4   4   4   4   4   4   4
#     4  11  23  37  55  80 109 142 182 223 266 321
#     4  10  20  34  55  80 106 139 178 217 266 324
#     4  10  18  31  54  78 106 139 174 223 271 313
#     4   9  16  25  40  68 105 136 167 211 260 312
#     4   9  15  25  44  71  99 134 175 211 261 320
#     4  10  21  36  54  78 106 136 176 222 264 313
#     4  10  22  39  57  80 111 144 179 221 270 324
#     4   9  16  28  47  74 107 137 167 215 271 315
#
# _framework density 18.620296
#
# number of rings (size 3 to 8) (size 9 to 14) (size 15 to 20)
#    0.000    2.250    2.500    1.125    0.000    2.500 
#    0.000    3.750    0.000    0.375    0.000    0.000 
#    0.000    2.500    0.000    0.000    0.000    0.000 
#
# Total GULP energy -396788.370432 kJ/mol
# GULP energy per Si atom -12399.636576 kJ/mol
# Density = 1.857792 g / cm^3
# Si number density = 18.620296 Si / 1000 Ang^3
#
#
#
# Elastic Constant Matrix: (Units=GPa)
#
#
# Indices 1 2 3 4 5 6 
#
# 1 115.7438 29.2067 28.8549 0.0000 10.1715 0.0000
# 2 29.2067 34.4330 14.3573 0.0000 1.3631 0.0000
# 3 28.8549 14.3573 94.7516 0.0000 14.6066 0.0000
# 4 0.0000 0.0000 0.0000 12.8039 0.0000 -2.7492
# 5 10.1715 1.3631 14.6066 0.0000 36.7355 0.0000
# 6 0.0000 0.0000 0.0000 -2.7492 0.0000 4.7522
#
#
#
# Elastic Compliance Matrix: (Units=1/GPa)
#
#
# Indices 1 2 3 4 5 6 
#
# 1 0.011540 -0.008941 -0.001830 0.000000 -0.002136 0.000000
# 2 -0.008941 0.037948 -0.003400 0.000000 0.002419 0.000000
# 3 -0.001830 -0.003400 0.012282 0.000000 -0.004250 0.000000
# 4 0.000000 0.000000 0.000000 0.089178 0.000000 0.051590
# 5 -0.002136 0.002419 -0.004250 0.000000 0.029413 0.000000
# 6 0.000000 0.000000 0.000000 0.051590 0.000000 0.240276
#
#
# Mechanical properties :
#
#
# Convention : Reuss Voigt Hill
#
# Bulk Modulus (GPa) = 29.91615 43.30736 36.61176
# Shear Modulus (GPa) = 10.86671 22.35895 16.61283
#
# Velocity S-wave (km/s) = 2.41839 3.46899 2.99019
# Velocity P-wave (km/s) = 4.88871 6.27326 5.62376
#
# Compressibility (1/GPa) = 0.03342676
#
# Stress axis : x y z
#
# Youngs Moduli (GPa) = 86.65665 26.35218 81.42155
#
# Poissons Ratio (x) = 0.23560 0.14902
# Poissons Ratio (y) = 0.77476 0.27686
# Poissons Ratio (z) = 0.15861 0.08961
#
# Static dielectric constant tensor:
#      x y z
#    x 3.495090 0.000000 0.110530 
#    y 0.000000 2.934560 0.000000 
#    z 0.110530 0.000000 3.677220 
# 
# 
# High freq. dielectric constant tensor:
#      x y z
#    x 1.731140 0.000000 0.008090 
#    y 0.000000 1.670850 0.000000 
#    z 0.008090 0.000000 1.736870 
# 
# From -- ./inp_files/86902.got.cif
#   From: 2010.06.25/outbox.cif.g09.slc.cpg/sg10_44_cif.got.tgz:86902.got - 2010.06.27 22:07:45.
