data_PCOD8058210
_publ_section_title
;
Structure prediction by ZEFSAII (Michael W. Deem and Ramdas Pophale) SiO2 
 PCOD8058210
Probable space group: P 2/M
;
_chemical_formula_sum "Si O2"
_cell_formula_units_Z 32
_cell_length_a 21.569985
_cell_length_b 8.726521
_cell_length_c 11.765624
_cell_angle_alpha 90.000000
_cell_angle_beta 127.333464
_cell_angle_gamma 90.000000
_cell_volume 1760.914638
_symmetry_space_group_name_H-M "P 2/M"
_symmetry_group_IT_number 10
_symmetry_cell_setting 'monoclinic'
loop_
_space_group_symop_operation_xyz
x,y,z
-x,y,-z
-x,-y,-z
x,-y,z
loop_
_atom_site_type_symbol
_atom_site_label
_atom_site_fract_x
_atom_site_fract_y
_atom_site_fract_z
Si Si1 0.955933 0.676764 0.837180
Si Si2 0.417047 0.678708 0.938925
Si Si3 0.822127 0.820399 0.263346
Si Si4 0.098976 0.677691 0.843383
Si Si5 0.317035 0.321434 0.029233
Si Si6 0.734466 0.319318 0.359477
Si Si7 0.239913 0.180074 0.135462
Si Si8 0.209449 0.178205 0.356588
O O1 0.929719 0.500000 0.818686
O O2 0.881155 0.781023 0.735640
O O3 0.011648 0.702908 0.791009
O O4 0.000000 0.729397 0.000000
O O5 0.423134 0.500000 0.918801
O O6 0.346969 0.745201 0.783107
O O7 0.500000 0.757825 0.000000
O O8 0.398303 0.707529 0.052476
O O9 0.896104 0.746708 0.279211
O O10 0.808416 0.751111 0.373561
O O11 0.834762 0.000000 0.288129
O O12 0.747962 0.779705 0.104420
O O13 0.121648 0.500000 0.866549
O O14 0.158366 0.760391 0.995140
O O15 0.294734 0.500000 0.997129
O O16 0.314676 0.262389 0.157023
O O17 0.738941 0.500000 0.350430
O O18 0.739755 0.271988 0.496206
O O19 0.243935 0.222722 0.272320
O O20 0.245103 0.000000 0.121324
O O21 0.219179 0.000000 0.393115
#
# Coordination Sequence:
#
# PCOD8058210 Si02
#       8
#     4   4   4   4   4   4   4   4
#     4  10  20  34  51  73 100 132 171 217 260 299
#     4   8  15  30  54  83 107 126 156 203 253 296
#     4  10  18  30  49  71 100 132 165 207 252 299
#     4  10  18  30  50  73  98 127 168 216 257 297
#     4   9  16  27  48  76 102 130 165 205 246 291
#     4  10  20  35  55  76 101 133 168 205 249 303
#     4  10  19  30  46  70 100 134 170 209 251 293
#     4  11  23  35  50  72 102 138 172 210 255 303
#
# _framework density 18.172376
#
# number of rings (size 3 to 8) (size 9 to 14) (size 15 to 20)
#    0.000    2.250    1.250    5.250    0.000    2.750 
#    0.000    0.625    0.000   18.000    0.000    5.250 
#    0.000    0.000    0.000    0.000    0.000    0.000 
#
# Total GULP energy -396639.838990 kJ/mol
# GULP energy per Si atom -12394.994968 kJ/mol
# Density = 1.813101 g / cm^3
# Si number density = 18.172376 Si / 1000 Ang^3
#
#
#
# Elastic Constant Matrix: (Units=GPa)
#
#
# Indices 1 2 3 4 5 6 
#
# 1 139.2345 42.3964 49.0033 0.0000 -16.0206 0.0000
# 2 42.3964 54.2929 26.0872 0.0000 -10.2414 0.0000
# 3 49.0033 26.0872 72.6976 0.0000 -16.2144 0.0000
# 4 0.0000 0.0000 0.0000 21.8326 0.0000 -12.3792
# 5 -16.0206 -10.2414 -16.2144 0.0000 24.0352 0.0000
# 6 0.0000 0.0000 0.0000 -12.3792 0.0000 13.3127
#
#
#
# Elastic Compliance Matrix: (Units=1/GPa)
#
#
# Indices 1 2 3 4 5 6 
#
# 1 0.010852 -0.005851 -0.004895 0.000000 0.001438 0.000000
# 2 -0.005851 0.025896 -0.004423 0.000000 0.004150 0.000000
# 3 -0.004895 -0.004423 0.020592 0.000000 0.008745 0.000000
# 4 0.000000 0.000000 0.000000 0.096887 0.000000 0.090093
# 5 0.001438 0.004150 0.008745 0.000000 0.050232 0.000000
# 6 0.000000 0.000000 0.000000 0.090093 0.000000 0.158893
#
#
# Mechanical properties :
#
#
# Convention : Reuss Voigt Hill
#
# Bulk Modulus (GPa) = 37.03265 55.68875 46.36070
# Shear Modulus (GPa) = 12.41653 21.75197 17.08425
#
# Velocity S-wave (km/s) = 2.61677 3.46349 3.06947
# Velocity P-wave (km/s) = 5.43624 6.83415 6.17488
#
# Compressibility (1/GPa) = 0.02700320
#
# Stress axis : x y z
#
# Youngs Moduli (GPa) = 92.15035 38.61666 48.56153
#
# Poissons Ratio (x) = 0.22594 0.23769
# Poissons Ratio (y) = 0.53917 0.21478
# Poissons Ratio (z) = 0.45103 0.17080
#
# Static dielectric constant tensor:
#      x y z
#    x 3.893550 0.000000 -0.341110 
#    y 0.000000 3.279850 0.000000 
#    z -0.341110 0.000000 3.145900 
# 
# 
# High freq. dielectric constant tensor:
#      x y z
#    x 1.712670 0.000000 -0.030550 
#    y 0.000000 1.703550 0.000000 
#    z -0.030550 0.000000 1.661460 
# 
# From -- ./inp_files/56471.got.cif
#   From: 2010.06.25/outbox.cif.g09.slc.cpg/sg10_29_cif.got.tgz:56471.got - 2010.06.27 22:07:45.
