data_PCOD8058914
_publ_section_title
;
Structure prediction by ZEFSAII (Michael W. Deem and Ramdas Pophale) SiO2 
 PCOD8058914
Probable space group: P 2/M
;
_chemical_formula_sum "Si O2"
_cell_formula_units_Z 28
_cell_length_a 17.329941
_cell_length_b 9.104674
_cell_length_c 14.098011
_cell_angle_alpha 90.000000
_cell_angle_beta 44.311794
_cell_angle_gamma 90.000000
_cell_volume 1553.905682
_symmetry_space_group_name_H-M "P 2/M"
_symmetry_group_IT_number 10
_symmetry_cell_setting 'monoclinic'
loop_
_space_group_symop_operation_xyz
x,y,z
-x,y,-z
-x,-y,-z
x,-y,z
loop_
_atom_site_type_symbol
_atom_site_label
_atom_site_fract_x
_atom_site_fract_y
_atom_site_fract_z
Si Si1 0.338276 0.174367 0.325878
Si Si2 0.894783 0.831081 0.810151
Si Si3 0.231170 0.671015 0.918946
Si Si4 0.307951 0.169726 0.136609
Si Si5 0.880779 0.173775 0.144521
Si Si6 0.561961 0.671656 0.137978
Si Si7 0.136791 0.172247 0.626067
O O1 0.315701 0.221759 0.237675
O O2 0.448896 0.249925 0.266621
O O3 0.237894 0.239274 0.477160
O O4 0.349921 0.000000 0.324790
O O5 0.818268 0.803515 0.785869
O O6 0.021448 0.791236 0.673816
O O7 0.886302 0.000000 0.852426
O O8 0.858871 0.730121 0.928399
O O9 0.210659 0.500000 0.922566
O O10 0.216063 0.752384 0.832188
O O11 0.353300 0.704091 0.851210
O O12 0.341851 0.000000 0.094910
O O13 0.393158 0.263666 0.000176
O O14 0.866504 0.234102 0.263966
O O15 0.866863 0.000000 0.151185
O O16 0.000000 0.222665 0.000000
O O17 0.542422 0.500000 0.140217
O O18 0.154948 0.000000 0.614858
#
# Coordination Sequence:
#
# PCOD8058914 Si02
#       7
#     4   4   4   4   4   4   4
#     4  10  20  34  51  75 105 135 170 211 250 295
#     4   9  16  31  52  75 104 135 165 202 252 304
#     4  10  20  33  51  77 103 128 167 216 256 291
#     4   9  18  31  53  80 102 130 170 212 252 294
#     4  10  18  32  55  79 102 132 167 202 249 308
#     4  10  21  36  53  73 100 136 175 211 251 298
#     4   9  18  32  51  76 106 135 165 203 250 306
#
# _framework density 18.019113000000001
#
# number of rings (size 3 to 8) (size 9 to 14) (size 15 to 20)
#    0.000    2.429    1.429    1.286    0.000    4.857 
#    0.000    5.000    0.000    4.286    0.000    5.000 
#    0.000    0.000    0.000    0.000    0.000    0.000 
#
# Total GULP energy -347203.470107 kJ/mol
# GULP energy per Si atom -12400.123932 kJ/mol
# Density = 1.797810 g / cm^3
# Si number density = 18.019113 Si / 1000 Ang^3
#
#
#
# Elastic Constant Matrix: (Units=GPa)
#
#
# Indices 1 2 3 4 5 6 
#
# 1 107.3882 35.3680 59.7850 0.0000 -11.5827 0.0000
# 2 35.3680 39.8572 28.6393 0.0000 -6.1699 0.0000
# 3 59.7850 28.6393 117.1102 0.0000 -21.3777 0.0000
# 4 0.0000 0.0000 0.0000 5.6174 0.0000 -3.2579
# 5 -11.5827 -6.1699 -21.3777 0.0000 25.4826 0.0000
# 6 0.0000 0.0000 0.0000 -3.2579 0.0000 24.4016
#
#
#
# Elastic Compliance Matrix: (Units=1/GPa)
#
#
# Indices 1 2 3 4 5 6 
#
# 1 0.015683 -0.009902 -0.005574 0.000000 0.000054 0.000000
# 2 -0.009902 0.036729 -0.003690 0.000000 0.001296 0.000000
# 3 -0.005574 -0.003690 0.013770 0.000000 0.008125 0.000000
# 4 0.000000 0.000000 0.000000 0.192960 0.000000 0.025763
# 5 0.000054 0.001296 0.008125 0.000000 0.046397 0.000000
# 6 0.000000 0.000000 0.000000 0.025763 0.000000 0.044421
#
#
# Mechanical properties :
#
#
# Convention : Reuss Voigt Hill
#
# Bulk Modulus (GPa) = 35.90979 56.88226 46.39602
# Shear Modulus (GPa) = 12.57620 20.47121 16.52371
#
# Velocity S-wave (km/s) = 2.64472 3.37424 3.03150
# Velocity P-wave (km/s) = 5.41276 6.84229 6.16907
#
# Compressibility (1/GPa) = 0.02784756
#
# Stress axis : x y z
#
# Youngs Moduli (GPa) = 63.76506 27.22659 72.61977
#
# Poissons Ratio (x) = 0.26961 0.40482
# Poissons Ratio (y) = 0.63142 0.26799
# Poissons Ratio (z) = 0.35546 0.10047
#
# Static dielectric constant tensor:
#      x y z
#    x 3.533450 0.000000 -0.048290 
#    y 0.000000 3.146880 0.000000 
#    z -0.048290 0.000000 3.340410 
# 
# 
# High freq. dielectric constant tensor:
#      x y z
#    x 1.711130 0.000000 -0.007860 
#    y 0.000000 1.677310 0.000000 
#    z -0.007860 0.000000 1.679420 
# 
# From -- ./inp_files/49160.got.cif
#   From: 2010.06.25/outbox.cif.g09.slc.cpg/sg10_25_cif.got.tgz:49160.got - 2010.06.27 22:07:45.
