data_PCOD8058146
_publ_section_title
;
Structure prediction by ZEFSAII (Michael W. Deem and Ramdas Pophale) SiO2 
 PCOD8058146
Probable space group: P 2/M
;
_chemical_formula_sum "Si O2"
_cell_formula_units_Z 32
_cell_length_a 17.117974
_cell_length_b 8.876787
_cell_length_c 24.051193
_cell_angle_alpha 90.000000
_cell_angle_beta 146.316323
_cell_angle_gamma 90.000000
_cell_volume 2026.891197
_symmetry_space_group_name_H-M "P 2/M"
_symmetry_group_IT_number 10
_symmetry_cell_setting 'monoclinic'
loop_
_space_group_symop_operation_xyz
x,y,z
-x,y,-z
-x,-y,-z
x,-y,z
loop_
_atom_site_type_symbol
_atom_site_label
_atom_site_fract_x
_atom_site_fract_y
_atom_site_fract_z
Si Si1 0.856026 0.677467 0.384876
Si Si2 0.692685 0.826363 0.849951
Si Si3 0.573267 0.823539 0.243015
Si Si4 0.499196 0.322217 0.911979
Si Si5 0.116583 0.329605 0.116331
Si Si6 0.783890 0.173918 0.230690
Si Si7 0.085172 0.824132 0.926829
Si Si8 0.781027 0.173930 0.107058
O O1 0.828030 0.500000 0.369118
O O2 0.730651 0.759576 0.344685
O O3 0.865198 0.732448 0.326342
O O4 0.000000 0.722012 0.500000
O O5 0.526111 0.797520 0.761998
O O6 0.738349 0.741202 0.820762
O O7 0.724592 0.000000 0.858376
O O8 0.782693 0.771217 0.956961
O O9 0.497858 0.731424 0.149721
O O10 0.579907 0.000000 0.231772
O O11 0.472691 0.500000 0.900372
O O12 0.374774 0.234410 0.869602
O O13 0.645816 0.280869 0.027000
O O14 0.148681 0.500000 0.150320
O O15 0.059996 0.252157 0.138956
O O16 0.000000 0.308630 0.000000
O O17 0.854952 0.192738 0.211584
O O18 0.782227 0.000000 0.248193
O O19 0.112834 0.776307 0.879188
O O20 0.061600 0.000000 0.918159
O O21 0.734442 0.000000 0.070076
#
# Coordination Sequence:
#
# PCOD8058146 Si02
#       8
#     4   4   4   4   4   4   4   4
#     4  10  21  36  51  67  90 116 142 179 229 276
#     4   9  16  27  43  60  82 115 150 183 218 255
#     4  10  18  30  48  68  88 114 152 189 221 262
#     4  11  20  28  41  61  89 120 149 182 221 260
#     4   9  17  26  37  57  84 113 149 186 217 251
#     4  10  20  32  48  65  84 112 149 187 221 260
#     4   9  16  28  42  56  82 118 153 182 215 255
#     4  10  19  31  44  61  86 118 153 187 218 254
#
# _framework density 15.787725
#
# number of rings (size 3 to 8) (size 9 to 14) (size 15 to 20)
#    0.000    2.250    1.250    4.500    0.000    6.500 
#    0.000    0.000    0.000    0.000    0.000    0.000 
#    0.000    1.000    0.000   11.250    0.000    5.625 
#
# Total GULP energy -396640.002215 kJ/mol
# GULP energy per Si atom -12395.000069 kJ/mol
# Density = 1.575179 g / cm^3
# Si number density = 15.787725 Si / 1000 Ang^3
#
#
#
# Elastic Constant Matrix: (Units=GPa)
#
#
# Indices 1 2 3 4 5 6 
#
# 1 127.5854 35.1156 44.7895 0.0000 -0.4091 0.0000
# 2 35.1156 60.0206 24.5464 0.0000 1.6913 0.0000
# 3 44.7895 24.5464 57.6140 0.0000 4.3201 0.0000
# 4 0.0000 0.0000 0.0000 18.2955 0.0000 2.7188
# 5 -0.4091 1.6913 4.3201 0.0000 11.0864 0.0000
# 6 0.0000 0.0000 0.0000 2.7188 0.0000 6.8115
#
#
#
# Elastic Compliance Matrix: (Units=1/GPa)
#
#
# Indices 1 2 3 4 5 6 
#
# 1 0.011588 -0.003737 -0.007717 0.000000 0.004005 0.000000
# 2 -0.003737 0.021382 -0.006129 0.000000 -0.001012 0.000000
# 3 -0.007717 -0.006129 0.026699 0.000000 -0.009754 0.000000
# 4 0.000000 0.000000 0.000000 0.058105 0.000000 -0.023193
# 5 0.004005 -0.001012 -0.009754 0.000000 0.094304 0.000000
# 6 0.000000 0.000000 0.000000 -0.023193 0.000000 0.156069
#
#
# Mechanical properties :
#
#
# Convention : Reuss Voigt Hill
#
# Bulk Modulus (GPa) = 40.81025 50.45809 45.63417
# Shear Modulus (GPa) = 12.15122 16.62322 14.38722
#
# Velocity S-wave (km/s) = 2.77729 3.24839 3.02204
# Velocity P-wave (km/s) = 6.01581 6.78963 6.41440
#
# Compressibility (1/GPa) = 0.02450365
#
# Stress axis : x y z
#
# Youngs Moduli (GPa) = 86.29372 46.76787 37.45465
#
# Poissons Ratio (x) = 0.17476 0.28904
# Poissons Ratio (y) = 0.32245 0.22956
# Poissons Ratio (z) = 0.66594 0.28665
#
# Static dielectric constant tensor:
#      x y z
#    x 3.193880 0.000000 0.026180 
#    y 0.000000 3.057830 0.000000 
#    z 0.026180 0.000000 2.576450 
# 
# 
# High freq. dielectric constant tensor:
#      x y z
#    x 1.613080 0.000000 0.002880 
#    y 0.000000 1.617100 0.000000 
#    z 0.002880 0.000000 1.540230 
# 
# From -- ./inp_files/89958.got.cif
#   From: 2010.06.25/outbox.cif.g09.slc.cpg/sg10_45_cif.got.tgz:89958.got - 2010.06.27 22:07:45.
