data_PCOD8058802
_publ_section_title
;
Structure prediction by ZEFSAII (Michael W. Deem and Ramdas Pophale) SiO2 
 PCOD8058802
Probable space group: P 2/M
;
_chemical_formula_sum "Si O2"
_cell_formula_units_Z 32
_cell_length_a 11.968455
_cell_length_b 8.837973
_cell_length_c 18.314134
_cell_angle_alpha 90.000000
_cell_angle_beta 112.019378
_cell_angle_gamma 90.000000
_cell_volume 1795.906144
_symmetry_space_group_name_H-M "P 2/M"
_symmetry_group_IT_number 10
_symmetry_cell_setting 'monoclinic'
loop_
_space_group_symop_operation_xyz
x,y,z
-x,y,-z
-x,-y,-z
x,-y,z
loop_
_atom_site_type_symbol
_atom_site_label
_atom_site_fract_x
_atom_site_fract_y
_atom_site_fract_z
Si Si1 0.396503 0.170037 0.415385
Si Si2 0.041750 0.179738 0.672837
Si Si3 0.013183 0.179672 0.181046
Si Si4 0.254839 0.178920 0.155648
Si Si5 0.472579 0.322633 0.288644
Si Si6 0.186954 0.179539 0.466594
Si Si7 0.727506 0.179690 0.356343
Si Si8 0.115061 0.820918 0.987169
O O1 0.500000 0.166976 0.500000
O O2 0.430135 0.282057 0.359255
O O3 0.276222 0.232202 0.424089
O O4 0.377361 0.000000 0.379011
O O5 0.010242 0.250286 0.744566
O O6 0.174605 0.229733 0.680187
O O7 0.945688 0.237609 0.588711
O O8 0.033042 0.000000 0.674706
O O9 0.142779 0.230356 0.179984
O O10 0.013079 0.000000 0.186363
O O11 0.900415 0.233473 0.100996
O O12 0.375540 0.264571 0.206905
O O13 0.230847 0.227045 0.064295
O O14 0.274930 0.000000 0.167873
O O15 0.486146 0.500000 0.284642
O O16 0.600744 0.248691 0.301751
O O17 0.228612 0.246399 0.554676
O O18 0.190422 0.000000 0.474357
O O19 0.713345 0.000000 0.357084
O O20 0.107856 0.000000 0.986834
O O21 0.000000 0.752893 0.000000
#
# Coordination Sequence:
#
# PCOD8058802 Si02
#       8
#     4   4   4   4   4   4   4   4
#     4  10  18  32  53  73  94 123 156 191 235 287
#     4   9  16  25  45  74  98 120 152 202 246 278
#     4   8  13  24  46  79 107 120 145 195 248 287
#     4   9  16  29  51  75 100 128 157 188 232 293
#     4  12  24  34  46  67  98 130 163 201 240 278
#     4   9  16  28  48  74  97 118 153 199 239 278
#     4  10  19  33  49  66  91 127 169 201 234 279
#     4   7  11  21  42  73 103 126 146 181 237 293
#
# _framework density 17.818301999999999
#
# number of rings (size 3 to 8) (size 9 to 14) (size 15 to 20)
#    0.000    2.750    1.250    3.750    0.000    3.750 
#    0.000    0.000    0.000    8.625    0.000    5.250 
#    0.000    0.000    0.000    0.000    0.000    0.000 
#
# Total GULP energy -396458.376556 kJ/mol
# GULP energy per Si atom -12389.324267 kJ/mol
# Density = 1.777775 g / cm^3
# Si number density = 17.818302 Si / 1000 Ang^3
#
#
#
# Elastic Constant Matrix: (Units=GPa)
#
#
# Indices 1 2 3 4 5 6 
#
# 1 113.1061 25.1575 63.3342 0.0000 16.9927 0.0000
# 2 25.1575 30.3952 20.1603 0.0000 6.5127 0.0000
# 3 63.3342 20.1603 132.9874 0.0000 16.8797 0.0000
# 4 0.0000 0.0000 0.0000 11.2618 0.0000 6.2641
# 5 16.9927 6.5127 16.8797 0.0000 21.2695 0.0000
# 6 0.0000 0.0000 0.0000 6.2641 0.0000 14.1762
#
#
#
# Elastic Compliance Matrix: (Units=1/GPa)
#
#
# Indices 1 2 3 4 5 6 
#
# 1 0.013953 -0.007210 -0.004912 0.000000 -0.005041 0.000000
# 2 -0.007210 0.041431 -0.002188 0.000000 -0.005189 0.000000
# 3 -0.004912 -0.002188 0.010684 0.000000 -0.003884 0.000000
# 4 0.000000 0.000000 0.000000 0.117732 0.000000 -0.052023
# 5 -0.005041 -0.005189 -0.003884 0.000000 0.055715 0.000000
# 6 0.000000 0.000000 0.000000 -0.052023 0.000000 0.093528
#
#
# Mechanical properties :
#
#
# Convention : Reuss Voigt Hill
#
# Bulk Modulus (GPa) = 26.70499 54.86586 40.78542
# Shear Modulus (GPa) = 13.36379 20.53062 16.94721
#
# Velocity S-wave (km/s) = 2.74159 3.39812 3.08736
# Velocity P-wave (km/s) = 5.00417 6.80110 5.97062
#
# Compressibility (1/GPa) = 0.03744619
#
# Stress axis : x y z
#
# Youngs Moduli (GPa) = 71.66968 24.13650 93.60169
#
# Poissons Ratio (x) = 0.17403 0.45977
# Poissons Ratio (y) = 0.51676 0.20483
# Poissons Ratio (z) = 0.35204 0.05282
#
# Static dielectric constant tensor:
#      x y z
#    x 3.352510 0.000000 -0.043850 
#    y 0.000000 2.707270 0.000000 
#    z -0.043850 0.000000 3.805180 
# 
# 
# High freq. dielectric constant tensor:
#      x y z
#    x 1.671400 0.000000 0.008520 
#    y 0.000000 1.625100 0.000000 
#    z 0.008520 0.000000 1.704360 
# 
# From -- ./inp_files/83395.got.cif
#   From: 2010.06.25/outbox.cif.g09.slc.cpg/sg10_42_cif.got.tgz:83395.got - 2010.06.27 22:07:45.
