data_PCOD8058866
_publ_section_title
;
Structure prediction by ZEFSAII (Michael W. Deem and Ramdas Pophale) SiO2 
 PCOD8058866
Probable space group: P 2/M
;
_chemical_formula_sum "Si O2"
_cell_formula_units_Z 32
_cell_length_a 15.320768
_cell_length_b 9.189955
_cell_length_c 22.816567
_cell_angle_alpha 90.000000
_cell_angle_beta 31.486281
_cell_angle_gamma 90.000000
_cell_volume 1677.874928
_symmetry_space_group_name_H-M "P 2/M"
_symmetry_group_IT_number 10
_symmetry_cell_setting 'monoclinic'
loop_
_space_group_symop_operation_xyz
x,y,z
-x,y,-z
-x,-y,-z
x,-y,z
loop_
_atom_site_type_symbol
_atom_site_label
_atom_site_fract_x
_atom_site_fract_y
_atom_site_fract_z
Si Si1 0.737199 0.828121 0.002523
Si Si2 0.056350 0.829315 0.339631
Si Si3 0.999941 0.827352 0.242875
Si Si4 0.838630 0.666737 0.058203
Si Si5 0.569782 0.332022 0.310487
Si Si6 0.634170 0.172992 0.765651
Si Si7 0.333075 0.829100 0.631057
Si Si8 0.291918 0.829718 0.407089
O O1 0.840631 0.776523 0.886580
O O2 0.742915 0.000000 0.006405
O O3 0.824737 0.763020 0.008893
O O4 0.545294 0.774248 0.107232
O O5 0.222893 0.761310 0.273710
O O6 0.023763 0.759860 0.294146
O O7 0.902678 0.797379 0.470844
O O8 0.083087 0.000000 0.316131
O O9 0.826361 0.771317 0.314317
O O10 0.990361 0.000000 0.251946
O O11 0.862916 0.500000 0.025121
O O12 0.677065 0.687361 0.190603
O O13 0.000000 0.723994 0.000000
O O14 0.539744 0.500000 0.343354
O O15 0.666098 0.256264 0.308510
O O16 0.393689 0.254130 0.399152
O O17 0.661163 0.230415 0.684056
O O18 0.648424 0.000000 0.756317
O O19 0.500000 0.791429 0.500000
O O20 0.319476 0.000000 0.652323
O O21 0.333049 0.000000 0.390215
#
# Coordination Sequence:
#
# PCOD8058866 Si02
#       8
#     4   4   4   4   4   4   4   4
#     4  10  19  32  51  77 107 133 166 216 262 303
#     4   9  17  30  51  78 106 137 172 212 256 307
#     4   9  18  31  48  75 107 137 172 214 261 305
#     4  10  21  36  52  72 100 136 175 210 253 311
#     4  11  22  34  52  78 105 135 171 214 264 310
#     4   9  17  29  49  79 107 134 171 213 260 307
#     4  10  20  35  54  76 104 141 181 214 250 305
#     4  10  18  32  54  78 106 137 173 214 255 307
#
# _framework density 19.071742
#
# number of rings (size 3 to 8) (size 9 to 14) (size 15 to 20)
#    0.000    2.250    1.250    2.250    0.000    5.000 
#    0.000    2.500    0.000    3.000    0.000    0.875 
#    0.000    0.000    0.000    0.000    0.000    0.000 
#
# Total GULP energy -396828.575774 kJ/mol
# GULP energy per Si atom -12400.892993 kJ/mol
# Density = 1.902833 g / cm^3
# Si number density = 19.071742 Si / 1000 Ang^3
#
#
#
# Elastic Constant Matrix: (Units=GPa)
#
#
# Indices 1 2 3 4 5 6 
#
# 1 148.1276 25.4365 65.9982 0.0000 -13.2337 0.0000
# 2 25.4365 29.9865 24.1391 0.0000 -0.5803 0.0000
# 3 65.9982 24.1391 123.5481 0.0000 -10.7047 0.0000
# 4 0.0000 0.0000 0.0000 11.5834 0.0000 -0.6243
# 5 -13.2337 -0.5803 -10.7047 0.0000 38.0989 0.0000
# 6 0.0000 0.0000 0.0000 -0.6243 0.0000 3.6153
#
#
#
# Elastic Compliance Matrix: (Units=1/GPa)
#
#
# Indices 1 2 3 4 5 6 
#
# 1 0.009542 -0.004863 -0.003963 0.000000 0.002127 0.000000
# 2 -0.004863 0.042147 -0.005871 0.000000 -0.002697 0.000000
# 3 -0.003963 -0.005871 0.011511 0.000000 0.001768 0.000000
# 4 0.000000 0.000000 0.000000 0.087141 0.000000 0.015047
# 5 0.002127 -0.002697 0.001768 0.000000 0.027442 0.000000
# 6 0.000000 0.000000 0.000000 0.015047 0.000000 0.279200
#
#
# Mechanical properties :
#
#
# Convention : Reuss Voigt Hill
#
# Bulk Modulus (GPa) = 29.57935 59.20109 44.39022
# Shear Modulus (GPa) = 10.04732 23.06540 16.55636
#
# Velocity S-wave (km/s) = 2.29774 3.48142 2.94957
# Velocity P-wave (km/s) = 4.75212 6.87525 5.90981
#
# Compressibility (1/GPa) = 0.03380737
#
# Stress axis : x y z
#
# Youngs Moduli (GPa) = 104.80528 23.72646 86.87266
#
# Poissons Ratio (x) = 0.11537 0.34424
# Poissons Ratio (y) = 0.50963 0.51002
# Poissons Ratio (z) = 0.41530 0.13929
#
# Static dielectric constant tensor:
#      x y z
#    x 3.674540 0.000000 -0.064830 
#    y 0.000000 3.018040 0.000000 
#    z -0.064830 0.000000 3.668450 
# 
# 
# High freq. dielectric constant tensor:
#      x y z
#    x 1.751260 0.000000 -0.004990 
#    y 0.000000 1.687910 0.000000 
#    z -0.004990 0.000000 1.754850 
# 
# From -- ./inp_files/89474.got.cif
#   From: 2010.06.25/outbox.cif.g09.slc.cpg/sg10_45_cif.got.tgz:89474.got - 2010.06.27 22:07:45.
