data_PCOD8058962
_publ_section_title
;
Structure prediction by ZEFSAII (Michael W. Deem and Ramdas Pophale) SiO2 
 PCOD8058962
Probable space group: P 2/M
;
_chemical_formula_sum "Si O2"
_cell_formula_units_Z 28
_cell_length_a 28.265716
_cell_length_b 8.721597
_cell_length_c 9.901078
_cell_angle_alpha 90.000000
_cell_angle_beta 37.354008
_cell_angle_gamma 90.000000
_cell_volume 1480.947469
_symmetry_space_group_name_H-M "P 2/M"
_symmetry_group_IT_number 10
_symmetry_cell_setting 'monoclinic'
loop_
_space_group_symop_operation_xyz
x,y,z
-x,y,-z
-x,-y,-z
x,-y,z
loop_
_atom_site_type_symbol
_atom_site_label
_atom_site_fract_x
_atom_site_fract_y
_atom_site_fract_z
Si Si1 0.503085 0.180728 0.148095
Si Si2 0.628502 0.323338 0.049590
Si Si3 0.194696 0.323140 0.321052
Si Si4 0.049944 0.181848 0.265726
Si Si5 0.211651 0.820770 0.001378
Si Si6 0.048088 0.819705 0.761702
Si Si7 0.374720 0.319685 0.634075
O O1 0.583181 0.227149 0.039658
O O2 0.432590 0.244064 0.397063
O O3 0.496177 0.000000 0.160908
O O4 0.500000 0.243801 0.000000
O O5 0.603296 0.500000 0.093243
O O6 0.609426 0.266469 0.246484
O O7 0.719610 0.299679 0.810330
O O8 0.183948 0.500000 0.303107
O O9 0.183974 0.215383 0.215760
O O10 0.130103 0.270523 0.575632
O O11 0.140822 0.231305 0.064430
O O12 0.000000 0.255505 0.500000
O O13 0.008736 0.241394 0.225639
O O14 0.047117 0.000000 0.282239
O O15 0.230901 0.000000 0.945264
O O16 0.287559 0.725090 0.788039
O O17 0.065813 0.000000 0.712950
O O18 0.000000 0.772630 0.000000
O O19 0.384281 0.500000 0.602802
#
# Coordination Sequence:
#
# PCOD8058962 Si02
#       7
#     4   4   4   4   4   4   4
#     4  11  24  40  58  85 116 145 184 228 272 327
#     4   9  20  38  60  84 110 145 185 227 277 332
#     4  10  20  35  55  81 114 143 181 229 276 328
#     4   9  16  30  53  79 107 140 181 228 274 318
#     4  10  18  32  57  83 111 143 184 232 277 318
#     4  10  20  35  54  77 106 146 191 228 274 330
#     4  10  21  38  60  86 116 146 184 227 275 334
#
# _framework density 18.906817
#
# number of rings (size 3 to 8) (size 9 to 14) (size 15 to 20)
#    0.000    2.143    1.429    3.000    0.000    6.571 
#    2.571    2.143    0.000    0.000    0.000    0.000 
#    0.000    0.000    0.000    0.000    0.000    0.000 
#
# Total GULP energy -347132.815195 kJ/mol
# GULP energy per Si atom -12397.600543 kJ/mol
# Density = 1.886378 g / cm^3
# Si number density = 18.906817 Si / 1000 Ang^3
#
#
#
# Elastic Constant Matrix: (Units=GPa)
#
#
# Indices 1 2 3 4 5 6 
#
# 1 130.6381 36.5696 82.8576 0.0000 -0.7650 0.0000
# 2 36.5696 46.1645 34.0626 0.0000 -0.2511 0.0000
# 3 82.8576 34.0626 137.3405 0.0000 -5.2207 0.0000
# 4 0.0000 0.0000 0.0000 28.8062 0.0000 -4.9998
# 5 -0.7650 -0.2511 -5.2207 0.0000 28.3210 0.0000
# 6 0.0000 0.0000 0.0000 -4.9998 0.0000 17.9011
#
#
#
# Elastic Compliance Matrix: (Units=1/GPa)
#
#
# Indices 1 2 3 4 5 6 
#
# 1 0.013566 -0.005736 -0.006798 0.000000 -0.000937 0.000000
# 2 -0.005736 0.028966 -0.003746 0.000000 -0.000589 0.000000
# 3 -0.006798 -0.003746 0.012390 0.000000 0.002067 0.000000
# 4 0.000000 0.000000 0.000000 0.036483 0.000000 0.010190
# 5 -0.000937 -0.000589 0.002067 0.000000 0.035660 0.000000
# 6 0.000000 0.000000 0.000000 0.010190 0.000000 0.058708
#
#
# Mechanical properties :
#
#
# Convention : Reuss Voigt Hill
#
# Bulk Modulus (GPa) = 44.71621 69.01365 56.86493
# Shear Modulus (GPa) = 22.14468 25.71588 23.93028
#
# Velocity S-wave (km/s) = 3.42607 3.69201 3.56152
# Velocity P-wave (km/s) = 6.27318 7.39971 6.85961
#
# Compressibility (1/GPa) = 0.02236326
#
# Stress axis : x y z
#
# Youngs Moduli (GPa) = 73.71180 34.52279 80.71194
#
# Poissons Ratio (x) = 0.19803 0.54864
# Poissons Ratio (y) = 0.42283 0.30233
# Poissons Ratio (z) = 0.50106 0.12932
#
# Static dielectric constant tensor:
#      x y z
#    x 3.613080 0.000000 -0.114080 
#    y 0.000000 3.305050 0.000000 
#    z -0.114080 0.000000 3.525530 
# 
# 
# High freq. dielectric constant tensor:
#      x y z
#    x 1.732530 0.000000 -0.018530 
#    y 0.000000 1.722640 0.000000 
#    z -0.018530 0.000000 1.735340 
# 
# From -- ./inp_files/36933.got.cif
#   From: 2010.06.25/outbox.cif.g09.slc.cpg/sg10_19_cif.got.tgz:36933.got - 2010.06.27 22:07:45.
