data_PCOD8058372
_publ_section_title
;
Structure prediction by ZEFSAII (Michael W. Deem and Ramdas Pophale) SiO2 
 PCOD8058372
Probable space group: P 2/M
;
_chemical_formula_sum "Si O2"
_cell_formula_units_Z 32
_cell_length_a 20.337733
_cell_length_b 13.681471
_cell_length_c 13.237090
_cell_angle_alpha 90.000000
_cell_angle_beta 25.779677
_cell_angle_gamma 90.000000
_cell_volume 1601.876295
_symmetry_space_group_name_H-M "P 2/M"
_symmetry_group_IT_number 10
_symmetry_cell_setting 'monoclinic'
loop_
_space_group_symop_operation_xyz
x,y,z
-x,y,-z
-x,-y,-z
x,-y,z
loop_
_atom_site_type_symbol
_atom_site_label
_atom_site_fract_x
_atom_site_fract_y
_atom_site_fract_z
Si Si1 0.207847 0.390315 0.412580
Si Si2 0.106711 0.885145 0.488935
Si Si3 0.778878 0.884077 0.887561
Si Si4 0.880789 0.615516 0.891349
Si Si5 0.635900 0.390031 0.388419
Si Si6 0.638668 0.206266 0.741449
Si Si7 0.500036 0.245107 0.264972
Si Si8 0.266927 0.389899 0.107029
O O1 0.250246 0.500000 0.387547
O O2 0.343166 0.321953 0.262062
O O3 0.172904 0.385888 0.340520
O O4 0.051816 0.350930 0.677224
O O5 0.185037 0.848207 0.276760
O O6 0.203537 0.845653 0.448697
O O7 0.929184 0.854431 0.744482
O O8 0.113360 0.000000 0.477840
O O9 0.749419 0.000000 0.934842
O O10 0.626222 0.829127 0.137656
O O11 0.880403 0.500000 0.877249
O O12 0.819429 0.658897 0.869480
O O13 0.781362 0.646699 0.124772
O O14 0.500000 0.400756 0.500000
O O15 0.662426 0.500000 0.399515
O O16 0.601823 0.302155 0.512698
O O17 0.606846 0.187387 0.666637
O O18 0.500000 0.164075 0.000000
O O19 0.581901 0.327916 0.085070
O O20 0.315524 0.500000 0.012922
#
# Coordination Sequence:
#
# PCOD8058372 Si02
#       8
#     4   4   4   4   4   4   4   4
#     4  10  21  34  50  76 118 157 187 224 276 343
#     4   9  19  37  59  82 116 155 186 229 286 346
#     4   9  19  36  59  86 113 148 191 232 284 345
#     4   9  18  34  54  77 103 144 200 246 278 316
#     4  10  20  36  57  81 110 150 204 251 284 323
#     4  12  23  35  48  85 123 156 186 220 286 354
#     4  12  22  34  54  86 118 152 187 233 288 337
#     4  10  18  30  52  82 113 146 184 229 284 336
#
# _framework density 19.976573999999999
#
# number of rings (size 3 to 8) (size 9 to 14) (size 15 to 20)
#    0.000    1.875    3.750    1.500    1.750    3.500 
#    0.000    0.625    0.000    2.625    0.000    0.875 
#    0.000    4.000    0.000    0.000    0.000    0.000 
#
# Total GULP energy -396552.493549 kJ/mol
# GULP energy per Si atom -12392.265423 kJ/mol
# Density = 1.993111 g / cm^3
# Si number density = 19.976574 Si / 1000 Ang^3
#
#
#
# Elastic Constant Matrix: (Units=GPa)
#
#
# Indices 1 2 3 4 5 6 
#
# 1 85.5644 15.2290 35.6604 0.0000 -14.0258 0.0000
# 2 15.2290 27.4390 18.4728 0.0000 -6.9218 0.0000
# 3 35.6604 18.4728 99.0017 0.0000 1.4486 0.0000
# 4 0.0000 0.0000 0.0000 -64.3294 0.0000 -12.1664
# 5 -14.0258 -6.9218 1.4486 0.0000 25.7542 0.0000
# 6 0.0000 0.0000 0.0000 -12.1664 0.0000 23.2456
#
#
#
# Elastic Compliance Matrix: (Units=1/GPa)
#
#
# Indices 1 2 3 4 5 6 
#
# 1 0.015731 -0.003227 -0.005181 0.000000 0.007991 0.000000
# 2 -0.003227 0.046154 -0.007612 0.000000 0.011075 0.000000
# 3 -0.005181 -0.007612 0.013470 0.000000 -0.005625 0.000000
# 4 0.000000 0.000000 0.000000 -0.014145 0.000000 -0.007403
# 5 0.007991 0.011075 -0.005625 0.000000 0.046474 0.000000
# 6 0.000000 0.000000 0.000000 -0.007403 0.000000 0.039144
#
#
# Mechanical properties :
#
#
# Convention : Reuss Voigt Hill
#
# Bulk Modulus (GPa) = 23.08673 38.96995 31.02834
# Shear Modulus (GPa) = 25.86603 6.44360 16.15482
#
# Velocity S-wave (km/s) = 3.60226 1.79794 2.84683
# Velocity P-wave (km/s) = 5.37436 4.88470 5.13537
#
# Compressibility (1/GPa) = 0.04331492
#
# Stress axis : x y z
#
# Youngs Moduli (GPa) = 63.57035 21.66681 74.24124
#
# Poissons Ratio (x) = 0.06991 0.38464
# Poissons Ratio (y) = 0.20513 0.56509
# Poissons Ratio (z) = 0.32936 0.16492
#
# Static dielectric constant tensor:
#      x y z
#    x 3.461090 0.000000 -0.112590 
#    y 0.000000 3.588560 0.000000 
#    z -0.112590 0.000000 4.428290 
# 
# 
# High freq. dielectric constant tensor:
#      x y z
#    x 1.749650 0.000000 -0.024030 
#    y 0.000000 1.774820 0.000000 
#    z -0.024030 0.000000 1.761710 
# 
# From -- ./inp_files/53999.got.cif
#   From: 2010.06.25/outbox.cif.g09.slc.cpg/sg10_27_cif.got.tgz:53999.got - 2010.06.27 22:07:45.
