data_PCOD8058917
_publ_section_title
;
Structure prediction by ZEFSAII (Michael W. Deem and Ramdas Pophale) SiO2 
 PCOD8058917
Probable space group: P 2/M
;
_chemical_formula_sum "Si O2"
_cell_formula_units_Z 32
_cell_length_a 14.254348
_cell_length_b 9.027707
_cell_length_c 24.427919
_cell_angle_alpha 90.000000
_cell_angle_beta 149.557919
_cell_angle_gamma 90.000000
_cell_volume 1592.700039
_symmetry_space_group_name_H-M "P 2/M"
_symmetry_group_IT_number 10
_symmetry_cell_setting 'monoclinic'
loop_
_space_group_symop_operation_xyz
x,y,z
-x,y,-z
-x,-y,-z
x,-y,z
loop_
_atom_site_type_symbol
_atom_site_label
_atom_site_fract_x
_atom_site_fract_y
_atom_site_fract_z
Si Si1 0.800554 0.668322 0.883250
Si Si2 0.003198 0.328858 0.185909
Si Si3 0.583979 0.324631 0.600745
Si Si4 0.352174 0.826365 0.799398
Si Si5 0.502177 0.175900 0.334907
Si Si6 0.791925 0.176158 0.389511
Si Si7 0.704157 0.675277 0.121751
Si Si8 0.296688 0.665113 0.045514
O O1 0.821304 0.500000 0.870853
O O2 0.697902 0.768494 0.787131
O O3 0.681241 0.670955 0.878507
O O4 0.000000 0.734901 0.000000
O O5 0.032180 0.500000 0.213661
O O6 0.858448 0.263443 0.157226
O O7 0.207032 0.257509 0.291805
O O8 0.914098 0.301948 0.080649
O O9 0.500000 0.281112 0.500000
O O10 0.575926 0.500000 0.606918
O O11 0.464158 0.245861 0.588231
O O12 0.280868 0.764678 0.705340
O O13 0.242323 0.747563 0.793119
O O14 0.568019 0.784122 0.913555
O O15 0.324418 0.000000 0.790719
O O16 0.663809 0.233029 0.375235
O O17 0.499932 0.000000 0.337820
O O18 0.000000 0.237575 0.500000
O O19 0.788436 0.000000 0.388060
O O20 0.712674 0.500000 0.131643
O O21 0.500000 0.727276 0.000000
O O22 0.350827 0.500000 0.050894
#
# Coordination Sequence:
#
# PCOD8058917 Si02
#       8
#     4   4   4   4   4   4   4   4
#     4  10  20  34  57  86 116 153 194 235 285 348
#     4   9  18  35  58  82 110 148 191 229 281 345
#     4  10  22  41  63  85 113 150 193 241 288 341
#     4  11  21  34  54  81 113 146 185 234 282 332
#     4  11  22  38  61  87 116 151 193 242 290 344
#     4   9  20  39  59  80 113 158 194 226 282 348
#     4  10  19  34  56  79 108 151 191 228 278 340
#     4  10  18  32  55  79 109 148 186 225 276 341
#
# _framework density 20.091669
#
# number of rings (size 3 to 8) (size 9 to 14) (size 15 to 20)
#    0.000    2.000    2.500    1.500    0.000    3.750 
#    0.000    2.500    0.000    5.250    0.000    0.000 
#    0.000    0.000    0.000    0.000    0.000    0.000 
#
# Total GULP energy -396731.085742 kJ/mol
# GULP energy per Si atom -12397.846429 kJ/mol
# Density = 2.004594 g / cm^3
# Si number density = 20.091669 Si / 1000 Ang^3
#
#
#
# Elastic Constant Matrix: (Units=GPa)
#
#
# Indices 1 2 3 4 5 6 
#
# 1 112.1057 31.2721 51.3621 0.0000 -17.5906 0.0000
# 2 31.2721 41.1413 26.5549 0.0000 -9.2909 0.0000
# 3 51.3621 26.5549 113.3327 0.0000 -9.8350 0.0000
# 4 0.0000 0.0000 0.0000 22.1507 0.0000 -5.6914
# 5 -17.5906 -9.2909 -9.8350 0.0000 37.3007 0.0000
# 6 0.0000 0.0000 0.0000 -5.6914 0.0000 29.7058
#
#
#
# Elastic Compliance Matrix: (Units=1/GPa)
#
#
# Indices 1 2 3 4 5 6 
#
# 1 0.013198 -0.006571 -0.004138 0.000000 0.003496 0.000000
# 2 -0.006571 0.033052 -0.004422 0.000000 0.003968 0.000000
# 3 -0.004138 -0.004422 0.011739 0.000000 0.000042 0.000000
# 4 0.000000 0.000000 0.000000 0.047483 0.000000 0.009097
# 5 0.003496 0.003968 0.000042 0.000000 0.029457 0.000000
# 6 0.000000 0.000000 0.000000 0.009097 0.000000 0.035406
#
#
# Mechanical properties :
#
#
# Convention : Reuss Voigt Hill
#
# Bulk Modulus (GPa) = 36.06792 53.88421 44.97607
# Shear Modulus (GPa) = 23.82783 28.32414 26.07599
#
# Velocity S-wave (km/s) = 3.44751 3.75873 3.60648
# Velocity P-wave (km/s) = 5.81702 6.76127 6.30684
#
# Compressibility (1/GPa) = 0.02772547
#
# Stress axis : x y z
#
# Youngs Moduli (GPa) = 75.77094 30.25572 85.18837
#
# Poissons Ratio (x) = 0.19882 0.35251
# Poissons Ratio (y) = 0.49791 0.37669
# Poissons Ratio (z) = 0.31354 0.13379
#
# Static dielectric constant tensor:
#      x y z
#    x 3.882030 0.000000 -0.037050 
#    y 0.000000 3.226190 0.000000 
#    z -0.037050 0.000000 3.691020 
# 
# 
# High freq. dielectric constant tensor:
#      x y z
#    x 1.800240 0.000000 -0.008120 
#    y 0.000000 1.741800 0.000000 
#    z -0.008120 0.000000 1.777890 
# 
# From -- ./inp_files/71455.got.cif
#   From: 2010.06.25/outbox.cif.g09.slc.cpg/sg10_36_cif.got.tgz:71455.got - 2010.06.27 22:07:45.
