data_PCOD8058132
_publ_section_title
;
Structure prediction by ZEFSAII (Michael W. Deem and Ramdas Pophale) SiO2 
 PCOD8058132
Probable space group: P 2/M
;
_chemical_formula_sum "Si O2"
_cell_formula_units_Z 28
_cell_length_a 19.418835
_cell_length_b 9.077910
_cell_length_c 14.392279
_cell_angle_alpha 90.000000
_cell_angle_beta 138.916246
_cell_angle_gamma 90.000000
_cell_volume 1667.288515
_symmetry_space_group_name_H-M "P 2/M"
_symmetry_group_IT_number 10
_symmetry_cell_setting 'monoclinic'
loop_
_space_group_symop_operation_xyz
x,y,z
-x,y,-z
-x,-y,-z
x,-y,z
loop_
_atom_site_type_symbol
_atom_site_label
_atom_site_fract_x
_atom_site_fract_y
_atom_site_fract_z
Si Si1 0.491213 0.828321 0.883802
Si Si2 0.383460 0.173772 0.481824
Si Si3 0.281927 0.172513 0.564029
Si Si4 0.620847 0.174068 0.727718
Si Si5 0.895976 0.674172 0.511001
Si Si6 0.676113 0.675335 0.963600
Si Si7 0.127935 0.674379 0.720658
O O1 0.374610 0.790501 0.730582
O O2 0.571745 0.734216 0.905795
O O3 0.517254 0.000000 0.895206
O O4 0.500000 0.782102 0.000000
O O5 0.311287 0.235169 0.491455
O O6 0.501597 0.231719 0.614759
O O7 0.337737 0.215970 0.333750
O O8 0.391294 0.000000 0.498217
O O9 0.175566 0.251755 0.484354
O O10 0.259865 0.000000 0.538327
O O11 0.688264 0.262234 0.871822
O O12 0.630273 0.000000 0.755760
O O13 0.883211 0.500000 0.505595
O O14 0.861074 0.732105 0.373738
O O15 0.016453 0.723155 0.650923
O O16 0.672946 0.500000 0.958101
O O17 0.776750 0.737026 0.121654
O O18 0.131570 0.500000 0.721314
#
# Coordination Sequence:
#
# PCOD8058132 Si02
#       7
#     4   4   4   4   4   4   4
#     4  10  20  32  46  67  98 132 158 184 228 287
#     4   8  15  29  50  68  90 126 161 190 229 281
#     4  10  18  30  47  71  99 121 149 195 241 276
#     4   9  16  31  51  68  89 126 165 190 227 285
#     4   9  17  33  53  68  87 125 168 196 224 276
#     4  11  20  30  47  72  99 124 152 196 243 279
#     4   8  17  33  50  67  92 126 162 195 231 275
#
# _framework density 16.793733
#
# number of rings (size 3 to 8) (size 9 to 14) (size 15 to 20)
#    0.000    2.714    1.429    3.000    0.000    0.857 
#    0.000    5.714    0.000    0.857    0.000    6.000 
#    0.000    0.000    0.000    0.000    0.000    0.000 
#
# Total GULP energy -347093.487418 kJ/mol
# GULP energy per Si atom -12396.195979 kJ/mol
# Density = 1.675551 g / cm^3
# Si number density = 16.793733 Si / 1000 Ang^3
#
#
#
# Elastic Constant Matrix: (Units=GPa)
#
#
# Indices 1 2 3 4 5 6 
#
# 1 126.1781 26.6518 35.4753 0.0000 -5.0731 0.0000
# 2 26.6518 34.7190 19.9039 0.0000 -0.6927 0.0000
# 3 35.4753 19.9039 59.3102 0.0000 -5.2266 0.0000
# 4 0.0000 0.0000 0.0000 16.8996 0.0000 1.4701
# 5 -5.0731 -0.6927 -5.2266 0.0000 28.1840 0.0000
# 6 0.0000 0.0000 0.0000 1.4701 0.0000 26.7132
#
#
#
# Elastic Compliance Matrix: (Units=1/GPa)
#
#
# Indices 1 2 3 4 5 6 
#
# 1 0.010312 -0.005459 -0.004254 0.000000 0.000933 0.000000
# 2 -0.005459 0.038605 -0.009855 0.000000 -0.001861 0.000000
# 3 -0.004254 -0.009855 0.022999 0.000000 0.003257 0.000000
# 4 0.000000 0.000000 0.000000 0.059457 0.000000 -0.003272
# 5 0.000933 -0.001861 0.003257 0.000000 0.036207 0.000000
# 6 0.000000 0.000000 0.000000 -0.003272 0.000000 0.037615
#
#
# Mechanical properties :
#
#
# Convention : Reuss Voigt Hill
#
# Bulk Modulus (GPa) = 30.50437 42.69659 36.60048
# Shear Modulus (GPa) = 19.58812 23.57111 21.57962
#
# Velocity S-wave (km/s) = 3.41896 3.75048 3.58855
# Velocity P-wave (km/s) = 5.81285 6.65088 6.24594
#
# Compressibility (1/GPa) = 0.03278218
#
# Stress axis : x y z
#
# Youngs Moduli (GPa) = 96.97688 25.90322 43.48024
#
# Poissons Ratio (x) = 0.14139 0.18495
# Poissons Ratio (y) = 0.52935 0.42848
# Poissons Ratio (z) = 0.41251 0.25527
#
# Static dielectric constant tensor:
#      x y z
#    x 3.365680 0.000000 -0.190600 
#    y 0.000000 2.821310 0.000000 
#    z -0.190600 0.000000 3.320360 
# 
# 
# High freq. dielectric constant tensor:
#      x y z
#    x 1.648060 0.000000 -0.011660 
#    y 0.000000 1.619010 0.000000 
#    z -0.011660 0.000000 1.637510 
# 
# From -- ./inp_files/54680.got.cif
#   From: 2010.06.25/outbox.cif.g09.slc.cpg/sg10_28_cif.got.tgz:54680.got - 2010.06.27 22:07:45.
