data_PCOD8058078
_publ_section_title
;
Structure prediction by ZEFSAII (Michael W. Deem and Ramdas Pophale) SiO2 
 PCOD8058078
Probable space group: P 2/M
;
_chemical_formula_sum "Si O2"
_cell_formula_units_Z 32
_cell_length_a 20.425872
_cell_length_b 8.790885
_cell_length_c 20.446584
_cell_angle_alpha 90.000000
_cell_angle_beta 150.381884
_cell_angle_gamma 90.000000
_cell_volume 1814.476872
_symmetry_space_group_name_H-M "P 2/M"
_symmetry_group_IT_number 10
_symmetry_cell_setting 'monoclinic'
loop_
_space_group_symop_operation_xyz
x,y,z
-x,y,-z
-x,-y,-z
x,-y,z
loop_
_atom_site_type_symbol
_atom_site_label
_atom_site_fract_x
_atom_site_fract_y
_atom_site_fract_z
Si Si1 0.577397 0.680574 0.929428
Si Si2 0.814320 0.670131 0.883279
Si Si3 0.965127 0.179136 0.753198
Si Si4 0.242912 0.318325 0.030232
Si Si5 0.884975 0.672289 0.809188
Si Si6 0.070038 0.680725 0.411865
Si Si7 0.785956 0.681074 0.215894
Si Si8 0.285630 0.681161 0.703244
O O1 0.574171 0.500000 0.931811
O O2 0.633089 0.730611 0.906743
O O3 0.673247 0.745072 0.069349
O O4 0.430370 0.747481 0.810759
O O5 0.763307 0.500000 0.827561
O O6 0.804653 0.746357 0.802216
O O7 0.732096 0.743223 0.873016
O O8 0.963353 0.669130 0.038243
O O9 0.869824 0.226571 0.731111
O O10 0.897165 0.240664 0.628477
O O11 0.110639 0.250347 0.884181
O O12 0.977610 0.000000 0.762462
O O13 0.223513 0.500000 0.014396
O O14 0.836984 0.500000 0.752752
O O15 0.072015 0.500000 0.404526
O O16 0.181271 0.737576 0.558958
O O17 0.928863 0.738669 0.316194
O O18 0.784232 0.500000 0.215093
O O19 0.757387 0.745324 0.263444
O O20 0.289119 0.500000 0.708287
#
# Coordination Sequence:
#
# PCOD8058078 Si02
#       8
#     4   4   4   4   4   4   4   4
#     4   9  15  24  42  69  96 118 142 180 226 263
#     4   7  11  20  38  61  85 114 145 175 211 264
#     4  11  20  28  41  63  89 117 151 189 223 258
#     4   9  15  27  45  65  90 120 150 177 218 269
#     4   8  13  24  40  59  85 116 146 177 219 265
#     4  10  18  30  46  65  89 121 152 182 222 268
#     4   9  15  25  43  67  93 118 143 180 229 269
#     4   9  17  26  41  69  97 114 143 189 226 260
#
# _framework density 17.635936000000001
#
# number of rings (size 3 to 8) (size 9 to 14) (size 15 to 20)
#    0.000    3.000    1.250    3.375    0.000    3.000 
#    0.000    5.000    0.000    2.250    0.000    1.750 
#    0.000    7.000    0.000    0.000    0.000    0.000 
#
# Total GULP energy -396428.895275 kJ/mol
# GULP energy per Si atom -12388.402977 kJ/mol
# Density = 1.759580 g / cm^3
# Si number density = 17.635936 Si / 1000 Ang^3
#
#
#
# Elastic Constant Matrix: (Units=GPa)
#
#
# Indices 1 2 3 4 5 6 
#
# 1 184.7671 23.6967 76.0263 0.0000 -32.1393 0.0000
# 2 23.6967 29.2335 12.2065 0.0000 -4.8470 0.0000
# 3 76.0263 12.2065 99.8956 0.0000 -3.0588 0.0000
# 4 0.0000 0.0000 0.0000 3.2216 0.0000 0.2669
# 5 -32.1393 -4.8470 -3.0588 0.0000 17.9299 0.0000
# 6 0.0000 0.0000 0.0000 0.2669 0.0000 2.3453
#
#
#
# Elastic Compliance Matrix: (Units=1/GPa)
#
#
# Indices 1 2 3 4 5 6 
#
# 1 0.013284 -0.003459 -0.009034 0.000000 0.021336 0.000000
# 2 -0.003459 0.038466 -0.001950 0.000000 0.003866 0.000000
# 3 -0.009034 -0.001950 0.016700 0.000000 -0.013872 0.000000
# 4 0.000000 0.000000 0.000000 0.313358 0.000000 -0.035661
# 5 0.021336 0.003866 -0.013872 0.000000 0.092696 0.000000
# 6 0.000000 0.000000 0.000000 -0.035661 0.000000 0.430451
#
#
# Mechanical properties :
#
#
# Convention : Reuss Voigt Hill
#
# Bulk Modulus (GPa) = 25.27492 59.75059 42.51276
# Shear Modulus (GPa) = 5.27966 18.16379 11.72173
#
# Velocity S-wave (km/s) = 1.73211 3.21274 2.58088
# Velocity P-wave (km/s) = 4.28519 6.90766 5.74798
#
# Compressibility (1/GPa) = 0.03956491
#
# Stress axis : x y z
#
# Youngs Moduli (GPa) = 75.27590 25.99693 59.88180
#
# Poissons Ratio (x) = 0.08991 0.54099
# Poissons Ratio (y) = 0.26034 0.11675
# Poissons Ratio (z) = 0.68007 0.05069
#
# Static dielectric constant tensor:
#      x y z
#    x 3.996910 0.000000 -0.188080 
#    y 0.000000 2.679430 0.000000 
#    z -0.188080 0.000000 3.040170 
# 
# 
# High freq. dielectric constant tensor:
#      x y z
#    x 1.709570 0.000000 -0.020780 
#    y 0.000000 1.618200 0.000000 
#    z -0.020780 0.000000 1.638760 
# 
# From -- ./inp_files/86170.got.cif
#   From: 2010.06.25/outbox.cif.g09.slc.cpg/sg10_44_cif.got.tgz:86170.got - 2010.06.27 22:07:45.
