data_PCOD8058763
_publ_section_title
;
Structure prediction by ZEFSAII (Michael W. Deem and Ramdas Pophale) SiO2 
 PCOD8058763
Probable space group: P 2/M
;
_chemical_formula_sum "Si O2"
_cell_formula_units_Z 28
_cell_length_a 9.051938
_cell_length_b 12.831846
_cell_length_c 14.532521
_cell_angle_alpha 90.000000
_cell_angle_beta 119.384947
_cell_angle_gamma 90.000000
_cell_volume 1470.823948
_symmetry_space_group_name_H-M "P 2/M"
_symmetry_group_IT_number 10
_symmetry_cell_setting 'monoclinic'
loop_
_space_group_symop_operation_xyz
x,y,z
-x,y,-z
-x,-y,-z
x,-y,z
loop_
_atom_site_type_symbol
_atom_site_label
_atom_site_fract_x
_atom_site_fract_y
_atom_site_fract_z
Si Si1 0.271370 0.000000 0.562875
Si Si2 0.052666 0.000000 0.666429
Si Si3 0.458079 0.383583 0.694192
Si Si4 0.649904 0.782809 0.477930
Si Si5 0.172373 0.320489 0.165999
Si Si6 0.244233 0.380346 0.800163
Si Si7 0.810679 0.615040 0.019952
Si Si8 0.960906 0.213422 0.706830
O O1 0.109461 0.000000 0.448216
O O2 0.382024 0.896985 0.576173
O O3 0.219974 0.000000 0.654347
O O4 0.052846 0.898510 0.731715
O O5 0.405948 0.500000 0.647917
O O6 0.348913 0.303291 0.601250
O O7 0.659477 0.372173 0.740508
O O8 0.408227 0.363322 0.785802
O O9 0.500000 0.754724 0.500000
O O10 0.826619 0.777977 0.584160
O O11 0.125840 0.222606 0.217879
O O12 0.007067 0.394331 0.114362
O O13 0.210760 0.298702 0.068270
O O14 0.180174 0.500000 0.773928
O O15 0.298317 0.354834 0.922814
O O16 0.092583 0.304596 0.724092
O O17 0.756435 0.500000 0.966199
#
# Coordination Sequence:
#
# PCOD8058763 Si02
#       8
#     2   2   4   4   4   4   4   4
#     4   9  19  34  58  74 102 133 180 226 258 297
#     4   9  18  34  56  81  97 136 176 221 263 301
#     4  11  22  34  49  77 113 143 176 212 259 317
#     4  11  21  36  51  80 107 142 175 215 263 305
#     4  10  18  32  51  76 103 136 171 218 258 308
#     4   9  20  35  53  77 105 141 180 219 258 307
#     4   9  17  32  54  75  98 136 181 221 263 301
#     4  10  20  36  55  76 108 139 177 214 257 317
#
# _framework density 19.036949
#
# number of rings (size 3 to 8) (size 9 to 14) (size 15 to 20)
#    0.000    2.143    1.429    2.786    0.000    4.286 
#    0.000    3.571    0.000    6.857    0.000    0.000 
#    0.000   22.857    0.000    0.000    0.000    0.000 
#
# Total GULP energy -346921.207334 kJ/mol
# GULP energy per Si atom -12390.043119 kJ/mol
# Density = 1.899362 g / cm^3
# Si number density = 19.036949 Si / 1000 Ang^3
#
#
#
# Elastic Constant Matrix: (Units=GPa)
#
#
# Indices 1 2 3 4 5 6 
#
# 1 64.6358 29.3078 21.7627 0.0000 -25.1958 0.0000
# 2 29.3078 109.2342 45.6224 0.0000 -21.3585 0.0000
# 3 21.7627 45.6224 79.7183 0.0000 -25.4888 0.0000
# 4 0.0000 0.0000 0.0000 15.6786 0.0000 -8.2658
# 5 -25.1958 -21.3585 -25.4888 0.0000 38.8057 0.0000
# 6 0.0000 0.0000 0.0000 -8.2658 0.0000 26.1176
#
#
#
# Elastic Compliance Matrix: (Units=1/GPa)
#
#
# Indices 1 2 3 4 5 6 
#
# 1 0.021820 -0.003428 -0.000086 0.000000 0.012224 0.000000
# 2 -0.003428 0.012789 -0.006132 0.000000 0.000785 0.000000
# 3 -0.000086 -0.006132 0.018962 0.000000 0.009024 0.000000
# 4 0.000000 0.000000 0.000000 0.076555 0.000000 0.024228
# 5 0.012224 0.000785 0.009024 0.000000 0.040065 0.000000
# 6 0.000000 0.000000 0.000000 0.024228 0.000000 0.045956
#
#
# Mechanical properties :
#
#
# Convention : Reuss Voigt Hill
#
# Bulk Modulus (GPa) = 29.17343 49.66380 39.41862
# Shear Modulus (GPa) = 20.25381 26.58006 23.41694
#
# Velocity S-wave (km/s) = 3.26532 3.74068 3.51105
# Velocity P-wave (km/s) = 5.43823 6.69340 6.09819
#
# Compressibility (1/GPa) = 0.03427776
#
# Stress axis : x y z
#
# Youngs Moduli (GPa) = 45.83007 78.19133 52.73584
#
# Poissons Ratio (x) = 0.26805 0.00456
# Poissons Ratio (y) = 0.15711 0.32339
# Poissons Ratio (z) = 0.00396 0.47948
#
# Static dielectric constant tensor:
#      x y z
#    x 3.646210 0.000000 -0.308450 
#    y 0.000000 3.439670 0.000000 
#    z -0.308450 0.000000 3.505900 
# 
# 
# High freq. dielectric constant tensor:
#      x y z
#    x 1.749660 0.000000 -0.021260 
#    y 0.000000 1.712980 0.000000 
#    z -0.021260 0.000000 1.726540 
# 
# From -- ./inp_files/61053.got.cif
#   From: 2010.06.25/outbox.cif.g09.slc.cpg/sg10_31_cif.got.tgz:61053.got - 2010.06.27 22:07:45.
