data_PCOD8058411
_publ_section_title
;
Structure prediction by ZEFSAII (Michael W. Deem and Ramdas Pophale) SiO2 
 PCOD8058411
Probable space group: P 2/M
;
_chemical_formula_sum "Si O2"
_cell_formula_units_Z 12
_cell_length_a 9.321856
_cell_length_b 7.621615
_cell_length_c 9.531495
_cell_angle_alpha 90.000000
_cell_angle_beta 66.744930
_cell_angle_gamma 90.000000
_cell_volume 622.172398
_symmetry_space_group_name_H-M "P 2/M"
_symmetry_group_IT_number 10
_symmetry_cell_setting 'monoclinic'
loop_
_space_group_symop_operation_xyz
x,y,z
-x,y,-z
-x,-y,-z
x,-y,z
loop_
_atom_site_type_symbol
_atom_site_label
_atom_site_fract_x
_atom_site_fract_y
_atom_site_fract_z
Si Si1 0.936351 0.802579 0.673525
Si Si2 0.058456 0.500000 0.819824
Si Si3 0.402275 0.694779 0.164429
Si Si4 0.572527 0.500000 0.319784
O O1 0.997216 0.676144 0.770898
O O2 0.748404 0.808953 0.741081
O O3 0.000000 0.733075 0.500000
O O4 0.997116 0.000000 0.679153
O O5 0.243449 0.500000 0.741832
O O6 0.000000 0.500000 0.000000
O O7 0.345284 0.500000 0.135825
O O8 0.512168 0.673893 0.259819
O O9 0.500000 0.784167 0.000000
O O10 0.500000 0.500000 0.500000
#
# Coordination Sequence:
#
# PCOD8058411 Si02
#       4
#     4   2   4   2
#     4  11  23  39  61  87 116 156 200 236 282 348
#     4  12  22  38  62  84 122 152 186 246 296 342
#     4   9  18  36  57  81 108 150 197 227 284 341
#     4  10  18  30  56  84 108 144 186 234 288 334
#
# _framework density 19.287258999999999
#
# number of rings (size 3 to 8) (size 9 to 14) (size 15 to 20)
#    1.000    0.667    1.667    4.500    0.000    1.333 
#    0.000    1.667    0.000    6.000    0.000    0.000 
#    0.000    0.000    0.000    0.000    0.000    0.000 
#
# Total GULP energy -148766.347693 kJ/mol
# GULP energy per Si atom -12397.195641 kJ/mol
# Density = 1.924336 g / cm^3
# Si number density = 19.287259 Si / 1000 Ang^3
#
#
#
# Elastic Constant Matrix: (Units=GPa)
#
#
# Indices 1 2 3 4 5 6 
#
# 1 127.5776 26.6668 56.4238 0.0000 -11.4747 0.0000
# 2 26.6668 79.3280 35.1919 0.0000 11.2839 0.0000
# 3 56.4238 35.1919 187.1370 0.0000 -12.5991 0.0000
# 4 0.0000 0.0000 0.0000 8.0276 0.0000 1.3516
# 5 -11.4747 11.2839 -12.5991 0.0000 42.7594 0.0000
# 6 0.0000 0.0000 0.0000 1.3516 0.0000 12.3408
#
#
#
# Elastic Compliance Matrix: (Units=1/GPa)
#
#
# Indices 1 2 3 4 5 6 
#
# 1 0.009605 -0.002611 -0.002229 0.000000 0.002610 0.000000
# 2 -0.002611 0.015359 -0.002470 0.000000 -0.005482 0.000000
# 3 -0.002229 -0.002470 0.006615 0.000000 0.002003 0.000000
# 4 0.000000 0.000000 0.000000 0.126911 0.000000 -0.013899
# 5 0.002610 -0.005482 0.002003 0.000000 0.026124 0.000000
# 6 0.000000 0.000000 0.000000 -0.013899 0.000000 0.082554
#
#
# Mechanical properties :
#
#
# Convention : Reuss Voigt Hill
#
# Bulk Modulus (GPa) = 58.96813 70.06754 64.51784
# Shear Modulus (GPa) = 17.39485 31.00957 24.20221
#
# Velocity S-wave (km/s) = 3.00640 4.01406 3.54620
# Velocity P-wave (km/s) = 6.53385 7.60860 7.09162
#
# Compressibility (1/GPa) = 0.01695831
#
# Stress axis : x y z
#
# Youngs Moduli (GPa) = 104.11489 65.10771 151.16745
#
# Poissons Ratio (x) = 0.17000 0.33699
# Poissons Ratio (y) = 0.27184 0.37341
# Poissons Ratio (z) = 0.23210 0.16083
#
# Static dielectric constant tensor:
#      x y z
#    x 3.613490 0.000000 -0.232700 
#    y 0.000000 3.178980 0.000000 
#    z -0.232700 0.000000 3.719010 
# 
# 
# High freq. dielectric constant tensor:
#      x y z
#    x 1.751610 0.000000 -0.016020 
#    y 0.000000 1.721810 0.000000 
#    z -0.016020 0.000000 1.766020 
# 
# From -- ./inp_files/16276.got.cif
#   From: 2010.06.25/outbox.cif.g09.slc.cpg/sg10_9_cif.got.tgz:16276.got - 2010.06.27 22:07:45.
