data_PCOD8058209
_publ_section_title
;
Structure prediction by ZEFSAII (Michael W. Deem and Ramdas Pophale) SiO2 
 PCOD8058209
Probable space group: P 2/M
;
_chemical_formula_sum "Si O2"
_cell_formula_units_Z 32
_cell_length_a 14.315786
_cell_length_b 9.012123
_cell_length_c 26.307082
_cell_angle_alpha 90.000000
_cell_angle_beta 35.192345
_cell_angle_gamma 90.000000
_cell_volume 1956.054907
_symmetry_space_group_name_H-M "P 2/M"
_symmetry_group_IT_number 10
_symmetry_cell_setting 'monoclinic'
loop_
_space_group_symop_operation_xyz
x,y,z
-x,y,-z
-x,-y,-z
x,-y,z
loop_
_atom_site_type_symbol
_atom_site_label
_atom_site_fract_x
_atom_site_fract_y
_atom_site_fract_z
Si Si1 0.477568 0.335185 0.853954
Si Si2 0.743140 0.824242 0.595342
Si Si3 0.087421 0.823885 0.909074
Si Si4 0.241297 0.174086 0.221599
Si Si5 0.568682 0.328138 0.241149
Si Si6 0.688472 0.825289 0.920333
Si Si7 0.154573 0.670189 0.053898
Si Si8 0.050176 0.175812 0.400455
O O1 0.538129 0.500000 0.841408
O O2 0.579649 0.218667 0.840502
O O3 0.496990 0.304731 0.786190
O O4 0.290159 0.315621 0.950528
O O5 0.573724 0.740092 0.660415
O O6 0.823834 0.770691 0.612480
O O7 0.866732 0.775030 0.495259
O O8 0.711710 0.000000 0.609239
O O9 0.267463 0.761826 0.824683
O O10 0.996424 0.763268 0.899727
O O11 0.092818 0.000000 0.904451
O O12 0.000000 0.769703 0.000000
O O13 0.218623 0.221237 0.173133
O O14 0.105768 0.241543 0.320586
O O15 0.234597 0.000000 0.228596
O O16 0.598807 0.500000 0.241146
O O17 0.780020 0.735296 0.922692
O O18 0.701695 0.000000 0.925657
O O19 0.500000 0.778059 0.000000
O O20 0.102596 0.500000 0.085757
O O21 0.054905 0.000000 0.398068
#
# Coordination Sequence:
#
# PCOD8058209 Si02
#       8
#     4   4   4   4   4   4   4   4
#     4  10  20  30  44  68  99 132 164 200 240 287
#     4   9  16  29  48  70  97 128 167 205 241 289
#     4  11  23  36  53  74  96 127 167 206 243 287
#     4  10  18  30  49  70  97 134 171 204 242 286
#     4  11  21  33  48  71 102 133 165 199 244 295
#     4  10  20  32  48  73 100 129 168 210 244 283
#     4  11  22  36  51  68  98 135 167 204 246 288
#     4   8  15  27  46  71  97 129 165 204 244 287
#
# _framework density 16.359458
#
# number of rings (size 3 to 8) (size 9 to 14) (size 15 to 20)
#    0.000    2.000    3.750    1.875    0.000    2.250 
#    0.000    1.875    0.000    0.000    0.000    0.875 
#    0.000    7.000    0.000    0.000    0.000    0.000 
#
# Total GULP energy -396673.040415 kJ/mol
# GULP energy per Si atom -12396.032513 kJ/mol
# Density = 1.632222 g / cm^3
# Si number density = 16.359458 Si / 1000 Ang^3
#
#
#
# Elastic Constant Matrix: (Units=GPa)
#
#
# Indices 1 2 3 4 5 6 
#
# 1 66.2241 36.7648 49.5263 0.0000 -1.2332 0.0000
# 2 36.7648 44.1044 44.8815 0.0000 2.3058 0.0000
# 3 49.5263 44.8815 112.5760 0.0000 -6.2182 0.0000
# 4 0.0000 0.0000 0.0000 14.9718 0.0000 -1.5588
# 5 -1.2332 2.3058 -6.2182 0.0000 22.1116 0.0000
# 6 0.0000 0.0000 0.0000 -1.5588 0.0000 22.5907
#
#
#
# Elastic Compliance Matrix: (Units=1/GPa)
#
#
# Indices 1 2 3 4 5 6 
#
# 1 0.030065 -0.019944 -0.005148 0.000000 0.002309 0.000000
# 2 -0.019944 0.052976 -0.012914 0.000000 -0.010268 0.000000
# 3 -0.005148 -0.012914 0.016613 0.000000 0.005731 0.000000
# 4 0.000000 0.000000 0.000000 0.067276 0.000000 0.004642
# 5 0.002309 -0.010268 0.005731 0.000000 0.048037 0.000000
# 6 0.000000 0.000000 0.000000 0.004642 0.000000 0.044586
#
#
# Mechanical properties :
#
#
# Convention : Reuss Voigt Hill
#
# Bulk Modulus (GPa) = 42.29562 53.91664 48.10613
# Shear Modulus (GPa) = 14.55837 18.05028 16.30432
#
# Velocity S-wave (km/s) = 2.98636 3.32528 3.16037
# Velocity P-wave (km/s) = 6.14827 6.91175 6.54116
#
# Compressibility (1/GPa) = 0.02364311
#
# Stress axis : x y z
#
# Youngs Moduli (GPa) = 33.26090 18.87635 60.19504
#
# Poissons Ratio (x) = 0.37647 0.30989
# Poissons Ratio (y) = 0.66335 0.77733
# Poissons Ratio (z) = 0.17123 0.24376
#
# Static dielectric constant tensor:
#      x y z
#    x 3.009770 0.000000 0.282260 
#    y 0.000000 2.991360 0.000000 
#    z 0.282260 0.000000 3.427710 
# 
# 
# High freq. dielectric constant tensor:
#      x y z
#    x 1.600400 0.000000 0.004770 
#    y 0.000000 1.623690 0.000000 
#    z 0.004770 0.000000 1.628430 
# 
# From -- ./inp_files/95250.got.cif
#   From: 2010.06.25/outbox.cif.g09.slc.cpg/sg10_48_cif.got.tgz:95250.got - 2010.06.27 22:07:45.
