data_PCOD8058689
_publ_section_title
;
Structure prediction by ZEFSAII (Michael W. Deem and Ramdas Pophale) SiO2 
 PCOD8058689
Probable space group: P 2/M
;
_chemical_formula_sum "Si O2"
_cell_formula_units_Z 28
_cell_length_a 15.189646
_cell_length_b 8.926852
_cell_length_c 12.675809
_cell_angle_alpha 90.000000
_cell_angle_beta 119.669224
_cell_angle_gamma 90.000000
_cell_volume 1493.448434
_symmetry_space_group_name_H-M "P 2/M"
_symmetry_group_IT_number 10
_symmetry_cell_setting 'monoclinic'
loop_
_space_group_symop_operation_xyz
x,y,z
-x,y,-z
-x,-y,-z
x,-y,z
loop_
_atom_site_type_symbol
_atom_site_label
_atom_site_fract_x
_atom_site_fract_y
_atom_site_fract_z
Si Si1 0.258981 0.177811 0.249697
Si Si2 0.663300 0.330144 0.514160
Si Si3 0.573829 0.822074 0.261747
Si Si4 0.117429 0.330432 0.310016
Si Si5 0.959551 0.822396 0.363483
Si Si6 0.348392 0.177682 0.083724
Si Si7 0.733525 0.178234 0.184943
O O1 0.346955 0.243778 0.379368
O O2 0.149706 0.246194 0.219973
O O3 0.283180 0.231267 0.145519
O O4 0.256840 0.000000 0.258982
O O5 0.624230 0.500000 0.503633
O O6 0.597212 0.246459 0.388873
O O7 0.783475 0.327431 0.554312
O O8 0.463684 0.765140 0.160256
O O9 0.654487 0.761473 0.224564
O O10 0.578519 0.000000 0.275013
O O11 0.084830 0.500000 0.264502
O O12 0.025011 0.245615 0.308408
O O13 0.845074 0.764771 0.281423
O O14 0.000000 0.764450 0.500000
O O15 0.967749 0.000000 0.360551
O O16 0.349300 0.000000 0.079171
O O17 0.297605 0.243840 0.947826
O O18 0.730467 0.000000 0.180788
#
# Coordination Sequence:
#
# PCOD8058689 Si02
#       7
#     4   4   4   4   4   4   4
#     4   9  17  32  54  76 104 138 178 222 259 308
#     4   9  19  33  50  75 107 138 172 215 264 312
#     4  10  18  31  55  80 105 140 177 217 261 311
#     4   9  19  34  51  74 104 137 170 215 268 315
#     4  10  19  31  53  82 107 136 173 215 262 314
#     4   9  18  32  52  79 107 139 179 219 261 307
#     4   9  18  32  51  80 112 137 171 219 265 312
#
# _framework density 18.748553999999999
#
# number of rings (size 3 to 8) (size 9 to 14) (size 15 to 20)
#    0.857    1.857    0.000    2.143    0.000    3.714 
#    0.000    5.714    0.000   10.286    0.000    0.000 
#    0.000    0.000    0.000    0.000    0.000    0.000 
#
# Total GULP energy -347025.011393 kJ/mol
# GULP energy per Si atom -12393.750407 kJ/mol
# Density = 1.870588 g / cm^3
# Si number density = 18.748554 Si / 1000 Ang^3
#
#
#
# Elastic Constant Matrix: (Units=GPa)
#
#
# Indices 1 2 3 4 5 6 
#
# 1 119.8263 25.2074 40.6901 0.0000 -4.1830 0.0000
# 2 25.2074 47.0941 20.3484 0.0000 -4.1701 0.0000
# 3 40.6901 20.3484 94.0672 0.0000 -8.4155 0.0000
# 4 0.0000 0.0000 0.0000 4.1988 0.0000 4.1387
# 5 -4.1830 -4.1701 -8.4155 0.0000 30.0051 0.0000
# 6 0.0000 0.0000 0.0000 4.1387 0.0000 7.7139
#
#
#
# Elastic Compliance Matrix: (Units=1/GPa)
#
#
# Indices 1 2 3 4 5 6 
#
# 1 0.010426 -0.004013 -0.003653 0.000000 -0.000129 0.000000
# 2 -0.004013 0.025072 -0.003514 0.000000 0.001939 0.000000
# 3 -0.003653 -0.003514 0.013213 0.000000 0.002708 0.000000
# 4 0.000000 0.000000 0.000000 0.505500 0.000000 -0.271214
# 5 -0.000129 0.001939 0.002708 0.000000 0.034339 0.000000
# 6 0.000000 0.000000 0.000000 -0.271214 0.000000 0.275149
#
#
# Mechanical properties :
#
#
# Convention : Reuss Voigt Hill
#
# Bulk Modulus (GPa) = 37.95029 48.16439 43.05734
# Shear Modulus (GPa) = 5.58757 20.03299 12.81028
#
# Velocity S-wave (km/s) = 1.72822 3.27235 2.61677
# Velocity P-wave (km/s) = 4.92625 6.32638 5.66971
#
# Compressibility (1/GPa) = 0.02635026
#
# Stress axis : x y z
#
# Youngs Moduli (GPa) = 95.91660 39.88451 75.68092
#
# Poissons Ratio (x) = 0.16007 0.27647
# Poissons Ratio (y) = 0.38495 0.26595
# Poissons Ratio (z) = 0.35040 0.14016
#
# Static dielectric constant tensor:
#      x y z
#    x 3.438040 0.000000 -0.031050 
#    y 0.000000 3.089160 0.000000 
#    z -0.031050 0.000000 3.452990 
# 
# 
# High freq. dielectric constant tensor:
#      x y z
#    x 1.729330 0.000000 -0.006330 
#    y 0.000000 1.698670 0.000000 
#    z -0.006330 0.000000 1.716930 
# 
# From -- ./inp_files/50107.got.cif
#   From: 2010.06.25/outbox.cif.g09.slc.cpg/sg10_26_cif.got.tgz:50107.got - 2010.06.27 22:07:45.
