data_PCOD8058925
_publ_section_title
;
Structure prediction by ZEFSAII (Michael W. Deem and Ramdas Pophale) SiO2 
 PCOD8058925
Probable space group: P 2/M
;
_chemical_formula_sum "Si O2"
_cell_formula_units_Z 32
_cell_length_a 8.819911
_cell_length_b 10.858314
_cell_length_c 17.779589
_cell_angle_alpha 90.000000
_cell_angle_beta 78.151902
_cell_angle_gamma 90.000000
_cell_volume 1666.463681
_symmetry_space_group_name_H-M "P 2/M"
_symmetry_group_IT_number 10
_symmetry_cell_setting 'monoclinic'
loop_
_space_group_symop_operation_xyz
x,y,z
-x,y,-z
-x,-y,-z
x,-y,z
loop_
_atom_site_type_symbol
_atom_site_label
_atom_site_fract_x
_atom_site_fract_y
_atom_site_fract_z
Si Si1 0.485557 0.137085 0.919413
Si Si2 0.413984 0.644011 0.279842
Si Si3 0.093219 0.862270 0.718479
Si Si4 0.784976 0.779134 0.819408
Si Si5 0.281605 0.258583 0.818410
Si Si6 0.112623 0.644814 0.600229
Si Si7 0.775305 0.358937 0.567221
Si Si8 0.986402 0.360031 0.916904
O O1 0.651687 0.129374 0.861511
O O2 0.360392 0.212713 0.886102
O O3 0.419957 0.000000 0.935341
O O4 0.500000 0.200109 0.000000
O O5 0.399062 0.500000 0.288599
O O6 0.297027 0.680121 0.225646
O O7 0.590952 0.679649 0.248183
O O8 0.356983 0.702617 0.366091
O O9 0.201480 0.853311 0.781287
O O10 0.142913 0.745126 0.662250
O O11 0.913396 0.853878 0.759921
O O12 0.118262 0.000000 0.680357
O O13 0.857197 0.713854 0.884688
O O14 0.150185 0.355296 0.856350
O O15 0.147448 0.500000 0.620092
O O16 0.216624 0.692799 0.518843
O O17 0.935686 0.656169 0.594539
O O18 0.736479 0.500000 0.558738
O O19 0.930294 0.500000 0.927210
O O20 0.000000 0.304719 0.000000
#
# Coordination Sequence:
#
# PCOD8058925 Si02
#       8
#     4   4   4   4   4   4   4   4
#     4  10  20  36  56  74  95 130 178 226 269 317
#     4  10  18  32  55  82 107 136 178 226 271 319
#     4  11  22  36  54  79 114 149 181 221 270 323
#     4  10  20  33  53  77 104 136 178 220 269 323
#     4  10  22  35  51  76 109 143 177 218 272 326
#     4   9  17  32  57  83 109 140 180 224 269 317
#     4   8  15  30  54  83 110 136 174 226 273 312
#     4  10  20  34  51  75 108 142 176 218 268 322
#
# _framework density 19.202338000000001
#
# number of rings (size 3 to 8) (size 9 to 14) (size 15 to 20)
#    0.000    2.250    1.250    3.000    0.000    2.500 
#    0.000    1.875    0.000   15.000    0.000    0.000 
#    0.000    0.000    0.000    0.000    0.000    0.000 
#
# Total GULP energy -396505.012995 kJ/mol
# GULP energy per Si atom -12390.781656 kJ/mol
# Density = 1.915863 g / cm^3
# Si number density = 19.202338 Si / 1000 Ang^3
#
#
#
# Elastic Constant Matrix: (Units=GPa)
#
#
# Indices 1 2 3 4 5 6 
#
# 1 67.4387 9.0634 24.9158 0.0000 -3.2961 0.0000
# 2 9.0634 78.5215 27.4499 0.0000 6.5232 0.0000
# 3 24.9158 27.4499 84.6598 0.0000 -10.6904 0.0000
# 4 0.0000 0.0000 0.0000 21.7607 0.0000 -2.9220
# 5 -3.2961 6.5232 -10.6904 0.0000 30.3939 0.0000
# 6 0.0000 0.0000 0.0000 -2.9220 0.0000 7.7587
#
#
#
# Elastic Compliance Matrix: (Units=1/GPa)
#
#
# Indices 1 2 3 4 5 6 
#
# 1 0.016642 -0.000261 -0.004791 0.000000 0.000176 0.000000
# 2 -0.000261 0.015113 -0.005480 0.000000 -0.005199 0.000000
# 3 -0.004791 -0.005480 0.015783 0.000000 0.006208 0.000000
# 4 0.000000 0.000000 0.000000 0.048402 0.000000 0.018229
# 5 0.000176 -0.005199 0.006208 0.000000 0.036220 0.000000
# 6 0.000000 0.000000 0.000000 0.018229 0.000000 0.135752
#
#
# Mechanical properties :
#
#
# Convention : Reuss Voigt Hill
#
# Bulk Modulus (GPa) = 37.77259 39.27536 38.52398
# Shear Modulus (GPa) = 16.78975 23.26206 20.02590
#
# Velocity S-wave (km/s) = 2.96017 3.48432 3.23288
# Velocity P-wave (km/s) = 5.60330 6.05683 5.83447
#
# Compressibility (1/GPa) = 0.02647422
#
# Stress axis : x y z
#
# Youngs Moduli (GPa) = 60.08887 66.16755 63.36009
#
# Poissons Ratio (x) = 0.01724 0.30357
# Poissons Ratio (y) = 0.01566 0.34722
# Poissons Ratio (z) = 0.28790 0.36261
#
# Static dielectric constant tensor:
#      x y z
#    x 3.672640 0.000000 -0.270580 
#    y 0.000000 3.155090 0.000000 
#    z -0.270580 0.000000 3.905920 
# 
# 
# High freq. dielectric constant tensor:
#      x y z
#    x 1.745030 0.000000 -0.006750 
#    y 0.000000 1.715210 0.000000 
#    z -0.006750 0.000000 1.758650 
# 
# From -- ./inp_files/34837.got.cif
#   From: 2010.06.25/outbox.cif.g09.slc.cpg/sg10_18_cif.got.tgz:34837.got - 2010.06.27 22:07:45.
