data_PCOD8058764
_publ_section_title
;
Structure prediction by ZEFSAII (Michael W. Deem and Ramdas Pophale) SiO2 
 PCOD8058764
Probable space group: P 2/M
;
_chemical_formula_sum "Si O2"
_cell_formula_units_Z 26
_cell_length_a 11.547691
_cell_length_b 14.042291
_cell_length_c 8.149050
_cell_angle_alpha 90.000000
_cell_angle_beta 83.404257
_cell_angle_gamma 90.000000
_cell_volume 1312.671593
_symmetry_space_group_name_H-M "P 2/M"
_symmetry_group_IT_number 10
_symmetry_cell_setting 'monoclinic'
loop_
_space_group_symop_operation_xyz
x,y,z
-x,y,-z
-x,-y,-z
x,-y,z
loop_
_atom_site_type_symbol
_atom_site_label
_atom_site_fract_x
_atom_site_fract_y
_atom_site_fract_z
Si Si1 0.186378 0.394409 0.463391
Si Si2 0.131229 0.607694 0.840175
Si Si3 0.500000 0.283691 0.000000
Si Si4 0.087849 0.106935 0.832450
Si Si5 0.055372 0.261725 0.267895
Si Si6 0.751192 0.769348 0.001393
Si Si7 0.447116 0.610693 0.339117
O O1 0.144943 0.500000 0.413369
O O2 0.197826 0.391366 0.655878
O O3 0.089146 0.316558 0.428979
O O4 0.309056 0.370252 0.359298
O O5 0.111187 0.500000 0.906168
O O6 0.220224 0.661570 0.945606
O O7 0.005838 0.661694 0.846258
O O8 0.614774 0.217352 0.985703
O O9 0.501948 0.344679 0.166573
O O10 0.210915 0.152148 0.869134
O O11 0.034496 0.172843 0.694608
O O12 0.107635 0.000000 0.764054
O O13 0.000000 0.110149 0.000000
O O14 0.173506 0.216988 0.175142
O O15 0.500000 0.654457 0.500000
O O16 0.478175 0.500000 0.328520
#
# Coordination Sequence:
#
# PCOD8058764 Si02
#       7
#     4   4   2   4   4   4   4
#     4  10  19  32  48  72 106 141 179 216 253 311
#     4  10  20  32  49  72 104 143 175 213 266 313
#     4  12  21  36  53  74 108 142 184 232 262 306
#     4   8  16  33  56  78 103 129 160 213 273 325
#     4  10  18  32  51  78 103 131 169 216 264 321
#     4  10  21  33  51  76 103 134 177 218 261 314
#     4  10  21  35  50  71 104 150 195 225 257 302
#
# _framework density 19.806933999999998
#
# number of rings (size 3 to 8) (size 9 to 14) (size 15 to 20)
#    0.000    2.154    1.538    3.462    0.000    5.538 
#    0.000    0.385    0.000    7.385    0.000    0.000 
#    0.000    6.769    0.000    0.000    0.000    0.000 
#
# Total GULP energy -322268.752409 kJ/mol
# GULP energy per Si atom -12394.952016 kJ/mol
# Density = 1.976185 g / cm^3
# Si number density = 19.806934 Si / 1000 Ang^3
#
#
#
# Elastic Constant Matrix: (Units=GPa)
#
#
# Indices 1 2 3 4 5 6 
#
# 1 114.7653 41.7319 15.8405 0.0000 1.6483 0.0000
# 2 41.7319 122.3784 8.5936 0.0000 14.7487 0.0000
# 3 15.8405 8.5936 61.1225 0.0000 6.8136 0.0000
# 4 0.0000 0.0000 0.0000 16.0767 0.0000 6.0288
# 5 1.6483 14.7487 6.8136 0.0000 31.6873 0.0000
# 6 0.0000 0.0000 0.0000 6.0288 0.0000 17.7918
#
#
#
# Elastic Compliance Matrix: (Units=1/GPa)
#
#
# Indices 1 2 3 4 5 6 
#
# 1 0.010303 -0.003543 -0.002353 0.000000 0.001619 0.000000
# 2 -0.003543 0.009913 0.000019 0.000000 -0.004434 0.000000
# 3 -0.002353 0.000019 0.017371 0.000000 -0.003622 0.000000
# 4 0.000000 0.000000 0.000000 0.071257 0.000000 -0.024146
# 5 0.001619 -0.004434 -0.003622 0.000000 0.034317 0.000000
# 6 0.000000 0.000000 0.000000 -0.024146 0.000000 0.064387
#
#
# Mechanical properties :
#
#
# Convention : Reuss Voigt Hill
#
# Bulk Modulus (GPa) = 38.70990 47.84425 43.27707
# Shear Modulus (GPa) = 21.93816 28.58450 25.26133
#
# Velocity S-wave (km/s) = 3.33167 3.80301 3.57512
# Velocity P-wave (km/s) = 5.86397 6.59482 6.24010
#
# Compressibility (1/GPa) = 0.02583318
#
# Stress axis : x y z
#
# Youngs Moduli (GPa) = 97.05543 100.88042 57.56607
#
# Poissons Ratio (x) = 0.35747 0.13543
# Poissons Ratio (y) = 0.34391 -0.00109
# Poissons Ratio (z) = 0.22833 -0.00190
#
# Static dielectric constant tensor:
#      x y z
#    x 3.590830 0.000000 -0.007280 
#    y 0.000000 3.513390 0.000000 
#    z -0.007280 0.000000 3.437410 
# 
# 
# High freq. dielectric constant tensor:
#      x y z
#    x 1.770580 0.000000 -0.000970 
#    y 0.000000 1.733580 0.000000 
#    z -0.000970 0.000000 1.764690 
# 
# From -- ./inp_files/24625.got.cif
#   From: 2010.06.25/outbox.cif.g09.slc.cpg/sg10_13_cif.got.tgz:24625.got - 2010.06.27 22:07:45.
