data_PCOD8058993
_publ_section_title
;
Structure prediction by ZEFSAII (Michael W. Deem and Ramdas Pophale) SiO2 
 PCOD8058993
Probable space group: P 2/M
;
_chemical_formula_sum "Si O2"
_cell_formula_units_Z 32
_cell_length_a 11.818649
_cell_length_b 17.381847
_cell_length_c 8.074383
_cell_angle_alpha 90.000000
_cell_angle_beta 82.737141
_cell_angle_gamma 90.000000
_cell_volume 1645.411513
_symmetry_space_group_name_H-M "P 2/M"
_symmetry_group_IT_number 10
_symmetry_cell_setting 'monoclinic'
loop_
_space_group_symop_operation_xyz
x,y,z
-x,y,-z
-x,-y,-z
x,-y,z
loop_
_atom_site_type_symbol
_atom_site_label
_atom_site_fract_x
_atom_site_fract_y
_atom_site_fract_z
Si Si1 0.873728 0.156785 0.665406
Si Si2 0.345626 0.587481 0.193075
Si Si3 0.431695 0.411413 0.674872
Si Si4 0.957122 0.589249 0.273445
Si Si5 0.875558 0.909955 0.339742
Si Si6 0.233295 0.649160 0.891780
Si Si7 0.137141 0.184670 0.971447
Si Si8 0.847815 0.665970 0.611186
O O1 0.810784 0.108840 0.527707
O O2 0.871379 0.244091 0.605102
O O3 0.000735 0.125560 0.659454
O O4 0.819911 0.148868 0.859996
O O5 0.312700 0.500000 0.244723
O O6 0.481362 0.598873 0.186245
O O7 0.283412 0.644443 0.334933
O O8 0.305168 0.606067 0.017261
O O9 0.500000 0.384911 0.500000
O O10 0.390844 0.500000 0.665699
O O11 0.319503 0.357970 0.718520
O O12 0.971342 0.500000 0.307230
O O13 0.885936 0.604482 0.119613
O O14 0.889152 0.630665 0.432856
O O15 0.082102 0.628642 0.245309
O O16 0.822046 0.870821 0.185554
O O17 0.879358 0.000000 0.305768
O O18 0.205639 0.736706 0.937506
O O19 0.000000 0.197673 0.000000
#
# Coordination Sequence:
#
# PCOD8058993 Si02
#       8
#     4   4   4   4   4   4   4   4
#     4  10  18  33  51  75 108 149 188 227 276 330
#     4  11  22  35  54  77 107 145 191 244 290 331
#     4  10  22  40  59  78 102 143 197 252 304 337
#     4  11  21  31  48  71 103 147 195 240 282 329
#     4  10  20  33  55  83 113 152 193 226 271 345
#     4  12  22  36  55  77 111 147 189 240 295 348
#     4  10  21  36  54  83 120 157 187 227 287 344
#     4  11  20  35  50  74 109 150 193 233 283 339
#
# _framework density 19.448022999999999
#
# number of rings (size 3 to 8) (size 9 to 14) (size 15 to 20)
#    0.000    1.375    1.250    8.250    0.000    4.750 
#    0.000    1.250    0.000    0.000    0.000    0.000 
#    0.000    7.500    0.000    0.000    0.000    0.000 
#
# Total GULP energy -396575.554942 kJ/mol
# GULP energy per Si atom -12392.986092 kJ/mol
# Density = 1.940376 g / cm^3
# Si number density = 19.448023 Si / 1000 Ang^3
#
#
#
# Elastic Constant Matrix: (Units=GPa)
#
#
# Indices 1 2 3 4 5 6 
#
# 1 100.2796 -42.7300 147.5816 0.0000 69.5536 0.0000
# 2 -42.7300 201.3936 -167.9334 0.0000 -86.8376 0.0000
# 3 147.5816 -167.9334 493.3035 0.0000 200.6057 0.0000
# 4 0.0000 0.0000 0.0000 20.2183 0.0000 -14.0907
# 5 69.5536 -86.8376 200.6057 0.0000 117.5854 0.0000
# 6 0.0000 0.0000 0.0000 -14.0907 0.0000 -8.0512
#
#
#
# Elastic Compliance Matrix: (Units=1/GPa)
#
#
# Indices 1 2 3 4 5 6 
#
# 1 0.019064 -0.001759 -0.003880 0.000000 -0.005956 0.000000
# 2 -0.001759 0.007588 0.001330 0.000000 0.004374 0.000000
# 3 -0.003880 0.001330 0.007537 0.000000 -0.009581 0.000000
# 4 0.000000 0.000000 0.000000 0.022282 0.000000 -0.038997
# 5 -0.005956 0.004374 -0.009581 0.000000 0.031603 0.000000
# 6 0.000000 0.000000 0.000000 -0.038997 0.000000 -0.055955
#
#
# Mechanical properties :
#
#
# Convention : Reuss Voigt Hill
#
# Bulk Modulus (GPa) = 39.10519 74.31256 56.70887
# Shear Modulus (GPa) = 101.50562 83.15440 92.33001
#
# Velocity S-wave (km/s) = 7.23233 6.54600 6.89770
# Velocity P-wave (km/s) = 9.48121 9.76869 9.62602
#
# Compressibility (1/GPa) = 0.02557206
#
# Stress axis : x y z
#
# Youngs Moduli (GPa) = 52.45487 131.79274 132.68058
#
# Poissons Ratio (x) = 0.23178 0.51481
# Poissons Ratio (y) = 0.09225 -0.17653
# Poissons Ratio (z) = 0.20353 -0.17534
#
# Static dielectric constant tensor:
#      x y z
#    x 3.591730 0.000000 0.318650 
#    y 0.000000 3.336860 0.000000 
#    z 0.318650 0.000000 4.749730 
# 
# 
# High freq. dielectric constant tensor:
#      x y z
#    x 1.714790 0.000000 0.008630 
#    y 0.000000 1.732510 0.000000 
#    z 0.008630 0.000000 1.790060 
# 
# From -- ./inp_files/25300.got.cif
#   From: 2010.06.25/outbox.cif.g09.slc.cpg/sg10_13_cif.got.tgz:25300.got - 2010.06.27 22:07:45.
