data_PCOD8058645
_publ_section_title
;
Structure prediction by ZEFSAII (Michael W. Deem and Ramdas Pophale) SiO2 
 PCOD8058645
Probable space group: P 2/M
;
_chemical_formula_sum "Si O2"
_cell_formula_units_Z 28
_cell_length_a 10.349284
_cell_length_b 8.585094
_cell_length_c 17.623433
_cell_angle_alpha 90.000000
_cell_angle_beta 71.657398
_cell_angle_gamma 90.000000
_cell_volume 1486.277232
_symmetry_space_group_name_H-M "P 2/M"
_symmetry_group_IT_number 10
_symmetry_cell_setting 'monoclinic'
loop_
_space_group_symop_operation_xyz
x,y,z
-x,y,-z
-x,-y,-z
x,-y,z
loop_
_atom_site_type_symbol
_atom_site_label
_atom_site_fract_x
_atom_site_fract_y
_atom_site_fract_z
Si Si1 0.144401 0.683200 0.162977
Si Si2 0.148357 0.683187 0.990910
Si Si3 0.094742 0.180288 0.579764
Si Si4 0.856828 0.180168 0.259487
Si Si5 0.359862 0.685128 0.245586
Si Si6 0.662322 0.683775 0.175580
Si Si7 0.184550 0.317783 0.416753
O O1 0.116938 0.500000 0.178843
O O2 0.262112 0.746846 0.196551
O O3 0.006364 0.772777 0.205446
O O4 0.192249 0.721478 0.068576
O O5 0.140882 0.500000 0.977674
O O6 0.259087 0.754610 0.912161
O O7 0.000000 0.755973 0.000000
O O8 0.163260 0.216354 0.647735
O O9 0.200151 0.225603 0.493316
O O10 0.960117 0.284079 0.595839
O O11 0.053124 0.000000 0.580618
O O12 0.742649 0.277571 0.237289
O O13 0.834804 0.000000 0.245251
O O14 0.362218 0.500000 0.241375
O O15 0.510523 0.756235 0.206822
O O16 0.302386 0.739615 0.337807
O O17 0.649741 0.500000 0.170583
O O18 0.195927 0.500000 0.431292
#
# Coordination Sequence:
#
# PCOD8058645 Si02
#       7
#     4   4   4   4   4   4   4
#     4  10  18  33  56  79 107 138 175 220 264 313
#     4   9  16  28  52  83 105 134 178 217 261 314
#     4  10  20  33  51  77 106 136 176 217 260 309
#     4  11  22  35  52  79 106 138 183 219 259 315
#     4   9  19  33  53  82 109 138 174 215 266 319
#     4  10  20  36  55  76 109 143 175 218 266 315
#     4  10  18  31  53  81 108 133 171 215 263 314
#
# _framework density 18.839013999999999
#
# number of rings (size 3 to 8) (size 9 to 14) (size 15 to 20)
#    0.000    2.143    2.857    2.143    0.000    2.286 
#    0.000    7.143    0.000    4.286    0.000    2.000 
#    0.000    0.000    0.000    0.000    0.000    0.000 
#
# Total GULP energy -347175.966266 kJ/mol
# GULP energy per Si atom -12399.141652 kJ/mol
# Density = 1.879614 g / cm^3
# Si number density = 18.839014 Si / 1000 Ang^3
#
#
#
# Elastic Constant Matrix: (Units=GPa)
#
#
# Indices 1 2 3 4 5 6 
#
# 1 119.5653 1.8814 61.6637 0.0000 -11.5270 0.0000
# 2 1.8814 16.0039 18.4568 0.0000 -2.5308 0.0000
# 3 61.6637 18.4568 146.9129 0.0000 -7.6166 0.0000
# 4 0.0000 0.0000 0.0000 17.2865 0.0000 4.1090
# 5 -11.5270 -2.5308 -7.6166 0.0000 31.0931 0.0000
# 6 0.0000 0.0000 0.0000 4.1090 0.0000 4.5112
#
#
#
# Elastic Compliance Matrix: (Units=1/GPa)
#
#
# Indices 1 2 3 4 5 6 
#
# 1 0.011298 0.005226 -0.005226 0.000000 0.003334 0.000000
# 2 0.005226 0.075922 -0.011456 0.000000 0.005311 0.000000
# 3 -0.005226 -0.011456 0.010423 0.000000 -0.000317 0.000000
# 4 0.000000 0.000000 0.000000 0.073834 0.000000 -0.067252
# 5 0.003334 0.005311 -0.000317 0.000000 0.033752 0.000000
# 6 0.000000 0.000000 0.000000 -0.067252 0.000000 0.282929
#
#
# Mechanical properties :
#
#
# Convention : Reuss Voigt Hill
#
# Bulk Modulus (GPa) = 13.38142 49.60954 31.49548
# Shear Modulus (GPa) = 9.32869 23.94349 16.63609
#
# Velocity S-wave (km/s) = 2.22768 3.56891 2.97487
# Velocity P-wave (km/s) = 3.70610 6.58585 5.34362
#
# Compressibility (1/GPa) = 0.07473051
#
# Stress axis : x y z
#
# Youngs Moduli (GPa) = 88.51227 13.17138 95.94173
#
# Poissons Ratio (x) = -0.06883 0.50137
# Poissons Ratio (y) = -0.46254 1.09913
# Poissons Ratio (z) = 0.46254 0.15089
#
# Static dielectric constant tensor:
#      x y z
#    x 3.469610 0.000000 -0.052040 
#    y 0.000000 3.153880 0.000000 
#    z -0.052040 0.000000 3.897400 
# 
# 
# High freq. dielectric constant tensor:
#      x y z
#    x 1.711400 0.000000 0.002900 
#    y 0.000000 1.701210 0.000000 
#    z 0.002900 0.000000 1.751550 
# 
# From -- ./inp_files/74332.got.cif
#   From: 2010.06.25/outbox.cif.g09.slc.cpg/sg10_38_cif.got.tgz:74332.got - 2010.06.27 22:07:45.
