data_PCOD8058976
_publ_section_title
;
Structure prediction by ZEFSAII (Michael W. Deem and Ramdas Pophale) SiO2 
 PCOD8058976
Probable space group: P 2/M
;
_chemical_formula_sum "Si O2"
_cell_formula_units_Z 32
_cell_length_a 15.365983
_cell_length_b 8.765760
_cell_length_c 25.413551
_cell_angle_alpha 90.000000
_cell_angle_beta 27.639116
_cell_angle_gamma 90.000000
_cell_volume 1587.963553
_symmetry_space_group_name_H-M "P 2/M"
_symmetry_group_IT_number 10
_symmetry_cell_setting 'monoclinic'
loop_
_space_group_symop_operation_xyz
x,y,z
-x,y,-z
-x,-y,-z
x,-y,z
loop_
_atom_site_type_symbol
_atom_site_label
_atom_site_fract_x
_atom_site_fract_y
_atom_site_fract_z
Si Si1 0.452305 0.679944 0.251047
Si Si2 0.028751 0.176130 0.756207
Si Si3 0.210868 0.821814 0.870798
Si Si4 0.851866 0.321581 0.500830
Si Si5 0.685887 0.825612 0.489542
Si Si6 0.238766 0.179959 0.275049
Si Si7 0.265871 0.820198 0.724439
Si Si8 0.702155 0.321545 0.869896
O O1 0.452063 0.500000 0.244918
O O2 0.655876 0.734100 0.160299
O O3 0.296477 0.735439 0.376379
O O4 0.411435 0.754032 0.216186
O O5 0.852797 0.277435 0.833534
O O6 0.201652 0.193580 0.624077
O O7 0.105751 0.241787 0.770575
O O8 0.964411 0.000000 0.794274
O O9 0.238700 0.753216 0.797411
O O10 0.261492 0.000000 0.845802
O O11 0.000000 0.788804 0.000000
O O12 0.891851 0.500000 0.484860
O O13 0.772461 0.286622 0.485961
O O14 0.047194 0.235393 0.405001
O O15 0.472027 0.776556 0.593028
O O16 0.696839 0.000000 0.504735
O O17 0.251266 0.233413 0.208353
O O18 0.245977 0.000000 0.271639
O O19 0.240557 0.000000 0.739589
O O20 0.712562 0.500000 0.852372
O O21 0.500000 0.272687 0.000000
#
# Coordination Sequence:
#
# PCOD8058976 Si02
#       8
#     4   4   4   4   4   4   4   4
#     4  11  24  41  62  90 125 163 200 247 308 369
#     4  10  20  35  59  90 118 154 201 246 297 353
#     4  10  21  38  60  87 119 159 208 254 295 348
#     4  11  22  37  60  90 126 160 195 243 305 369
#     4  10  18  32  58  87 117 155 196 240 298 359
#     4  12  25  41  65  93 120 157 203 251 303 362
#     4   9  18  34  57  86 122 155 192 244 296 352
#     4  11  25  44  63  86 121 162 202 249 305 358
#
# _framework density 20.151596999999999
#
# number of rings (size 3 to 8) (size 9 to 14) (size 15 to 20)
#    0.000    1.500    2.500    3.000    0.000    6.750 
#    0.000    2.500    0.000    1.500    0.000    0.000 
#    0.000    0.000    0.000    0.000    0.000    0.000 
#
# Total GULP energy -396929.917308 kJ/mol
# GULP energy per Si atom -12404.059916 kJ/mol
# Density = 2.010573 g / cm^3
# Si number density = 20.151597 Si / 1000 Ang^3
#
#
#
# Elastic Constant Matrix: (Units=GPa)
#
#
# Indices 1 2 3 4 5 6 
#
# 1 139.6216 31.1211 26.2176 0.0000 -24.7398 0.0000
# 2 31.1211 72.4526 31.5579 0.0000 -12.1552 0.0000
# 3 26.2176 31.5579 85.7136 0.0000 -23.6622 0.0000
# 4 0.0000 0.0000 0.0000 17.6156 0.0000 -4.9852
# 5 -24.7398 -12.1552 -23.6622 0.0000 22.6535 0.0000
# 6 0.0000 0.0000 0.0000 -4.9852 0.0000 7.5838
#
#
#
# Elastic Compliance Matrix: (Units=1/GPa)
#
#
# Indices 1 2 3 4 5 6 
#
# 1 0.009314 -0.002748 0.000792 0.000000 0.009524 0.000000
# 2 -0.002748 0.017450 -0.005379 0.000000 0.000744 0.000000
# 3 0.000792 -0.005379 0.018052 0.000000 0.016835 0.000000
# 4 0.000000 0.000000 0.000000 0.069742 0.000000 0.045845
# 5 0.009524 0.000744 0.016835 0.000000 0.072529 0.000000
# 6 0.000000 0.000000 0.000000 0.045845 0.000000 0.161995
#
#
# Mechanical properties :
#
#
# Convention : Reuss Voigt Hill
#
# Bulk Modulus (GPa) = 33.17060 52.84233 43.00647
# Shear Modulus (GPa) = 13.37615 23.49666 18.43641
#
# Velocity S-wave (km/s) = 2.57918 3.41837 3.02799
# Velocity P-wave (km/s) = 5.03645 6.46991 5.79765
#
# Compressibility (1/GPa) = 0.03014717
#
# Stress axis : x y z
#
# Youngs Moduli (GPa) = 107.37037 57.30642 55.39439
#
# Poissons Ratio (x) = 0.15746 -0.04388
# Poissons Ratio (y) = 0.29502 0.29796
# Poissons Ratio (z) = -0.08506 0.30825
#
# Static dielectric constant tensor:
#      x y z
#    x 3.868510 0.000000 0.003650 
#    y 0.000000 3.480940 0.000000 
#    z 0.003650 0.000000 3.711780 
# 
# 
# High freq. dielectric constant tensor:
#      x y z
#    x 1.802240 0.000000 -0.005020 
#    y 0.000000 1.768880 0.000000 
#    z -0.005020 0.000000 1.785300 
# 
# From -- ./inp_files/71511.got.cif
#   From: 2010.06.25/outbox.cif.g09.slc.cpg/sg10_36_cif.got.tgz:71511.got - 2010.06.27 22:07:45.
