data_PCOD8058727
_publ_section_title
;
Structure prediction by ZEFSAII (Michael W. Deem and Ramdas Pophale) SiO2 
 PCOD8058727
Probable space group: P 2/M
;
_chemical_formula_sum "Si O2"
_cell_formula_units_Z 22
_cell_length_a 30.053459
_cell_length_b 7.835256
_cell_length_c 13.806034
_cell_angle_alpha 90.000000
_cell_angle_beta 158.951446
_cell_angle_gamma 90.000000
_cell_volume 1167.624775
_symmetry_space_group_name_H-M "P 2/M"
_symmetry_group_IT_number 10
_symmetry_cell_setting 'monoclinic'
loop_
_space_group_symop_operation_xyz
x,y,z
-x,y,-z
-x,-y,-z
x,-y,z
loop_
_atom_site_type_symbol
_atom_site_label
_atom_site_fract_x
_atom_site_fract_y
_atom_site_fract_z
Si Si1 0.135778 0.687420 0.871293
Si Si2 0.073397 0.811492 0.440943
Si Si3 0.717311 0.690368 0.631523
Si Si4 0.722059 0.000000 0.903187
Si Si5 0.947658 0.797277 0.994047
Si Si6 0.570714 0.000000 0.399032
Si Si7 0.692332 0.000000 0.054134
O O1 0.159692 0.500000 0.874468
O O2 0.987988 0.706817 0.593908
O O3 0.202010 0.708275 0.108561
O O4 0.189601 0.833515 0.911516
O O5 0.010511 0.000000 0.318978
O O6 0.038207 0.732369 0.264680
O O7 0.222609 0.830501 0.753960
O O8 0.659614 0.500000 0.504672
O O9 0.808375 0.726979 0.726471
O O10 0.608437 0.830999 0.415695
O O11 0.629335 0.000000 0.625201
O O12 0.644950 0.000000 0.846687
O O13 0.942770 0.000000 0.979065
O O14 0.000000 0.721387 0.000000
O O15 0.422709 0.000000 0.107256
#
# Coordination Sequence:
#
# PCOD8058727 Si02
#       7
#     4   4   4   2   4   2   2
#     4   9  16  29  50  72  96 123 150 190 244 289
#     4   8  16  30  46  67  99 126 148 185 235 290
#     4   9  17  30  50  74  96 123 157 192 233 278
#     4  10  18  32  49  69  92 118 163 209 231 268
#     4   9  15  27  51  79 101 115 145 192 236 284
#     4  10  19  34  50  65  90 131 168 198 225 262
#     4  10  20  32  49  64  92 133 161 194 238 268
#
# _framework density 18.841667999999999
#
# number of rings (size 3 to 8) (size 9 to 14) (size 15 to 20)
#    0.545    2.364    1.818    0.273    0.000    1.818 
#    0.000    3.636    0.000    6.545    0.000    1.273 
#    0.000    0.000    0.000    0.000    0.000    0.000 
#
# Total GULP energy -272585.869035 kJ/mol
# GULP energy per Si atom -12390.266774 kJ/mol
# Density = 1.879878 g / cm^3
# Si number density = 18.841668 Si / 1000 Ang^3
#
#
#
# Elastic Constant Matrix: (Units=GPa)
#
#
# Indices 1 2 3 4 5 6 
#
# 1 71.4964 26.4794 21.3286 0.0000 28.3648 0.0000
# 2 26.4794 104.4050 28.2527 0.0000 23.5172 0.0000
# 3 21.3286 28.2527 72.5983 0.0000 30.4383 0.0000
# 4 0.0000 0.0000 0.0000 10.2268 0.0000 1.6224
# 5 28.3648 23.5172 30.4383 0.0000 31.0519 0.0000
# 6 0.0000 0.0000 0.0000 1.6224 0.0000 5.3453
#
#
#
# Elastic Compliance Matrix: (Units=1/GPa)
#
#
# Indices 1 2 3 4 5 6 
#
# 1 0.022616 -0.001522 0.003610 0.000000 -0.023045 0.000000
# 2 -0.001522 0.011735 -0.001658 0.000000 -0.005873 0.000000
# 3 0.003610 -0.001658 0.024134 0.000000 -0.025699 0.000000
# 4 0.000000 0.000000 0.000000 0.102729 0.000000 -0.031179
# 5 -0.023045 -0.005873 -0.025699 0.000000 0.082894 0.000000
# 6 0.000000 0.000000 0.000000 -0.031179 0.000000 0.196542
#
#
# Mechanical properties :
#
#
# Convention : Reuss Voigt Hill
#
# Bulk Modulus (GPa) = 16.85016 44.51342 30.68179
# Shear Modulus (GPa) = 10.87969 20.82073 15.85021
#
# Velocity S-wave (km/s) = 2.40558 3.32782 2.90355
# Velocity P-wave (km/s) = 4.08389 6.20017 5.24977
#
# Compressibility (1/GPa) = 0.05934663
#
# Stress axis : x y z
#
# Youngs Moduli (GPa) = 44.21614 85.21154 41.43554
#
# Poissons Ratio (x) = 0.12969 -0.14959
# Poissons Ratio (y) = 0.06729 0.06868
# Poissons Ratio (z) = -0.15962 0.14125
#
# Static dielectric constant tensor:
#      x y z
#    x 3.401950 0.000000 0.087640 
#    y 0.000000 3.431900 0.000000 
#    z 0.087640 0.000000 3.023080 
# 
# 
# High freq. dielectric constant tensor:
#      x y z
#    x 1.721250 0.000000 0.008510 
#    y 0.000000 1.721410 0.000000 
#    z 0.008510 0.000000 1.688070 
# 
# From -- ./inp_files/72613.got.cif
#   From: 2010.06.25/outbox.cif.g09.slc.cpg/sg10_37_cif.got.tgz:72613.got - 2010.06.27 22:07:45.
