data_PCOD8058888
_publ_section_title
;
Structure prediction by ZEFSAII (Michael W. Deem and Ramdas Pophale) SiO2 
 PCOD8058888
Probable space group: P 2/M
;
_chemical_formula_sum "Si O2"
_cell_formula_units_Z 28
_cell_length_a 9.880619
_cell_length_b 8.752470
_cell_length_c 28.268117
_cell_angle_alpha 90.000000
_cell_angle_beta 142.675581
_cell_angle_gamma 90.000000
_cell_volume 1482.241050
_symmetry_space_group_name_H-M "P 2/M"
_symmetry_group_IT_number 10
_symmetry_cell_setting 'monoclinic'
loop_
_space_group_symop_operation_xyz
x,y,z
-x,y,-z
-x,-y,-z
x,-y,z
loop_
_atom_site_type_symbol
_atom_site_label
_atom_site_fract_x
_atom_site_fract_y
_atom_site_fract_z
Si Si1 0.692106 0.321498 0.707968
Si Si2 0.227333 0.318043 0.542740
Si Si3 0.950079 0.174960 0.697842
Si Si4 0.754636 0.325380 0.556898
Si Si5 0.845274 0.680107 0.000487
Si Si6 0.373375 0.824940 0.875086
Si Si7 0.947295 0.820037 0.129596
O O1 0.714311 0.500000 0.725402
O O2 0.434879 0.266698 0.633219
O O3 0.799783 0.287980 0.687061
O O4 0.813532 0.227811 0.782939
O O5 0.229145 0.500000 0.540638
O O6 0.237478 0.252444 0.492817
O O7 0.000000 0.250645 0.500000
O O8 0.918371 0.224432 0.634923
O O9 0.207677 0.192776 0.784621
O O10 0.874033 0.000000 0.684766
O O11 0.500000 0.312810 0.500000
O O12 0.839934 0.500000 0.582519
O O13 0.864877 0.500000 0.008833
O O14 0.926913 0.747211 0.072706
O O15 0.587973 0.725268 0.921719
O O16 0.000000 0.741158 0.000000
O O17 0.250729 0.767484 0.889408
O O18 0.449020 0.000000 0.903139
O O19 0.940632 0.000000 0.122538
#
# Coordination Sequence:
#
# PCOD8058888 Si02
#       7
#     4   4   4   4   4   4   4
#     4  10  18  33  57  82 111 143 185 231 273 321
#     4   9  18  33  52  76 108 145 183 226 275 324
#     4  10  20  34  54  83 114 142 181 229 278 324
#     4  10  18  32  54  80 106 141 188 228 272 324
#     4  11  24  40  58  85 116 145 184 227 271 326
#     4   9  20  38  59  83 112 146 185 226 274 334
#     4  10  21  38  61  87 113 145 184 226 278 334
#
# _framework density 18.890315999999999
#
# number of rings (size 3 to 8) (size 9 to 14) (size 15 to 20)
#    0.000    2.143    1.429    3.000    0.000    6.571 
#    2.571    0.000    0.000    3.000    0.000    0.000 
#    0.000    0.000    0.000    0.000    0.000    0.000 
#
# Total GULP energy -347147.914841 kJ/mol
# GULP energy per Si atom -12398.139816 kJ/mol
# Density = 1.884732 g / cm^3
# Si number density = 18.890316 Si / 1000 Ang^3
#
#
#
# Elastic Constant Matrix: (Units=GPa)
#
#
# Indices 1 2 3 4 5 6 
#
# 1 113.9457 32.1096 67.2915 0.0000 3.6040 0.0000
# 2 32.1096 51.2793 36.9027 0.0000 0.5967 0.0000
# 3 67.2915 36.9027 138.5086 0.0000 0.2346 0.0000
# 4 0.0000 0.0000 0.0000 28.8197 0.0000 -4.2825
# 5 3.6040 0.5967 0.2346 0.0000 30.1584 0.0000
# 6 0.0000 0.0000 0.0000 -4.2825 0.0000 21.0821
#
#
#
# Elastic Compliance Matrix: (Units=1/GPa)
#
#
# Indices 1 2 3 4 5 6 
#
# 1 0.013151 -0.004481 -0.005193 0.000000 -0.001443 0.000000
# 2 -0.004481 0.025659 -0.004659 0.000000 0.000064 0.000000
# 3 -0.005193 -0.004659 0.010983 0.000000 0.000627 0.000000
# 4 0.000000 0.000000 0.000000 0.035778 0.000000 0.007268
# 5 -0.001443 0.000064 0.000627 0.000000 0.033325 0.000000
# 6 0.000000 0.000000 0.000000 0.007268 0.000000 0.048910
#
#
# Mechanical properties :
#
#
# Convention : Reuss Voigt Hill
#
# Bulk Modulus (GPa) = 47.33358 64.03792 55.68575
# Shear Modulus (GPa) = 24.56813 27.17402 25.87107
#
# Velocity S-wave (km/s) = 3.61025 3.79689 3.70475
# Velocity P-wave (km/s) = 6.51844 7.29351 6.91684
#
# Compressibility (1/GPa) = 0.02112665
#
# Stress axis : x y z
#
# Youngs Moduli (GPa) = 76.03869 38.97208 91.04993
#
# Poissons Ratio (x) = 0.17464 0.47281
# Poissons Ratio (y) = 0.34074 0.42424
# Poissons Ratio (z) = 0.39486 0.18159
#
# Static dielectric constant tensor:
#      x y z
#    x 3.441660 0.000000 0.001540 
#    y 0.000000 3.325010 0.000000 
#    z 0.001540 0.000000 3.618980 
# 
# 
# High freq. dielectric constant tensor:
#      x y z
#    x 1.714500 0.000000 -0.005270 
#    y 0.000000 1.721790 0.000000 
#    z -0.005270 0.000000 1.750820 
# 
# From -- ./inp_files/92070.got.cif
#   From: 2010.06.25/outbox.cif.g09.slc.cpg/sg10_47_cif.got.tgz:92070.got - 2010.06.27 22:07:45.
