data_PCOD8058829
_publ_section_title
;
Structure prediction by ZEFSAII (Michael W. Deem and Ramdas Pophale) SiO2 
 PCOD8058829
Probable space group: P 2/M
;
_chemical_formula_sum "Si O2"
_cell_formula_units_Z 28
_cell_length_a 16.745264
_cell_length_b 8.592206
_cell_length_c 14.967011
_cell_angle_alpha 90.000000
_cell_angle_beta 133.675748
_cell_angle_gamma 90.000000
_cell_volume 1557.492320
_symmetry_space_group_name_H-M "P 2/M"
_symmetry_group_IT_number 10
_symmetry_cell_setting 'monoclinic'
loop_
_space_group_symop_operation_xyz
x,y,z
-x,y,-z
-x,-y,-z
x,-y,z
loop_
_atom_site_type_symbol
_atom_site_label
_atom_site_fract_x
_atom_site_fract_y
_atom_site_fract_z
Si Si1 0.994451 0.183060 0.392552
Si Si2 0.347108 0.818360 0.434311
Si Si3 0.606191 0.180661 0.886896
Si Si4 0.431562 0.318798 0.326595
Si Si5 0.749519 0.183913 0.159673
Si Si6 0.208294 0.680940 0.473715
Si Si7 0.355491 0.819244 0.739362
O O1 0.877007 0.234330 0.261409
O O2 0.000000 0.234065 0.500000
O O3 0.085505 0.273196 0.406758
O O4 0.015815 0.000000 0.400262
O O5 0.455457 0.777940 0.576213
O O6 0.347717 0.725997 0.341212
O O7 0.238983 0.771458 0.406481
O O8 0.345789 0.000000 0.412390
O O9 0.624295 0.277418 0.810584
O O10 0.485604 0.206508 0.834934
O O11 0.627384 0.000000 0.882079
O O12 0.693426 0.248554 0.026147
O O13 0.460196 0.500000 0.353863
O O14 0.685686 0.246990 0.197458
O O15 0.736765 0.000000 0.150286
O O16 0.213927 0.500000 0.457399
O O17 0.295852 0.721010 0.617547
O O18 0.322475 0.000000 0.700920
#
# Coordination Sequence:
#
# PCOD8058829 Si02
#       7
#     4   4   4   4   4   4   4
#     4  10  19  35  57  78 105 143 191 232 266 310
#     4  11  21  36  57  80 105 140 183 223 267 320
#     4  10  19  32  54  81 111 147 185 220 265 322
#     4  11  21  34  53  81 115 143 171 216 274 326
#     4   9  18  33  54  80 107 144 191 232 261 307
#     4  12  23  34  52  80 114 143 176 224 280 326
#     4  10  18  32  53  78 109 146 184 222 265 318
#
# _framework density 17.977616999999999
#
# number of rings (size 3 to 8) (size 9 to 14) (size 15 to 20)
#    0.000    1.571    2.857    5.143    0.000    2.000 
#    0.000    1.429    0.000    2.571    0.000    6.000 
#    0.000    0.000    0.000    0.000    0.000    0.000 
#
# Total GULP energy -347295.617560 kJ/mol
# GULP energy per Si atom -12403.414913 kJ/mol
# Density = 1.793670 g / cm^3
# Si number density = 17.977617 Si / 1000 Ang^3
#
#
#
# Elastic Constant Matrix: (Units=GPa)
#
#
# Indices 1 2 3 4 5 6 
#
# 1 114.2379 25.8656 44.4776 0.0000 -8.5100 0.0000
# 2 25.8656 64.5570 19.1960 0.0000 -1.4639 0.0000
# 3 44.4776 19.1960 88.7986 0.0000 -0.1085 0.0000
# 4 0.0000 0.0000 0.0000 6.9938 0.0000 1.1503
# 5 -8.5100 -1.4639 -0.1085 0.0000 26.7587 0.0000
# 6 0.0000 0.0000 0.0000 1.1503 0.0000 17.1856
#
#
#
# Elastic Compliance Matrix: (Units=1/GPa)
#
#
# Indices 1 2 3 4 5 6 
#
# 1 0.011744 -0.003075 -0.005213 0.000000 0.003545 0.000000
# 2 -0.003075 0.017381 -0.002217 0.000000 -0.000036 0.000000
# 3 -0.005213 -0.002217 0.014350 0.000000 -0.001721 0.000000
# 4 0.000000 0.000000 0.000000 0.144576 0.000000 -0.009677
# 5 0.003545 -0.000036 -0.001721 0.000000 0.038490 0.000000
# 6 0.000000 0.000000 0.000000 -0.009677 0.000000 0.058836
#
#
# Mechanical properties :
#
#
# Convention : Reuss Voigt Hill
#
# Bulk Modulus (GPa) = 44.51596 49.63021 47.07309
# Shear Modulus (GPa) = 15.92998 22.05790 18.99394
#
# Velocity S-wave (km/s) = 2.97997 3.50661 3.25396
# Velocity P-wave (km/s) = 6.05442 6.63789 6.35286
#
# Compressibility (1/GPa) = 0.02246385
#
# Stress axis : x y z
#
# Youngs Moduli (GPa) = 85.15235 57.53544 69.68726
#
# Poissons Ratio (x) = 0.17691 0.36329
# Poissons Ratio (y) = 0.26182 0.15451
# Poissons Ratio (z) = 0.44391 0.12757
#
# Static dielectric constant tensor:
#      x y z
#    x 3.475210 0.000000 -0.104280 
#    y 0.000000 3.148620 0.000000 
#    z -0.104280 0.000000 3.322560 
# 
# 
# High freq. dielectric constant tensor:
#      x y z
#    x 1.701550 0.000000 -0.010870 
#    y 0.000000 1.683150 0.000000 
#    z -0.010870 0.000000 1.676900 
# 
# From -- ./inp_files/49321.got.cif
#   From: 2010.06.25/outbox.cif.g09.slc.cpg/sg10_25_cif.got.tgz:49321.got - 2010.06.27 22:07:45.
