data_PCOD8058437
_publ_section_title
;
Structure prediction by ZEFSAII (Michael W. Deem and Ramdas Pophale) SiO2 
 PCOD8058437
Probable space group: P 2/M
;
_chemical_formula_sum "Si O2"
_cell_formula_units_Z 32
_cell_length_a 17.898612
_cell_length_b 8.977153
_cell_length_c 24.154876
_cell_angle_alpha 90.000000
_cell_angle_beta 30.377036
_cell_angle_gamma 90.000000
_cell_volume 1962.661787
_symmetry_space_group_name_H-M "P 2/M"
_symmetry_group_IT_number 10
_symmetry_cell_setting 'monoclinic'
loop_
_space_group_symop_operation_xyz
x,y,z
-x,y,-z
-x,-y,-z
x,-y,z
loop_
_atom_site_type_symbol
_atom_site_label
_atom_site_fract_x
_atom_site_fract_y
_atom_site_fract_z
Si Si1 0.950067 0.674777 0.147943
Si Si2 0.690494 0.675595 0.235203
Si Si3 0.165771 0.177280 0.170387
Si Si4 0.280837 0.323698 0.906334
Si Si5 0.558264 0.323499 0.522915
Si Si6 0.596407 0.178026 0.069275
Si Si7 0.373191 0.836620 0.126562
Si Si8 0.861128 0.823580 0.317594
O O1 0.938036 0.500000 0.169614
O O2 0.848046 0.717572 0.160981
O O3 0.889702 0.766162 0.237987
O O4 0.115049 0.724329 0.027855
O O5 0.675316 0.500000 0.242127
O O6 0.682523 0.740096 0.178121
O O7 0.556681 0.738165 0.358050
O O8 0.234025 0.244918 0.184683
O O9 0.996623 0.226984 0.270726
O O10 0.181622 0.000000 0.163405
O O11 0.260275 0.232714 0.057046
O O12 0.298766 0.500000 0.897442
O O13 0.396256 0.249373 0.874751
O O14 0.500000 0.274344 0.500000
O O15 0.578197 0.500000 0.512879
O O16 0.714030 0.247465 0.436765
O O17 0.446976 0.239914 0.133771
O O18 0.592147 0.000000 0.076459
O O19 0.320249 0.000000 0.179305
O O20 0.500000 0.852463 0.000000
O O21 0.845892 0.000000 0.325542
#
# Coordination Sequence:
#
# PCOD8058437 Si02
#       8
#     4   4   4   4   4   4   4   4
#     4  10  18  31  48  65  88 120 157 184 214 267
#     4   9  18  33  49  64  84 118 160 192 219 258
#     4   8  14  25  41  64  92 119 147 178 216 265
#     4  10  19  29  46  69  92 118 150 188 224 264
#     4  10  19  34  52  65  83 117 159 194 222 263
#     4   9  15  26  44  65  91 120 148 177 216 269
#     4   7  11  21  40  62  84 117 153 175 201 261
#     4  11  20  29  46  71  96 117 144 187 234 267
#
# _framework density 16.304389
#
# number of rings (size 3 to 8) (size 9 to 14) (size 15 to 20)
#    0.000    2.750    2.500    2.250    0.000    1.750 
#    0.000    1.250    0.000    6.375    0.000    0.875 
#    0.000    7.000    0.000    0.000    0.000    0.000 
#
# Total GULP energy -396512.396447 kJ/mol
# GULP energy per Si atom -12391.012389 kJ/mol
# Density = 1.626728 g / cm^3
# Si number density = 16.304389 Si / 1000 Ang^3
#
#
#
# Elastic Constant Matrix: (Units=GPa)
#
#
# Indices 1 2 3 4 5 6 
#
# 1 151.8078 19.2150 49.9327 0.0000 -6.8971 0.0000
# 2 19.2150 17.6395 12.5986 0.0000 -1.1684 0.0000
# 3 49.9327 12.5986 66.0007 0.0000 1.8827 0.0000
# 4 0.0000 0.0000 0.0000 6.1321 0.0000 4.1589
# 5 -6.8971 -1.1684 1.8827 0.0000 22.6651 0.0000
# 6 0.0000 0.0000 0.0000 4.1589 0.0000 17.0732
#
#
#
# Elastic Compliance Matrix: (Units=1/GPa)
#
#
# Indices 1 2 3 4 5 6 
#
# 1 0.009481 -0.005715 -0.006171 0.000000 0.003103 0.000000
# 2 -0.005715 0.069533 -0.009023 0.000000 0.002595 0.000000
# 3 -0.006171 -0.009023 0.021660 0.000000 -0.004142 0.000000
# 4 0.000000 0.000000 0.000000 0.195349 0.000000 -0.047585
# 5 0.003103 0.002595 -0.004142 0.000000 0.045543 0.000000
# 6 0.000000 0.000000 0.000000 -0.047585 0.000000 0.070163
#
#
# Mechanical properties :
#
#
# Convention : Reuss Voigt Hill
#
# Bulk Modulus (GPa) = 16.99037 44.32673 30.65855
# Shear Modulus (GPa) = 10.56711 19.42085 14.99398
#
# Velocity S-wave (km/s) = 2.54857 3.45504 3.03583
# Velocity P-wave (km/s) = 4.37077 6.56981 5.57970
#
# Compressibility (1/GPa) = 0.05885687
#
# Stress axis : x y z
#
# Youngs Moduli (GPa) = 105.47043 14.38164 46.16758
#
# Poissons Ratio (x) = 0.08220 0.28488
# Poissons Ratio (y) = 0.60281 0.41656
# Poissons Ratio (z) = 0.65082 0.12976
#
# Static dielectric constant tensor:
#      x y z
#    x 3.526340 0.000000 -0.147660 
#    y 0.000000 2.712690 0.000000 
#    z -0.147660 0.000000 3.024580 
# 
# 
# High freq. dielectric constant tensor:
#      x y z
#    x 1.640690 0.000000 -0.013640 
#    y 0.000000 1.589080 0.000000 
#    z -0.013640 0.000000 1.595390 
# 
# From -- ./inp_files/56411.got.cif
#   From: 2010.06.25/outbox.cif.g09.slc.cpg/sg10_29_cif.got.tgz:56411.got - 2010.06.27 22:07:45.
