data_PCOD8058863
_publ_section_title
;
Structure prediction by ZEFSAII (Michael W. Deem and Ramdas Pophale) SiO2 
 PCOD8058863
Probable space group: P 2/M
;
_chemical_formula_sum "Si O2"
_cell_formula_units_Z 28
_cell_length_a 29.829884
_cell_length_b 8.956779
_cell_length_c 10.261681
_cell_angle_alpha 90.000000
_cell_angle_beta 146.336119
_cell_angle_gamma 90.000000
_cell_volume 1519.785754
_symmetry_space_group_name_H-M "P 2/M"
_symmetry_group_IT_number 10
_symmetry_cell_setting 'monoclinic'
loop_
_space_group_symop_operation_xyz
x,y,z
-x,y,-z
-x,-y,-z
x,-y,z
loop_
_atom_site_type_symbol
_atom_site_label
_atom_site_fract_x
_atom_site_fract_y
_atom_site_fract_z
Si Si1 0.685012 0.176337 0.449366
Si Si2 0.415089 0.171800 0.549263
Si Si3 0.988760 0.668138 0.626694
Si Si4 0.148146 0.173511 0.032260
Si Si5 0.664379 0.323554 0.885174
Si Si6 0.603008 0.171925 0.990757
Si Si7 0.171750 0.174561 0.788664
O O1 0.630518 0.239859 0.435357
O O2 0.778435 0.222283 0.696310
O O3 0.674135 0.000000 0.424921
O O4 0.654994 0.236541 0.237606
O O5 0.390717 0.267278 0.365767
O O6 0.509794 0.184972 0.804715
O O7 0.389056 0.000000 0.460471
O O8 0.977399 0.500000 0.649658
O O9 0.910175 0.763492 0.475433
O O10 0.000000 0.674771 0.500000
O O11 0.068928 0.736854 0.886464
O O12 0.127271 0.000000 0.994061
O O13 0.174248 0.211507 0.948014
O O14 0.671586 0.500000 0.895915
O O15 0.620618 0.275616 0.911252
O O16 0.753466 0.254274 0.098540
O O17 0.625397 0.000000 0.012445
O O18 0.176741 0.000000 0.772847
#
# Coordination Sequence:
#
# PCOD8058863 Si02
#       7
#     4   4   4   4   4   4   4
#     4   9  17  33  57  84 108 135 177 228 271 313
#     4  10  19  36  59  82 104 135 182 230 271 315
#     4   9  17  28  45  75 112 141 170 209 260 317
#     4   9  16  29  51  78 107 136 172 217 264 313
#     4  12  24  36  52  76 111 147 180 220 269 321
#     4  10  21  36  57  80 106 141 181 224 271 319
#     4  10  18  32  54  78 104 136 179 223 266 311
#
# _framework density 18.423651
#
# number of rings (size 3 to 8) (size 9 to 14) (size 15 to 20)
#    0.000    2.143    1.429    3.000    0.000    6.286 
#    0.000    1.429    0.000    2.571    0.000    6.000 
#    0.000    0.000    0.000    0.000    0.000    0.000 
#
# Total GULP energy -347250.967683 kJ/mol
# GULP energy per Si atom -12401.820274 kJ/mol
# Density = 1.838172 g / cm^3
# Si number density = 18.423651 Si / 1000 Ang^3
#
#
#
# Elastic Constant Matrix: (Units=GPa)
#
#
# Indices 1 2 3 4 5 6 
#
# 1 38.4985 22.9713 39.4677 0.0000 -2.9576 0.0000
# 2 22.9713 83.2596 35.0640 0.0000 3.7716 0.0000
# 3 39.4677 35.0640 118.0492 0.0000 5.6727 0.0000
# 4 0.0000 0.0000 0.0000 8.8967 0.0000 9.8268
# 5 -2.9576 3.7716 5.6727 0.0000 29.2080 0.0000
# 6 0.0000 0.0000 0.0000 9.8268 0.0000 14.7166
#
#
#
# Elastic Compliance Matrix: (Units=1/GPa)
#
#
# Indices 1 2 3 4 5 6 
#
# 1 0.044173 -0.007048 -0.013056 0.000000 0.007919 0.000000
# 2 -0.007048 0.014881 -0.001955 0.000000 -0.002255 0.000000
# 3 -0.013056 -0.001955 0.013595 0.000000 -0.003710 0.000000
# 4 0.000000 0.000000 0.000000 0.428264 0.000000 -0.285966
# 5 0.007919 -0.002255 -0.003710 0.000000 0.036051 0.000000
# 6 0.000000 0.000000 0.000000 -0.285966 0.000000 0.258900
#
#
# Mechanical properties :
#
#
# Convention : Reuss Voigt Hill
#
# Bulk Modulus (GPa) = 35.04923 48.31261 41.68092
# Shear Modulus (GPa) = 5.88588 20.05119 12.96853
#
# Velocity S-wave (km/s) = 1.78932 3.30258 2.65600
# Velocity P-wave (km/s) = 4.83055 6.38927 5.66379
#
# Compressibility (1/GPa) = 0.02853129
#
# Stress axis : x y z
#
# Youngs Moduli (GPa) = 22.63831 67.20097 73.55631
#
# Poissons Ratio (x) = 0.47362 0.96032
# Poissons Ratio (y) = 0.15955 0.14383
# Poissons Ratio (z) = 0.29556 0.13140
#
# Static dielectric constant tensor:
#      x y z
#    x 3.231700 0.000000 0.159310 
#    y 0.000000 3.280120 0.000000 
#    z 0.159310 0.000000 3.544050 
# 
# 
# High freq. dielectric constant tensor:
#      x y z
#    x 1.694480 0.000000 0.023170 
#    y 0.000000 1.697310 0.000000 
#    z 0.023170 0.000000 1.719800 
# 
# From -- ./inp_files/37259.got.cif
#   From: 2010.06.25/outbox.cif.g09.slc.cpg/sg10_19_cif.got.tgz:37259.got - 2010.06.27 22:07:45.
