data_PCOD8058413
_publ_section_title
;
Structure prediction by ZEFSAII (Michael W. Deem and Ramdas Pophale) SiO2 
 PCOD8058413
Probable space group: P 2/M
;
_chemical_formula_sum "Si O2"
_cell_formula_units_Z 32
_cell_length_a 17.750172
_cell_length_b 14.984891
_cell_length_c 11.761093
_cell_angle_alpha 90.000000
_cell_angle_beta 29.999133
_cell_angle_gamma 90.000000
_cell_volume 1564.092594
_symmetry_space_group_name_H-M "P 2/M"
_symmetry_group_IT_number 10
_symmetry_cell_setting 'monoclinic'
loop_
_space_group_symop_operation_xyz
x,y,z
-x,y,-z
-x,-y,-z
x,-y,z
loop_
_atom_site_type_symbol
_atom_site_label
_atom_site_fract_x
_atom_site_fract_y
_atom_site_fract_z
Si Si1 0.790179 0.821480 0.568321
Si Si2 0.310881 0.369454 0.351450
Si Si3 0.638584 0.595036 0.969567
Si Si4 0.109843 0.216547 0.079959
Si Si5 0.447556 0.098224 0.260317
Si Si6 0.996266 0.600018 0.872816
Si Si7 0.344178 0.897947 0.645085
Si Si8 0.261618 0.784313 0.117101
O O1 0.694549 0.735842 0.657272
O O2 0.674509 0.899511 0.683382
O O3 0.828699 0.817588 0.652768
O O4 0.943770 0.826434 0.295791
O O5 0.460773 0.392129 0.226310
O O6 0.166450 0.405770 0.605921
O O7 0.323706 0.414560 0.212325
O O8 0.688007 0.500000 0.961204
O O9 0.730666 0.676981 0.901237
O O10 0.177927 0.188521 0.112517
O O11 0.099003 0.323563 0.070125
O O12 0.210215 0.168371 0.854615
O O13 0.355331 0.112632 0.496189
O O14 0.523279 0.000000 0.159899
O O15 0.574238 0.172947 0.086496
O O16 0.924979 0.500000 0.949802
O O17 0.000000 0.627003 0.000000
O O18 0.500000 0.867160 0.500000
O O19 0.306973 0.000000 0.729906
#
# Coordination Sequence:
#
# PCOD8058413 Si02
#       8
#     4   4   4   4   4   4   4   4
#     4  10  22  38  59  90 124 155 201 249 300 358
#     4   9  17  33  54  83 117 152 197 245 291 342
#     4  10  18  30  56  85 115 154 200 248 288 334
#     4  11  24  39  64  88 124 163 198 249 309 361
#     4  11  23  41  66  90 118 159 204 251 303 365
#     4  10  22  38  58  86 124 166 206 246 299 361
#     4  10  22  42  66  90 117 155 202 249 306 369
#     4  11  22  39  58  90 127 162 197 245 304 372
#
# _framework density 20.459146
#
# number of rings (size 3 to 8) (size 9 to 14) (size 15 to 20)
#    0.000    1.750    2.500    2.250    3.500    2.000 
#    0.000    1.250    0.000    7.125    0.000    0.000 
#    0.000    0.000    0.000    0.000    0.000    0.000 
#
# Total GULP energy -396643.666813 kJ/mol
# GULP energy per Si atom -12395.114588 kJ/mol
# Density = 2.041258 g / cm^3
# Si number density = 20.459146 Si / 1000 Ang^3
#
#
#
# Elastic Constant Matrix: (Units=GPa)
#
#
# Indices 1 2 3 4 5 6 
#
# 1 56.5210 6.0512 8.9837 0.0000 1.3777 0.0000
# 2 6.0512 74.4105 41.7396 0.0000 3.4389 0.0000
# 3 8.9837 41.7396 104.4827 0.0000 0.3640 0.0000
# 4 0.0000 0.0000 0.0000 71.4452 0.0000 32.7374
# 5 1.3777 3.4389 0.3640 0.0000 21.3761 0.0000
# 6 0.0000 0.0000 0.0000 32.7374 0.0000 42.3341
#
#
#
# Elastic Compliance Matrix: (Units=1/GPa)
#
#
# Indices 1 2 3 4 5 6 
#
# 1 0.017994 -0.000709 -0.001260 0.000000 -0.001024 0.000000
# 2 -0.000709 0.017502 -0.006922 0.000000 -0.002652 0.000000
# 3 -0.001260 -0.006922 0.012441 0.000000 0.000983 0.000000
# 4 0.000000 0.000000 0.000000 0.021678 0.000000 -0.016764
# 5 -0.001024 -0.002652 0.000983 0.000000 0.047257 0.000000
# 6 0.000000 0.000000 0.000000 -0.016764 0.000000 0.036585
#
#
# Mechanical properties :
#
#
# Convention : Reuss Voigt Hill
#
# Bulk Modulus (GPa) = 33.16232 38.77371 35.96802
# Shear Modulus (GPa) = 27.58000 38.94037 33.26019
#
# Velocity S-wave (km/s) = 3.67557 4.36744 4.03636
# Velocity P-wave (km/s) = 5.85297 6.66526 6.27228
#
# Compressibility (1/GPa) = 0.03015471
#
# Stress axis : x y z
#
# Youngs Moduli (GPa) = 55.57487 57.13721 80.37952
#
# Poissons Ratio (x) = 0.04051 0.10131
# Poissons Ratio (y) = 0.03940 0.55635
# Poissons Ratio (z) = 0.07004 0.39548
#
# Static dielectric constant tensor:
#      x y z
#    x 3.430640 0.000000 0.138160 
#    y 0.000000 3.830920 0.000000 
#    z 0.138160 0.000000 3.738210 
# 
# 
# High freq. dielectric constant tensor:
#      x y z
#    x 1.774920 0.000000 0.008260 
#    y 0.000000 1.806590 0.000000 
#    z 0.008260 0.000000 1.800860 
# 
# From -- ./inp_files/53981.got.cif
#   From: 2010.06.25/outbox.cif.g09.slc.cpg/sg10_27_cif.got.tgz:53981.got - 2010.06.27 22:07:45.
