data_PCOD8058199
_publ_section_title
;
Structure prediction by ZEFSAII (Michael W. Deem and Ramdas Pophale) SiO2 
 PCOD8058199
Probable space group: P 2/M
;
_chemical_formula_sum "Si O2"
_cell_formula_units_Z 32
_cell_length_a 16.574733
_cell_length_b 13.121462
_cell_length_c 14.096361
_cell_angle_alpha 90.000000
_cell_angle_beta 36.074045
_cell_angle_gamma 90.000000
_cell_volume 1805.202451
_symmetry_space_group_name_H-M "P 2/M"
_symmetry_group_IT_number 10
_symmetry_cell_setting 'monoclinic'
loop_
_space_group_symop_operation_xyz
x,y,z
-x,y,-z
-x,-y,-z
x,-y,z
loop_
_atom_site_type_symbol
_atom_site_label
_atom_site_fract_x
_atom_site_fract_y
_atom_site_fract_z
Si Si1 0.895339 0.198345 0.291073
Si Si2 0.671782 0.888950 0.386742
Si Si3 0.856651 0.880321 0.672226
Si Si4 0.536518 0.177119 0.255890
Si Si5 0.379322 0.689516 0.675934
Si Si6 0.827132 0.116489 0.910854
Si Si7 0.704819 0.878315 0.631918
Si Si8 0.874175 0.615664 0.181445
O O1 0.824627 0.122167 0.283494
O O2 0.827163 0.177035 0.457837
O O3 0.859167 0.313082 0.288428
O O4 0.058751 0.180992 0.139780
O O5 0.559247 0.879546 0.576531
O O6 0.647652 0.806717 0.328671
O O7 0.659032 0.000000 0.351656
O O8 0.816979 0.837571 0.813781
O O9 0.735114 0.856070 0.713554
O O10 0.000000 0.831624 0.500000
O O11 0.877195 0.000000 0.662173
O O12 0.573559 0.293158 0.258789
O O13 0.442024 0.174955 0.251164
O O14 0.679579 0.121424 0.100261
O O15 0.500000 0.638973 0.500000
O O16 0.249339 0.620419 0.777824
O O17 0.877451 0.000000 0.861886
O O18 0.702289 0.000000 0.612888
O O19 0.891318 0.500000 0.201078
O O20 0.000000 0.654637 0.000000
#
# Coordination Sequence:
#
# PCOD8058199 Si02
#       8
#     4   4   4   4   4   4   4   4
#     4  10  18  30  49  68  86 119 160 194 227 275
#     4   9  17  29  44  62  92 132 161 182 221 273
#     4   9  17  29  44  64  91 128 167 195 225 268
#     4  10  19  28  41  65  97 127 159 195 229 262
#     4   9  19  33  48  68  94 125 160 192 225 276
#     4  11  19  27  44  70  98 125 160 201 231 265
#     4  10  18  31  48  66  96 131 160 189 226 274
#     4  10  21  37  53  69  93 121 150 194 247 286
#
# _framework density 17.726542999999999
#
# number of rings (size 3 to 8) (size 9 to 14) (size 15 to 20)
#    0.000    2.250    1.250    4.500    0.000    4.000 
#    0.000    1.875    0.000    6.000    0.000    1.750 
#    0.000    0.000    0.000   21.500    0.000    1.500 
#
# Total GULP energy -396464.638507 kJ/mol
# GULP energy per Si atom -12389.519953 kJ/mol
# Density = 1.768620 g / cm^3
# Si number density = 17.726543 Si / 1000 Ang^3
#
#
#
# Elastic Constant Matrix: (Units=GPa)
#
#
# Indices 1 2 3 4 5 6 
#
# 1 110.3393 20.0725 36.5426 0.0000 -19.1841 0.0000
# 2 20.0725 45.6853 17.4670 0.0000 1.0819 0.0000
# 3 36.5426 17.4670 77.9044 0.0000 -19.3047 0.0000
# 4 0.0000 0.0000 0.0000 -0.6864 0.0000 4.9869
# 5 -19.1841 1.0819 -19.3047 0.0000 32.0843 0.0000
# 6 0.0000 0.0000 0.0000 4.9869 0.0000 11.2795
#
#
#
# Elastic Compliance Matrix: (Units=1/GPa)
#
#
# Indices 1 2 3 4 5 6 
#
# 1 0.011806 -0.004028 -0.003351 0.000000 0.005179 0.000000
# 2 -0.004028 0.025947 -0.005572 0.000000 -0.006636 0.000000
# 3 -0.003351 -0.005572 0.017872 0.000000 0.008938 0.000000
# 4 0.000000 0.000000 0.000000 -0.345880 0.000000 0.152919
# 5 0.005179 -0.006636 0.008938 0.000000 0.039866 0.000000
# 6 0.000000 0.000000 0.000000 0.152919 0.000000 0.021048
#
#
# Mechanical properties :
#
#
# Convention : Reuss Voigt Hill
#
# Bulk Modulus (GPa) = 33.64680 42.45482 38.05081
# Shear Modulus (GPa) = -25.83577 19.19194 -3.32191
#
# Velocity S-wave (km/s) = -3.82181 3.29396 -1.37042
# Velocity P-wave (km/s) = 0.67289 6.20232 4.35981
#
# Compressibility (1/GPa) = 0.02972051
#
# Stress axis : x y z
#
# Youngs Moduli (GPa) = 84.70195 38.54081 55.95214
#
# Poissons Ratio (x) = 0.15526 0.18752
# Poissons Ratio (y) = 0.34122 0.31179
# Poissons Ratio (z) = 0.28387 0.21476
#
# Static dielectric constant tensor:
#      x y z
#    x 3.675780 0.000000 -0.145640 
#    y 0.000000 2.832850 0.000000 
#    z -0.145640 0.000000 3.252190 
# 
# 
# High freq. dielectric constant tensor:
#      x y z
#    x 1.698430 0.000000 -0.021060 
#    y 0.000000 1.625110 0.000000 
#    z -0.021060 0.000000 1.682380 
# 
# From -- ./inp_files/69295.got.cif
#   From: 2010.06.25/outbox.cif.g09.slc.cpg/sg10_35_cif.got.tgz:69295.got - 2010.06.27 22:07:45.
