data_PCOD8058091
_publ_section_title
;
Structure prediction by ZEFSAII (Michael W. Deem and Ramdas Pophale) SiO2 
 PCOD8058091
Probable space group: P 2/M
;
_chemical_formula_sum "Si O2"
_cell_formula_units_Z 30
_cell_length_a 15.212967
_cell_length_b 9.756967
_cell_length_c 11.877175
_cell_angle_alpha 90.000000
_cell_angle_beta 78.341315
_cell_angle_gamma 90.000000
_cell_volume 1726.585827
_symmetry_space_group_name_H-M "P 2/M"
_symmetry_group_IT_number 10
_symmetry_cell_setting 'monoclinic'
loop_
_space_group_symop_operation_xyz
x,y,z
-x,y,-z
-x,-y,-z
x,-y,z
loop_
_atom_site_type_symbol
_atom_site_label
_atom_site_fract_x
_atom_site_fract_y
_atom_site_fract_z
Si Si1 0.196579 0.655299 0.987563
Si Si2 0.400411 0.158755 0.557410
Si Si3 0.246536 0.842183 0.423060
Si Si4 0.291829 0.653923 0.737535
Si Si5 0.134008 0.655627 0.600298
Si Si6 0.000000 0.750584 0.000000
Si Si7 0.000192 0.150579 0.244790
Si Si8 0.792951 0.846827 0.811662
O O1 0.221762 0.500000 0.008248
O O2 0.252363 0.708147 0.865549
O O3 0.089487 0.660440 0.994336
O O4 0.231937 0.743879 0.082638
O O5 0.500000 0.206085 0.500000
O O6 0.338205 0.189362 0.465644
O O7 0.369514 0.245111 0.674214
O O8 0.397195 0.000000 0.593071
O O9 0.167139 0.742021 0.484473
O O10 0.264037 0.813529 0.286234
O O11 0.216482 0.000000 0.449807
O O12 0.330946 0.500000 0.738553
O O13 0.210615 0.654669 0.672537
O O14 0.108751 0.500000 0.571046
O O15 0.047883 0.728222 0.676090
O O16 0.014115 0.842732 0.886069
O O17 0.103602 0.166420 0.249647
O O18 0.964402 0.000000 0.291318
O O19 0.771838 0.000000 0.860677
#
# Coordination Sequence:
#
# PCOD8058091 Si02
#       8
#     4   4   4   4   4   2   4   4
#     4  10  19  31  49  71  99 133 169 208 246 283
#     4   9  18  33  56  83 100 117 153 201 252 303
#     4   9  18  35  53  69  96 129 157 197 249 297
#     4   9  18  32  48  73 103 130 159 197 247 297
#     4  10  19  31  47  69  96 127 166 208 247 289
#     4  10  18  30  46  68  96 132 172 216 246 276
#     4  10  19  30  44  65  93 129 172 210 241 281
#     4   9  20  34  47  67  95 132 172 201 237 290
#
# _framework density 17.375332
#
# number of rings (size 3 to 8) (size 9 to 14) (size 15 to 20)
#    0.000    2.533    1.333    0.800    0.000    5.067 
#    0.000    2.667    0.000    0.800    0.000    5.600 
#    0.000    0.000    0.000    0.000    0.000    0.000 
#
# Total GULP energy -371928.259692 kJ/mol
# GULP energy per Si atom -12397.608656 kJ/mol
# Density = 1.733578 g / cm^3
# Si number density = 17.375332 Si / 1000 Ang^3
#
#
#
# Elastic Constant Matrix: (Units=GPa)
#
#
# Indices 1 2 3 4 5 6 
#
# 1 47.8115 32.3273 43.6370 0.0000 -6.2295 0.0000
# 2 32.3273 105.0477 64.7057 0.0000 -8.7954 0.0000
# 3 43.6370 64.7057 119.1889 0.0000 -3.8715 0.0000
# 4 0.0000 0.0000 0.0000 32.8638 0.0000 -4.2158
# 5 -6.2295 -8.7954 -3.8715 0.0000 23.5211 0.0000
# 6 0.0000 0.0000 0.0000 -4.2158 0.0000 17.3723
#
#
#
# Elastic Compliance Matrix: (Units=1/GPa)
#
#
# Indices 1 2 3 4 5 6 
#
# 1 0.033255 -0.003551 -0.010059 0.000000 0.005824 0.000000
# 2 -0.003551 0.015084 -0.006772 0.000000 0.003585 0.000000
# 3 -0.010059 -0.006772 0.015664 0.000000 -0.002618 0.000000
# 4 0.000000 0.000000 0.000000 0.031406 0.000000 0.007622
# 5 0.005824 0.003585 -0.002618 0.000000 0.044967 0.000000
# 6 0.000000 0.000000 0.000000 0.007622 0.000000 0.059412
#
#
# Mechanical properties :
#
#
# Convention : Reuss Voigt Hill
#
# Bulk Modulus (GPa) = 43.02865 61.48756 52.25811
# Shear Modulus (GPa) = 20.13696 23.50998 21.82347
#
# Velocity S-wave (km/s) = 3.40801 3.68240 3.54786
# Velocity P-wave (km/s) = 6.34855 7.31743 6.85014
#
# Compressibility (1/GPa) = 0.02324033
#
# Stress axis : x y z
#
# Youngs Moduli (GPa) = 30.07032 66.29585 63.83966
#
# Poissons Ratio (x) = 0.23539 0.64214
# Poissons Ratio (y) = 0.10677 0.43235
# Poissons Ratio (z) = 0.30246 0.44898
#
# Static dielectric constant tensor:
#      x y z
#    x 2.969090 0.000000 0.034520 
#    y 0.000000 3.392380 0.000000 
#    z 0.034520 0.000000 3.237610 
# 
# 
# High freq. dielectric constant tensor:
#      x y z
#    x 1.634310 0.000000 0.005510 
#    y 0.000000 1.677370 0.000000 
#    z 0.005510 0.000000 1.669740 
# 
# From -- ./inp_files/52673.got.cif
#   From: 2010.06.25/outbox.cif.g09.slc.cpg/sg10_27_cif.got.tgz:52673.got - 2010.06.27 22:07:45.
