data_PCOD8058129
_publ_section_title
;
Structure prediction by ZEFSAII (Michael W. Deem and Ramdas Pophale) SiO2 
 PCOD8058129
Probable space group: P 2/M
;
_chemical_formula_sum "Si O2"
_cell_formula_units_Z 32
_cell_length_a 10.427570
_cell_length_b 9.339954
_cell_length_c 22.582699
_cell_angle_alpha 90.000000
_cell_angle_beta 55.085514
_cell_angle_gamma 90.000000
_cell_volume 1803.521650
_symmetry_space_group_name_H-M "P 2/M"
_symmetry_group_IT_number 10
_symmetry_cell_setting 'monoclinic'
loop_
_space_group_symop_operation_xyz
x,y,z
-x,y,-z
-x,-y,-z
x,-y,z
loop_
_atom_site_type_symbol
_atom_site_label
_atom_site_fract_x
_atom_site_fract_y
_atom_site_fract_z
Si Si1 0.959640 0.334155 0.916050
Si Si2 0.250123 0.334203 0.919583
Si Si3 0.026413 0.830052 0.785220
Si Si4 0.511035 0.169944 0.790789
Si Si5 0.865387 0.829992 0.707632
Si Si6 0.618524 0.830065 0.300344
Si Si7 0.934293 0.829189 0.455150
Si Si8 0.417983 0.170825 0.462508
O O1 0.967565 0.500000 0.896218
O O2 0.934928 0.239595 0.864265
O O3 0.118792 0.287660 0.906923
O O4 0.812952 0.305095 0.997754
O O5 0.292243 0.500000 0.900188
O O6 0.404699 0.239893 0.869738
O O7 0.946702 0.775043 0.746045
O O8 0.204934 0.775133 0.737991
O O9 0.015786 0.000000 0.794379
O O10 0.687575 0.224819 0.752729
O O11 0.451268 0.225492 0.742983
O O12 0.498564 0.000000 0.799766
O O13 0.958868 0.768484 0.626323
O O14 0.869813 0.000000 0.703954
O O15 0.512404 0.767954 0.381292
O O16 0.614632 0.000000 0.303215
O O17 0.758737 0.771171 0.492976
O O18 0.000000 0.770723 0.500000
O O19 0.935994 0.000000 0.454365
O O20 0.500000 0.229490 0.500000
O O21 0.419172 0.000000 0.461563
#
# Coordination Sequence:
#
# PCOD8058129 Si02
#       8
#     4   4   4   4   4   4   4   4
#     4   9  18  33  52  73  96 121 152 195 240 280
#     4   9  18  33  52  73  96 120 152 197 240 278
#     4  10  18  30  47  70  99 130 158 190 237 286
#     4  10  18  30  47  70  97 126 157 194 234 276
#     4   9  18  29  42  64 100 134 158 192 238 280
#     4   9  16  25  40  64  92 120 157 199 232 268
#     4   9  15  24  38  57  86 129 166 187 223 280
#     4   9  15  22  34  55  86 121 153 188 230 272
#
# _framework density 17.743064
#
# number of rings (size 3 to 8) (size 9 to 14) (size 15 to 20)
#    0.000    2.750    1.250    2.250    0.000    6.500 
#    0.000    2.500    0.000    3.750    0.000    0.000 
#    0.000   20.000    0.000    0.000    0.000    0.000 
#
# Total GULP energy -396785.763391 kJ/mol
# GULP energy per Si atom -12399.555106 kJ/mol
# Density = 1.770268 g / cm^3
# Si number density = 17.743064 Si / 1000 Ang^3
#
#
#
# Elastic Constant Matrix: (Units=GPa)
#
#
# Indices 1 2 3 4 5 6 
#
# 1 155.0796 22.2495 82.6234 0.0000 -2.2531 0.0000
# 2 22.2495 19.3567 33.4138 0.0000 -0.3341 0.0000
# 3 82.6234 33.4138 160.6322 0.0000 -2.8917 0.0000
# 4 0.0000 0.0000 0.0000 2.1649 0.0000 0.4942
# 5 -2.2531 -0.3341 -2.8917 0.0000 32.7202 0.0000
# 6 0.0000 0.0000 0.0000 0.4942 0.0000 10.9877
#
#
#
# Elastic Compliance Matrix: (Units=1/GPa)
#
#
# Indices 1 2 3 4 5 6 
#
# 1 0.009050 -0.003699 -0.003882 0.000000 0.000242 0.000000
# 2 -0.003699 0.082131 -0.015196 0.000000 -0.000759 0.000000
# 3 -0.003882 -0.015196 0.011393 0.000000 0.000584 0.000000
# 4 0.000000 0.000000 0.000000 0.466698 0.000000 -0.020989
# 5 0.000242 -0.000759 0.000584 0.000000 0.030623 0.000000
# 6 0.000000 0.000000 0.000000 -0.020989 0.000000 0.091955
#
#
# Mechanical properties :
#
#
# Convention : Reuss Voigt Hill
#
# Bulk Modulus (GPa) = 17.53670 67.96023 42.74846
# Shear Modulus (GPa) = 6.61018 22.29335 14.45176
#
# Velocity S-wave (km/s) = 1.93225 3.54850 2.85704
# Velocity P-wave (km/s) = 3.85788 7.42796 5.91853
#
# Compressibility (1/GPa) = 0.05702328
#
# Stress axis : x y z
#
# Youngs Moduli (GPa) = 110.49175 12.17568 87.77043
#
# Poissons Ratio (x) = 0.04503 0.34068
# Poissons Ratio (y) = 0.40866 1.33373
# Poissons Ratio (z) = 0.42888 0.18502
#
# Static dielectric constant tensor:
#      x y z
#    x 3.365650 0.000000 -0.009450 
#    y 0.000000 2.647720 0.000000 
#    z -0.009450 0.000000 3.446760 
# 
# 
# High freq. dielectric constant tensor:
#      x y z
#    x 1.685850 0.000000 -0.001260 
#    y 0.000000 1.620340 0.000000 
#    z -0.001260 0.000000 1.702700 
# 
# From -- ./inp_files/32203.got.cif
#   From: 2010.06.25/outbox.cif.g09.slc.cpg/sg10_17_cif.got.tgz:32203.got - 2010.06.27 22:07:45.
