data_PCOD8058902
_publ_section_title
;
Structure prediction by ZEFSAII (Michael W. Deem and Ramdas Pophale) SiO2 
 PCOD8058902
Probable space group: P 2/M
;
_chemical_formula_sum "Si O2"
_cell_formula_units_Z 30
_cell_length_a 31.835964
_cell_length_b 9.295229
_cell_length_c 12.335833
_cell_angle_alpha 90.000000
_cell_angle_beta 154.033111
_cell_angle_gamma 90.000000
_cell_volume 1598.356254
_symmetry_space_group_name_H-M "P 2/M"
_symmetry_group_IT_number 10
_symmetry_cell_setting 'monoclinic'
loop_
_space_group_symop_operation_xyz
x,y,z
-x,y,-z
-x,-y,-z
x,-y,z
loop_
_atom_site_type_symbol
_atom_site_label
_atom_site_fract_x
_atom_site_fract_y
_atom_site_fract_z
Si Si1 0.017506 0.832131 0.914223
Si Si2 0.164731 0.331773 0.568821
Si Si3 0.293286 0.341041 0.072889
Si Si4 0.686647 0.665378 0.261564
Si Si5 0.205510 0.668763 0.275027
Si Si6 0.515003 0.158636 0.772725
Si Si7 0.500000 0.254672 0.500000
Si Si8 0.702341 0.168140 0.707086
O O1 0.930370 0.763910 0.644103
O O2 0.027844 0.000000 0.908931
O O3 0.000000 0.807566 0.000000
O O4 0.111661 0.747244 0.099390
O O5 0.137266 0.500000 0.494706
O O6 0.225068 0.276136 0.605210
O O7 0.228208 0.298873 0.820680
O O8 0.266379 0.500000 0.053787
O O9 0.404940 0.349301 0.297159
O O10 0.270269 0.222518 0.109753
O O11 0.672959 0.500000 0.200874
O O12 0.709576 0.691838 0.440701
O O13 0.586809 0.735476 0.998286
O O14 0.184109 0.500000 0.208363
O O15 0.236983 0.740377 0.236592
O O16 0.517355 0.159678 0.647422
O O17 0.409802 0.197717 0.572978
O O18 0.544473 0.000000 0.878368
O O19 0.728021 0.000000 0.757437
#
# Coordination Sequence:
#
# PCOD8058902 Si02
#       8
#     4   4   4   4   4   4   2   4
#     4  11  23  38  60  91 119 150 189 236 293 351
#     4  10  20  37  58  88 122 152 189 239 292 343
#     4  10  20  35  59  87 117 154 196 239 286 340
#     4  10  21  36  57  87 119 151 192 240 291 340
#     4  11  23  41  64  85 113 154 196 242 290 345
#     4  10  21  35  54  82 118 160 198 236 288 343
#     4  10  18  32  54  86 118 154 196 242 284 334
#     4  10  23  41  58  82 119 159 198 240 286 345
#
# _framework density 18.769282
#
# number of rings (size 3 to 8) (size 9 to 14) (size 15 to 20)
#    0.000    1.733    2.667    1.600    0.000    6.400 
#    0.000    3.333    0.000    4.000    0.000    0.000 
#    0.000    0.000    0.000    0.000    0.000    0.000 
#
# Total GULP energy -372020.044225 kJ/mol
# GULP energy per Si atom -12400.668141 kJ/mol
# Density = 1.872656 g / cm^3
# Si number density = 18.769282 Si / 1000 Ang^3
#
#
#
# Elastic Constant Matrix: (Units=GPa)
#
#
# Indices 1 2 3 4 5 6 
#
# 1 100.8363 55.8464 34.2016 0.0000 2.6441 0.0000
# 2 55.8464 109.8785 55.2043 0.0000 2.6976 0.0000
# 3 34.2016 55.2043 99.6177 0.0000 -5.5952 0.0000
# 4 0.0000 0.0000 0.0000 24.9597 0.0000 8.0423
# 5 2.6441 2.6976 -5.5952 0.0000 20.6948 0.0000
# 6 0.0000 0.0000 0.0000 8.0423 0.0000 26.0575
#
#
#
# Elastic Compliance Matrix: (Units=1/GPa)
#
#
# Indices 1 2 3 4 5 6 
#
# 1 0.013937 -0.006390 -0.001317 0.000000 -0.001304 0.000000
# 2 -0.006390 0.015810 -0.006740 0.000000 -0.003067 0.000000
# 3 -0.001317 -0.006740 0.014505 0.000000 0.004968 0.000000
# 4 0.000000 0.000000 0.000000 0.044489 0.000000 -0.013731
# 5 -0.001304 -0.003067 0.004968 0.000000 0.050231 0.000000
# 6 0.000000 0.000000 0.000000 -0.013731 0.000000 0.042615
#
#
# Mechanical properties :
#
#
# Convention : Reuss Voigt Hill
#
# Bulk Modulus (GPa) = 65.11238 66.75967 65.93602
# Shear Modulus (GPa) = 23.19122 25.34772 24.26947
#
# Velocity S-wave (km/s) = 3.51892 3.67889 3.59979
# Velocity P-wave (km/s) = 7.16077 7.32744 7.24458
#
# Compressibility (1/GPa) = 0.01535806
#
# Stress axis : x y z
#
# Youngs Moduli (GPa) = 71.75223 63.25109 68.94356
#
# Poissons Ratio (x) = 0.40415 0.09081
# Poissons Ratio (y) = 0.45847 0.46466
# Poissons Ratio (z) = 0.09451 0.42630
#
# Static dielectric constant tensor:
#      x y z
#    x 3.408220 0.000000 -0.001930 
#    y 0.000000 3.445370 0.000000 
#    z -0.001930 0.000000 3.390800 
# 
# 
# High freq. dielectric constant tensor:
#      x y z
#    x 1.721500 0.000000 -0.002740 
#    y 0.000000 1.734120 0.000000 
#    z -0.002740 0.000000 1.729910 
# 
# From -- ./inp_files/58027.got.cif
#   From: 2010.06.25/outbox.cif.g09.slc.cpg/sg10_30_cif.got.tgz:58027.got - 2010.06.27 22:07:45.
