data_PCOD8058566
_publ_section_title
;
Structure prediction by ZEFSAII (Michael W. Deem and Ramdas Pophale) SiO2 
 PCOD8058566
Probable space group: P 2/M
;
_chemical_formula_sum "Si O2"
_cell_formula_units_Z 30
_cell_length_a 22.093741
_cell_length_b 9.495176
_cell_length_c 11.414921
_cell_angle_alpha 90.000000
_cell_angle_beta 135.352987
_cell_angle_gamma 90.000000
_cell_volume 1682.821465
_symmetry_space_group_name_H-M "P 2/M"
_symmetry_group_IT_number 10
_symmetry_cell_setting 'monoclinic'
loop_
_space_group_symop_operation_xyz
x,y,z
-x,y,-z
-x,-y,-z
x,-y,z
loop_
_atom_site_type_symbol
_atom_site_label
_atom_site_fract_x
_atom_site_fract_y
_atom_site_fract_z
Si Si1 0.000000 0.754317 0.000000
Si Si2 0.866888 0.840890 0.632342
Si Si3 0.083991 0.166014 0.553844
Si Si4 0.578751 0.833205 0.450831
Si Si5 0.729074 0.664356 0.569127
Si Si6 0.392573 0.166033 0.245198
Si Si7 0.851417 0.344600 0.949919
Si Si8 0.792115 0.833938 0.074987
O O1 0.939254 0.848075 0.833111
O O2 0.940632 0.658671 0.001166
O O3 0.906305 0.779676 0.565586
O O4 0.788592 0.737153 0.553777
O O5 0.831601 0.000000 0.567131
O O6 0.168517 0.207489 0.745298
O O7 0.000000 0.234756 0.500000
O O8 0.071364 0.000000 0.533203
O O9 0.636943 0.743335 0.441662
O O10 0.602690 0.782730 0.614637
O O11 0.478454 0.790696 0.291315
O O12 0.594679 0.000000 0.454150
O O13 0.717627 0.500000 0.522444
O O14 0.772049 0.687426 0.754622
O O15 0.389116 0.000000 0.243541
O O16 0.305934 0.225368 0.064652
O O17 0.841917 0.500000 0.991110
O O18 0.850371 0.232165 0.052614
O O19 0.795542 0.000000 0.057923
#
# Coordination Sequence:
#
# PCOD8058566 Si02
#       8
#     2   4   4   4   4   4   4   4
#     4  10  20  32  50  70  96 126 164 204 244 290
#     4  10  20  34  52  74  96 126 166 204 247 293
#     4   9  18  32  50  74 101 125 158 207 248 282
#     4   9  15  28  48  72 102 129 160 199 243 292
#     4  10  20  32  47  71 103 133 161 198 245 293
#     4   8  15  26  46  75 101 127 159 200 244 288
#     4  10  20  32  46  68  99 131 161 198 244 289
#     4  10  18  31  52  73  97 129 163 199 242 293
#
# _framework density 17.827203999999998
#
# number of rings (size 3 to 8) (size 9 to 14) (size 15 to 20)
#    0.000    2.533    1.333    2.400    0.000    4.267 
#    0.000    2.667    0.000    2.400    0.000    5.600 
#    0.000    0.000    0.000    0.000    0.000    0.000 
#
# Total GULP energy -371845.809522 kJ/mol
# GULP energy per Si atom -12394.860317 kJ/mol
# Density = 1.778663 g / cm^3
# Si number density = 17.827204 Si / 1000 Ang^3
#
#
#
# Elastic Constant Matrix: (Units=GPa)
#
#
# Indices 1 2 3 4 5 6 
#
# 1 136.8785 44.4787 60.4137 0.0000 11.8373 0.0000
# 2 44.4787 63.9429 21.4070 0.0000 2.6214 0.0000
# 3 60.4137 21.4070 90.0755 0.0000 8.1651 0.0000
# 4 0.0000 0.0000 0.0000 10.6002 0.0000 1.0948
# 5 11.8373 2.6214 8.1651 0.0000 31.8551 0.0000
# 6 0.0000 0.0000 0.0000 1.0948 0.0000 15.1766
#
#
#
# Elastic Compliance Matrix: (Units=1/GPa)
#
#
# Indices 1 2 3 4 5 6 
#
# 1 0.012534 -0.006387 -0.006669 0.000000 -0.002423 0.000000
# 2 -0.006387 0.020249 -0.000607 0.000000 0.000863 0.000000
# 3 -0.006669 -0.000607 0.015858 0.000000 -0.001537 0.000000
# 4 0.000000 0.000000 0.000000 0.095046 0.000000 -0.006856
# 5 -0.002423 0.000863 -0.001537 0.000000 0.032615 0.000000
# 6 0.000000 0.000000 0.000000 -0.006856 0.000000 0.066386
#
#
# Mechanical properties :
#
#
# Convention : Reuss Voigt Hill
#
# Bulk Modulus (GPa) = 46.91296 60.38841 53.65068
# Shear Modulus (GPa) = 18.04269 22.49953 20.27111
#
# Velocity S-wave (km/s) = 3.18478 3.55644 3.37573
# Velocity P-wave (km/s) = 6.31635 7.12827 6.73456
#
# Compressibility (1/GPa) = 0.02131607
#
# Stress axis : x y z
#
# Youngs Moduli (GPa) = 79.78148 49.38417 63.05797
#
# Poissons Ratio (x) = 0.31540 0.42055
# Poissons Ratio (y) = 0.50954 0.03828
# Poissons Ratio (z) = 0.53208 0.02998
#
# Static dielectric constant tensor:
#      x y z
#    x 3.390630 0.000000 0.263010 
#    y 0.000000 2.959220 0.000000 
#    z 0.263010 0.000000 3.444340 
# 
# 
# High freq. dielectric constant tensor:
#      x y z
#    x 1.689180 0.000000 0.019290 
#    y 0.000000 1.659680 0.000000 
#    z 0.019290 0.000000 1.669700 
# 
# From -- ./inp_files/56641.got.cif
#   From: 2010.06.25/outbox.cif.g09.slc.cpg/sg10_29_cif.got.tgz:56641.got - 2010.06.27 22:07:45.
