data_PCOD8058270
_publ_section_title
;
Structure prediction by ZEFSAII (Michael W. Deem and Ramdas Pophale) SiO2 
 PCOD8058270
Probable space group: P 2/M
;
_chemical_formula_sum "Si O2"
_cell_formula_units_Z 28
_cell_length_a 19.357371
_cell_length_b 8.891209
_cell_length_c 15.428233
_cell_angle_alpha 90.000000
_cell_angle_beta 37.456038
_cell_angle_gamma 90.000000
_cell_volume 1614.863787
_symmetry_space_group_name_H-M "P 2/M"
_symmetry_group_IT_number 10
_symmetry_cell_setting 'monoclinic'
loop_
_space_group_symop_operation_xyz
x,y,z
-x,y,-z
-x,-y,-z
x,-y,z
loop_
_atom_site_type_symbol
_atom_site_label
_atom_site_fract_x
_atom_site_fract_y
_atom_site_fract_z
Si Si1 0.761657 0.821554 0.407668
Si Si2 0.627930 0.322424 0.048820
Si Si3 0.241220 0.821919 0.924661
Si Si4 0.373636 0.821366 0.624346
Si Si5 0.000164 0.822169 0.902261
Si Si6 0.634616 0.168655 0.866863
Si Si7 0.633012 0.677608 0.693047
O O1 0.687717 0.763121 0.400568
O O2 0.716302 0.740767 0.537664
O O3 0.890566 0.769005 0.261094
O O4 0.751714 0.000000 0.430000
O O5 0.637151 0.500000 0.033453
O O6 0.708669 0.262148 0.043169
O O7 0.497265 0.272463 0.196177
O O8 0.675870 0.254089 0.911745
O O9 0.308309 0.763511 0.773767
O O10 0.254586 0.000000 0.924543
O O11 0.110633 0.773055 0.041309
O O12 0.500000 0.753886 0.500000
O O13 0.374886 0.000000 0.623044
O O14 0.003011 0.000000 0.910225
O O15 0.000000 0.752682 0.000000
O O16 0.677934 0.256338 0.739112
O O17 0.684885 0.000000 0.816517
O O18 0.500000 0.165384 0.000000
O O19 0.642902 0.500000 0.687480
#
# Coordination Sequence:
#
# PCOD8058270 Si02
#       7
#     4   4   4   4   4   4   4
#     4  10  18  30  50  73  99 131 171 214 252 295
#     4  10  20  33  49  73 106 138 165 199 250 306
#     4  10  18  30  50  73  99 131 171 214 252 295
#     4   9  16  25  42  70  99 127 162 205 248 290
#     4   9  16  30  51  74  97 128 173 221 260 290
#     4   9  17  31  53  78 101 128 165 205 245 297
#     4  10  20  33  49  73 106 138 165 199 250 306
#
# _framework density 17.338925
#
# number of rings (size 3 to 8) (size 9 to 14) (size 15 to 20)
#    0.000    2.429    1.429    2.143    0.000    4.571 
#    0.000    1.429    0.000    4.286    0.000    6.000 
#    0.000    0.000    0.000    0.000    0.000    0.000 
#
# Total GULP energy -347176.466613 kJ/mol
# GULP energy per Si atom -12399.159522 kJ/mol
# Density = 1.729946 g / cm^3
# Si number density = 17.338925 Si / 1000 Ang^3
#
#
#
# Elastic Constant Matrix: (Units=GPa)
#
#
# Indices 1 2 3 4 5 6 
#
# 1 96.1629 39.7702 106.3271 0.0000 22.3873 0.0000
# 2 39.7702 56.8895 42.2051 0.0000 8.5313 0.0000
# 3 106.3271 42.2051 133.0086 0.0000 6.0858 0.0000
# 4 0.0000 0.0000 0.0000 5.2526 0.0000 -12.1233
# 5 22.3873 8.5313 6.0858 0.0000 33.8723 0.0000
# 6 0.0000 0.0000 0.0000 -12.1233 0.0000 1.4349
#
#
#
# Elastic Compliance Matrix: (Units=1/GPa)
#
#
# Indices 1 2 3 4 5 6 
#
# 1 0.535723 -0.032864 -0.405339 0.000000 -0.272973 0.000000
# 2 -0.032864 0.025712 0.017560 0.000000 0.012090 0.000000
# 3 -0.405339 0.017560 0.316521 0.000000 0.206610 0.000000
# 4 0.000000 0.000000 0.000000 -0.010290 0.000000 -0.086944
# 5 -0.272973 0.012090 0.206610 0.000000 0.169773 0.000000
# 6 0.000000 0.000000 0.000000 -0.086944 0.000000 -0.037670
#
#
# Mechanical properties :
#
#
# Convention : Reuss Voigt Hill
#
# Bulk Modulus (GPa) = 27.27072 73.62954 50.45013
# Shear Modulus (GPa) = 2.69792 14.62919 8.66356
#
# Velocity S-wave (km/s) = 1.24875 2.90784 2.23773
# Velocity P-wave (km/s) = 4.22390 7.33697 5.98634
#
# Compressibility (1/GPa) = 0.03666937
#
# Stress axis : x y z
#
# Youngs Moduli (GPa) = 1.86664 38.89172 3.15935
#
# Poissons Ratio (x) = 1.27814 1.28061
# Poissons Ratio (y) = 0.06135 -0.05548
# Poissons Ratio (z) = 0.75662 -0.68292
#
# Static dielectric constant tensor:
#      x y z
#    x 3.305300 0.000000 0.037510 
#    y 0.000000 2.970480 0.000000 
#    z 0.037510 0.000000 3.318270 
# 
# 
# High freq. dielectric constant tensor:
#      x y z
#    x 1.668030 0.000000 0.013380 
#    y 0.000000 1.644590 0.000000 
#    z 0.013380 0.000000 1.662210 
# 
# From -- ./inp_files/68594.got.cif
#   From: 2010.06.25/outbox.cif.g09.slc.cpg/sg10_35_cif.got.tgz:68594.got - 2010.06.27 22:07:45.
