data_PCOD8058700
_publ_section_title
;
Structure prediction by ZEFSAII (Michael W. Deem and Ramdas Pophale) SiO2 
 PCOD8058700
Probable space group: P 2/M
;
_chemical_formula_sum "Si O2"
_cell_formula_units_Z 24
_cell_length_a 13.377554
_cell_length_b 13.699136
_cell_length_c 10.721626
_cell_angle_alpha 90.000000
_cell_angle_beta 33.862548
_cell_angle_gamma 90.000000
_cell_volume 1094.822101
_symmetry_space_group_name_H-M "P 2/M"
_symmetry_group_IT_number 10
_symmetry_cell_setting 'monoclinic'
loop_
_space_group_symop_operation_xyz
x,y,z
-x,y,-z
-x,-y,-z
x,-y,z
loop_
_atom_site_type_symbol
_atom_site_label
_atom_site_fract_x
_atom_site_fract_y
_atom_site_fract_z
Si Si1 0.742603 0.607415 0.017798
Si Si2 0.207698 0.389241 0.310552
Si Si3 0.411446 0.202598 0.724529
Si Si4 0.265475 0.239445 0.464672
Si Si5 0.900424 0.391941 0.222474
Si Si6 0.034997 0.112856 0.106797
O O1 0.679023 0.500000 0.127395
O O2 0.650398 0.684978 0.203909
O O3 0.690445 0.624334 0.927254
O O4 0.960420 0.612052 0.805271
O O5 0.249218 0.500000 0.320912
O O6 0.274035 0.298387 0.325995
O O7 0.000000 0.378595 0.500000
O O8 0.500000 0.178217 0.500000
O O9 0.553414 0.179794 0.690051
O O10 0.242253 0.132741 0.924274
O O11 0.265234 0.323055 0.572841
O O12 0.089621 0.171997 0.665904
O O13 0.828709 0.500000 0.268281
O O14 0.000000 0.347818 0.000000
O O15 0.990733 0.000000 0.173032
O O16 0.000000 0.144466 0.000000
#
# Coordination Sequence:
#
# PCOD8058700 Si02
#       6
#     4   4   4   4   4   4
#     4  10  21  37  57  89 134 177 216 255 298 361
#     4  10  19  36  63  92 130 180 225 259 297 361
#     4  12  24  39  64  96 131 163 209 262 320 388
#     4  12  22  37  65  94 126 165 213 259 319 374
#     4  10  18  31  55  85 127 170 203 248 305 365
#     4  11  24  45  69  94 126 159 203 270 338 397
#
# _framework density 21.92137
#
# number of rings (size 3 to 8) (size 9 to 14) (size 15 to 20)
#    0.000    1.167    5.000    2.000    0.000    3.333 
#    0.000    1.667    0.000    4.500    0.000    5.833 
#    0.000    0.000    0.000    0.000    0.000    0.000 
#
# Total GULP energy -297449.435694 kJ/mol
# GULP energy per Si atom -12393.726487 kJ/mol
# Density = 2.187148 g / cm^3
# Si number density = 21.921370 Si / 1000 Ang^3
#
#
#
# Elastic Constant Matrix: (Units=GPa)
#
#
# Indices 1 2 3 4 5 6 
#
# 1 104.6918 23.3849 25.5902 0.0000 -0.0710 0.0000
# 2 23.3849 84.9357 17.9823 0.0000 4.0729 0.0000
# 3 25.5902 17.9823 48.3737 0.0000 -15.2279 0.0000
# 4 0.0000 0.0000 0.0000 14.6706 0.0000 6.3529
# 5 -0.0710 4.0729 -15.2279 0.0000 35.6572 0.0000
# 6 0.0000 0.0000 0.0000 6.3529 0.0000 17.7892
#
#
#
# Elastic Compliance Matrix: (Units=1/GPa)
#
#
# Indices 1 2 3 4 5 6 
#
# 1 0.011445 -0.001728 -0.006173 0.000000 -0.002416 0.000000
# 2 -0.001728 0.013562 -0.005333 0.000000 -0.003830 0.000000
# 3 -0.006173 -0.005333 0.030163 0.000000 0.013478 0.000000
# 4 0.000000 0.000000 0.000000 0.080633 0.000000 -0.028795
# 5 -0.002416 -0.003830 0.013478 0.000000 0.034234 0.000000
# 6 0.000000 0.000000 0.000000 -0.028795 0.000000 0.066497
#
#
# Mechanical properties :
#
#
# Convention : Reuss Voigt Hill
#
# Bulk Modulus (GPa) = 34.83997 41.32400 38.08198
# Shear Modulus (GPa) = 18.34395 25.02632 21.68513
#
# Velocity S-wave (km/s) = 2.89590 3.38248 3.14860
# Velocity P-wave (km/s) = 5.20666 5.84353 5.53426
#
# Compressibility (1/GPa) = 0.02870267
#
# Stress axis : x y z
#
# Youngs Moduli (GPa) = 87.37391 73.73422 33.15303
#
# Poissons Ratio (x) = 0.12745 0.20464
# Poissons Ratio (y) = 0.15102 0.17680
# Poissons Ratio (z) = 0.53932 0.39322
#
# Static dielectric constant tensor:
#      x y z
#    x 4.071850 0.000000 -0.073850 
#    y 0.000000 3.756480 0.000000 
#    z -0.073850 0.000000 3.859560 
# 
# 
# High freq. dielectric constant tensor:
#      x y z
#    x 1.853690 0.000000 -0.006740 
#    y 0.000000 1.838350 0.000000 
#    z -0.006740 0.000000 1.853670 
# 
# From -- ./inp_files/51516.got.cif
#   From: 2010.06.25/outbox.cif.g09.slc.cpg/sg10_26_cif.got.tgz:51516.got - 2010.06.27 22:07:45.
