data_PCOD8058979
_publ_section_title
;
Structure prediction by ZEFSAII (Michael W. Deem and Ramdas Pophale) SiO2 
 PCOD8058979
Probable space group: P 2/M
;
_chemical_formula_sum "Si O2"
_cell_formula_units_Z 32
_cell_length_a 13.509010
_cell_length_b 14.085889
_cell_length_c 8.847108
_cell_angle_alpha 90.000000
_cell_angle_beta 110.113998
_cell_angle_gamma 90.000000
_cell_volume 1580.809195
_symmetry_space_group_name_H-M "P 2/M"
_symmetry_group_IT_number 10
_symmetry_cell_setting 'monoclinic'
loop_
_space_group_symop_operation_xyz
x,y,z
-x,y,-z
-x,-y,-z
x,-y,z
loop_
_atom_site_type_symbol
_atom_site_label
_atom_site_fract_x
_atom_site_fract_y
_atom_site_fract_z
Si Si1 0.898413 0.110273 0.870359
Si Si2 0.905484 0.796061 0.567935
Si Si3 0.303279 0.112557 0.058504
Si Si4 0.229644 0.394114 0.832092
Si Si5 0.293582 0.789505 0.728223
Si Si6 0.432953 0.393026 0.113211
Si Si7 0.008379 0.396420 0.326821
Si Si8 0.509364 0.786040 0.683035
O O1 0.908583 0.125232 0.697798
O O2 0.792459 0.152046 0.889094
O O3 0.898067 0.000000 0.906060
O O4 0.000000 0.159404 0.000000
O O5 0.801166 0.824756 0.424443
O O6 0.000000 0.805834 0.500000
O O7 0.910628 0.691655 0.654746
O O8 0.408430 0.141190 0.201506
O O9 0.302410 0.000000 0.033587
O O10 0.293840 0.162780 0.892168
O O11 0.235961 0.500000 0.766303
O O12 0.276335 0.323735 0.731329
O O13 0.107009 0.370166 0.804992
O O14 0.306650 0.386267 0.018011
O O15 0.399480 0.815045 0.698602
O O16 0.464845 0.500000 0.176515
O O17 0.460046 0.322647 0.263820
O O18 0.500000 0.361751 0.000000
O O19 0.046422 0.500000 0.280098
O O20 0.000000 0.409135 0.500000
O O21 0.500000 0.799680 0.500000
#
# Coordination Sequence:
#
# PCOD8058979 Si02
#       8
#     4   4   4   4   4   4   4   4
#     4  10  23  42  63  89 121 158 200 251 315 374
#     4  11  21  35  62  94 125 161 200 253 306 367
#     4  11  25  46  67  86 116 160 207 259 317 377
#     4  10  18  32  58  88 121 161 208 249 290 351
#     4  12  22  38  62  93 118 157 213 253 308 368
#     4  10  19  34  58  85 117 160 204 246 296 355
#     4   9  17  30  52  88 126 161 199 238 283 349
#     4  12  25  40  60  90 127 159 201 262 310 379
#
# _framework density 20.242796999999999
#
# number of rings (size 3 to 8) (size 9 to 14) (size 15 to 20)
#    0.000    1.375    5.000    1.875    0.000    2.250 
#    0.000    0.000    0.000    3.375    0.000    0.000 
#    0.000    0.000    0.000    0.000    0.000    0.000 
#
# Total GULP energy -396601.354259 kJ/mol
# GULP energy per Si atom -12393.792321 kJ/mol
# Density = 2.019672 g / cm^3
# Si number density = 20.242797 Si / 1000 Ang^3
#
#
#
# Elastic Constant Matrix: (Units=GPa)
#
#
# Indices 1 2 3 4 5 6 
#
# 1 124.1569 33.2607 65.4579 0.0000 12.3410 0.0000
# 2 33.2607 60.9276 34.5478 0.0000 -1.5605 0.0000
# 3 65.4579 34.5478 142.6337 0.0000 14.9611 0.0000
# 4 0.0000 0.0000 0.0000 29.2754 0.0000 2.5388
# 5 12.3410 -1.5605 14.9611 0.0000 38.0417 0.0000
# 6 0.0000 0.0000 0.0000 2.5388 0.0000 23.4070
#
#
#
# Elastic Compliance Matrix: (Units=1/GPa)
#
#
# Indices 1 2 3 4 5 6 
#
# 1 0.011506 -0.004037 -0.004061 0.000000 -0.002301 0.000000
# 2 -0.004037 0.020713 -0.003537 0.000000 0.003550 0.000000
# 3 -0.004061 -0.003537 0.010022 0.000000 -0.002769 0.000000
# 4 0.000000 0.000000 0.000000 0.034483 0.000000 -0.003740
# 5 -0.002301 0.003550 -0.002769 0.000000 0.028268 0.000000
# 6 0.000000 0.000000 0.000000 -0.003740 0.000000 0.043128
#
#
# Mechanical properties :
#
#
# Convention : Reuss Voigt Hill
#
# Bulk Modulus (GPa) = 52.71247 66.02792 59.37019
# Shear Modulus (GPa) = 28.13533 31.10826 29.62179
#
# Velocity S-wave (km/s) = 3.73217 3.92440 3.82949
# Velocity P-wave (km/s) = 6.68347 7.29543 6.99615
#
# Compressibility (1/GPa) = 0.01897084
#
# Stress axis : x y z
#
# Youngs Moduli (GPa) = 86.91420 48.27848 99.78343
#
# Poissons Ratio (x) = 0.19491 0.40522
# Poissons Ratio (y) = 0.35089 0.35290
# Poissons Ratio (z) = 0.35296 0.17074
#
# Static dielectric constant tensor:
#      x y z
#    x 3.806890 0.000000 0.423380 
#    y 0.000000 3.923750 0.000000 
#    z 0.423380 0.000000 3.639270 
# 
# 
# High freq. dielectric constant tensor:
#      x y z
#    x 1.779410 0.000000 0.032610 
#    y 0.000000 1.794340 0.000000 
#    z 0.032610 0.000000 1.785110 
# 
# From -- ./inp_files/29569.got.cif
#   From: 2010.06.25/outbox.cif.g09.slc.cpg/sg10_15_cif.got.tgz:29569.got - 2010.06.27 22:07:45.
