data_PCOD8058947
_publ_section_title
;
Structure prediction by ZEFSAII (Michael W. Deem and Ramdas Pophale) SiO2 
 PCOD8058947
Probable space group: P 2/M
;
_chemical_formula_sum "Si O2"
_cell_formula_units_Z 32
_cell_length_a 20.169089
_cell_length_b 8.438894
_cell_length_c 26.051825
_cell_angle_alpha 90.000000
_cell_angle_beta 21.156338
_cell_angle_gamma 90.000000
_cell_volume 1600.345251
_symmetry_space_group_name_H-M "P 2/M"
_symmetry_group_IT_number 10
_symmetry_cell_setting 'monoclinic'
loop_
_space_group_symop_operation_xyz
x,y,z
-x,y,-z
-x,-y,-z
x,-y,z
loop_
_atom_site_type_symbol
_atom_site_label
_atom_site_fract_x
_atom_site_fract_y
_atom_site_fract_z
Si Si1 0.452064 0.188026 0.359498
Si Si2 0.130212 0.188551 0.666996
Si Si3 0.616195 0.814346 0.800915
Si Si4 0.300281 0.314693 0.367881
Si Si5 0.234595 0.186343 0.121382
Si Si6 0.293271 0.810999 0.654203
Si Si7 0.187547 0.811437 0.841277
Si Si8 0.113959 0.684626 0.314209
O O1 0.289319 0.247219 0.513985
O O2 0.434392 0.275171 0.317993
O O3 0.643009 0.245111 0.246278
O O4 0.445937 0.000000 0.355713
O O5 0.171634 0.252405 0.694384
O O6 0.936412 0.259354 0.787252
O O7 0.126751 0.000000 0.669642
O O8 0.623808 0.781974 0.735142
O O9 0.783336 0.722811 0.707055
O O10 0.635732 0.000000 0.797931
O O11 0.424720 0.745778 0.961670
O O12 0.302115 0.500000 0.353620
O O13 0.095190 0.255556 0.529780
O O14 0.216824 0.225792 0.194063
O O15 0.233385 0.000000 0.115137
O O16 0.500000 0.745766 0.500000
O O17 0.207568 0.745795 0.768933
O O18 0.297467 0.000000 0.650991
O O19 0.182969 0.000000 0.843301
O O20 0.000000 0.741404 0.000000
O O21 0.119838 0.500000 0.297997
#
# Coordination Sequence:
#
# PCOD8058947 Si02
#       8
#     4   4   4   4   4   4   4   4
#     4  10  18  32  56  81 108 146 186 229 283 333
#     4   9  16  28  50  77 108 143 180 225 273 327
#     4  11  24  39  58  85 115 146 184 233 287 338
#     4  11  24  40  58  82 112 149 191 233 279 335
#     4  10  21  37  57  84 114 146 186 232 282 334
#     4   9  14  23  41  68 102 138 173 210 263 321
#     4   9  17  27  44  77 114 142 176 227 280 329
#     4  11  23  39  60  84 111 148 190 230 279 337
#
# _framework density 19.995685000000002
#
# number of rings (size 3 to 8) (size 9 to 14) (size 15 to 20)
#    0.000    2.000    2.500    1.875    0.000    6.500 
#    0.000    3.750    0.000    0.375    0.000    2.625 
#    0.000    0.000    0.000    0.000    0.000    0.000 
#
# Total GULP energy -396877.649922 kJ/mol
# GULP energy per Si atom -12402.426560 kJ/mol
# Density = 1.995017 g / cm^3
# Si number density = 19.995685 Si / 1000 Ang^3
#
#
#
# Elastic Constant Matrix: (Units=GPa)
#
#
# Indices 1 2 3 4 5 6 
#
# 1 153.3552 1.9068 53.9811 0.0000 2.6786 0.0000
# 2 1.9068 14.4320 15.3944 0.0000 -3.3989 0.0000
# 3 53.9811 15.3944 121.4196 0.0000 8.7289 0.0000
# 4 0.0000 0.0000 0.0000 13.0788 0.0000 0.9852
# 5 2.6786 -3.3989 8.7289 0.0000 38.7683 0.0000
# 6 0.0000 0.0000 0.0000 0.9852 0.0000 5.4713
#
#
#
# Elastic Compliance Matrix: (Units=1/GPa)
#
#
# Indices 1 2 3 4 5 6 
#
# 1 0.007864 0.003343 -0.003966 0.000000 0.000643 0.000000
# 2 0.003343 0.085118 -0.013009 0.000000 0.010160 0.000000
# 3 -0.003966 -0.013009 0.011904 0.000000 -0.003547 0.000000
# 4 0.000000 0.000000 0.000000 0.077511 0.000000 -0.013957
# 5 0.000643 0.010160 -0.003547 0.000000 0.027439 0.000000
# 6 0.000000 0.000000 0.000000 -0.013957 0.000000 0.185285
#
#
# Mechanical properties :
#
#
# Convention : Reuss Voigt Hill
#
# Bulk Modulus (GPa) = 12.88293 47.97460 30.42876
# Shear Modulus (GPa) = 11.15427 25.99197 18.57312
#
# Velocity S-wave (km/s) = 2.36441 3.60929 3.05102
# Velocity P-wave (km/s) = 3.72971 6.43536 5.25950
#
# Compressibility (1/GPa) = 0.07762212
#
# Stress axis : x y z
#
# Youngs Moduli (GPa) = 127.15884 11.74841 84.00833
#
# Poissons Ratio (x) = -0.03928 0.33321
# Poissons Ratio (y) = -0.42512 1.09283
# Poissons Ratio (z) = 0.50436 0.15283
#
# Static dielectric constant tensor:
#      x y z
#    x 3.792750 0.000000 -0.084460 
#    y 0.000000 3.085860 0.000000 
#    z -0.084460 0.000000 3.859830 
# 
# 
# High freq. dielectric constant tensor:
#      x y z
#    x 1.796570 0.000000 -0.001520 
#    y 0.000000 1.733080 0.000000 
#    z -0.001520 0.000000 1.784050 
# 
# From -- ./inp_files/93576.got.cif
#   From: 2010.06.25/outbox.cif.g09.slc.cpg/sg10_47_cif.got.tgz:93576.got - 2010.06.27 22:07:45.
