data_PCOD8058597
_publ_section_title
;
Structure prediction by ZEFSAII (Michael W. Deem and Ramdas Pophale) SiO2 
 PCOD8058597
Probable space group: P 2/M
;
_chemical_formula_sum "Si O2"
_cell_formula_units_Z 24
_cell_length_a 22.056556
_cell_length_b 8.021173
_cell_length_c 9.884807
_cell_angle_alpha 90.000000
_cell_angle_beta 49.390825
_cell_angle_gamma 90.000000
_cell_volume 1327.642509
_symmetry_space_group_name_H-M "P 2/M"
_symmetry_group_IT_number 10
_symmetry_cell_setting 'monoclinic'
loop_
_space_group_symop_operation_xyz
x,y,z
-x,y,-z
-x,-y,-z
x,-y,z
loop_
_atom_site_type_symbol
_atom_site_label
_atom_site_fract_x
_atom_site_fract_y
_atom_site_fract_z
Si Si1 0.322350 0.692037 0.127966
Si Si2 0.489292 0.812896 0.856268
Si Si3 0.075278 0.500000 0.295315
Si Si4 0.223233 0.686680 0.798814
Si Si5 0.341551 0.304710 0.403426
Si Si6 0.811005 0.813681 0.868617
Si Si7 0.075017 0.500000 0.987700
O O1 0.296255 0.500000 0.162373
O O2 0.324508 0.766552 0.277923
O O3 0.259539 0.800797 0.137329
O O4 0.410249 0.709016 0.932333
O O5 0.569343 0.737066 0.673381
O O6 0.478236 0.000000 0.819430
O O7 0.500000 0.804028 0.000000
O O8 0.125048 0.668271 0.251771
O O9 0.044374 0.500000 0.186449
O O10 0.000000 0.500000 0.500000
O O11 0.254990 0.500000 0.791912
O O12 0.277509 0.770059 0.603071
O O13 0.226786 0.799288 0.926810
O O14 0.130803 0.664420 0.881714
O O15 0.329607 0.500000 0.412899
O O16 0.848728 0.000000 0.799639
O O17 0.000000 0.500000 0.000000
#
# Coordination Sequence:
#
# PCOD8058597 Si02
#       7
#     4   4   2   4   4   4   2
#     4  10  18  31  52  78 108 142 186 229 269 317
#     4   9  17  28  43  69 106 143 181 228 274 313
#     4  10  22  40  60  83 110 141 177 214 269 324
#     4   8  17  34  53  78 107 140 176 215 267 328
#     4   9  17  30  51  75 104 143 185 228 272 317
#     4  11  21  37  58  81 112 146 179 218 268 322
#     4   8  16  32  58  81 102 135 169 212 265 322
#
# _framework density 18.077155000000001
#
# number of rings (size 3 to 8) (size 9 to 14) (size 15 to 20)
#    0.500    2.167    1.667    1.000    0.000    5.000 
#    0.000    0.833    0.000   13.000    0.000    0.000 
#    0.000    0.000    0.000    0.000    0.000    0.000 
#
# Total GULP energy -297397.364138 kJ/mol
# GULP energy per Si atom -12391.556839 kJ/mol
# Density = 1.803601 g / cm^3
# Si number density = 18.077155 Si / 1000 Ang^3
#
#
#
# Elastic Constant Matrix: (Units=GPa)
#
#
# Indices 1 2 3 4 5 6 
#
# 1 99.0341 35.5257 61.7621 0.0000 -5.4623 0.0000
# 2 35.5257 83.9301 29.6559 0.0000 -1.9733 0.0000
# 3 61.7621 29.6559 134.7314 0.0000 -22.9628 0.0000
# 4 0.0000 0.0000 0.0000 9.1262 0.0000 0.0860
# 5 -5.4623 -1.9733 -22.9628 0.0000 17.9002 0.0000
# 6 0.0000 0.0000 0.0000 0.0860 0.0000 14.2696
#
#
#
# Elastic Compliance Matrix: (Units=1/GPa)
#
#
# Indices 1 2 3 4 5 6 
#
# 1 0.015813 -0.004290 -0.007119 0.000000 -0.004780 0.000000
# 2 -0.004290 0.014198 -0.001427 0.000000 -0.001574 0.000000
# 3 -0.007119 -0.001427 0.013569 0.000000 0.015077 0.000000
# 4 0.000000 0.000000 0.000000 0.109580 0.000000 -0.000660
# 5 -0.004780 -0.001574 0.015077 0.000000 0.073574 0.000000
# 6 0.000000 0.000000 0.000000 -0.000660 0.000000 0.070083
#
#
# Mechanical properties :
#
#
# Convention : Reuss Voigt Hill
#
# Bulk Modulus (GPa) = 55.84139 63.50924 59.67532
# Shear Modulus (GPa) = 15.22263 20.97601 18.09932
#
# Velocity S-wave (km/s) = 2.90503 3.41010 3.16765
# Velocity P-wave (km/s) = 6.49692 7.12135 6.81629
#
# Compressibility (1/GPa) = 0.01790786
#
# Stress axis : x y z
#
# Youngs Moduli (GPa) = 63.24084 70.43404 73.69556
#
# Poissons Ratio (x) = 0.30216 0.52464
# Poissons Ratio (y) = 0.27131 0.10515
# Poissons Ratio (z) = 0.45021 0.10049
#
# Static dielectric constant tensor:
#      x y z
#    x 3.145610 0.000000 -0.067070 
#    y 0.000000 3.183740 0.000000 
#    z -0.067070 0.000000 3.455780 
# 
# 
# High freq. dielectric constant tensor:
#      x y z
#    x 1.681650 0.000000 -0.007310 
#    y 0.000000 1.686680 0.000000 
#    z -0.007310 0.000000 1.689520 
# 
# From -- ./inp_files/33457.got.cif
#   From: 2010.06.25/outbox.cif.g09.slc.cpg/sg10_17_cif.got.tgz:33457.got - 2010.06.27 22:07:45.
