data_PCOD8058686
_publ_section_title
;
Structure prediction by ZEFSAII (Michael W. Deem and Ramdas Pophale) SiO2 
 PCOD8058686
Probable space group: P 2/M
;
_chemical_formula_sum "Si O2"
_cell_formula_units_Z 32
_cell_length_a 12.877885
_cell_length_b 9.293815
_cell_length_c 14.563649
_cell_angle_alpha 90.000000
_cell_angle_beta 79.920903
_cell_angle_gamma 90.000000
_cell_volume 1716.145419
_symmetry_space_group_name_H-M "P 2/M"
_symmetry_group_IT_number 10
_symmetry_cell_setting 'monoclinic'
loop_
_space_group_symop_operation_xyz
x,y,z
-x,y,-z
-x,-y,-z
x,-y,z
loop_
_atom_site_type_symbol
_atom_site_label
_atom_site_fract_x
_atom_site_fract_y
_atom_site_fract_z
Si Si1 0.993526 0.332915 0.710347
Si Si2 0.451219 0.667174 0.912391
Si Si3 0.797582 0.667546 0.420942
Si Si4 0.436728 0.669543 0.293221
Si Si5 0.061834 0.662870 0.897268
Si Si6 0.378053 0.165282 0.650489
Si Si7 0.269895 0.162571 0.862014
Si Si8 0.203879 0.333289 0.366963
O O1 0.993577 0.500000 0.683693
O O2 0.103246 0.270148 0.652491
O O3 0.987035 0.307228 0.820824
O O4 0.889875 0.261160 0.679446
O O5 0.423967 0.500000 0.919711
O O6 0.529703 0.703460 0.816507
O O7 0.341404 0.749193 0.921001
O O8 0.500000 0.720812 0.000000
O O9 0.775928 0.500000 0.401540
O O10 0.691447 0.755844 0.415824
O O11 0.824806 0.691475 0.522887
O O12 0.445102 0.500000 0.314283
O O13 0.510663 0.753507 0.354177
O O14 0.318507 0.731657 0.324139
O O15 0.106408 0.500000 0.884398
O O16 0.153920 0.776148 0.881144
O O17 0.000000 0.687861 0.000000
O O18 0.313454 0.176479 0.753635
O O19 0.398888 0.000000 0.618631
O O20 0.266730 0.000000 0.897256
O O21 0.210851 0.500000 0.340537
#
# Coordination Sequence:
#
# PCOD8058686 Si02
#       8
#     4   4   4   4   4   4   4   4
#     4   9  17  31  52  78 107 135 168 215 261 306
#     4   9  18  32  53  78 101 133 175 217 263 312
#     4  10  18  31  55  79 100 133 176 216 258 313
#     4   9  18  33  52  75 106 137 170 216 263 310
#     4  10  20  33  53  81 107 134 170 214 262 309
#     4  10  20  34  53  75 102 137 175 216 258 306
#     4  10  20  34  52  73 102 138 173 213 257 309
#     4   9  18  31  50  78 106 134 171 215 264 313
#
# _framework density 18.646439999999998
#
# number of rings (size 3 to 8) (size 9 to 14) (size 15 to 20)
#    0.000    2.500    1.250    1.125    0.000    4.500 
#    0.000    6.875    0.000    3.750    0.000    0.000 
#    0.000    0.000    0.000    0.000    0.000    0.000 
#
# Total GULP energy -396778.611349 kJ/mol
# GULP energy per Si atom -12399.331605 kJ/mol
# Density = 1.860400 g / cm^3
# Si number density = 18.646440 Si / 1000 Ang^3
#
#
#
# Elastic Constant Matrix: (Units=GPa)
#
#
# Indices 1 2 3 4 5 6 
#
# 1 136.3203 36.9081 54.6044 0.0000 15.6876 0.0000
# 2 36.9081 51.1607 25.9480 0.0000 8.9560 0.0000
# 3 54.6044 25.9480 81.4906 0.0000 14.5602 0.0000
# 4 0.0000 0.0000 0.0000 11.0972 0.0000 -4.1813
# 5 15.6876 8.9560 14.5602 0.0000 30.5741 0.0000
# 6 0.0000 0.0000 0.0000 -4.1813 0.0000 1.7485
#
#
#
# Elastic Compliance Matrix: (Units=1/GPa)
#
#
# Indices 1 2 3 4 5 6 
#
# 1 0.011077 -0.004880 -0.005583 0.000000 -0.001595 0.000000
# 2 -0.004880 0.025829 -0.004427 0.000000 -0.002954 0.000000
# 3 -0.005583 -0.004427 0.018230 0.000000 -0.004520 0.000000
# 4 0.000000 0.000000 0.000000 0.910229 0.000000 2.176618
# 5 -0.001595 -0.002954 -0.004520 0.000000 0.036544 0.000000
# 6 0.000000 0.000000 0.000000 2.176618 0.000000 5.776823
#
#
# Mechanical properties :
#
#
# Convention : Reuss Voigt Hill
#
# Bulk Modulus (GPa) = 39.43916 55.98807 47.71361
# Shear Modulus (GPa) = 0.73346 18.78473 9.75910
#
# Velocity S-wave (km/s) = 0.62786 3.17743 2.29022
# Velocity P-wave (km/s) = 4.66075 6.59945 5.71294
#
# Compressibility (1/GPa) = 0.02535551
#
# Stress axis : x y z
#
# Youngs Moduli (GPa) = 90.27725 38.71616 54.85539
#
# Poissons Ratio (x) = 0.18894 0.30628
# Poissons Ratio (y) = 0.44055 0.24282
# Poissons Ratio (z) = 0.50406 0.17138
#
# Static dielectric constant tensor:
#      x y z
#    x 3.620490 0.000000 0.038930 
#    y 0.000000 3.189140 0.000000 
#    z 0.038930 0.000000 3.495420 
# 
# 
# High freq. dielectric constant tensor:
#      x y z
#    x 1.730410 0.000000 0.006930 
#    y 0.000000 1.687990 0.000000 
#    z 0.006930 0.000000 1.723680 
# 
# From -- ./inp_files/49808.got.cif
#   From: 2010.06.25/outbox.cif.g09.slc.cpg/sg10_25_cif.got.tgz:49808.got - 2010.06.27 22:07:45.
