data_PCOD8058092
_publ_section_title
;
Structure prediction by ZEFSAII (Michael W. Deem and Ramdas Pophale) SiO2 
 PCOD8058092
Probable space group: P 2/M
;
_chemical_formula_sum "Si O2"
_cell_formula_units_Z 30
_cell_length_a 11.809462
_cell_length_b 9.708886
_cell_length_c 30.935348
_cell_angle_alpha 90.000000
_cell_angle_beta 150.620856
_cell_angle_gamma 90.000000
_cell_volume 1740.083933
_symmetry_space_group_name_H-M "P 2/M"
_symmetry_group_IT_number 10
_symmetry_cell_setting 'monoclinic'
loop_
_space_group_symop_operation_xyz
x,y,z
-x,y,-z
-x,-y,-z
x,-y,z
loop_
_atom_site_type_symbol
_atom_site_label
_atom_site_fract_x
_atom_site_fract_y
_atom_site_fract_z
Si Si1 0.752739 0.339265 0.600294
Si Si2 0.835674 0.156766 0.286127
Si Si3 0.301360 0.846206 0.858287
Si Si4 0.000000 0.749248 0.000000
Si Si5 0.179507 0.844423 0.971400
Si Si6 0.186617 0.344259 0.191869
Si Si7 0.099069 0.656879 0.256146
Si Si8 0.448059 0.345665 0.196023
O O1 0.500000 0.300742 0.500000
O O2 0.810362 0.500000 0.611363
O O3 0.761441 0.301560 0.654298
O O4 0.929917 0.245753 0.631765
O O5 0.762828 0.152605 0.212836
O O6 0.632443 0.230985 0.244688
O O7 0.871224 0.000000 0.315463
O O8 0.130898 0.746488 0.827227
O O9 0.278929 0.000000 0.870126
O O10 0.560586 0.790054 0.948384
O O11 0.208834 0.659188 0.089374
O O12 0.894721 0.841850 0.003057
O O13 0.026365 0.752367 0.889672
O O14 0.157504 0.000000 0.947903
O O15 0.100726 0.500000 0.155938
O O16 0.257477 0.321434 0.265916
O O17 0.400114 0.314804 0.230888
O O18 0.016165 0.500000 0.232720
O O19 0.549192 0.500000 0.223289
#
# Coordination Sequence:
#
# PCOD8058092 Si02
#       8
#     4   4   4   2   4   4   4   4
#     4   9  18  34  58  84 102 121 156 202 253 307
#     4  10  19  32  50  75 105 132 162 203 252 300
#     4   9  18  31  45  67  95 126 162 205 247 286
#     4  10  18  30  46  68  96 132 174 218 252 280
#     4  10  19  30  45  65  93 130 172 210 245 283
#     4   9  20  34  46  66  96 131 170 203 240 288
#     4   9  18  34  52  70  95 127 158 197 246 298
#     4  10  19  31  48  70  98 133 171 211 247 285
#
# _framework density 17.240549000000001
#
# number of rings (size 3 to 8) (size 9 to 14) (size 15 to 20)
#    0.000    2.533    1.333    0.800    0.000    5.067 
#    0.000    2.667    0.000    0.800    0.000    5.600 
#    0.000    0.000    0.000    0.000    0.000    0.000 
#
# Total GULP energy -371836.611029 kJ/mol
# GULP energy per Si atom -12394.553701 kJ/mol
# Density = 1.720131 g / cm^3
# Si number density = 17.240549 Si / 1000 Ang^3
#
#
#
# Elastic Constant Matrix: (Units=GPa)
#
#
# Indices 1 2 3 4 5 6 
#
# 1 101.0773 44.2753 42.3843 0.0000 2.4021 0.0000
# 2 44.2753 88.8048 40.4025 0.0000 12.7530 0.0000
# 3 42.3843 40.4025 71.8735 0.0000 10.1088 0.0000
# 4 0.0000 0.0000 0.0000 -147.0523 0.0000 -195.1413
# 5 2.4021 12.7530 10.1088 0.0000 19.9559 0.0000
# 6 0.0000 0.0000 0.0000 -195.1413 0.0000 -218.2524
#
#
#
# Elastic Compliance Matrix: (Units=1/GPa)
#
#
# Indices 1 2 3 4 5 6 
#
# 1 0.014728 -0.005066 -0.006507 0.000000 0.004761 0.000000
# 2 -0.005066 0.017517 -0.005782 0.000000 -0.007655 0.000000
# 3 -0.006507 -0.005782 0.021934 0.000000 -0.006632 0.000000
# 4 0.000000 0.000000 0.000000 0.036463 0.000000 -0.032602
# 5 0.004761 -0.007655 -0.006632 0.000000 0.057789 0.000000
# 6 0.000000 0.000000 0.000000 -0.032602 0.000000 0.024568
#
#
# Mechanical properties :
#
#
# Convention : Reuss Voigt Hill
#
# Bulk Modulus (GPa) = 51.36821 57.31997 54.34409
# Shear Modulus (GPa) = 23.34288 -60.09020 -18.37366
#
# Velocity S-wave (km/s) = 3.68360 -5.91013 -3.26808
# Velocity P-wave (km/s) = 6.92471 3.64054 4.16522
#
# Compressibility (1/GPa) = 0.01946729
#
# Stress axis : x y z
#
# Youngs Moduli (GPa) = 67.89798 57.08864 45.59181
#
# Poissons Ratio (x) = 0.28923 0.29666
# Poissons Ratio (y) = 0.34399 0.26363
# Poissons Ratio (z) = 0.44181 0.33011
#
# Static dielectric constant tensor:
#      x y z
#    x 3.362910 0.000000 -0.017590 
#    y 0.000000 3.379860 0.000000 
#    z -0.017590 0.000000 2.964560 
# 
# 
# High freq. dielectric constant tensor:
#      x y z
#    x 1.668190 0.000000 -0.000600 
#    y 0.000000 1.671790 0.000000 
#    z -0.000600 0.000000 1.628540 
# 
# From -- ./inp_files/52647.got.cif
#   From: 2010.06.25/outbox.cif.g09.slc.cpg/sg10_27_cif.got.tgz:52647.got - 2010.06.27 22:07:45.
