data_PCOD8058668
_publ_section_title
;
Structure prediction by ZEFSAII (Michael W. Deem and Ramdas Pophale) SiO2 
 PCOD8058668
Probable space group: P 2/M
;
_chemical_formula_sum "Si O2"
_cell_formula_units_Z 28
_cell_length_a 12.732162
_cell_length_b 9.111124
_cell_length_c 17.312129
_cell_angle_alpha 90.000000
_cell_angle_beta 133.275440
_cell_angle_gamma 90.000000
_cell_volume 1462.162839
_symmetry_space_group_name_H-M "P 2/M"
_symmetry_group_IT_number 10
_symmetry_cell_setting 'monoclinic'
loop_
_space_group_symop_operation_xyz
x,y,z
-x,y,-z
-x,-y,-z
x,-y,z
loop_
_atom_site_type_symbol
_atom_site_label
_atom_site_fract_x
_atom_site_fract_y
_atom_site_fract_z
Si Si1 0.397254 0.330688 0.602557
Si Si2 0.617077 0.674578 0.230489
Si Si3 0.673390 0.826711 0.690183
Si Si4 0.168693 0.834835 0.074508
Si Si5 0.159151 0.330541 0.360965
Si Si6 0.165628 0.325364 0.784996
Si Si7 0.315397 0.326224 0.014519
O O1 0.447080 0.500000 0.629851
O O2 0.382717 0.264771 0.681806
O O3 0.513599 0.240964 0.611466
O O4 0.242833 0.313712 0.483951
O O5 0.617420 0.500000 0.233269
O O6 0.757851 0.731752 0.255068
O O7 0.475820 0.732611 0.113862
O O8 0.753603 0.780505 0.808890
O O9 0.763501 0.763518 0.665032
O O10 0.661625 0.000000 0.673715
O O11 0.206688 0.726276 0.025126
O O12 0.218192 0.000000 0.078945
O O13 0.000000 0.826665 0.000000
O O14 0.155529 0.500000 0.332384
O O15 0.998118 0.267175 0.292985
O O16 0.164643 0.500000 0.785179
O O17 0.259332 0.265112 0.904308
O O18 0.314316 0.500000 0.013280
#
# Coordination Sequence:
#
# PCOD8058668 Si02
#       7
#     4   4   4   4   4   4   4
#     4  10  20  35  55  79 106 138 175 216 259 305
#     4   9  17  31  53  80 108 137 172 214 259 307
#     4  11  22  36  55  77 104 139 177 216 261 314
#     4  10  21  35  51  74 106 140 171 210 261 312
#     4  10  21  35  53  78 108 139 174 217 260 305
#     4   9  18  32  52  81 110 137 172 214 260 308
#     4  10  18  31  54  80 105 135 172 213 256 306
#
# _framework density 19.149713999999999
#
# number of rings (size 3 to 8) (size 9 to 14) (size 15 to 20)
#    0.000    2.143    1.429    2.143    0.000    5.429 
#    0.000    2.857    0.000    4.286    0.000    2.000 
#    0.000    0.000    0.000    0.000    0.000    0.000 
#
# Total GULP energy -347217.812066 kJ/mol
# GULP energy per Si atom -12400.636145 kJ/mol
# Density = 1.910613 g / cm^3
# Si number density = 19.149714 Si / 1000 Ang^3
#
#
#
# Elastic Constant Matrix: (Units=GPa)
#
#
# Indices 1 2 3 4 5 6 
#
# 1 159.1370 32.2306 62.8708 0.0000 -5.3752 0.0000
# 2 32.2306 33.3544 24.6099 0.0000 -1.9048 0.0000
# 3 62.8708 24.6099 88.8677 0.0000 1.6790 0.0000
# 4 0.0000 0.0000 0.0000 15.7846 0.0000 8.7172
# 5 -5.3752 -1.9048 1.6790 0.0000 27.1118 0.0000
# 6 0.0000 0.0000 0.0000 8.7172 0.0000 -26.6191
#
#
#
# Elastic Compliance Matrix: (Units=1/GPa)
#
#
# Indices 1 2 3 4 5 6 
#
# 1 0.009491 -0.005135 -0.005328 0.000000 0.001851 0.000000
# 2 -0.005135 0.040755 -0.007697 0.000000 0.002322 0.000000
# 3 -0.005328 -0.007697 0.017204 0.000000 -0.002662 0.000000
# 4 0.000000 0.000000 0.000000 0.053650 0.000000 0.017569
# 5 0.001851 0.002322 -0.002662 0.000000 0.037579 0.000000
# 6 0.000000 0.000000 0.000000 0.017569 0.000000 -0.031813
#
#
# Mechanical properties :
#
#
# Convention : Reuss Voigt Hill
#
# Bulk Modulus (GPa) = 32.12326 57.86465 44.99395
# Shear Modulus (GPa) = 28.80818 14.03197 21.42008
#
# Velocity S-wave (km/s) = 3.88282 2.70987 3.34811
# Velocity P-wave (km/s) = 6.07561 6.33039 6.20430
#
# Compressibility (1/GPa) = 0.03113009
#
# Stress axis : x y z
#
# Youngs Moduli (GPa) = 105.36045 24.53706 58.12685
#
# Poissons Ratio (x) = 0.12599 0.30968
# Poissons Ratio (y) = 0.54100 0.44742
# Poissons Ratio (z) = 0.56133 0.18887
#
# Static dielectric constant tensor:
#      x y z
#    x 3.628170 0.000000 0.033860 
#    y 0.000000 3.177920 0.000000 
#    z 0.033860 0.000000 3.756650 
# 
# 
# High freq. dielectric constant tensor:
#      x y z
#    x 1.752670 0.000000 0.001220 
#    y 0.000000 1.702470 0.000000 
#    z 0.001220 0.000000 1.758320 
# 
# From -- ./inp_files/63900.got.cif
#   From: 2010.06.25/outbox.cif.g09.slc.cpg/sg10_32_cif.got.tgz:63900.got - 2010.06.27 22:07:45.
