data_PCOD8058031
_publ_section_title
;
Structure prediction by ZEFSAII (Michael W. Deem and Ramdas Pophale) SiO2 
 PCOD8058031
Probable space group: P 2/M
;
_chemical_formula_sum "Si O2"
_cell_formula_units_Z 28
_cell_length_a 19.230723
_cell_length_b 9.097496
_cell_length_c 15.456849
_cell_angle_alpha 90.000000
_cell_angle_beta 142.717548
_cell_angle_gamma 90.000000
_cell_volume 1638.053579
_symmetry_space_group_name_H-M "P 2/M"
_symmetry_group_IT_number 10
_symmetry_cell_setting 'monoclinic'
loop_
_space_group_symop_operation_xyz
x,y,z
-x,y,-z
-x,-y,-z
x,-y,z
loop_
_atom_site_type_symbol
_atom_site_label
_atom_site_fract_x
_atom_site_fract_y
_atom_site_fract_z
Si Si1 0.874178 0.828027 0.697113
Si Si2 0.115305 0.674331 0.936363
Si Si3 0.134724 0.668719 0.624666
Si Si4 0.507889 0.673073 0.107869
Si Si5 0.266668 0.827798 0.608929
Si Si6 0.259806 0.673682 0.917969
Si Si7 0.864290 0.838133 0.875334
O O1 0.778283 0.790336 0.531469
O O2 0.819005 0.785014 0.736159
O O3 0.989819 0.738093 0.792703
O O4 0.907716 0.000000 0.729727
O O5 0.106018 0.500000 0.927956
O O6 0.201647 0.733801 0.947834
O O7 0.168663 0.726377 0.080850
O O8 0.173178 0.500000 0.647454
O O9 0.173785 0.764862 0.582934
O O10 0.192751 0.735266 0.768118
O O11 0.000000 0.682452 0.500000
O O12 0.529694 0.500000 0.135305
O O13 0.610301 0.754299 0.257388
O O14 0.500000 0.721957 0.000000
O O15 0.392408 0.721767 0.043371
O O16 0.278966 0.000000 0.636484
O O17 0.248529 0.500000 0.905280
O O18 0.815351 0.000000 0.849953
O O19 0.000000 0.846026 0.000000
#
# Coordination Sequence:
#
# PCOD8058031 Si02
#       7
#     4   4   4   4   4   4   4
#     4   9  19  34  49  69 103 139 162 191 244 303
#     4  10  18  29  50  79 104 124 159 208 247 285
#     4  10  19  33  52  72  98 134 168 194 237 303
#     4  10  19  36  57  69  90 132 176 206 242 298
#     4  11  22  34  50  74 102 127 164 214 252 283
#     4   9  18  32  49  72  99 128 161 202 247 291
#     4   8  15  30  49  68  97 136 166 189 236 302
#
# _framework density 17.093457999999998
#
# number of rings (size 3 to 8) (size 9 to 14) (size 15 to 20)
#    0.000    2.429    1.429    2.571    0.000    5.429 
#    0.000    2.857    0.000    0.857    0.000    6.000 
#    0.000    0.000    0.000    0.000    0.000    0.000 
#
# Total GULP energy -347135.923537 kJ/mol
# GULP energy per Si atom -12397.711555 kJ/mol
# Density = 1.705455 g / cm^3
# Si number density = 17.093458 Si / 1000 Ang^3
#
#
#
# Elastic Constant Matrix: (Units=GPa)
#
#
# Indices 1 2 3 4 5 6 
#
# 1 92.1129 42.4378 74.1547 0.0000 -18.2973 0.0000
# 2 42.4378 59.4995 50.0110 0.0000 -6.0394 0.0000
# 3 74.1547 50.0110 127.6086 0.0000 -17.4764 0.0000
# 4 0.0000 0.0000 0.0000 22.3556 0.0000 -8.3957
# 5 -18.2973 -6.0394 -17.4764 0.0000 29.8314 0.0000
# 6 0.0000 0.0000 0.0000 -8.3957 0.0000 13.2224
#
#
#
# Elastic Compliance Matrix: (Units=1/GPa)
#
#
# Indices 1 2 3 4 5 6 
#
# 1 0.023835 -0.008139 -0.009659 0.000000 0.007313 0.000000
# 2 -0.008139 0.027857 -0.006631 0.000000 -0.003237 0.000000
# 3 -0.009659 -0.006631 0.016366 0.000000 0.002321 0.000000
# 4 0.000000 0.000000 0.000000 0.058738 0.000000 0.037296
# 5 0.007313 -0.003237 0.002321 0.000000 0.038711 0.000000
# 6 0.000000 0.000000 0.000000 0.037296 0.000000 0.099311
#
#
# Mechanical properties :
#
#
# Convention : Reuss Voigt Hill
#
# Bulk Modulus (GPa) = 52.08553 68.04755 60.06654
# Shear Modulus (GPa) = 15.62125 20.58972 18.10548
#
# Velocity S-wave (km/s) = 3.02631 3.47441 3.25807
# Velocity P-wave (km/s) = 6.53824 7.48271 7.02636
#
# Compressibility (1/GPa) = 0.01919919
#
# Stress axis : x y z
#
# Youngs Moduli (GPa) = 41.95560 35.89770 61.10082
#
# Poissons Ratio (x) = 0.29216 0.59020
# Poissons Ratio (y) = 0.34146 0.40517
# Poissons Ratio (z) = 0.40527 0.23805
#
# Static dielectric constant tensor:
#      x y z
#    x 3.413910 0.000000 -0.306290 
#    y 0.000000 3.085830 0.000000 
#    z -0.306290 0.000000 3.320530 
# 
# 
# High freq. dielectric constant tensor:
#      x y z
#    x 1.655510 0.000000 -0.016750 
#    y 0.000000 1.646920 0.000000 
#    z -0.016750 0.000000 1.653450 
# 
# From -- ./inp_files/55018.got.cif
#   From: 2010.06.25/outbox.cif.g09.slc.cpg/sg10_28_cif.got.tgz:55018.got - 2010.06.27 22:07:45.
