data_PCOD8058245
_publ_section_title
;
Structure prediction by ZEFSAII (Michael W. Deem and Ramdas Pophale) SiO2 
 PCOD8058245
Probable space group: P 2/M
;
_chemical_formula_sum "Si O2"
_cell_formula_units_Z 28
_cell_length_a 20.344539
_cell_length_b 7.733866
_cell_length_c 16.595382
_cell_angle_alpha 90.000000
_cell_angle_beta 35.341465
_cell_angle_gamma 90.000000
_cell_volume 1510.414542
_symmetry_space_group_name_H-M "P 2/M"
_symmetry_group_IT_number 10
_symmetry_cell_setting 'monoclinic'
loop_
_space_group_symop_operation_xyz
x,y,z
-x,y,-z
-x,-y,-z
x,-y,z
loop_
_atom_site_type_symbol
_atom_site_label
_atom_site_fract_x
_atom_site_fract_y
_atom_site_fract_z
Si Si1 0.634234 0.304598 0.365765
Si Si2 0.865711 0.000000 0.541522
Si Si3 0.729660 0.302212 0.941097
Si Si4 0.628920 0.802203 0.199060
Si Si5 0.500000 0.704725 0.089007
Si Si6 0.628921 0.197797 0.543098
Si Si7 0.270340 0.697788 0.400419
Si Si8 0.134289 0.000000 0.272945
O O1 0.500000 0.286040 0.500000
O O2 0.676549 0.500000 0.323450
O O3 0.679655 0.215253 0.238738
O O4 0.679655 0.215255 0.401951
O O5 0.826303 0.825810 0.535257
O O6 0.822735 0.000000 0.677265
O O7 1.000000 0.000000 0.403855
O O8 0.758415 0.500000 0.886212
O O9 0.826303 0.174190 0.812135
O O10 0.713695 0.297482 0.053809
O O11 0.611719 0.230613 0.022754
O O12 0.499999 0.724766 0.323335
O O13 0.627463 0.000000 0.174606
O O14 0.500000 0.500000 0.085669
O O15 0.388281 0.769387 0.246193
O O16 0.500000 0.785586 0.000000
O O17 0.713697 0.297481 0.518797
O O18 0.627465 0.000000 0.570465
O O19 0.241585 0.500000 0.403044
#
# Coordination Sequence:
#
# PCOD8058245 Si02
#       8
#     4   2   4   4   4   4   4   2
#     4   9  17  27  43  71 113 160 195 223 263 321
#     4  11  26  45  61  80 107 143 194 247 288 332
#     4  11  21  36  59  85 114 149 185 227 283 341
#     4  10  18  30  49  79 118 156 190 225 271 334
#     4   9  18  31  51  82 114 142 177 220 276 346
#     4  10  18  30  49  79 118 156 190 225 271 334
#     4  11  21  36  59  85 114 149 185 227 283 341
#     4  11  26  45  61  80 107 143 194 247 288 332
#
# _framework density 18.537956999999999
#
# number of rings (size 3 to 8) (size 9 to 14) (size 15 to 20)
#    0.000    1.857    2.857    2.143    0.000    5.714 
#    0.000    2.857    0.000    0.000    0.000    2.000 
#    0.000    3.429    0.000    0.000    0.000    0.000 
#
# Total GULP energy -347135.794506 kJ/mol
# GULP energy per Si atom -12397.706947 kJ/mol
# Density = 1.849576 g / cm^3
# Si number density = 18.537957 Si / 1000 Ang^3
#
#
#
# Elastic Constant Matrix: (Units=GPa)
#
#
# Indices 1 2 3 4 5 6 
#
# 1 95.1722 30.6309 46.2676 0.0000 23.6407 0.0000
# 2 30.6309 94.4881 29.1501 0.0000 2.5424 0.0000
# 3 46.2676 29.1501 72.1078 0.0000 15.9383 0.0000
# 4 0.0000 0.0000 0.0000 22.8851 0.0000 2.7041
# 5 23.6407 2.5424 15.9383 0.0000 30.7824 0.0000
# 6 0.0000 0.0000 0.0000 2.7041 0.0000 24.4608
#
#
#
# Elastic Compliance Matrix: (Units=1/GPa)
#
#
# Indices 1 2 3 4 5 6 
#
# 1 0.017683 -0.002981 -0.008124 0.000000 -0.009128 0.000000
# 2 -0.002981 0.012676 -0.003937 0.000000 0.003281 0.000000
# 3 -0.008124 -0.003937 0.021705 0.000000 -0.004674 0.000000
# 4 0.000000 0.000000 0.000000 0.044275 0.000000 -0.004895
# 5 -0.009128 0.003281 -0.004674 0.000000 0.041646 0.000000
# 6 0.000000 0.000000 0.000000 -0.004895 0.000000 0.041423
#
#
# Mechanical properties :
#
#
# Convention : Reuss Voigt Hill
#
# Bulk Modulus (GPa) = 45.49204 52.65170 49.07187
# Shear Modulus (GPa) = 23.06074 26.00695 24.53384
#
# Velocity S-wave (km/s) = 3.53083 3.74960 3.64186
# Velocity P-wave (km/s) = 6.41993 6.87093 6.64926
#
# Compressibility (1/GPa) = 0.02198187
#
# Stress axis : x y z
#
# Youngs Moduli (GPa) = 56.55008 78.88973 46.07143
#
# Poissons Ratio (x) = 0.23515 0.37428
# Poissons Ratio (y) = 0.16856 0.18138
# Poissons Ratio (z) = 0.45940 0.31058
#
# Static dielectric constant tensor:
#      x y z
#    x 3.450130 0.000000 0.420530 
#    y 0.000000 3.306580 0.000000 
#    z 0.420530 0.000000 3.205070 
# 
# 
# High freq. dielectric constant tensor:
#      x y z
#    x 1.706790 0.000000 0.045120 
#    y 0.000000 1.725610 0.000000 
#    z 0.045120 0.000000 1.680500 
# 
# From -- ./inp_files/68661.got.cif
#   From: 2010.06.25/outbox.cif.g09.slc.cpg/sg10_35_cif.got.tgz:68661.got - 2010.06.27 22:07:45.
