data_PCOD8058455
_publ_section_title
;
Structure prediction by ZEFSAII (Michael W. Deem and Ramdas Pophale) SiO2 
 PCOD8058455
Probable space group: P 2/M
;
_chemical_formula_sum "Si O2"
_cell_formula_units_Z 24
_cell_length_a 20.448627
_cell_length_b 8.788790
_cell_length_c 11.924928
_cell_angle_alpha 90.000000
_cell_angle_beta 39.786798
_cell_angle_gamma 90.000000
_cell_volume 1371.460422
_symmetry_space_group_name_H-M "P 2/M"
_symmetry_group_IT_number 10
_symmetry_cell_setting 'monoclinic'
loop_
_space_group_symop_operation_xyz
x,y,z
-x,y,-z
-x,-y,-z
x,-y,z
loop_
_atom_site_type_symbol
_atom_site_label
_atom_site_fract_x
_atom_site_fract_y
_atom_site_fract_z
Si Si1 0.388427 0.680946 0.111522
Si Si2 0.371099 0.826477 0.899643
Si Si3 0.566954 0.670634 0.558600
Si Si4 0.267853 0.669262 0.473381
Si Si5 0.270874 0.823863 0.809174
Si Si6 0.882835 0.681222 0.145120
O O1 0.390559 0.500000 0.119345
O O2 0.300837 0.747835 0.312060
O O3 0.500000 0.746127 0.000000
O O4 0.355423 0.724708 0.030010
O O5 0.471856 0.781256 0.698903
O O6 0.276768 0.804891 0.936697
O O7 0.380470 0.000000 0.926716
O O8 0.529839 0.500000 0.577896
O O9 0.628465 0.666850 0.592739
O O10 0.635509 0.732044 0.367539
O O11 0.228519 0.500000 0.499185
O O12 0.177439 0.748142 0.665609
O O13 0.163800 0.755642 0.905727
O O14 0.279233 0.000000 0.763469
O O15 0.867877 0.500000 0.156444
O O16 0.000000 0.729851 0.000000
#
# Coordination Sequence:
#
# PCOD8058455 Si02
#       6
#     4   4   4   4   4   4
#     4  10  18  31  49  69  97 135 174 204 238 291
#     4  11  22  32  44  68 104 139 169 204 244 293
#     4  10  18  31  50  71  98 133 171 207 245 292
#     4   8  15  29  48  72  99 124 157 205 248 286
#     4  10  21  34  47  70 103 133 164 204 253 303
#     4   9  18  34  57  80  98 121 160 210 259 305
#
# _framework density 17.499593999999998
#
# number of rings (size 3 to 8) (size 9 to 14) (size 15 to 20)
#    0.000    2.333    1.667    3.000    0.000    5.333 
#    0.000    0.833    0.000    1.000    0.000    7.000 
#    0.000    0.000    0.000    0.000    0.000    0.000 
#
# Total GULP energy -297429.731742 kJ/mol
# GULP energy per Si atom -12392.905489 kJ/mol
# Density = 1.745976 g / cm^3
# Si number density = 17.499594 Si / 1000 Ang^3
#
#
#
# Elastic Constant Matrix: (Units=GPa)
#
#
# Indices 1 2 3 4 5 6 
#
# 1 97.0489 17.8836 66.1911 0.0000 11.1521 0.0000
# 2 17.8836 34.6727 21.2365 0.0000 5.0230 0.0000
# 3 66.1911 21.2365 85.1646 0.0000 -0.2739 0.0000
# 4 0.0000 0.0000 0.0000 11.6800 0.0000 2.7954
# 5 11.1521 5.0230 -0.2739 0.0000 25.1039 0.0000
# 6 0.0000 0.0000 0.0000 2.7954 0.0000 24.3872
#
#
#
# Elastic Compliance Matrix: (Units=1/GPa)
#
#
# Indices 1 2 3 4 5 6 
#
# 1 0.024735 0.000809 -0.019462 0.000000 -0.011362 0.000000
# 2 0.000809 0.035307 -0.009457 0.000000 -0.007527 0.000000
# 3 -0.019462 -0.009457 0.029261 0.000000 0.010857 0.000000
# 4 0.000000 0.000000 0.000000 0.088032 0.000000 -0.010091
# 5 -0.011362 -0.007527 0.010857 0.000000 0.046507 0.000000
# 6 0.000000 0.000000 0.000000 -0.010091 0.000000 0.042162
#
#
# Mechanical properties :
#
#
# Convention : Reuss Voigt Hill
#
# Bulk Modulus (GPa) = 30.22801 47.50096 38.86449
# Shear Modulus (GPa) = 15.00371 19.67256 17.33813
#
# Velocity S-wave (km/s) = 2.93127 3.35651 3.15107
# Velocity P-wave (km/s) = 5.36354 6.49804 5.95785
#
# Compressibility (1/GPa) = 0.03308189
#
# Stress axis : x y z
#
# Youngs Moduli (GPa) = 40.42880 28.32339 34.17466
#
# Poissons Ratio (x) = -0.02290 0.66512
# Poissons Ratio (y) = -0.03269 0.32318
# Poissons Ratio (z) = 0.78684 0.26785
#
# Static dielectric constant tensor:
#      x y z
#    x 3.273140 0.000000 0.152420 
#    y 0.000000 3.122570 0.000000 
#    z 0.152420 0.000000 3.240960 
# 
# 
# High freq. dielectric constant tensor:
#      x y z
#    x 1.665870 0.000000 0.020160 
#    y 0.000000 1.661830 0.000000 
#    z 0.020160 0.000000 1.657690 
# 
# From -- ./inp_files/45158.got.cif
#   From: 2010.06.25/outbox.cif.g09.slc.cpg/sg10_23_cif.got.tgz:45158.got - 2010.06.27 22:07:45.
