data_PCOD8058606
_publ_section_title
;
Structure prediction by ZEFSAII (Michael W. Deem and Ramdas Pophale) SiO2 
 PCOD8058606
Probable space group: P 2/M
;
_chemical_formula_sum "Si O2"
_cell_formula_units_Z 32
_cell_length_a 20.010732
_cell_length_b 9.024987
_cell_length_c 24.841261
_cell_angle_alpha 90.000000
_cell_angle_beta 23.118077
_cell_angle_gamma 90.000000
_cell_volume 1761.423134
_symmetry_space_group_name_H-M "P 2/M"
_symmetry_group_IT_number 10
_symmetry_cell_setting 'monoclinic'
loop_
_space_group_symop_operation_xyz
x,y,z
-x,y,-z
-x,-y,-z
x,-y,z
loop_
_atom_site_type_symbol
_atom_site_label
_atom_site_fract_x
_atom_site_fract_y
_atom_site_fract_z
Si Si1 0.660758 0.166869 0.842005
Si Si2 0.339014 0.173017 0.890663
Si Si3 0.153848 0.173065 0.847152
Si Si4 0.024213 0.323958 0.841181
Si Si5 0.830669 0.675041 0.379596
Si Si6 0.541181 0.672165 0.093980
Si Si7 0.857147 0.328481 0.782390
Si Si8 0.488500 0.830063 0.664558
O O1 0.619330 0.263264 0.819949
O O2 0.820242 0.236628 0.755560
O O3 0.706475 0.000000 0.790714
O O4 0.500000 0.170299 0.000000
O O5 0.448063 0.241200 0.858145
O O6 0.448422 0.200364 0.756313
O O7 0.305281 0.000000 0.925765
O O8 0.160344 0.253415 0.016096
O O9 0.328221 0.215470 0.747129
O O10 0.144938 0.269209 0.799743
O O11 0.142977 0.000000 0.840462
O O12 0.000000 0.218323 0.000000
O O13 0.004539 0.500000 0.856974
O O14 0.109828 0.267156 0.722697
O O15 0.827367 0.500000 0.381456
O O16 0.645355 0.732025 0.530382
O O17 0.964755 0.729276 0.325451
O O18 0.508572 0.500000 0.129400
O O19 0.715390 0.698543 0.932842
O O20 0.862340 0.500000 0.762239
O O21 0.536409 0.000000 0.619406
#
# Coordination Sequence:
#
# PCOD8058606 Si02
#       8
#     4   4   4   4   4   4   4   4
#     4   9  17  28  45  77 112 143 183 226 271 324
#     4  11  21  36  57  82 112 146 185 233 279 326
#     4  10  20  39  60  81 112 146 183 230 280 329
#     4  11  22  37  58  86 112 143 187 229 276 332
#     4  10  22  39  56  80 116 149 184 229 276 330
#     4  10  18  31  52  80 112 144 183 229 275 327
#     4   9  17  32  51  74 109 149 181 221 275 326
#     4  10  23  40  58  81 110 146 187 227 278 337
#
# _framework density 18.167128000000002
#
# number of rings (size 3 to 8) (size 9 to 14) (size 15 to 20)
#    0.000    2.000    2.500    1.500    0.000    5.750 
#    0.000    2.500    0.000    0.750    0.000    5.250 
#    0.000    0.000    0.000    0.000    0.000    0.000 
#
# Total GULP energy -396889.787796 kJ/mol
# GULP energy per Si atom -12402.805869 kJ/mol
# Density = 1.812578 g / cm^3
# Si number density = 18.167128 Si / 1000 Ang^3
#
#
#
# Elastic Constant Matrix: (Units=GPa)
#
#
# Indices 1 2 3 4 5 6 
#
# 1 135.1073 51.6878 38.8105 0.0000 -20.8319 0.0000
# 2 51.6878 73.6547 26.3405 0.0000 -5.0379 0.0000
# 3 38.8105 26.3405 71.6836 0.0000 -15.2293 0.0000
# 4 0.0000 0.0000 0.0000 27.5111 0.0000 -3.4704
# 5 -20.8319 -5.0379 -15.2293 0.0000 20.0898 0.0000
# 6 0.0000 0.0000 0.0000 -3.4704 0.0000 36.9684
#
#
#
# Elastic Compliance Matrix: (Units=1/GPa)
#
#
# Indices 1 2 3 4 5 6 
#
# 1 0.012150 -0.007189 -0.001958 0.000000 0.009312 0.000000
# 2 -0.007189 0.019889 -0.004697 0.000000 -0.006027 0.000000
# 3 -0.001958 -0.004697 0.019137 0.000000 0.011298 0.000000
# 4 0.000000 0.000000 0.000000 0.036784 0.000000 0.003453
# 5 0.009312 -0.006027 0.011298 0.000000 0.066485 0.000000
# 6 0.000000 0.000000 0.000000 0.003453 0.000000 0.027374
#
#
# Mechanical properties :
#
#
# Convention : Reuss Voigt Hill
#
# Bulk Modulus (GPa) = 42.57530 57.12478 49.85004
# Shear Modulus (GPa) = 23.00567 27.82100 25.41334
#
# Velocity S-wave (km/s) = 3.56242 3.91755 3.74420
# Velocity P-wave (km/s) = 6.35668 7.20938 6.79642
#
# Compressibility (1/GPa) = 0.02348780
#
# Stress axis : x y z
#
# Youngs Moduli (GPa) = 82.30336 50.27822 52.25593
#
# Poissons Ratio (x) = 0.36146 0.10233
# Poissons Ratio (y) = 0.59170 0.24543
# Poissons Ratio (z) = 0.16117 0.23614
#
# Static dielectric constant tensor:
#      x y z
#    x 3.800200 0.000000 -0.134460 
#    y 0.000000 3.394440 0.000000 
#    z -0.134460 0.000000 3.068650 
# 
# 
# High freq. dielectric constant tensor:
#      x y z
#    x 1.720780 0.000000 -0.012560 
#    y 0.000000 1.708240 0.000000 
#    z -0.012560 0.000000 1.672570 
# 
# From -- ./inp_files/93595.got.cif
#   From: 2010.06.25/outbox.cif.g09.slc.cpg/sg10_47_cif.got.tgz:93595.got - 2010.06.27 22:07:45.
