data_PCOD8058950
_publ_section_title
;
Structure prediction by ZEFSAII (Michael W. Deem and Ramdas Pophale) SiO2 
 PCOD8058950
Probable space group: P 2/M
;
_chemical_formula_sum "Si O2"
_cell_formula_units_Z 28
_cell_length_a 14.744708
_cell_length_b 8.435490
_cell_length_c 11.981648
_cell_angle_alpha 90.000000
_cell_angle_beta 71.544123
_cell_angle_gamma 90.000000
_cell_volume 1413.615807
_symmetry_space_group_name_H-M "P 2/M"
_symmetry_group_IT_number 10
_symmetry_cell_setting 'monoclinic'
loop_
_space_group_symop_operation_xyz
x,y,z
-x,y,-z
-x,-y,-z
x,-y,z
loop_
_atom_site_type_symbol
_atom_site_label
_atom_site_fract_x
_atom_site_fract_y
_atom_site_fract_z
Si Si1 0.167827 0.188887 0.120375
Si Si2 0.375874 0.185908 0.640392
Si Si3 0.266404 0.183773 0.305206
Si Si4 0.424024 0.683215 0.390210
Si Si5 0.953719 0.184761 0.239273
Si Si6 0.898488 0.682706 0.487819
Si Si7 0.789736 0.815439 0.137480
O O1 0.235739 0.246443 0.194627
O O2 0.060299 0.253087 0.181072
O O3 0.162466 0.000000 0.117489
O O4 0.209111 0.258356 0.987811
O O5 0.479205 0.215208 0.655023
O O6 0.366240 0.273018 0.525151
O O7 0.294950 0.258332 0.754001
O O8 0.360638 0.000000 0.625150
O O9 0.359347 0.280433 0.307826
O O10 0.179711 0.207280 0.424166
O O11 0.293475 0.000000 0.290964
O O12 0.452035 0.500000 0.381678
O O13 0.900195 0.281525 0.356321
O O14 0.893784 0.214189 0.150158
O O15 0.955300 0.000000 0.271430
O O16 0.871729 0.500000 0.519398
O O17 0.000000 0.728526 0.500000
O O18 0.767491 0.000000 0.136050
#
# Coordination Sequence:
#
# PCOD8058950 Si02
#       7
#     4   4   4   4   4   4   4
#     4   9  18  32  52  80 111 143 180 224 269 317
#     4  10  19  35  59  86 112 139 179 227 271 323
#     4  11  21  35  56  81 109 143 185 225 267 321
#     4  11  22  37  58  82 111 143 176 222 280 331
#     4  10  18  32  56  82 108 143 184 225 267 320
#     4  11  22  34  50  75 112 147 178 220 269 320
#     4   9  18  32  54  83 110 137 177 228 276 316
#
# _framework density 19.807362999999999
#
# number of rings (size 3 to 8) (size 9 to 14) (size 15 to 20)
#    0.000    1.857    1.429    4.714    0.000    3.429 
#    0.000    1.429    0.000   12.857    0.000    0.000 
#    0.000    0.000    0.000    0.000    0.000    0.000 
#
# Total GULP energy -347258.212670 kJ/mol
# GULP energy per Si atom -12402.079024 kJ/mol
# Density = 1.976228 g / cm^3
# Si number density = 19.807363 Si / 1000 Ang^3
#
#
#
# Elastic Constant Matrix: (Units=GPa)
#
#
# Indices 1 2 3 4 5 6 
#
# 1 99.5708 9.7267 46.9369 0.0000 16.6691 0.0000
# 2 9.7267 37.0873 8.0727 0.0000 3.2889 0.0000
# 3 46.9369 8.0727 120.1828 0.0000 12.5204 0.0000
# 4 0.0000 0.0000 0.0000 4.7589 0.0000 5.1205
# 5 16.6691 3.2889 12.5204 0.0000 29.1404 0.0000
# 6 0.0000 0.0000 0.0000 5.1205 0.0000 15.6099
#
#
#
# Elastic Compliance Matrix: (Units=1/GPa)
#
#
# Indices 1 2 3 4 5 6 
#
# 1 0.013261 -0.002021 -0.004477 0.000000 -0.005434 0.000000
# 2 -0.002021 0.027834 -0.000914 0.000000 -0.001592 0.000000
# 3 -0.004477 -0.000914 0.010315 0.000000 -0.001768 0.000000
# 4 0.000000 0.000000 0.000000 0.324758 0.000000 -0.106530
# 5 -0.005434 -0.001592 -0.001768 0.000000 0.038364 0.000000
# 6 0.000000 0.000000 0.000000 -0.106530 0.000000 0.099007
#
#
# Mechanical properties :
#
#
# Convention : Reuss Voigt Hill
#
# Bulk Modulus (GPa) = 27.33462 42.92373 35.12918
# Shear Modulus (GPa) = 9.24970 22.70882 15.97926
#
# Velocity S-wave (km/s) = 2.16332 3.38965 2.84339
# Velocity P-wave (km/s) = 4.47997 6.08583 5.34357
#
# Compressibility (1/GPa) = 0.03658364
#
# Stress axis : x y z
#
# Youngs Moduli (GPa) = 75.41095 35.92763 96.94890
#
# Poissons Ratio (x) = 0.07263 0.43405
# Poissons Ratio (y) = 0.15244 0.08864
# Poissons Ratio (z) = 0.33762 0.03285
#
# Static dielectric constant tensor:
#      x y z
#    x 3.661710 0.000000 0.060550 
#    y 0.000000 3.285720 0.000000 
#    z 0.060550 0.000000 3.784040 
# 
# 
# High freq. dielectric constant tensor:
#      x y z
#    x 1.776830 0.000000 0.007750 
#    y 0.000000 1.743580 0.000000 
#    z 0.007750 0.000000 1.766860 
# 
# From -- ./inp_files/49104.got.cif
#   From: 2010.06.25/outbox.cif.g09.slc.cpg/sg10_25_cif.got.tgz:49104.got - 2010.06.27 22:07:45.
