data_PCOD8058581
_publ_section_title
;
Structure prediction by ZEFSAII (Michael W. Deem and Ramdas Pophale) SiO2 
 PCOD8058581
Probable space group: P 2/M
;
_chemical_formula_sum "Si O2"
_cell_formula_units_Z 32
_cell_length_a 14.380214
_cell_length_b 8.810674
_cell_length_c 19.686243
_cell_angle_alpha 90.000000
_cell_angle_beta 46.634374
_cell_angle_gamma 90.000000
_cell_volume 1813.275607
_symmetry_space_group_name_H-M "P 2/M"
_symmetry_group_IT_number 10
_symmetry_cell_setting 'monoclinic'
loop_
_space_group_symop_operation_xyz
x,y,z
-x,y,-z
-x,-y,-z
x,-y,z
loop_
_atom_site_type_symbol
_atom_site_label
_atom_site_fract_x
_atom_site_fract_y
_atom_site_fract_z
Si Si1 0.462655 0.320578 0.702853
Si Si2 0.477767 0.177219 0.831477
Si Si3 0.247127 0.321600 0.298024
Si Si4 0.867226 0.179649 0.773117
Si Si5 0.131082 0.680416 0.643347
Si Si6 0.249874 0.677543 0.447297
Si Si7 0.376658 0.320393 0.601146
Si Si8 0.624042 0.822573 0.974963
O O1 0.460311 0.500000 0.717462
O O2 0.409765 0.236967 0.796843
O O3 0.606197 0.258921 0.617966
O O4 0.378633 0.274215 0.679647
O O5 0.607647 0.266801 0.781826
O O6 0.510490 0.000000 0.809546
O O7 0.380595 0.209825 0.942203
O O8 0.241737 0.500000 0.285870
O O9 0.155277 0.235202 0.292384
O O10 0.194582 0.284676 0.400333
O O11 0.754275 0.245501 0.877982
O O12 0.000064 0.245367 0.734627
O O13 0.873509 0.000000 0.771412
O O14 0.116974 0.500000 0.653351
O O15 0.160195 0.741707 0.552184
O O16 0.245146 0.739841 0.634666
O O17 0.260557 0.500000 0.454000
O O18 0.500000 0.251281 0.500000
O O19 0.382830 0.500000 0.590163
O O20 0.624102 0.000000 0.958781
O O21 0.500000 0.749650 0.000000
#
# Coordination Sequence:
#
# PCOD8058581 Si02
#       8
#     4   4   4   4   4   4   4   4
#     4   9  16  29  50  79 105 128 164 208 248 289
#     4  10  18  31  52  76 100 130 165 205 255 303
#     4  10  19  32  50  75 102 132 168 206 244 292
#     4  11  22  36  51  70 100 136 170 209 255 302
#     4  10  19  33  52  75 101 133 173 210 243 290
#     4   8  15  28  48  71 100 133 165 198 234 287
#     4   9  15  28  55  80  99 132 175 207 238 293
#     4   9  17  33  54  71  92 131 175 206 243 302
#
# _framework density 17.64762
#
# number of rings (size 3 to 8) (size 9 to 14) (size 15 to 20)
#    0.000    2.500    2.500    1.875    0.000    0.500 
#    0.000    9.375    0.000    1.500    0.000    5.250 
#    0.000    0.000    0.000    0.000    0.000    0.000 
#
# Total GULP energy -396660.881085 kJ/mol
# GULP energy per Si atom -12395.652534 kJ/mol
# Density = 1.760745 g / cm^3
# Si number density = 17.647620 Si / 1000 Ang^3
#
#
#
# Elastic Constant Matrix: (Units=GPa)
#
#
# Indices 1 2 3 4 5 6 
#
# 1 126.4183 25.1451 73.1936 0.0000 -0.4365 0.0000
# 2 25.1451 32.4844 27.3227 0.0000 -0.1586 0.0000
# 3 73.1936 27.3227 120.6525 0.0000 0.0889 0.0000
# 4 0.0000 0.0000 0.0000 22.1520 0.0000 -0.8161
# 5 -0.4365 -0.1586 0.0889 0.0000 26.4900 0.0000
# 6 0.0000 0.0000 0.0000 -0.8161 0.0000 16.3875
#
#
#
# Elastic Compliance Matrix: (Units=1/GPa)
#
#
# Indices 1 2 3 4 5 6 
#
# 1 0.012624 -0.004113 -0.006727 0.000000 0.000206 0.000000
# 2 -0.004113 0.039369 -0.006421 0.000000 0.000190 0.000000
# 3 -0.006727 -0.006421 0.013823 0.000000 -0.000196 0.000000
# 4 0.000000 0.000000 0.000000 0.045226 0.000000 0.002252
# 5 0.000206 0.000190 -0.000196 0.000000 0.037755 0.000000
# 6 0.000000 0.000000 0.000000 0.002252 0.000000 0.061134
#
#
# Mechanical properties :
#
#
# Convention : Reuss Voigt Hill
#
# Bulk Modulus (GPa) = 31.95348 58.98644 45.46996
# Shear Modulus (GPa) = 19.61683 23.26550 21.44117
#
# Velocity S-wave (km/s) = 3.33766 3.63483 3.48941
# Velocity P-wave (km/s) = 5.74448 7.14934 6.48507
#
# Compressibility (1/GPa) = 0.03129550
#
# Stress axis : x y z
#
# Youngs Moduli (GPa) = 79.21563 25.40085 72.34136
#
# Poissons Ratio (x) = 0.10446 0.48664
# Poissons Ratio (y) = 0.32578 0.46448
# Poissons Ratio (z) = 0.53289 0.16309
#
# Static dielectric constant tensor:
#      x y z
#    x 3.361040 0.000000 0.174830 
#    y 0.000000 2.961580 0.000000 
#    z 0.174830 0.000000 3.400860 
# 
# 
# High freq. dielectric constant tensor:
#      x y z
#    x 1.675010 0.000000 0.016050 
#    y 0.000000 1.650070 0.000000 
#    z 0.016050 0.000000 1.672840 
# 
# From -- ./inp_files/69993.got.cif
#   From: 2010.06.25/outbox.cif.g09.slc.cpg/sg10_35_cif.got.tgz:69993.got - 2010.06.27 22:07:45.
