data_PCOD8058585
_publ_section_title
;
Structure prediction by ZEFSAII (Michael W. Deem and Ramdas Pophale) SiO2 
 PCOD8058585
Probable space group: P 2/M
;
_chemical_formula_sum "Si O2"
_cell_formula_units_Z 28
_cell_length_a 17.133268
_cell_length_b 8.987035
_cell_length_c 23.094677
_cell_angle_alpha 90.000000
_cell_angle_beta 24.010838
_cell_angle_gamma 90.000000
_cell_volume 1446.992567
_symmetry_space_group_name_H-M "P 2/M"
_symmetry_group_IT_number 10
_symmetry_cell_setting 'monoclinic'
loop_
_space_group_symop_operation_xyz
x,y,z
-x,y,-z
-x,-y,-z
x,-y,z
loop_
_atom_site_type_symbol
_atom_site_label
_atom_site_fract_x
_atom_site_fract_y
_atom_site_fract_z
Si Si1 0.412102 0.833442 0.398437
Si Si2 0.181505 0.168072 0.441698
Si Si3 0.814083 0.178129 0.093081
Si Si4 0.032416 0.172280 0.709540
Si Si5 0.852074 0.329126 0.730741
Si Si6 0.411778 0.672315 0.190251
Si Si7 0.217920 0.827632 0.016373
O O1 0.354815 0.831470 0.369992
O O2 0.624174 0.757980 0.255173
O O3 0.244244 0.756486 0.551583
O O4 0.437172 0.000000 0.405197
O O5 0.256827 0.235131 0.331204
O O6 0.010558 0.269778 0.579291
O O7 0.108451 0.000000 0.480791
O O8 0.811804 0.000000 0.095397
O O9 0.819889 0.233302 0.022520
O O10 0.000000 0.241753 0.000000
O O11 0.866032 0.243655 0.782354
O O12 0.978552 0.192551 0.813347
O O13 0.041715 0.000000 0.684632
O O14 0.894291 0.500000 0.715640
O O15 0.645405 0.309517 0.839057
O O16 0.403800 0.500000 0.214200
O O17 0.622968 0.733570 0.058110
O O18 0.281878 0.000000 0.972122
#
# Coordination Sequence:
#
# PCOD8058585 Si02
#       7
#     4   4   4   4   4   4   4
#     4   8  14  28  49  74 102 132 165 205 255 309
#     4  10  18  31  52  76 105 140 179 220 262 306
#     4   9  16  29  53  82 107 131 164 212 269 321
#     4   9  19  34  52  73 103 140 180 221 259 307
#     4  10  21  34  48  72 106 141 180 221 261 309
#     4  11  22  33  48  73 106 141 178 222 267 310
#     4  10  20  35  53  76 103 136 178 222 265 312
#
# _framework density 19.350479
#
# number of rings (size 3 to 8) (size 9 to 14) (size 15 to 20)
#    0.000    2.429    1.429    2.571    0.000    5.143 
#    0.000    3.571    0.000    4.714    0.000    0.000 
#    0.000    3.714    0.000    0.000    0.000    0.000 
#
# Total GULP energy -346982.080087 kJ/mol
# GULP energy per Si atom -12392.217146 kJ/mol
# Density = 1.930644 g / cm^3
# Si number density = 19.350479 Si / 1000 Ang^3
#
#
#
# Elastic Constant Matrix: (Units=GPa)
#
#
# Indices 1 2 3 4 5 6 
#
# 1 88.5177 20.7749 69.5672 0.0000 -11.2596 0.0000
# 2 20.7749 43.4290 14.8233 0.0000 0.4895 0.0000
# 3 69.5672 14.8233 82.4158 0.0000 -0.7204 0.0000
# 4 0.0000 0.0000 0.0000 15.3776 0.0000 3.0059
# 5 -11.2596 0.4895 -0.7204 0.0000 31.7105 0.0000
# 6 0.0000 0.0000 0.0000 3.0059 0.0000 2.0889
#
#
#
# Elastic Compliance Matrix: (Units=1/GPa)
#
#
# Indices 1 2 3 4 5 6 
#
# 1 0.040888 -0.008499 -0.032864 0.000000 0.013903 0.000000
# 2 -0.008499 0.026306 0.002413 0.000000 -0.003369 0.000000
# 3 -0.032864 0.002413 0.039345 0.000000 -0.010812 0.000000
# 4 0.000000 0.000000 0.000000 0.090481 0.000000 -0.130206
# 5 0.013903 -0.003369 -0.010812 0.000000 0.036278 0.000000
# 6 0.000000 0.000000 0.000000 -0.130206 0.000000 0.666101
#
#
# Mechanical properties :
#
#
# Convention : Reuss Voigt Hill
#
# Bulk Modulus (GPa) = 34.91550 47.18814 41.05182
# Shear Modulus (GPa) = 5.06664 17.11521 11.09092
#
# Velocity S-wave (km/s) = 1.61989 2.97726 2.39667
# Velocity P-wave (km/s) = 4.64560 6.02144 5.37770
#
# Compressibility (1/GPa) = 0.02864058
#
# Stress axis : x y z
#
# Youngs Moduli (GPa) = 24.45678 38.01407 25.41595
#
# Poissons Ratio (x) = 0.32309 0.83526
# Poissons Ratio (y) = 0.20786 -0.06134
# Poissons Ratio (z) = 0.80374 -0.09174
#
# Static dielectric constant tensor:
#      x y z
#    x 3.481690 0.000000 -0.075190 
#    y 0.000000 3.239310 0.000000 
#    z -0.075190 0.000000 3.675450 
# 
# 
# High freq. dielectric constant tensor:
#      x y z
#    x 1.733390 0.000000 0.002970 
#    y 0.000000 1.717640 0.000000 
#    z 0.002970 0.000000 1.759230 
# 
# From -- ./inp_files/84905.got.cif
#   From: 2010.06.25/outbox.cif.g09.slc.cpg/sg10_43_cif.got.tgz:84905.got - 2010.06.27 22:07:45.
