data_PCOD8058663
_publ_section_title
;
Structure prediction by ZEFSAII (Michael W. Deem and Ramdas Pophale) SiO2 
 PCOD8058663
Probable space group: P 2/M
;
_chemical_formula_sum "Si O2"
_cell_formula_units_Z 24
_cell_length_a 14.914062
_cell_length_b 8.754597
_cell_length_c 15.219262
_cell_angle_alpha 90.000000
_cell_angle_beta 139.990566
_cell_angle_gamma 90.000000
_cell_volume 1277.551451
_symmetry_space_group_name_H-M "P 2/M"
_symmetry_group_IT_number 10
_symmetry_cell_setting 'monoclinic'
loop_
_space_group_symop_operation_xyz
x,y,z
-x,y,-z
-x,-y,-z
x,-y,z
loop_
_atom_site_type_symbol
_atom_site_label
_atom_site_fract_x
_atom_site_fract_y
_atom_site_fract_z
Si Si1 0.347700 0.680453 0.414940
Si Si2 0.650836 0.817906 0.084179
Si Si3 0.843684 0.818051 0.383270
Si Si4 0.160673 0.179872 0.126594
Si Si5 0.347303 0.818530 0.600861
Si Si6 0.352327 0.819107 0.113117
O O1 0.500000 0.742703 0.500000
O O2 0.349293 0.500000 0.422584
O O3 0.230690 0.732485 0.259161
O O4 0.304511 0.748817 0.475908
O O5 0.765679 0.754107 0.238176
O O6 0.650873 0.000000 0.085919
O O7 0.500000 0.756329 0.000000
O O8 0.684239 0.755787 0.011376
O O9 0.764562 0.761972 0.411282
O O10 0.000000 0.751514 0.500000
O O11 0.845026 0.000000 0.382028
O O12 0.232534 0.233991 0.089998
O O13 0.179816 0.000000 0.156406
O O14 0.000000 0.227188 0.000000
O O15 0.498859 0.755040 0.742842
O O16 0.348077 0.000000 0.593334
O O17 0.362693 0.000000 0.116375
#
# Coordination Sequence:
#
# PCOD8058663 Si02
#       6
#     4   4   4   4   4   4
#     4  11  23  37  55  79 106 143 187 227 270 318
#     4   9  14  23  40  64  96 130 162 197 249 312
#     4   9  17  27  43  74 109 134 164 214 268 314
#     4  10  21  36  55  81 110 139 175 223 275 320
#     4  10  18  31  54  79 104 139 178 219 268 315
#     4   9  16  27  47  74 103 136 171 210 259 317
#
# _framework density 18.785937000000001
#
# number of rings (size 3 to 8) (size 9 to 14) (size 15 to 20)
#    0.000    2.333    3.333    0.500    0.000    2.333 
#    0.000    5.000    0.000    0.500    0.000    3.500 
#    0.000    0.000    0.000    0.000    0.000    0.000 
#
# Total GULP energy -297590.155943 kJ/mol
# GULP energy per Si atom -12399.589831 kJ/mol
# Density = 1.874318 g / cm^3
# Si number density = 18.785937 Si / 1000 Ang^3
#
#
#
# Elastic Constant Matrix: (Units=GPa)
#
#
# Indices 1 2 3 4 5 6 
#
# 1 183.0376 19.7595 99.4772 0.0000 -7.9608 0.0000
# 2 19.7595 18.2847 16.9882 0.0000 -2.0542 0.0000
# 3 99.4772 16.9882 154.5426 0.0000 -7.6051 0.0000
# 4 0.0000 0.0000 0.0000 6.9648 0.0000 4.8096
# 5 -7.9608 -2.0542 -7.6051 0.0000 46.1831 0.0000
# 6 0.0000 0.0000 0.0000 4.8096 0.0000 3.8251
#
#
#
# Elastic Compliance Matrix: (Units=1/GPa)
#
#
# Indices 1 2 3 4 5 6 
#
# 1 0.008762 -0.004675 -0.005103 0.000000 0.000462 0.000000
# 2 -0.004675 0.063527 -0.003906 0.000000 0.001377 0.000000
# 3 -0.005103 -0.003906 0.010216 0.000000 0.000629 0.000000
# 4 0.000000 0.000000 0.000000 1.090291 0.000000 -1.370924
# 5 0.000462 0.001377 0.000629 0.000000 0.021897 0.000000
# 6 0.000000 0.000000 0.000000 -1.370924 0.000000 1.985223
#
#
# Mechanical properties :
#
#
# Convention : Reuss Voigt Hill
#
# Bulk Modulus (GPa) = 18.13717 69.81276 43.97497
# Shear Modulus (GPa) = 1.55007 26.03724 13.79366
#
# Velocity S-wave (km/s) = 0.90935 3.72694 2.71265
# Velocity P-wave (km/s) = 3.28301 7.46746 5.76807
#
# Compressibility (1/GPa) = 0.05513538
#
# Stress axis : x y z
#
# Youngs Moduli (GPa) = 114.13492 15.74141 97.88745
#
# Poissons Ratio (x) = 0.07359 0.49953
# Poissons Ratio (y) = 0.53360 0.38236
# Poissons Ratio (z) = 0.58244 0.06149
#
# Static dielectric constant tensor:
#      x y z
#    x 3.769750 0.000000 -0.069180 
#    y 0.000000 2.807490 0.000000 
#    z -0.069180 0.000000 3.608060 
# 
# 
# High freq. dielectric constant tensor:
#      x y z
#    x 1.742330 0.000000 -0.009110 
#    y 0.000000 1.666690 0.000000 
#    z -0.009110 0.000000 1.738650 
# 
# From -- ./inp_files/33790.got.cif
#   From: 2010.06.25/outbox.cif.g09.slc.cpg/sg10_17_cif.got.tgz:33790.got - 2010.06.27 22:07:45.
