data_PCOD8058186
_publ_section_title
;
Structure prediction by ZEFSAII (Michael W. Deem and Ramdas Pophale) SiO2 
 PCOD8058186
Probable space group: P 2/M
;
_chemical_formula_sum "Si O2"
_cell_formula_units_Z 32
_cell_length_a 21.751105
_cell_length_b 8.765933
_cell_length_c 28.197640
_cell_angle_alpha 90.000000
_cell_angle_beta 161.048573
_cell_angle_gamma 90.000000
_cell_volume 1746.077085
_symmetry_space_group_name_H-M "P 2/M"
_symmetry_group_IT_number 10
_symmetry_cell_setting 'monoclinic'
loop_
_space_group_symop_operation_xyz
x,y,z
-x,y,-z
-x,-y,-z
x,-y,z
loop_
_atom_site_type_symbol
_atom_site_label
_atom_site_fract_x
_atom_site_fract_y
_atom_site_fract_z
Si Si1 0.493299 0.821828 0.942646
Si Si2 0.420162 0.318184 0.336138
Si Si3 0.213943 0.181278 0.658822
Si Si4 0.200147 0.821855 0.908594
Si Si5 0.488134 0.678910 0.188620
Si Si6 0.697846 0.680465 0.851813
Si Si7 0.894446 0.681637 0.821196
Si Si8 0.170254 0.681009 0.332875
O O1 0.321732 0.755891 0.784695
O O2 0.455362 0.000000 0.920840
O O3 0.500000 0.745107 0.000000
O O4 0.693636 0.789145 0.063551
O O5 0.414837 0.500000 0.332229
O O6 0.371519 0.251553 0.248759
O O7 0.268258 0.253905 0.262888
O O8 0.627456 0.260310 0.501547
O O9 0.323928 0.236981 0.692354
O O10 0.000000 0.244671 0.500000
O O11 0.216945 0.000000 0.660750
O O12 0.986711 0.761212 0.748562
O O13 0.207057 0.000000 0.925931
O O14 0.301732 0.730082 0.024563
O O15 0.515194 0.500000 0.201336
O O16 0.455347 0.723127 0.219633
O O17 0.718293 0.500000 0.863041
O O18 0.904117 0.748479 0.014845
O O19 0.894578 0.500000 0.822501
O O20 0.853321 0.738295 0.738140
O O21 0.148815 0.500000 0.321726
#
# Coordination Sequence:
#
# PCOD8058186 Si02
#       8
#     4   4   4   4   4   4   4   4
#     4   8  15  30  51  71  91 119 158 200 234 273
#     4   9  17  27  43  70 102 129 157 202 250 288
#     4   9  18  33  52  75 100 128 164 200 236 284
#     4  10  19  32  52  74  96 128 167 199 238 290
#     4  10  18  31  52  75 100 129 165 203 243 286
#     4   9  16  27  44  70 100 128 160 201 246 288
#     4   9  15  26  46  70  95 126 165 202 241 289
#     4  10  18  30  48  73 100 126 159 202 247 287
#
# _framework density 18.326796999999999
#
# number of rings (size 3 to 8) (size 9 to 14) (size 15 to 20)
#    0.000    2.750    1.250    2.250    0.000    3.250 
#    2.250    0.000    0.000   11.625    0.000    0.875 
#    0.000    0.000    0.000    0.000    0.000    0.000 
#
# Total GULP energy -396711.043724 kJ/mol
# GULP energy per Si atom -12397.220116 kJ/mol
# Density = 1.828508 g / cm^3
# Si number density = 18.326797 Si / 1000 Ang^3
#
#
#
# Elastic Constant Matrix: (Units=GPa)
#
#
# Indices 1 2 3 4 5 6 
#
# 1 148.3213 16.7175 91.3144 0.0000 1.7075 0.0000
# 2 16.7175 8.8474 11.6073 0.0000 2.1069 0.0000
# 3 91.3144 11.6073 164.3511 0.0000 9.9047 0.0000
# 4 0.0000 0.0000 0.0000 15.3785 0.0000 4.6364
# 5 1.7075 2.1069 9.9047 0.0000 33.2848 0.0000
# 6 0.0000 0.0000 0.0000 4.6364 0.0000 14.7375
#
#
#
# Elastic Compliance Matrix: (Units=1/GPa)
#
#
# Indices 1 2 3 4 5 6 
#
# 1 0.011978 -0.015684 -0.005672 0.000000 0.002066 0.000000
# 2 -0.015684 0.146052 -0.001112 0.000000 -0.008109 0.000000
# 3 -0.005672 -0.001112 0.009462 0.000000 -0.002454 0.000000
# 4 0.000000 0.000000 0.000000 0.071839 0.000000 -0.022601
# 5 0.002066 -0.008109 -0.002454 0.000000 0.031181 0.000000
# 6 0.000000 0.000000 0.000000 -0.022601 0.000000 0.074964
#
#
# Mechanical properties :
#
#
# Convention : Reuss Voigt Hill
#
# Bulk Modulus (GPa) = 8.15947 62.31091 35.23519
# Shear Modulus (GPa) = 11.59378 26.13886 18.86632
#
# Velocity S-wave (km/s) = 2.51791 3.78069 3.21197
# Velocity P-wave (km/s) = 3.59375 7.28916 5.74660
#
# Compressibility (1/GPa) = 0.12255693
#
# Stress axis : x y z
#
# Youngs Moduli (GPa) = 83.48672 6.84686 105.68218
#
# Poissons Ratio (x) = 0.10738 0.59942
# Poissons Ratio (y) = 1.30937 0.11756
# Poissons Ratio (z) = 0.47353 0.00762
#
# Static dielectric constant tensor:
#      x y z
#    x 3.607360 0.000000 -0.023610 
#    y 0.000000 2.860830 0.000000 
#    z -0.023610 0.000000 3.563710 
# 
# 
# High freq. dielectric constant tensor:
#      x y z
#    x 1.719140 0.000000 0.008020 
#    y 0.000000 1.658010 0.000000 
#    z 0.008020 0.000000 1.710370 
# 
# From -- ./inp_files/93786.got.cif
#   From: 2010.06.25/outbox.cif.g09.slc.cpg/sg10_47_cif.got.tgz:93786.got - 2010.06.27 22:07:45.
