data_PCOD8058618
_publ_section_title
;
Structure prediction by ZEFSAII (Michael W. Deem and Ramdas Pophale) SiO2 
 PCOD8058618
Probable space group: P 2/M
;
_chemical_formula_sum "Si O2"
_cell_formula_units_Z 32
_cell_length_a 21.289647
_cell_length_b 8.917737
_cell_length_c 19.224191
_cell_angle_alpha 90.000000
_cell_angle_beta 31.610166
_cell_angle_gamma 90.000000
_cell_volume 1913.004662
_symmetry_space_group_name_H-M "P 2/M"
_symmetry_group_IT_number 10
_symmetry_cell_setting 'monoclinic'
loop_
_space_group_symop_operation_xyz
x,y,z
-x,y,-z
-x,-y,-z
x,-y,z
loop_
_atom_site_type_symbol
_atom_site_label
_atom_site_fract_x
_atom_site_fract_y
_atom_site_fract_z
Si Si1 0.708917 0.830513 0.692896
Si Si2 0.216769 0.674750 0.119133
Si Si3 0.812568 0.169792 0.353266
Si Si4 0.462771 0.830068 0.871161
Si Si5 0.975379 0.322650 0.101815
Si Si6 0.128677 0.674259 0.352657
Si Si7 0.655732 0.677672 0.610357
Si Si8 0.073576 0.169446 0.132508
O O1 0.563337 0.828772 0.837827
O O2 0.766526 0.762114 0.707170
O O3 0.742004 0.733781 0.592479
O O4 0.755466 0.000000 0.638159
O O5 0.230321 0.500000 0.092052
O O6 0.138787 0.707262 0.261312
O O7 0.152774 0.748199 0.114341
O O8 0.347604 0.743361 0.007057
O O9 0.848036 0.250844 0.246795
O O10 0.707064 0.261679 0.489445
O O11 0.933059 0.170187 0.287785
O O12 0.769280 0.000000 0.379839
O O13 0.522033 0.746309 0.748084
O O14 0.428646 0.000000 0.882458
O O15 0.969697 0.500000 0.115715
O O16 0.082202 0.256510 0.050062
O O17 0.000000 0.273014 0.000000
O O18 0.144964 0.500000 0.354382
O O19 0.000000 0.732952 0.500000
O O20 0.650289 0.500000 0.613757
O O21 0.121100 0.000000 0.078591
#
# Coordination Sequence:
#
# PCOD8058618 Si02
#       8
#     4   4   4   4   4   4   4   4
#     4   9  20  36  53  73  97 128 167 213 258 306
#     4  11  22  35  52  74 100 132 174 213 255 307
#     4   9  18  30  48  75 105 136 167 202 249 299
#     4   9  20  36  53  73  98 127 168 215 261 306
#     4   9  17  30  49  76 108 139 172 207 246 294
#     4  10  23  38  51  72 100 132 167 209 259 310
#     4  10  18  31  53  75  99 128 165 211 255 298
#     4   9  20  33  50  73 105 139 168 207 253 301
#
# _framework density 16.727611
#
# number of rings (size 3 to 8) (size 9 to 14) (size 15 to 20)
#    1.500    1.000    0.000    2.625    1.750    2.750 
#    0.000    2.500    0.000    0.000    0.000    0.875 
#    0.000    7.000    0.000    0.000    0.000    0.000 
#
# Total GULP energy -396483.330925 kJ/mol
# GULP energy per Si atom -12390.104091 kJ/mol
# Density = 1.668954 g / cm^3
# Si number density = 16.727611 Si / 1000 Ang^3
#
#
#
# Elastic Constant Matrix: (Units=GPa)
#
#
# Indices 1 2 3 4 5 6 
#
# 1 76.2683 47.9483 46.0377 0.0000 15.7681 0.0000
# 2 47.9483 133.0883 49.7431 0.0000 12.7834 0.0000
# 3 46.0377 49.7431 83.4861 0.0000 5.0971 0.0000
# 4 0.0000 0.0000 0.0000 25.5501 0.0000 -1.9506
# 5 15.7681 12.7834 5.0971 0.0000 18.5728 0.0000
# 6 0.0000 0.0000 0.0000 -1.9506 0.0000 22.7544
#
#
#
# Elastic Compliance Matrix: (Units=1/GPa)
#
#
# Indices 1 2 3 4 5 6 
#
# 1 0.025123 -0.003478 -0.010806 0.000000 -0.015969 0.000000
# 2 -0.003478 0.010660 -0.004237 0.000000 -0.003221 0.000000
# 3 -0.010806 -0.004237 0.020059 0.000000 0.006586 0.000000
# 4 0.000000 0.000000 0.000000 0.039397 0.000000 0.003377
# 5 -0.015969 -0.003221 0.006586 0.000000 0.067810 0.000000
# 6 0.000000 0.000000 0.000000 0.003377 0.000000 0.044237
#
#
# Mechanical properties :
#
#
# Convention : Reuss Voigt Hill
#
# Bulk Modulus (GPa) = 53.19294 64.47787 58.83540
# Shear Modulus (GPa) = 19.95251 23.31637 21.63444
#
# Velocity S-wave (km/s) = 3.45742 3.73753 3.60020
# Velocity P-wave (km/s) = 6.91425 7.56670 7.24782
#
# Compressibility (1/GPa) = 0.01879949
#
# Stress axis : x y z
#
# Youngs Moduli (GPa) = 39.80420 93.81007 49.85188
#
# Poissons Ratio (x) = 0.32629 0.53872
# Poissons Ratio (y) = 0.13845 0.21121
# Poissons Ratio (z) = 0.43014 0.39744
#
# Static dielectric constant tensor:
#      x y z
#    x 2.805060 0.000000 0.053060 
#    y 0.000000 3.215130 0.000000 
#    z 0.053060 0.000000 3.001440 
# 
# 
# High freq. dielectric constant tensor:
#      x y z
#    x 1.608380 0.000000 0.007540 
#    y 0.000000 1.664790 0.000000 
#    z 0.007540 0.000000 1.629020 
# 
# From -- ./inp_files/86128.got.cif
#   From: 2010.06.25/outbox.cif.g09.slc.cpg/sg10_44_cif.got.tgz:86128.got - 2010.06.27 22:07:45.
