data_PCOD8058394
_publ_section_title
;
Structure prediction by ZEFSAII (Michael W. Deem and Ramdas Pophale) SiO2 
 PCOD8058394
Probable space group: P 2/M
;
_chemical_formula_sum "Si O2"
_cell_formula_units_Z 20
_cell_length_a 11.376622
_cell_length_b 10.171335
_cell_length_c 27.625237
_cell_angle_alpha 90.000000
_cell_angle_beta 159.852052
_cell_angle_gamma 90.000000
_cell_volume 1101.077172
_symmetry_space_group_name_H-M "P 2/M"
_symmetry_group_IT_number 10
_symmetry_cell_setting 'monoclinic'
loop_
_space_group_symop_operation_xyz
x,y,z
-x,y,-z
-x,-y,-z
x,-y,z
loop_
_atom_site_type_symbol
_atom_site_label
_atom_site_fract_x
_atom_site_fract_y
_atom_site_fract_z
Si Si1 0.198684 0.248496 0.205820
Si Si2 0.143530 0.149428 0.834996
Si Si3 0.472133 0.264858 0.875824
Si Si4 0.547158 0.000000 0.857474
Si Si5 0.408533 0.500000 0.148514
Si Si6 0.313004 0.000000 0.192066
Si Si7 0.392032 0.500000 0.664106
O O1 0.386945 0.127778 0.252526
O O2 0.437291 0.374107 0.294628
O O3 0.141280 0.208999 0.239478
O O4 0.846191 0.279179 0.042746
O O5 0.191118 0.258161 0.810394
O O6 0.041632 0.000000 0.778674
O O7 0.500000 0.135053 0.000000
O O8 0.383491 0.129502 0.815576
O O9 0.445296 0.377655 0.825397
O O10 0.449778 0.000000 0.763218
O O11 0.938703 0.000000 0.024670
O O12 0.577118 0.500000 0.266106
O O13 0.000000 0.500000 0.000000
O O14 0.000000 0.500000 0.500000
#
# Coordination Sequence:
#
# PCOD8058394 Si02
#       7
#     4   4   4   2   2   2   2
#     4  10  18  33  54  79 114 151 182 226 279 328
#     4   9  16  29  51  86 121 143 176 226 281 339
#     4  10  18  30  53  85 117 146 174 227 284 335
#     4   9  16  23  43  79 116 139 175 213 282 334
#     4  12  22  37  55  81 117 144 186 240 279 326
#     4   9  16  25  48  77 104 146 181 220 271 328
#     4  12  26  41  55  77 113 156 194 231 279 332
#
# _framework density 18.164031999999999
#
# number of rings (size 3 to 8) (size 9 to 14) (size 15 to 20)
#    0.000    2.000    4.000    1.200    2.800    0.800 
#    0.000    3.500    0.000    2.400    0.000    1.400 
#    0.000    0.000    0.000    0.000    0.000    0.000 
#
# Total GULP energy -247782.636815 kJ/mol
# GULP energy per Si atom -12389.131841 kJ/mol
# Density = 1.812269 g / cm^3
# Si number density = 18.164032 Si / 1000 Ang^3
#
#
#
# Elastic Constant Matrix: (Units=GPa)
#
#
# Indices 1 2 3 4 5 6 
#
# 1 154.2574 71.9712 40.2244 0.0000 8.2958 0.0000
# 2 71.9712 150.5747 36.6107 0.0000 10.2430 0.0000
# 3 40.2244 36.6107 46.8414 -0.0001 0.2941 0.0000
# 4 0.0000 0.0000 -0.0001 3.0650 0.0000 2.3886
# 5 8.2958 10.2430 0.2941 0.0000 11.7271 0.0000
# 6 0.0000 0.0000 0.0000 2.3886 0.0000 41.5715
#
#
#
# Elastic Compliance Matrix: (Units=1/GPa)
#
#
# Indices 1 2 3 4 5 6 
#
# 1 0.009596 -0.002849 -0.005988 0.000000 -0.004150 0.000000
# 2 -0.002849 0.009663 -0.005067 0.000000 -0.006298 0.000000
# 3 -0.005988 -0.005067 0.030402 0.000002 0.007900 0.000000
# 4 0.000000 0.000000 0.000002 0.341562 0.000001 -0.019625
# 5 -0.004150 -0.006298 0.007900 0.000001 0.093512 0.000000
# 6 0.000000 0.000000 0.000000 -0.019625 0.000000 0.025183
#
#
# Mechanical properties :
#
#
# Convention : Reuss Voigt Hill
#
# Bulk Modulus (GPa) = 45.75892 72.14291 58.95091
# Shear Modulus (GPa) = 9.17414 24.79718 16.98566
#
# Velocity S-wave (km/s) = 2.24982 3.69884 3.06130
# Velocity P-wave (km/s) = 5.65647 7.61877 6.70974
#
# Compressibility (1/GPa) = 0.02185366
#
# Stress axis : x y z
#
# Youngs Moduli (GPa) = 104.20535 103.48578 32.89279
#
# Poissons Ratio (x) = 0.29478 0.19697
# Poissons Ratio (y) = 0.29683 0.16667
# Poissons Ratio (z) = 0.62402 0.52436
#
# Static dielectric constant tensor:
#      x y z
#    x 3.893720 0.000000 0.029120 
#    y 0.000000 3.258680 0.000000 
#    z 0.029120 0.000000 2.630840 
# 
# 
# High freq. dielectric constant tensor:
#      x y z
#    x 1.730120 0.000000 0.003670 
#    y 0.000000 1.714680 0.000000 
#    z 0.003670 0.000000 1.617070 
# 
# From -- ./inp_files/94912.got.cif
#   From: 2010.06.25/outbox.cif.g09.slc.cpg/sg10_48_cif.got.tgz:94912.got - 2010.06.27 22:07:45.
