data_PCOD8058708
_publ_section_title
;
Structure prediction by ZEFSAII (Michael W. Deem and Ramdas Pophale) SiO2 
 PCOD8058708
Probable space group: P 2/M
;
_chemical_formula_sum "Si O2"
_cell_formula_units_Z 28
_cell_length_a 11.781547
_cell_length_b 9.157813
_cell_length_c 15.646832
_cell_angle_alpha 90.000000
_cell_angle_beta 123.359493
_cell_angle_gamma 90.000000
_cell_volume 1410.035832
_symmetry_space_group_name_H-M "P 2/M"
_symmetry_group_IT_number 10
_symmetry_cell_setting 'monoclinic'
loop_
_space_group_symop_operation_xyz
x,y,z
-x,y,-z
-x,-y,-z
x,-y,z
loop_
_atom_site_type_symbol
_atom_site_label
_atom_site_fract_x
_atom_site_fract_y
_atom_site_fract_z
Si Si1 0.852408 0.671981 0.151345
Si Si2 0.345978 0.326462 0.269313
Si Si3 0.404996 0.830979 0.696685
Si Si4 0.396064 0.168220 0.886040
Si Si5 0.147204 0.672207 0.040862
Si Si6 0.851182 0.328331 0.473194
Si Si7 0.856261 0.327301 0.669681
O O1 0.847470 0.500000 0.165226
O O2 0.745173 0.745651 0.169581
O O3 0.002310 0.734428 0.233937
O O4 0.810668 0.713716 0.037549
O O5 0.367920 0.500000 0.276115
O O6 0.491919 0.249493 0.325021
O O7 0.258023 0.267502 0.152861
O O8 0.270466 0.275260 0.324818
O O9 0.455597 0.810845 0.815468
O O10 0.256781 0.759991 0.627150
O O11 0.396832 0.000000 0.667958
O O12 0.365544 0.000000 0.893754
O O13 0.500000 0.232104 0.000000
O O14 0.136962 0.500000 0.049710
O O15 0.000000 0.741721 0.000000
O O16 0.821695 0.500000 0.452199
O O17 0.836834 0.274011 0.564944
O O18 0.000000 0.289682 0.500000
O O19 0.865134 0.500000 0.677655
#
# Coordination Sequence:
#
# PCOD8058708 Si02
#       7
#     4   4   4   4   4   4   4
#     4  10  18  31  56  86 112 139 180 228 272 323
#     4  10  19  34  57  83 114 149 184 221 270 331
#     4  11  24  40  57  79 111 148 184 227 277 325
#     4  10  22  39  55  74 108 149 183 220 272 329
#     4   9  15  27  51  84 117 145 174 218 273 320
#     4  10  21  39  62  85 109 140 183 231 276 327
#     4   9  18  33  56  85 112 141 178 225 277 324
#
# _framework density 19.857652000000002
#
# number of rings (size 3 to 8) (size 9 to 14) (size 15 to 20)
#    0.000    2.143    1.429    2.143    0.000    3.429 
#    0.000    5.000    0.000    0.857    0.000    0.000 
#    0.000    0.000    0.000    0.000    0.000    0.000 
#
# Total GULP energy -347223.240256 kJ/mol
# GULP energy per Si atom -12400.830009 kJ/mol
# Density = 1.981246 g / cm^3
# Si number density = 19.857652 Si / 1000 Ang^3
#
#
#
# Elastic Constant Matrix: (Units=GPa)
#
#
# Indices 1 2 3 4 5 6 
#
# 1 143.9521 46.1109 44.9986 0.0000 0.9906 0.0000
# 2 46.1109 48.2976 31.7183 0.0000 2.1772 0.0000
# 3 44.9986 31.7183 104.7986 0.0000 -2.5106 0.0000
# 4 0.0000 0.0000 0.0000 19.4516 0.0000 -3.5051
# 5 0.9906 2.1772 -2.5106 0.0000 33.1414 0.0000
# 6 0.0000 0.0000 0.0000 -3.5051 0.0000 0.6210
#
#
#
# Elastic Compliance Matrix: (Units=1/GPa)
#
#
# Indices 1 2 3 4 5 6 
#
# 1 0.010273 -0.008635 -0.001795 0.000000 0.000124 0.000000
# 2 -0.008635 0.033274 -0.006421 0.000000 -0.002414 0.000000
# 3 -0.001795 -0.006421 0.012290 0.000000 0.001406 0.000000
# 4 0.000000 0.000000 0.000000 -3.004692 0.000000-16.959684
# 5 0.000124 -0.002414 0.001406 0.000000 0.030435 0.000000
# 6 0.000000 0.000000 0.000000-16.959684 0.000000-94.116917
#
#
# Mechanical properties :
#
#
# Convention : Reuss Voigt Hill
#
# Bulk Modulus (GPa) = 45.17482 60.30044 52.73763
# Shear Modulus (GPa) = -0.05155 22.25751 11.10298
#
# Velocity S-wave (km/s) = -0.16129 3.35155 2.36716
# Velocity P-wave (km/s) = 4.77117 6.73865 5.83838
#
# Compressibility (1/GPa) = 0.02213623
#
# Stress axis : x y z
#
# Youngs Moduli (GPa) = 97.34494 30.05313 81.36845
#
# Poissons Ratio (x) = 0.25950 0.14602
# Poissons Ratio (y) = 0.84054 0.52247
# Poissons Ratio (z) = 0.17469 0.19297
#
# Static dielectric constant tensor:
#      x y z
#    x 3.660520 0.000000 -0.092300 
#    y 0.000000 3.140220 0.000000 
#    z -0.092300 0.000000 3.747910 
# 
# 
# High freq. dielectric constant tensor:
#      x y z
#    x 1.785640 0.000000 -0.003590 
#    y 0.000000 1.728020 0.000000 
#    z -0.003590 0.000000 1.780280 
# 
# From -- ./inp_files/63916.got.cif
#   From: 2010.06.25/outbox.cif.g09.slc.cpg/sg10_32_cif.got.tgz:63916.got - 2010.06.27 22:07:45.
