data_PCOD8058216
_publ_section_title
;
Structure prediction by ZEFSAII (Michael W. Deem and Ramdas Pophale) SiO2 
 PCOD8058216
Probable space group: P 2/M
;
_chemical_formula_sum "Si O2"
_cell_formula_units_Z 32
_cell_length_a 21.897038
_cell_length_b 13.496412
_cell_length_c 18.908615
_cell_angle_alpha 90.000000
_cell_angle_beta 19.411798
_cell_angle_gamma 90.000000
_cell_volume 1857.231707
_symmetry_space_group_name_H-M "P 2/M"
_symmetry_group_IT_number 10
_symmetry_cell_setting 'monoclinic'
loop_
_space_group_symop_operation_xyz
x,y,z
-x,y,-z
-x,-y,-z
x,-y,z
loop_
_atom_site_type_symbol
_atom_site_label
_atom_site_fract_x
_atom_site_fract_y
_atom_site_fract_z
Si Si1 0.410712 0.613683 0.944552
Si Si2 0.218319 0.295507 0.442986
Si Si3 0.342279 0.883986 0.517116
Si Si4 0.094178 0.886290 0.654753
Si Si5 0.195208 0.613943 0.319149
Si Si6 0.283024 0.108753 0.734603
Si Si7 0.855390 0.386227 0.891196
Si Si8 0.261266 0.796476 0.901263
O O1 0.468870 0.500000 0.872186
O O2 0.348803 0.633827 0.092511
O O3 0.247349 0.640520 0.069573
O O4 0.585708 0.681020 0.735515
O O5 0.170767 0.180113 0.506859
O O6 0.231560 0.315073 0.345253
O O7 0.069062 0.364586 0.644752
O O8 0.206613 0.856176 0.602113
O O9 0.233865 0.855582 0.708529
O O10 0.532160 0.824257 0.302286
O O11 0.392351 0.000000 0.463756
O O12 0.123349 0.000000 0.601857
O O13 0.878904 0.864393 0.900871
O O14 0.199480 0.500000 0.340665
O O15 0.000000 0.640656 0.500000
O O16 0.500000 0.097300 0.500000
O O17 0.220014 0.186659 0.862929
O O18 0.194377 0.000000 0.847533
O O19 0.827850 0.500000 0.943656
O O20 0.774324 0.318991 0.042878
#
# Coordination Sequence:
#
# PCOD8058216 Si02
#       8
#     4   4   4   4   4   4   4   4
#     4  10  19  31  51  75  97 122 154 194 241 285
#     4  11  20  32  50  72  98 128 155 191 241 285
#     4   9  17  31  50  72  98 121 153 203 246 279
#     4  10  21  33  48  72  97 126 162 195 230 281
#     4  10  18  31  52  76  99 120 150 198 244 280
#     4   8  14  26  47  72  94 119 153 197 244 284
#     4  10  20  32  46  70 100 127 159 196 232 280
#     4  10  18  30  49  71  96 129 158 193 241 285
#
# _framework density 17.229944
#
# number of rings (size 3 to 8) (size 9 to 14) (size 15 to 20)
#    0.000    2.250    1.250    4.125    0.000    1.500 
#    0.000    1.875    0.000    5.250    0.000    3.500 
#    0.000    0.000    0.000    0.000    0.000    0.000 
#
# Total GULP energy -396773.171648 kJ/mol
# GULP energy per Si atom -12399.161614 kJ/mol
# Density = 1.719073 g / cm^3
# Si number density = 17.229944 Si / 1000 Ang^3
#
#
#
# Elastic Constant Matrix: (Units=GPa)
#
#
# Indices 1 2 3 4 5 6 
#
# 1 69.6309 45.5633 11.8810 0.0000 8.2720 0.0000
# 2 45.5633 100.2427 39.8757 0.0000 9.7968 0.0000
# 3 11.8810 39.8757 60.9116 0.0000 1.1235 0.0000
# 4 0.0000 0.0000 0.0000 23.2618 0.0000 6.5655
# 5 8.2720 9.7968 1.1235 0.0000 21.8907 0.0000
# 6 0.0000 0.0000 0.0000 6.5655 0.0000 25.3188
#
#
#
# Elastic Compliance Matrix: (Units=1/GPa)
#
#
# Indices 1 2 3 4 5 6 
#
# 1 0.021058 -0.010307 0.002704 0.000000 -0.003484 0.000000
# 2 -0.010307 0.019252 -0.010516 0.000000 -0.004182 0.000000
# 3 0.002704 -0.010516 0.022728 0.000000 0.002518 0.000000
# 4 0.000000 0.000000 0.000000 0.046384 0.000000 -0.012028
# 5 -0.003484 -0.004182 0.002518 0.000000 0.048740 0.000000
# 6 0.000000 0.000000 0.000000 -0.012028 0.000000 0.042615
#
#
# Mechanical properties :
#
#
# Convention : Reuss Voigt Hill
#
# Bulk Modulus (GPa) = 37.31235 47.26945 42.29090
# Shear Modulus (GPa) = 20.32946 22.99193 21.66069
#
# Velocity S-wave (km/s) = 3.43868 3.65693 3.54948
# Velocity P-wave (km/s) = 6.12116 6.73238 6.43403
#
# Compressibility (1/GPa) = 0.02680078
#
# Stress axis : x y z
#
# Youngs Moduli (GPa) = 47.48752 51.94156 43.99925
#
# Poissons Ratio (x) = 0.53535 -0.11898
# Poissons Ratio (y) = 0.48944 0.46270
# Poissons Ratio (z) = -0.12841 0.54622
#
# Static dielectric constant tensor:
#      x y z
#    x 3.351400 0.000000 0.002270 
#    y 0.000000 3.041700 0.000000 
#    z 0.002270 0.000000 3.250480 
# 
# 
# High freq. dielectric constant tensor:
#      x y z
#    x 1.661470 0.000000 -0.009970 
#    y 0.000000 1.635220 0.000000 
#    z -0.009970 0.000000 1.673730 
# 
# From -- ./inp_files/79687.got.cif
#   From: 2010.06.25/outbox.cif.g09.slc.cpg/sg10_40_cif.got.tgz:79687.got - 2010.06.27 22:07:45.
