data_PCOD8058792
_publ_section_title
;
Structure prediction by ZEFSAII (Michael W. Deem and Ramdas Pophale) SiO2 
 PCOD8058792
Probable space group: P 2/M
;
_chemical_formula_sum "Si O2"
_cell_formula_units_Z 32
_cell_length_a 16.634717
_cell_length_b 13.407370
_cell_length_c 15.307022
_cell_angle_alpha 90.000000
_cell_angle_beta 28.478437
_cell_angle_gamma 90.000000
_cell_volume 1627.839028
_symmetry_space_group_name_H-M "P 2/M"
_symmetry_group_IT_number 10
_symmetry_cell_setting 'monoclinic'
loop_
_space_group_symop_operation_xyz
x,y,z
-x,y,-z
-x,-y,-z
x,-y,z
loop_
_atom_site_type_symbol
_atom_site_label
_atom_site_fract_x
_atom_site_fract_y
_atom_site_fract_z
Si Si1 0.334890 0.111650 0.920368
Si Si2 0.245322 0.382982 0.418978
Si Si3 0.137228 0.713228 0.046753
Si Si4 0.200725 0.610399 0.821846
Si Si5 0.444102 0.890118 0.457171
Si Si6 0.860098 0.614096 0.782999
Si Si7 0.539530 0.744779 0.057125
Si Si8 0.758290 0.295868 0.389527
O O1 0.405418 0.103775 0.755482
O O2 0.454222 0.164936 0.878663
O O3 0.287036 0.000000 0.999222
O O4 0.175642 0.183752 0.060369
O O5 0.270623 0.500000 0.381968
O O6 0.384724 0.327927 0.228172
O O7 0.281553 0.356666 0.485184
O O8 0.053309 0.353017 0.573213
O O9 0.154900 0.621798 0.097784
O O10 0.952159 0.724304 0.188409
O O11 0.252470 0.685094 0.852461
O O12 0.262173 0.500000 0.788138
O O13 0.302330 0.642900 0.637746
O O14 0.000000 0.609529 0.000000
O O15 0.500000 0.854193 0.500000
O O16 0.317178 0.813724 0.534847
O O17 0.359741 0.000000 0.546280
O O18 0.828127 0.500000 0.784580
O O19 0.716582 0.684520 0.878523
O O20 0.500000 0.791383 0.000000
#
# Coordination Sequence:
#
# PCOD8058792 Si02
#       8
#     4   4   4   4   4   4   4   4
#     4  10  21  39  58  78 107 142 182 235 291 338
#     4  10  20  36  58  84 116 152 190 231 277 341
#     4   9  18  31  53  80 106 145 185 231 275 332
#     4   9  16  27  47  76 111 148 184 220 266 326
#     4  10  20  34  54  77 106 144 182 225 278 332
#     4   9  19  35  56  84 116 151 187 227 281 334
#     4  11  23  39  60  84 112 148 190 237 286 341
#     4  10  18  32  52  78 110 147 187 230 278 328
#
# _framework density 19.657962000000001
#
# number of rings (size 3 to 8) (size 9 to 14) (size 15 to 20)
#    0.000    2.250    1.250    1.875    0.000    5.250 
#    0.000    1.250    0.000    6.000    0.000    3.500 
#    0.000    0.000    0.000    0.000    0.000    0.000 
#
# Total GULP energy -396482.100881 kJ/mol
# GULP energy per Si atom -12390.065653 kJ/mol
# Density = 1.961322 g / cm^3
# Si number density = 19.657962 Si / 1000 Ang^3
#
#
#
# Elastic Constant Matrix: (Units=GPa)
#
#
# Indices 1 2 3 4 5 6 
#
# 1 79.0333 32.8237 25.7416 0.0000 7.3542 0.0000
# 2 32.8237 110.2497 23.0131 0.0000 -2.2894 0.0000
# 3 25.7416 23.0131 54.2726 0.0000 8.7030 0.0000
# 4 0.0000 0.0000 0.0000 21.2950 0.0000 -2.2050
# 5 7.3542 -2.2894 8.7030 0.0000 20.0304 0.0000
# 6 0.0000 0.0000 0.0000 -2.2050 0.0000 11.0318
#
#
#
# Elastic Compliance Matrix: (Units=1/GPa)
#
#
# Indices 1 2 3 4 5 6 
#
# 1 0.016414 -0.003820 -0.005513 0.000000 -0.004068 0.000000
# 2 -0.003820 0.011034 -0.003541 0.000000 0.004202 0.000000
# 3 -0.005513 -0.003541 0.023951 0.000000 -0.008787 0.000000
# 4 0.000000 0.000000 0.000000 0.047952 0.000000 0.009584
# 5 -0.004068 0.004202 -0.008787 0.000000 0.055716 0.000000
# 6 0.000000 0.000000 0.000000 0.009584 0.000000 0.092562
#
#
# Mechanical properties :
#
#
# Convention : Reuss Voigt Hill
#
# Bulk Modulus (GPa) = 38.98523 45.19028 42.08775
# Shear Modulus (GPa) = 17.73517 21.26993 19.50255
#
# Velocity S-wave (km/s) = 3.00690 3.29295 3.15317
# Velocity P-wave (km/s) = 5.65067 6.12341 5.89179
#
# Compressibility (1/GPa) = 0.02565074
#
# Stress axis : x y z
#
# Youngs Moduli (GPa) = 60.92498 90.62862 41.75265
#
# Poissons Ratio (x) = 0.34624 0.23017
# Poissons Ratio (y) = 0.23276 0.14783
# Poissons Ratio (z) = 0.33587 0.32087
#
# Static dielectric constant tensor:
#      x y z
#    x 3.609870 0.000000 0.138740 
#    y 0.000000 3.698030 0.000000 
#    z 0.138740 0.000000 3.639710 
# 
# 
# High freq. dielectric constant tensor:
#      x y z
#    x 1.763190 0.000000 0.010300 
#    y 0.000000 1.759580 0.000000 
#    z 0.010300 0.000000 1.752070 
# 
# From -- ./inp_files/38214.got.cif
#   From: 2010.06.25/outbox.cif.g09.slc.cpg/sg10_20_cif.got.tgz:38214.got - 2010.06.27 22:07:45.
