data_PCOD8058182
_publ_section_title
;
Structure prediction by ZEFSAII (Michael W. Deem and Ramdas Pophale) SiO2 
 PCOD8058182
Probable space group: P 2/M
;
_chemical_formula_sum "Si O2"
_cell_formula_units_Z 32
_cell_length_a 12.527532
_cell_length_b 17.545112
_cell_length_c 8.277342
_cell_angle_alpha 90.000000
_cell_angle_beta 92.730122
_cell_angle_gamma 90.000000
_cell_volume 1817.269546
_symmetry_space_group_name_H-M "P 2/M"
_symmetry_group_IT_number 10
_symmetry_cell_setting 'monoclinic'
loop_
_space_group_symop_operation_xyz
x,y,z
-x,y,-z
-x,-y,-z
x,-y,z
loop_
_atom_site_type_symbol
_atom_site_label
_atom_site_fract_x
_atom_site_fract_y
_atom_site_fract_z
Si Si1 0.883074 0.416301 0.063484
Si Si2 0.964636 0.089375 0.674000
Si Si3 0.455766 0.912832 0.163201
Si Si4 0.848354 0.172839 0.175456
Si Si5 0.843794 0.723396 0.866018
Si Si6 0.262754 0.160190 0.321435
Si Si7 0.674086 0.911466 0.345085
Si Si8 0.050451 0.307864 0.677214
O O1 0.827667 0.500000 0.064902
O O2 0.892641 0.383580 0.247280
O O3 0.814559 0.358487 0.944441
O O4 0.000000 0.425191 0.000000
O O5 0.849183 0.118717 0.718086
O O6 0.000000 0.121443 0.500000
O O7 0.050802 0.116070 0.811879
O O8 0.959960 0.000000 0.668777
O O9 0.351822 0.866833 0.203328
O O10 0.548300 0.906707 0.303738
O O11 0.420636 0.000000 0.135255
O O12 0.500000 0.878148 0.000000
O O13 0.742215 0.122901 0.202085
O O14 0.864465 0.238450 0.316211
O O15 0.839714 0.210727 0.000328
O O16 0.759235 0.749561 0.720396
O O17 0.961468 0.719463 0.798936
O O18 0.302846 0.143138 0.502883
O O19 0.707378 0.000000 0.380967
O O20 0.000000 0.326002 0.500000
#
# Coordination Sequence:
#
# PCOD8058182 Si02
#       8
#     4   4   4   4   4   4   4   4
#     4   8  16  31  50  71 102 137 168 201 247 312
#     4  11  21  32  48  72 102 134 174 221 266 319
#     4  10  22  39  53  69  95 132 181 230 273 310
#     4  11  19  33  50  69 102 136 174 213 261 312
#     4  10  21  33  50  74 103 135 172 207 260 313
#     4  12  21  34  53  73 100 134 175 219 266 317
#     4  11  22  36  54  72  99 136 178 228 272 308
#     4  10  18  30  48  72 103 136 170 211 256 306
#
# _framework density 17.608834999999999
#
# number of rings (size 3 to 8) (size 9 to 14) (size 15 to 20)
#    0.000    1.625    2.500    4.875    0.000    1.250 
#    0.000    3.750    0.000    0.000    0.000    0.000 
#    0.000   14.500    0.000    0.000    0.000    3.250 
#
# Total GULP energy -396592.194620 kJ/mol
# GULP energy per Si atom -12393.506082 kJ/mol
# Density = 1.756876 g / cm^3
# Si number density = 17.608835 Si / 1000 Ang^3
#
#
#
# Elastic Constant Matrix: (Units=GPa)
#
#
# Indices 1 2 3 4 5 6 
#
# 1 75.1463 33.1457 12.5621 0.0000 -9.9847 0.0000
# 2 33.1457 99.4869 40.8929 0.0000 3.1331 0.0000
# 3 12.5621 40.8929 78.0083 0.0000 0.3241 0.0000
# 4 0.0000 0.0000 0.0000 22.3499 0.0000 6.6221
# 5 -9.9847 3.1331 0.3241 0.0000 22.9665 0.0000
# 6 0.0000 0.0000 0.0000 6.6221 0.0000 14.5032
#
#
#
# Elastic Compliance Matrix: (Units=1/GPa)
#
#
# Indices 1 2 3 4 5 6 
#
# 1 0.017022 -0.006105 0.000425 0.000000 0.008227 0.000000
# 2 -0.006105 0.015065 -0.006895 0.000000 -0.004612 0.000000
# 3 0.000425 -0.006895 0.016361 0.000000 0.000894 0.000000
# 4 0.000000 0.000000 0.000000 0.051743 0.000000 -0.023626
# 5 0.008227 -0.004612 0.000894 0.000000 0.047735 0.000000
# 6 0.000000 0.000000 0.000000 -0.023626 0.000000 0.079738
#
#
# Mechanical properties :
#
#
# Convention : Reuss Voigt Hill
#
# Bulk Modulus (GPa) = 42.92101 47.31590 45.11845
# Shear Modulus (GPa) = 19.18787 23.03328 21.11057
#
# Velocity S-wave (km/s) = 3.30460 3.62062 3.46622
# Velocity P-wave (km/s) = 6.24405 6.66389 6.45738
#
# Compressibility (1/GPa) = 0.02329861
#
# Stress axis : x y z
#
# Youngs Moduli (GPa) = 58.74633 66.37955 61.11947
#
# Poissons Ratio (x) = 0.40525 -0.02597
# Poissons Ratio (y) = 0.35865 0.42141
# Poissons Ratio (z) = -0.02496 0.45768
#
# Static dielectric constant tensor:
#      x y z
#    x 3.168230 0.000000 0.026040 
#    y 0.000000 3.489670 0.000000 
#    z 0.026040 0.000000 3.442020 
# 
# 
# High freq. dielectric constant tensor:
#      x y z
#    x 1.651030 0.000000 0.000980 
#    y 0.000000 1.660450 0.000000 
#    z 0.000980 0.000000 1.690720 
# 
# From -- ./inp_files/25694.got.cif
#   From: 2010.06.25/outbox.cif.g09.slc.cpg/sg10_13_cif.got.tgz:25694.got - 2010.06.27 22:07:45.
