data_PCOD8058243
_publ_section_title
;
Structure prediction by ZEFSAII (Michael W. Deem and Ramdas Pophale) SiO2 
 PCOD8058243
Probable space group: P 2/M
;
_chemical_formula_sum "Si O2"
_cell_formula_units_Z 26
_cell_length_a 8.954636
_cell_length_b 13.129880
_cell_length_c 19.242957
_cell_angle_alpha 90.000000
_cell_angle_beta 37.727044
_cell_angle_gamma 90.000000
_cell_volume 1384.398962
_symmetry_space_group_name_H-M "P 2/M"
_symmetry_group_IT_number 10
_symmetry_cell_setting 'monoclinic'
loop_
_space_group_symop_operation_xyz
x,y,z
-x,y,-z
-x,-y,-z
x,-y,z
loop_
_atom_site_type_symbol
_atom_site_label
_atom_site_fract_x
_atom_site_fract_y
_atom_site_fract_z
Si Si1 0.253256 0.300405 0.548039
Si Si2 0.465645 0.763224 0.208769
Si Si3 0.019997 0.116378 0.410843
Si Si4 0.000000 0.742778 0.000000
Si Si5 0.790584 0.381172 0.795948
Si Si6 0.539438 0.385187 0.663780
Si Si7 0.015561 0.615173 0.129649
O O1 0.500000 0.293060 0.500000
O O2 0.288040 0.362283 0.464395
O O3 0.170643 0.185664 0.560745
O O4 0.051175 0.361958 0.664593
O O5 0.292621 0.860887 0.281364
O O6 0.747605 0.804208 0.107251
O O7 0.412799 0.696021 0.159251
O O8 0.395631 0.688520 0.297222
O O9 0.000000 0.137737 0.500000
O O10 0.956876 0.000000 0.416751
O O11 0.072123 0.677714 0.040155
O O12 0.717053 0.500000 0.812989
O O13 0.810141 0.353982 0.870579
O O14 0.586237 0.500000 0.672320
O O15 0.260835 0.368854 0.742923
O O16 0.065754 0.500000 0.089455
#
# Coordination Sequence:
#
# PCOD8058243 Si02
#       7
#     4   4   4   2   4   4   4
#     4  11  20  32  53  81 113 148 179 219 272 328
#     4  10  21  37  54  80 106 146 184 228 272 318
#     4  10  21  39  60  81 107 137 176 230 285 336
#     4  10  21  36  55  72 106 144 190 230 268 314
#     4  10  20  31  48  79 114 147 187 224 263 314
#     4  10  18  30  49  77 115 151 183 209 253 316
#     4   9  18  31  48  73 106 149 189 222 255 300
#
# _framework density 18.780712999999999
#
# number of rings (size 3 to 8) (size 9 to 14) (size 15 to 20)
#    0.000    2.000    3.077    1.154    0.000    3.385 
#    0.000    4.231    0.000    0.000    0.000    8.615 
#    0.000    0.000    0.000    0.000    0.000    0.000 
#
# Total GULP energy -322299.692437 kJ/mol
# GULP energy per Si atom -12396.142017 kJ/mol
# Density = 1.873797 g / cm^3
# Si number density = 18.780713 Si / 1000 Ang^3
#
#
#
# Elastic Constant Matrix: (Units=GPa)
#
#
# Indices 1 2 3 4 5 6 
#
# 1 71.6227 5.2772 13.6492 0.0000 4.4803 0.0000
# 2 5.2772 48.3832 3.1092 0.0000 2.4261 0.0000
# 3 13.6492 3.1092 71.7208 0.0000 -6.6804 0.0000
# 4 0.0000 0.0000 0.0000 13.3496 0.0000 -0.8059
# 5 4.4803 2.4261 -6.6804 0.0000 34.4250 0.0000
# 6 0.0000 0.0000 0.0000 -0.8059 0.0000 16.5929
#
#
#
# Elastic Compliance Matrix: (Units=1/GPa)
#
#
# Indices 1 2 3 4 5 6 
#
# 1 0.014776 -0.001299 -0.002980 0.000000 -0.002410 0.000000
# 2 -0.001299 0.020934 -0.000796 0.000000 -0.001461 0.000000
# 3 -0.002980 -0.000796 0.014855 0.000000 0.003327 0.000000
# 4 0.000000 0.000000 0.000000 0.075129 0.000000 0.003649
# 5 -0.002410 -0.001461 0.003327 0.000000 0.030111 0.000000
# 6 0.000000 0.000000 0.000000 0.003649 0.000000 0.060444
#
#
# Mechanical properties :
#
#
# Convention : Reuss Voigt Hill
#
# Bulk Modulus (GPa) = 24.74413 26.19977 25.47195
# Shear Modulus (GPa) = 20.84446 24.18625 22.51535
#
# Velocity S-wave (km/s) = 3.33511 3.59252 3.46620
# Velocity P-wave (km/s) = 5.29476 5.58470 5.44166
#
# Compressibility (1/GPa) = 0.04041363
#
# Stress axis : x y z
#
# Youngs Moduli (GPa) = 67.67503 47.76815 67.31964
#
# Poissons Ratio (x) = 0.06207 0.20063
# Poissons Ratio (y) = 0.08793 0.05361
# Poissons Ratio (z) = 0.20169 0.03804
#
# Static dielectric constant tensor:
#      x y z
#    x 3.604180 0.000000 0.010790 
#    y 0.000000 3.073190 0.000000 
#    z 0.010790 0.000000 3.504810 
# 
# 
# High freq. dielectric constant tensor:
#      x y z
#    x 1.739840 0.000000 -0.000640 
#    y 0.000000 1.686040 0.000000 
#    z -0.000640 0.000000 1.740170 
# 
# From -- ./inp_files/24666.got.cif
#   From: 2010.06.25/outbox.cif.g09.slc.cpg/sg10_13_cif.got.tgz:24666.got - 2010.06.27 22:07:45.
