data_PCOD8058664
_publ_section_title
;
Structure prediction by ZEFSAII (Michael W. Deem and Ramdas Pophale) SiO2 
 PCOD8058664
Probable space group: P 2/M
;
_chemical_formula_sum "Si O2"
_cell_formula_units_Z 32
_cell_length_a 24.487854
_cell_length_b 9.006492
_cell_length_c 19.675915
_cell_angle_alpha 90.000000
_cell_angle_beta 23.951828
_cell_angle_gamma 90.000000
_cell_volume 1761.706641
_symmetry_space_group_name_H-M "P 2/M"
_symmetry_group_IT_number 10
_symmetry_cell_setting 'monoclinic'
loop_
_space_group_symop_operation_xyz
x,y,z
-x,y,-z
-x,-y,-z
x,-y,z
loop_
_atom_site_type_symbol
_atom_site_label
_atom_site_fract_x
_atom_site_fract_y
_atom_site_fract_z
Si Si1 0.982297 0.828753 0.307342
Si Si2 0.535594 0.676571 0.383665
Si Si3 0.686460 0.327056 0.466051
Si Si4 0.020791 0.668921 0.896811
Si Si5 0.186678 0.172522 0.960598
Si Si6 0.712145 0.327650 0.587797
Si Si7 0.078963 0.826192 0.473910
Si Si8 0.631398 0.176327 0.811451
O O1 0.865606 0.727621 0.408710
O O2 0.002645 0.790287 0.363997
O O3 0.936665 0.000000 0.351795
O O4 0.119585 0.797571 0.110720
O O5 0.500000 0.731099 0.500000
O O6 0.544775 0.500000 0.370283
O O7 0.422659 0.742183 0.461115
O O8 0.675417 0.739739 0.198766
O O9 0.697448 0.500000 0.436718
O O10 0.642563 0.298854 0.593921
O O11 0.833934 0.259236 0.284955
O O12 0.008156 0.500000 0.883183
O O13 0.909346 0.771222 0.989635
O O14 0.000000 0.671507 0.000000
O O15 0.215007 0.000000 0.916798
O O16 0.713230 0.500000 0.605626
O O17 0.625976 0.239841 0.741516
O O18 0.232513 0.765764 0.305911
O O19 0.000000 0.751126 0.500000
O O20 0.088184 0.000000 0.450014
O O21 0.631278 0.000000 0.806290
O O22 0.500000 0.235488 0.000000
#
# Coordination Sequence:
#
# PCOD8058664 Si02
#       8
#     4   4   4   4   4   4   4   4
#     4   9  18  33  52  76 107 139 173 211 258 313
#     4  10  21  39  59  75 100 142 185 223 264 316
#     4   9  18  33  53  79 104 132 178 225 264 308
#     4  10  19  34  58  82 102 133 181 225 258 310
#     4  11  22  35  52  80 114 141 171 217 272 324
#     4  10  18  31  54  79 105 136 173 219 265 306
#     4   8  14  28  51  73  95 129 171 210 243 286
#     4   9  18  33  51  75 104 135 172 211 254 311
#
# _framework density 18.164204999999999
#
# number of rings (size 3 to 8) (size 9 to 14) (size 15 to 20)
#    0.000    2.500    1.250    2.250    0.000    3.250 
#    2.250    1.875    0.000    6.000    0.000    0.000 
#    0.000    0.000    0.000    0.000    0.000    0.000 
#
# Total GULP energy -396734.694892 kJ/mol
# GULP energy per Si atom -12397.959215 kJ/mol
# Density = 1.812286 g / cm^3
# Si number density = 18.164205 Si / 1000 Ang^3
#
#
#
# Elastic Constant Matrix: (Units=GPa)
#
#
# Indices 1 2 3 4 5 6 
#
# 1 128.9843 25.1925 51.9819 0.0000 -0.8328 0.0000
# 2 25.1925 25.7829 23.6408 0.0000 3.5272 0.0000
# 3 51.9819 23.6408 124.0363 0.0000 5.1941 0.0000
# 4 0.0000 0.0000 0.0000 22.0021 0.0000 2.7072
# 5 -0.8328 3.5272 5.1941 0.0000 26.7554 0.0000
# 6 0.0000 0.0000 0.0000 2.7072 0.0000 12.2706
#
#
#
# Elastic Compliance Matrix: (Units=1/GPa)
#
#
# Indices 1 2 3 4 5 6 
#
# 1 0.010490 -0.007766 -0.002997 0.000000 0.001932 0.000000
# 2 -0.007766 0.053290 -0.006652 0.000000 -0.005976 0.000000
# 3 -0.002997 -0.006652 0.010640 0.000000 -0.001282 0.000000
# 4 0.000000 0.000000 0.000000 0.046719 0.000000 -0.010307
# 5 0.001932 -0.005976 -0.001282 0.000000 0.038472 0.000000
# 6 0.000000 0.000000 0.000000 -0.010307 0.000000 0.083770
#
#
# Mechanical properties :
#
#
# Convention : Reuss Voigt Hill
#
# Bulk Modulus (GPa) = 25.25894 53.38153 39.32024
# Shear Modulus (GPa) = 17.15810 24.07151 20.61480
#
# Velocity S-wave (km/s) = 3.07679 3.64430 3.37250
# Velocity P-wave (km/s) = 5.15347 6.86732 6.07117
#
# Compressibility (1/GPa) = 0.03958994
#
# Stress axis : x y z
#
# Youngs Moduli (GPa) = 95.32896 18.76508 93.98809
#
# Poissons Ratio (x) = 0.14573 0.28168
# Poissons Ratio (y) = 0.74034 0.62521
# Poissons Ratio (z) = 0.28569 0.12483
#
# Static dielectric constant tensor:
#      x y z
#    x 3.571690 0.000000 0.016990 
#    y 0.000000 3.135470 0.000000 
#    z 0.016990 0.000000 3.468220 
# 
# 
# High freq. dielectric constant tensor:
#      x y z
#    x 1.707040 0.000000 0.010660 
#    y 0.000000 1.675730 0.000000 
#    z 0.010660 0.000000 1.704740 
# 
# From -- ./inp_files/86859.got.cif
#   From: 2010.06.25/outbox.cif.g09.slc.cpg/sg10_44_cif.got.tgz:86859.got - 2010.06.27 22:07:45.
