data_PCOD8058949
_publ_section_title
;
Structure prediction by ZEFSAII (Michael W. Deem and Ramdas Pophale) SiO2 
 PCOD8058949
Probable space group: P 2/M
;
_chemical_formula_sum "Si O2"
_cell_formula_units_Z 32
_cell_length_a 19.862924
_cell_length_b 8.599039
_cell_length_c 20.033891
_cell_angle_alpha 90.000000
_cell_angle_beta 150.005585
_cell_angle_gamma 90.000000
_cell_volume 1710.626038
_symmetry_space_group_name_H-M "P 2/M"
_symmetry_group_IT_number 10
_symmetry_cell_setting 'monoclinic'
loop_
_space_group_symop_operation_xyz
x,y,z
-x,y,-z
-x,-y,-z
x,-y,z
loop_
_atom_site_type_symbol
_atom_site_label
_atom_site_fract_x
_atom_site_fract_y
_atom_site_fract_z
Si Si1 0.859680 0.315660 0.643363
Si Si2 0.680828 0.818187 0.106717
Si Si3 0.599588 0.320931 0.168155
Si Si4 0.596167 0.820412 0.667034
Si Si5 0.641542 0.821356 0.854726
Si Si6 0.843548 0.682398 0.130104
Si Si7 0.639550 0.680398 0.351007
Si Si8 0.318254 0.317464 0.389246
O O1 0.863045 0.500000 0.646299
O O2 0.766853 0.258027 0.502318
O O3 0.798250 0.257016 0.660909
O O4 0.010059 0.249708 0.763804
O O5 0.697388 0.734905 0.192748
O O6 0.800390 0.765707 0.161155
O O7 0.688466 0.000000 0.125322
O O8 0.538628 0.775892 0.950903
O O9 0.560454 0.500000 0.123811
O O10 0.673975 0.295365 0.302452
O O11 0.669069 0.790220 0.800070
O O12 0.698008 0.771601 0.695178
O O13 0.462000 0.717183 0.546613
O O14 0.554736 0.000000 0.623803
O O15 0.488001 0.782281 0.738795
O O16 0.668618 0.000000 0.897346
O O17 0.741361 0.713859 0.982153
O O18 0.847973 0.500000 0.147732
O O19 0.607861 0.500000 0.339582
O O20 0.306648 0.500000 0.366192
#
# Coordination Sequence:
#
# PCOD8058949 Si02
#       8
#     4   4   4   4   4   4   4   4
#     4   9  20  37  57  83 111 142 184 230 278 326
#     4  11  21  34  53  79 114 147 180 226 275 326
#     4  10  19  32  56  85 109 141 183 225 276 328
#     4  10  20  33  51  80 114 144 177 223 274 328
#     4  11  22  35  54  82 113 144 184 227 273 328
#     4  11  22  38  58  79 110 148 185 229 275 329
#     4  10  19  35  59  84 110 139 181 232 276 321
#     4  10  18  32  56  82 108 141 182 228 273 323
#
# _framework density 18.706603000000001
#
# number of rings (size 3 to 8) (size 9 to 14) (size 15 to 20)
#    0.000    1.750    2.500    4.500    0.000    2.000 
#    0.000    5.000    0.000    7.500    0.000    0.000 
#    0.000    0.000    0.000    0.000    0.000    0.000 
#
# Total GULP energy -396841.258671 kJ/mol
# GULP energy per Si atom -12401.289333 kJ/mol
# Density = 1.866403 g / cm^3
# Si number density = 18.706603 Si / 1000 Ang^3
#
#
#
# Elastic Constant Matrix: (Units=GPa)
#
#
# Indices 1 2 3 4 5 6 
#
# 1 155.6798 25.5304 54.7245 0.0000 -1.3512 0.0000
# 2 25.5304 51.0773 9.3532 0.0000 -5.4933 0.0000
# 3 54.7245 9.3532 78.2662 0.0000 1.5674 0.0000
# 4 0.0000 0.0000 0.0000 5.2078 0.0000 -6.7340
# 5 -1.3512 -5.4933 1.5674 0.0000 30.6062 0.0000
# 6 0.0000 0.0000 0.0000 -6.7340 0.0000 25.2723
#
#
#
# Elastic Compliance Matrix: (Units=1/GPa)
#
#
# Indices 1 2 3 4 5 6 
#
# 1 0.009075 -0.003440 -0.005936 0.000000 0.000087 0.000000
# 2 -0.003440 0.021752 -0.000270 0.000000 0.003766 0.000000
# 3 -0.005936 -0.000270 0.016983 0.000000 -0.001180 0.000000
# 4 0.000000 0.000000 0.000000 0.292961 0.000000 0.078062
# 5 0.000087 0.003766 -0.001180 0.000000 0.033413 0.000000
# 6 0.000000 0.000000 0.000000 0.078062 0.000000 0.060369
#
#
# Mechanical properties :
#
#
# Convention : Reuss Voigt Hill
#
# Bulk Modulus (GPa) = 35.06412 51.58215 43.32313
# Shear Modulus (GPa) = 10.79097 25.24494 18.01795
#
# Velocity S-wave (km/s) = 2.40438 3.67757 3.10689
# Velocity P-wave (km/s) = 5.14714 6.75772 6.00666
#
# Compressibility (1/GPa) = 0.02851918
#
# Stress axis : x y z
#
# Youngs Moduli (GPa) = 110.19455 45.97302 58.88151
#
# Poissons Ratio (x) = 0.15813 0.34952
# Poissons Ratio (y) = 0.37902 0.01589
# Poissons Ratio (z) = 0.65411 0.01241
#
# Static dielectric constant tensor:
#      x y z
#    x 3.837520 0.000000 -0.148650 
#    y 0.000000 3.376030 0.000000 
#    z -0.148650 0.000000 3.315770 
# 
# 
# High freq. dielectric constant tensor:
#      x y z
#    x 1.740970 0.000000 -0.019770 
#    y 0.000000 1.725580 0.000000 
#    z -0.019770 0.000000 1.694590 
# 
# From -- ./inp_files/86137.got.cif
#   From: 2010.06.25/outbox.cif.g09.slc.cpg/sg10_44_cif.got.tgz:86137.got - 2010.06.27 22:07:45.
