data_PCOD8058694
_publ_section_title
;
Structure prediction by ZEFSAII (Michael W. Deem and Ramdas Pophale) SiO2 
 PCOD8058694
Probable space group: P 2/M
;
_chemical_formula_sum "Si O2"
_cell_formula_units_Z 28
_cell_length_a 12.572707
_cell_length_b 8.625923
_cell_length_c 14.912386
_cell_angle_alpha 90.000000
_cell_angle_beta 105.533526
_cell_angle_gamma 90.000000
_cell_volume 1558.193794
_symmetry_space_group_name_H-M "P 2/M"
_symmetry_group_IT_number 10
_symmetry_cell_setting 'monoclinic'
loop_
_space_group_symop_operation_xyz
x,y,z
-x,y,-z
-x,-y,-z
x,-y,z
loop_
_atom_site_type_symbol
_atom_site_label
_atom_site_fract_x
_atom_site_fract_y
_atom_site_fract_z
Si Si1 0.356305 0.819182 0.903954
Si Si2 0.397661 0.820408 0.279933
Si Si3 0.624440 0.678680 0.385029
Si Si4 0.583985 0.681148 0.902764
Si Si5 0.741903 0.318805 0.597431
Si Si6 0.795100 0.318925 0.268312
Si Si7 0.980849 0.683984 0.594598
O O1 0.455164 0.725960 0.878670
O O2 0.243809 0.776682 0.827328
O O3 0.381943 0.000000 0.902417
O O4 0.346344 0.771143 0.005630
O O5 0.518532 0.783697 0.344915
O O6 0.369951 0.725049 0.183930
O O7 0.305533 0.778048 0.331287
O O8 0.391131 0.000000 0.254843
O O9 0.588567 0.500000 0.366477
O O10 0.668281 0.713623 0.493760
O O11 0.720128 0.721724 0.336949
O O12 0.597241 0.500000 0.922772
O O13 0.740792 0.500000 0.621333
O O14 0.865671 0.256214 0.608914
O O15 0.789590 0.500000 0.244490
O O16 0.919562 0.265041 0.317873
O O17 0.976627 0.500000 0.584229
O O18 0.000000 0.755518 0.500000
#
# Coordination Sequence:
#
# PCOD8058694 Si02
#       7
#     4   4   4   4   4   4   4
#     4  11  21  34  53  82 114 142 172 214 271 328
#     4  12  24  36  51  76 112 149 182 221 273 328
#     4  10  19  32  53  79 109 145 184 222 266 319
#     4  11  21  36  57  79 105 139 180 224 269 320
#     4  10  20  35  55  79 108 146 189 228 267 315
#     4  10  18  31  55  83 111 143 180 223 268 314
#     4   9  16  31  56  83 106 137 185 234 268 302
#
# _framework density 17.969522999999999
#
# number of rings (size 3 to 8) (size 9 to 14) (size 15 to 20)
#    0.000    1.571    2.857    5.143    0.000    2.286 
#    0.000    0.714    0.000    1.714    0.000    6.000 
#    0.000    0.000    0.000    0.000    0.000    0.000 
#
# Total GULP energy -347301.890089 kJ/mol
# GULP energy per Si atom -12403.638932 kJ/mol
# Density = 1.792862 g / cm^3
# Si number density = 17.969523 Si / 1000 Ang^3
#
#
#
# Elastic Constant Matrix: (Units=GPa)
#
#
# Indices 1 2 3 4 5 6 
#
# 1 84.6741 24.5576 40.5323 0.0000 -7.6593 0.0000
# 2 24.5576 65.5205 28.6702 0.0000 1.8197 0.0000
# 3 40.5323 28.6702 109.3273 0.0000 -3.3031 0.0000
# 4 0.0000 0.0000 0.0000 16.1458 0.0000 -4.1999
# 5 -7.6593 1.8197 -3.3031 0.0000 19.6753 0.0000
# 6 0.0000 0.0000 0.0000 -4.1999 0.0000 4.9150
#
#
#
# Elastic Compliance Matrix: (Units=1/GPa)
#
#
# Indices 1 2 3 4 5 6 
#
# 1 0.015692 -0.004033 -0.004588 0.000000 0.005712 0.000000
# 2 -0.004033 0.018387 -0.003443 0.000000 -0.003849 0.000000
# 3 -0.004588 -0.003443 0.011766 0.000000 0.000508 0.000000
# 4 0.000000 0.000000 0.000000 0.079637 0.000000 0.068050
# 5 0.005712 -0.003849 0.000508 0.000000 0.053490 0.000000
# 6 0.000000 0.000000 0.000000 0.068050 0.000000 0.261608
#
#
# Mechanical properties :
#
#
# Convention : Reuss Voigt Hill
#
# Bulk Modulus (GPa) = 46.04356 49.67135 47.85745
# Shear Modulus (GPa) = 10.59441 19.19801 14.89621
#
# Velocity S-wave (km/s) = 2.43075 3.27213 2.88231
# Velocity P-wave (km/s) = 5.79283 6.47903 6.14551
#
# Compressibility (1/GPa) = 0.02171856
#
# Stress axis : x y z
#
# Youngs Moduli (GPa) = 63.72557 54.38500 84.99096
#
# Poissons Ratio (x) = 0.21932 0.38991
# Poissons Ratio (y) = 0.25699 0.29263
# Poissons Ratio (z) = 0.29235 0.18725
#
# Static dielectric constant tensor:
#      x y z
#    x 3.277880 0.000000 0.048880 
#    y 0.000000 3.141130 0.000000 
#    z 0.048880 0.000000 3.450850 
# 
# 
# High freq. dielectric constant tensor:
#      x y z
#    x 1.673880 0.000000 0.001310 
#    y 0.000000 1.682830 0.000000 
#    z 0.001310 0.000000 1.703930 
# 
# From -- ./inp_files/63484.got.cif
#   From: 2010.06.25/outbox.cif.g09.slc.cpg/sg10_32_cif.got.tgz:63484.got - 2010.06.27 22:07:45.
