data_PCOD8058268
_publ_section_title
;
Structure prediction by ZEFSAII (Michael W. Deem and Ramdas Pophale) SiO2 
 PCOD8058268
Probable space group: P 2/M
;
_chemical_formula_sum "Si O2"
_cell_formula_units_Z 32
_cell_length_a 24.676990
_cell_length_b 9.002868
_cell_length_c 18.193199
_cell_angle_alpha 90.000000
_cell_angle_beta 27.560895
_cell_angle_gamma 90.000000
_cell_volume 1870.136334
_symmetry_space_group_name_H-M "P 2/M"
_symmetry_group_IT_number 10
_symmetry_cell_setting 'monoclinic'
loop_
_space_group_symop_operation_xyz
x,y,z
-x,y,-z
-x,-y,-z
x,-y,z
loop_
_atom_site_type_symbol
_atom_site_label
_atom_site_fract_x
_atom_site_fract_y
_atom_site_fract_z
Si Si1 0.850042 0.668218 0.519321
Si Si2 0.551543 0.672804 0.360481
Si Si3 0.133313 0.173330 0.353816
Si Si4 0.191112 0.327581 0.992798
Si Si5 0.037849 0.175805 0.740264
Si Si6 0.736495 0.667905 0.511069
Si Si7 0.737228 0.829454 0.949546
Si Si8 0.477345 0.170777 0.305246
O O1 0.895855 0.500000 0.475069
O O2 0.814957 0.738385 0.639067
O O3 0.951618 0.766982 0.357523
O O4 0.737362 0.669571 0.599737
O O5 0.500000 0.725066 0.500000
O O6 0.527345 0.500000 0.374498
O O7 0.486000 0.764480 0.376574
O O8 0.690165 0.706501 0.194552
O O9 0.000000 0.222596 0.500000
O O10 0.141388 0.000000 0.361791
O O11 0.212922 0.217995 0.189157
O O12 0.158564 0.500000 0.030568
O O13 0.086202 0.236144 0.080045
O O14 0.205547 0.276625 0.059288
O O15 0.145746 0.245159 0.657866
O O16 0.042303 0.000000 0.739275
O O17 0.741016 0.500000 0.475187
O O18 0.620772 0.746050 0.622639
O O19 0.597664 0.807538 0.116152
O O20 0.770296 0.000000 0.928662
O O21 0.441932 0.000000 0.354661
#
# Coordination Sequence:
#
# PCOD8058268 Si02
#       8
#     4   4   4   4   4   4   4   4
#     4   9  19  32  47  70  96 127 169 213 254 298
#     4   9  19  35  55  79 108 140 168 199 246 299
#     4  10  19  30  46  68  98 135 170 209 259 306
#     4  10  18  30  50  76 103 132 168 208 248 295
#     4  10  18  30  50  73  99 130 166 206 252 299
#     4   9  19  34  52  74  99 130 173 215 251 299
#     4   9  19  32  46  71 102 133 171 210 255 305
#     4  10  19  33  54  77 103 135 170 209 251 299
#
# _framework density 17.111052000000001
#
# number of rings (size 3 to 8) (size 9 to 14) (size 15 to 20)
#    0.750    1.750    0.000    3.000    0.000    3.000 
#    0.000    0.625    0.000    4.500    0.000    5.250 
#    0.000    0.000    0.000    0.000    0.000    0.000 
#
# Total GULP energy -396669.964116 kJ/mol
# GULP energy per Si atom -12395.936379 kJ/mol
# Density = 1.707211 g / cm^3
# Si number density = 17.111052 Si / 1000 Ang^3
#
#
#
# Elastic Constant Matrix: (Units=GPa)
#
#
# Indices 1 2 3 4 5 6 
#
# 1 72.7064 48.7164 57.2611 0.0000 -5.8699 0.0000
# 2 48.7164 113.2555 53.1043 0.0000 -8.3802 0.0000
# 3 57.2611 53.1043 103.2198 0.0000 -1.4891 0.0000
# 4 0.0000 0.0000 0.0000 26.0468 0.0000 -4.2924
# 5 -5.8699 -8.3802 -1.4891 0.0000 28.9703 0.0000
# 6 0.0000 0.0000 0.0000 -4.2924 0.0000 29.0293
#
#
#
# Elastic Compliance Matrix: (Units=1/GPa)
#
#
# Indices 1 2 3 4 5 6 
#
# 1 0.027600 -0.005896 -0.012231 0.000000 0.003258 0.000000
# 2 -0.005896 0.013174 -0.003472 0.000000 0.002438 0.000000
# 3 -0.012231 -0.003472 0.018222 0.000000 -0.002546 0.000000
# 4 0.000000 0.000000 0.000000 0.039351 0.000000 0.005819
# 5 0.003258 0.002438 -0.002546 0.000000 0.035753 0.000000
# 6 0.000000 0.000000 0.000000 0.005819 0.000000 0.035308
#
#
# Mechanical properties :
#
#
# Convention : Reuss Voigt Hill
#
# Bulk Modulus (GPa) = 63.29325 67.48282 65.38803
# Shear Modulus (GPa) = 22.94922 25.48262 24.21592
#
# Velocity S-wave (km/s) = 3.66620 3.86327 3.76602
# Velocity P-wave (km/s) = 7.41562 7.70867 7.56356
#
# Compressibility (1/GPa) = 0.01579947
#
# Stress axis : x y z
#
# Youngs Moduli (GPa) = 36.23164 75.90706 54.87744
#
# Poissons Ratio (x) = 0.44756 0.67119
# Poissons Ratio (y) = 0.21363 0.19052
# Poissons Ratio (z) = 0.44314 0.26352
#
# Static dielectric constant tensor:
#      x y z
#    x 2.940180 0.000000 -0.075500 
#    y 0.000000 3.243810 0.000000 
#    z -0.075500 0.000000 3.155750 
# 
# 
# High freq. dielectric constant tensor:
#      x y z
#    x 1.636380 0.000000 -0.012940 
#    y 0.000000 1.672970 0.000000 
#    z -0.012940 0.000000 1.648200 
# 
# From -- ./inp_files/79951.got.cif
#   From: 2010.06.25/outbox.cif.g09.slc.cpg/sg10_40_cif.got.tgz:79951.got - 2010.06.27 22:07:45.
