data_PCOD8058955
_publ_section_title
;
Structure prediction by ZEFSAII (Michael W. Deem and Ramdas Pophale) SiO2 
 PCOD8058955
Probable space group: P 2/M
;
_chemical_formula_sum "Si O2"
_cell_formula_units_Z 32
_cell_length_a 33.271260
_cell_length_b 8.883491
_cell_length_c 12.575611
_cell_angle_alpha 90.000000
_cell_angle_beta 153.601489
_cell_angle_gamma 90.000000
_cell_volume 1652.582287
_symmetry_space_group_name_H-M "P 2/M"
_symmetry_group_IT_number 10
_symmetry_cell_setting 'monoclinic'
loop_
_space_group_symop_operation_xyz
x,y,z
-x,y,-z
-x,-y,-z
x,-y,z
loop_
_atom_site_type_symbol
_atom_site_label
_atom_site_fract_x
_atom_site_fract_y
_atom_site_fract_z
Si Si1 0.240514 0.821640 0.699878
Si Si2 0.392494 0.322796 0.547782
Si Si3 0.063951 0.322576 0.880846
Si Si4 0.182132 0.675954 0.352940
Si Si5 0.352634 0.171501 0.665542
Si Si6 0.135737 0.679139 0.639405
Si Si7 0.195936 0.678293 0.012664
Si Si8 0.434884 0.830234 0.085269
O O1 0.178211 0.764302 0.454793
O O2 0.208476 0.751156 0.733487
O O3 0.344432 0.769978 0.929065
O O4 0.233089 0.000000 0.684336
O O5 0.394229 0.500000 0.571306
O O6 0.404162 0.235843 0.686130
O O7 0.299664 0.269591 0.272104
O O8 0.478689 0.273341 0.680082
O O9 0.062562 0.500000 0.859629
O O10 0.963634 0.258164 0.625097
O O11 0.094336 0.284235 0.073362
O O12 0.133332 0.252819 0.958225
O O13 0.187152 0.500000 0.390702
O O14 0.267236 0.722064 0.483577
O O15 0.420541 0.177144 0.924957
O O16 0.320141 0.000000 0.569373
O O17 0.141434 0.500000 0.642913
O O18 0.159246 0.736702 0.812983
O O19 0.190731 0.500000 0.004191
O O20 0.455739 0.000000 0.171626
#
# Coordination Sequence:
#
# PCOD8058955 Si02
#       8
#     4   4   4   4   4   4   4   4
#     4  10  22  40  56  75 112 149 182 225 272 322
#     4  11  20  31  52  82 111 139 176 226 274 318
#     4   9  17  32  57  87 113 137 174 227 277 322
#     4  10  18  32  56  84 113 141 179 226 270 320
#     4  10  19  32  50  76 113 150 179 212 266 328
#     4  10  20  36  61  82 102 144 191 226 267 320
#     4   9  18  34  55  84 115 139 175 227 276 319
#     4   9  20  36  52  72 103 145 183 217 266 327
#
# _framework density 19.363634000000001
#
# number of rings (size 3 to 8) (size 9 to 14) (size 15 to 20)
#    0.000    2.250    1.250    3.000    0.000    6.500 
#    0.000    5.625    0.000    4.500    0.000    0.000 
#    0.000    0.000    0.000    0.000    0.000    0.000 
#
# Total GULP energy -396763.986298 kJ/mol
# GULP energy per Si atom -12398.874572 kJ/mol
# Density = 1.931956 g / cm^3
# Si number density = 19.363634 Si / 1000 Ang^3
#
#
#
# Elastic Constant Matrix: (Units=GPa)
#
#
# Indices 1 2 3 4 5 6 
#
# 1 82.9000 18.5532 27.9434 0.0000 6.3828 0.0000
# 2 18.5532 41.4342 21.9366 0.0000 -0.9470 0.0000
# 3 27.9434 21.9366 88.2213 0.0000 18.9880 0.0000
# 4 0.0000 0.0000 0.0000 5.7602 0.0000 6.9172
# 5 6.3828 -0.9470 18.9880 0.0000 17.5606 0.0000
# 6 0.0000 0.0000 0.0000 6.9172 0.0000 20.3244
#
#
#
# Elastic Compliance Matrix: (Units=1/GPa)
#
#
# Indices 1 2 3 4 5 6 
#
# 1 0.014302 -0.005006 -0.002748 0.000000 -0.002497 0.000000
# 2 -0.005006 0.031519 -0.009135 0.000000 0.013397 0.000000
# 3 -0.002748 -0.009135 0.018726 0.000000 -0.019742 0.000000
# 4 0.000000 0.000000 0.000000 0.293599 0.000000 -0.099924
# 5 -0.002497 0.013397 -0.019742 0.000000 0.079923 0.000000
# 6 0.000000 0.000000 0.000000 -0.099924 0.000000 0.083210
#
#
# Mechanical properties :
#
#
# Convention : Reuss Voigt Hill
#
# Bulk Modulus (GPa) = 32.50069 38.82467 35.66268
# Shear Modulus (GPa) = 8.84468 18.33721 13.59094
#
# Velocity S-wave (km/s) = 2.13953 3.08066 2.65218
# Velocity P-wave (km/s) = 4.78793 5.72257 5.27599
#
# Compressibility (1/GPa) = 0.03076858
#
# Stress axis : x y z
#
# Youngs Moduli (GPa) = 69.92248 31.72694 53.40157
#
# Poissons Ratio (x) = 0.15883 0.14673
# Poissons Ratio (y) = 0.35005 0.48783
# Poissons Ratio (z) = 0.19212 0.28983
#
# Static dielectric constant tensor:
#      x y z
#    x 3.469150 0.000000 0.062210 
#    y 0.000000 3.274530 0.000000 
#    z 0.062210 0.000000 3.659340 
# 
# 
# High freq. dielectric constant tensor:
#      x y z
#    x 1.743560 0.000000 0.009320 
#    y 0.000000 1.729250 0.000000 
#    z 0.009320 0.000000 1.756580 
# 
# From -- ./inp_files/58346.got.cif
#   From: 2010.06.25/outbox.cif.g09.slc.cpg/sg10_30_cif.got.tgz:58346.got - 2010.06.27 22:07:45.
