data_PCOD8058629
_publ_section_title
;
Structure prediction by ZEFSAII (Michael W. Deem and Ramdas Pophale) SiO2 
 PCOD8058629
Probable space group: P 2/M
;
_chemical_formula_sum "Si O2"
_cell_formula_units_Z 32
_cell_length_a 20.734849
_cell_length_b 9.019487
_cell_length_c 20.295366
_cell_angle_alpha 90.000000
_cell_angle_beta 151.914573
_cell_angle_gamma 90.000000
_cell_volume 1786.917593
_symmetry_space_group_name_H-M "P 2/M"
_symmetry_group_IT_number 10
_symmetry_cell_setting 'monoclinic'
loop_
_space_group_symop_operation_xyz
x,y,z
-x,y,-z
-x,-y,-z
x,-y,z
loop_
_atom_site_type_symbol
_atom_site_label
_atom_site_fract_x
_atom_site_fract_y
_atom_site_fract_z
Si Si1 0.554912 0.669632 0.857981
Si Si2 0.752427 0.825601 0.570938
Si Si3 0.279827 0.824532 0.605549
Si Si4 0.963251 0.328265 0.539431
Si Si5 0.841000 0.330569 0.167326
Si Si6 0.700443 0.326324 0.852888
Si Si7 0.055451 0.173565 0.864463
Si Si8 0.505170 0.824236 0.580127
O O1 0.505415 0.500000 0.814868
O O2 0.429139 0.773511 0.764928
O O3 0.608916 0.712850 0.834005
O O4 0.677418 0.697697 0.020755
O O5 0.744107 0.758921 0.489592
O O6 0.631015 0.761468 0.506789
O O7 0.896817 0.786447 0.735323
O O8 0.734671 0.000000 0.548492
O O9 0.165591 0.762554 0.551055
O O10 0.271860 0.000000 0.600022
O O11 0.921199 0.500000 0.500371
O O12 0.000000 0.270262 0.500000
O O13 0.097489 0.301309 0.705251
O O14 0.867900 0.500000 0.167706
O O15 0.913595 0.219381 0.182548
O O16 0.711298 0.500000 0.850564
O O17 0.637707 0.249233 0.732309
O O18 0.852959 0.262704 0.000865
O O19 0.084766 0.000000 0.898764
O O20 0.500000 0.773830 0.500000
O O21 0.518115 0.000000 0.598505
#
# Coordination Sequence:
#
# PCOD8058629 Si02
#       8
#     4   4   4   4   4   4   4   4
#     4   9  18  32  51  77 104 134 171 217 265 311
#     4   9  18  32  51  80 108 132 174 223 265 311
#     4  11  20  33  54  80 108 136 175 225 264 310
#     4  10  21  37  56  78 108 145 180 216 264 322
#     4   9  18  33  52  77 107 135 174 219 262 313
#     4  10  20  34  52  78 110 140 176 219 264 316
#     4  10  18  31  53  78 105 135 171 218 269 314
#     4  10  20  36  57  79 107 144 182 221 267 320
#
# _framework density 17.907931999999999
#
# number of rings (size 3 to 8) (size 9 to 14) (size 15 to 20)
#    0.000    2.250    2.500    1.875    0.000    2.500 
#    0.000    2.500    0.000    7.500    0.000    0.000 
#    0.000    0.000    0.000    0.000    0.000    0.000 
#
# Total GULP energy -396833.200330 kJ/mol
# GULP energy per Si atom -12401.037510 kJ/mol
# Density = 1.786717 g / cm^3
# Si number density = 17.907932 Si / 1000 Ang^3
#
#
#
# Elastic Constant Matrix: (Units=GPa)
#
#
# Indices 1 2 3 4 5 6 
#
# 1 93.8892 29.8570 54.8148 0.0000 -2.0283 0.0000
# 2 29.8570 50.4719 36.1505 0.0000 0.4625 0.0000
# 3 54.8148 36.1505 129.1931 0.0000 -4.0792 0.0000
# 4 0.0000 0.0000 0.0000 28.2482 0.0000 0.7050
# 5 -2.0283 0.4625 -4.0792 0.0000 27.1828 0.0000
# 6 0.0000 0.0000 0.0000 0.7050 0.0000 21.7333
#
#
#
# Elastic Compliance Matrix: (Units=1/GPa)
#
#
# Indices 1 2 3 4 5 6 
#
# 1 0.015295 -0.005522 -0.004929 0.000000 0.000496 0.000000
# 2 -0.005522 0.026832 -0.005217 0.000000 -0.001651 0.000000
# 3 -0.004929 -0.005217 0.011336 0.000000 0.001422 0.000000
# 4 0.000000 0.000000 0.000000 0.035429 0.000000 -0.001149
# 5 0.000496 -0.001651 0.001422 0.000000 0.037067 0.000000
# 6 0.000000 0.000000 0.000000 -0.001149 0.000000 0.046050
#
#
# Mechanical properties :
#
#
# Convention : Reuss Voigt Hill
#
# Bulk Modulus (GPa) = 45.19376 57.24430 51.21903
# Shear Modulus (GPa) = 23.72817 25.61498 24.67157
#
# Velocity S-wave (km/s) = 3.64402 3.78613 3.71575
# Velocity P-wave (km/s) = 6.55718 7.15180 6.86094
#
# Compressibility (1/GPa) = 0.02212695
#
# Stress axis : x y z
#
# Youngs Moduli (GPa) = 65.38034 37.26944 88.21293
#
# Poissons Ratio (x) = 0.20582 0.43477
# Poissons Ratio (y) = 0.36105 0.46021
# Poissons Ratio (z) = 0.32223 0.19444
#
# Static dielectric constant tensor:
#      x y z
#    x 3.141130 0.000000 0.025970 
#    y 0.000000 3.181370 0.000000 
#    z 0.025970 0.000000 3.497740 
# 
# 
# High freq. dielectric constant tensor:
#      x y z
#    x 1.661660 0.000000 0.004670 
#    y 0.000000 1.684660 0.000000 
#    z 0.004670 0.000000 1.709110 
# 
# From -- ./inp_files/86165.got.cif
#   From: 2010.06.25/outbox.cif.g09.slc.cpg/sg10_44_cif.got.tgz:86165.got - 2010.06.27 22:07:45.
