data_PCOD8058285
_publ_section_title
;
Structure prediction by ZEFSAII (Michael W. Deem and Ramdas Pophale) SiO2 
 PCOD8058285
Probable space group: P 2/M
;
_chemical_formula_sum "Si O2"
_cell_formula_units_Z 28
_cell_length_a 14.699230
_cell_length_b 8.988212
_cell_length_c 11.877899
_cell_angle_alpha 90.000000
_cell_angle_beta 110.535730
_cell_angle_gamma 90.000000
_cell_volume 1469.581891
_symmetry_space_group_name_H-M "P 2/M"
_symmetry_group_IT_number 10
_symmetry_cell_setting 'monoclinic'
loop_
_space_group_symop_operation_xyz
x,y,z
-x,y,-z
-x,-y,-z
x,-y,z
loop_
_atom_site_type_symbol
_atom_site_label
_atom_site_fract_x
_atom_site_fract_y
_atom_site_fract_z
Si Si1 0.803047 0.325359 0.188597
Si Si2 0.460351 0.323091 0.658715
Si Si3 0.888328 0.824789 0.444964
Si Si4 0.149167 0.674628 0.345169
Si Si5 0.640587 0.674024 0.606105
Si Si6 0.021364 0.675770 0.885999
Si Si7 0.414966 0.323548 0.884184
O O1 0.811848 0.500000 0.218081
O O2 0.839691 0.240129 0.313294
O O3 0.870750 0.281876 0.110876
O O4 0.691661 0.279482 0.114244
O O5 0.454796 0.500000 0.666504
O O6 0.389468 0.261230 0.529760
O O7 0.570137 0.267889 0.675206
O O8 0.428615 0.254849 0.765005
O O9 0.836555 0.757143 0.531082
O O10 0.000000 0.775968 0.500000
O O11 0.875074 0.000000 0.438498
O O12 0.136783 0.500000 0.363769
O O13 0.247317 0.709046 0.316823
O O14 0.058328 0.739886 0.235926
O O15 0.622077 0.500000 0.588261
O O16 0.007446 0.500000 0.886791
O O17 0.000000 0.745420 0.000000
O O18 0.425005 0.500000 0.885188
O O19 0.500000 0.256353 0.000000
#
# Coordination Sequence:
#
# PCOD8058285 Si02
#       7
#     4   4   4   4   4   4   4
#     4  10  19  33  53  75 102 136 170 206 250 300
#     4   8  13  23  36  59  95 123 151 195 242 281
#     4  11  22  34  51  75 103 130 164 212 260 302
#     4  10  18  30  50  74  99 131 168 201 244 302
#     4   8  14  23  40  64  89 120 155 195 238 281
#     4   9  18  30  45  70 102 131 162 202 245 292
#     4   9  17  27  43  70 101 131 163 201 244 289
#
# _framework density 19.053038000000001
#
# number of rings (size 3 to 8) (size 9 to 14) (size 15 to 20)
#    0.000    2.714    1.429    2.143    0.000    4.000 
#    0.000    5.714    0.000    2.143    0.000    8.000 
#    0.000    0.000    0.000    0.000    0.000    0.000 
#
# Total GULP energy -347009.750332 kJ/mol
# GULP energy per Si atom -12393.205369 kJ/mol
# Density = 1.900967 g / cm^3
# Si number density = 19.053038 Si / 1000 Ang^3
#
#
#
# Elastic Constant Matrix: (Units=GPa)
#
#
# Indices 1 2 3 4 5 6 
#
# 1 167.0050 18.5884 70.2802 0.0000 3.5691 0.0000
# 2 18.5884 17.9706 13.3044 0.0000 3.8709 0.0000
# 3 70.2802 13.3044 103.4429 0.0000 -3.9089 0.0000
# 4 0.0000 0.0000 0.0000 2.9619 0.0000 4.8976
# 5 3.5691 3.8709 -3.9089 0.0000 37.6722 0.0000
# 6 0.0000 0.0000 0.0000 4.8976 0.0000 3.8726
#
#
#
# Elastic Compliance Matrix: (Units=1/GPa)
#
#
# Indices 1 2 3 4 5 6 
#
# 1 0.008828 -0.004946 -0.005395 0.000000 -0.000888 0.000000
# 2 -0.004946 0.066264 -0.005423 0.000000 -0.006903 0.000000
# 3 -0.005395 -0.005423 0.014126 0.000000 0.002534 0.000000
# 4 0.000000 0.000000 0.000000 -0.309414 0.000000 0.391308
# 5 -0.000888 -0.006903 0.002534 0.000000 0.027601 0.000000
# 6 0.000000 0.000000 0.000000 0.391308 0.000000 -0.236653
#
#
# Mechanical properties :
#
#
# Convention : Reuss Voigt Hill
#
# Bulk Modulus (GPa) = 17.33414 54.75160 36.04287
# Shear Modulus (GPa) = -13.21039 21.31772 4.05367
#
# Velocity S-wave (km/s) = -2.63601 3.34857 1.46020
# Velocity P-wave (km/s) = 0.38357 6.61433 4.66917
#
# Compressibility (1/GPa) = 0.05768962
#
# Stress axis : x y z
#
# Youngs Moduli (GPa) = 113.27987 15.09112 70.79178
#
# Poissons Ratio (x) = 0.07464 0.38193
# Poissons Ratio (y) = 0.56025 0.38393
# Poissons Ratio (z) = 0.61116 0.08184
#
# Static dielectric constant tensor:
#      x y z
#    x 3.970300 0.000000 -0.021480 
#    y 0.000000 2.786410 0.000000 
#    z -0.021480 0.000000 3.564270 
# 
# 
# High freq. dielectric constant tensor:
#      x y z
#    x 1.763670 0.000000 0.001260 
#    y 0.000000 1.662910 0.000000 
#    z 0.001260 0.000000 1.733110 
# 
# From -- ./inp_files/50102.got.cif
#   From: 2010.06.25/outbox.cif.g09.slc.cpg/sg10_26_cif.got.tgz:50102.got - 2010.06.27 22:07:45.
