data_PCOD8058626
_publ_section_title
;
Structure prediction by ZEFSAII (Michael W. Deem and Ramdas Pophale) SiO2 
 PCOD8058626
Probable space group: P 2/M
;
_chemical_formula_sum "Si O2"
_cell_formula_units_Z 32
_cell_length_a 20.151893
_cell_length_b 8.833716
_cell_length_c 25.092356
_cell_angle_alpha 90.000000
_cell_angle_beta 156.735434
_cell_angle_gamma 90.000000
_cell_volume 1764.302274
_symmetry_space_group_name_H-M "P 2/M"
_symmetry_group_IT_number 10
_symmetry_cell_setting 'monoclinic'
loop_
_space_group_symop_operation_xyz
x,y,z
-x,y,-z
-x,-y,-z
x,-y,z
loop_
_atom_site_type_symbol
_atom_site_label
_atom_site_fract_x
_atom_site_fract_y
_atom_site_fract_z
Si Si1 0.155270 0.321337 0.647821
Si Si2 0.451128 0.675867 0.588392
Si Si3 0.167312 0.320413 0.879272
Si Si4 0.855334 0.324081 0.715769
Si Si5 0.343687 0.820917 0.615272
Si Si6 0.343724 0.829775 0.345241
Si Si7 0.021767 0.679298 0.661257
Si Si8 0.472358 0.319421 0.816696
O O1 0.150661 0.500000 0.637762
O O2 0.139041 0.275871 0.697741
O O3 0.330310 0.260928 0.753111
O O4 0.000000 0.250353 0.500000
O O5 0.469559 0.500000 0.615835
O O6 0.282035 0.709273 0.430863
O O7 0.444727 0.771513 0.637476
O O8 0.614158 0.729025 0.675348
O O9 0.166145 0.500000 0.875767
O O10 0.114747 0.258134 0.782386
O O11 0.033475 0.265556 0.824773
O O12 0.350593 0.259714 0.029793
O O13 0.858071 0.500000 0.732178
O O14 0.817366 0.235849 0.742484
O O15 0.445501 0.755322 0.739966
O O16 0.157133 0.756032 0.477266
O O17 0.336110 0.000000 0.613164
O O18 0.500000 0.823458 0.500000
O O19 0.304281 0.000000 0.297690
O O20 0.989980 0.500000 0.640665
O O21 0.470036 0.500000 0.808591
#
# Coordination Sequence:
#
# PCOD8058626 Si02
#       8
#     4   4   4   4   4   4   4   4
#     4   9  16  28  53  82 105 135 176 222 269 317
#     4  10  18  31  53  77 104 137 174 222 268 309
#     4   9  18  32  54  81 107 138 179 223 265 317
#     4   9  16  29  49  75 105 139 175 212 260 316
#     4  12  23  34  51  78 107 140 181 222 266 318
#     4   9  17  28  44  74 111 141 172 212 257 310
#     4  10  18  34  56  79 106 137 177 223 269 318
#     4  10  20  36  55  77 106 141 179 221 271 320
#
# _framework density 18.137481000000001
#
# number of rings (size 3 to 8) (size 9 to 14) (size 15 to 20)
#    0.000    2.250    2.500    1.875    0.000    2.500 
#    0.000    5.000    0.000    0.750    0.000    7.000 
#    0.000    0.000    0.000    0.000    0.000    0.000 
#
# Total GULP energy -396787.864433 kJ/mol
# GULP energy per Si atom -12399.620764 kJ/mol
# Density = 1.809620 g / cm^3
# Si number density = 18.137481 Si / 1000 Ang^3
#
#
#
# Elastic Constant Matrix: (Units=GPa)
#
#
# Indices 1 2 3 4 5 6 
#
# 1 129.9670 33.3977 63.4871 0.0000 19.1730 0.0000
# 2 33.3977 53.3659 26.5687 0.0000 -2.1844 0.0000
# 3 63.4871 26.5687 113.8711 0.0000 7.5733 0.0000
# 4 0.0000 0.0000 0.0000 5.7131 0.0000 -1.5308
# 5 19.1730 -2.1844 7.5733 0.0000 27.3084 0.0000
# 6 0.0000 0.0000 0.0000 -1.5308 0.0000 12.8590
#
#
#
# Elastic Compliance Matrix: (Units=1/GPa)
#
#
# Indices 1 2 3 4 5 6 
#
# 1 0.012995 -0.005799 -0.005353 0.000000 -0.008103 0.000000
# 2 -0.005799 0.024054 -0.002830 0.000000 0.006780 0.000000
# 3 -0.005353 -0.002830 0.012421 0.000000 0.000087 0.000000
# 4 0.000000 0.000000 0.000000 0.180804 0.000000 0.021524
# 5 -0.008103 0.006780 0.000087 0.000000 0.042826 0.000000
# 6 0.000000 0.000000 0.000000 0.021524 0.000000 0.080329
#
#
# Mechanical properties :
#
#
# Convention : Reuss Voigt Hill
#
# Bulk Modulus (GPa) = 46.50001 60.45677 53.47839
# Shear Modulus (GPa) = 12.86798 20.75948 16.81373
#
# Velocity S-wave (km/s) = 2.66648 3.38681 3.04800
# Velocity P-wave (km/s) = 5.93071 6.97845 6.47581
#
# Compressibility (1/GPa) = 0.02150537
#
# Stress axis : x y z
#
# Youngs Moduli (GPa) = 76.95466 41.57267 80.50930
#
# Poissons Ratio (x) = 0.24108 0.43097
# Poissons Ratio (y) = 0.44626 0.22786
# Poissons Ratio (z) = 0.41194 0.11766
#
# Static dielectric constant tensor:
#      x y z
#    x 3.675480 0.000000 0.120960 
#    y 0.000000 3.098210 0.000000 
#    z 0.120960 0.000000 3.270310 
# 
# 
# High freq. dielectric constant tensor:
#      x y z
#    x 1.720820 0.000000 0.011970 
#    y 0.000000 1.674680 0.000000 
#    z 0.011970 0.000000 1.673440 
# 
# From -- ./inp_files/93725.got.cif
#   From: 2010.06.25/outbox.cif.g09.slc.cpg/sg10_47_cif.got.tgz:93725.got - 2010.06.27 22:07:45.
