data_PCOD8058086
_publ_section_title
;
Structure prediction by ZEFSAII (Michael W. Deem and Ramdas Pophale) SiO2 
 PCOD8058086
Probable space group: P 2/M
;
_chemical_formula_sum "Si O2"
_cell_formula_units_Z 32
_cell_length_a 12.269008
_cell_length_b 9.294024
_cell_length_c 21.737387
_cell_angle_alpha 90.000000
_cell_angle_beta 133.903678
_cell_angle_gamma 90.000000
_cell_volume 1785.905765
_symmetry_space_group_name_H-M "P 2/M"
_symmetry_group_IT_number 10
_symmetry_cell_setting 'monoclinic'
loop_
_space_group_symop_operation_xyz
x,y,z
-x,y,-z
-x,-y,-z
x,-y,z
loop_
_atom_site_type_symbol
_atom_site_label
_atom_site_fract_x
_atom_site_fract_y
_atom_site_fract_z
Si Si1 0.291121 0.332740 0.243626
Si Si2 0.764616 0.834146 0.023270
Si Si3 0.553127 0.170537 0.292269
Si Si4 0.451574 0.165686 0.849800
Si Si5 0.157719 0.664260 0.741523
Si Si6 0.857727 0.332446 0.403466
Si Si7 0.172135 0.346657 0.064712
Si Si8 0.997260 0.667253 0.197501
O O1 0.331902 0.500000 0.270679
O O2 0.444182 0.238180 0.302442
O O3 0.219522 0.299155 0.150387
O O4 0.165153 0.277961 0.243911
O O5 0.856783 0.743469 0.108863
O O6 0.806027 0.000000 0.049485
O O7 0.582797 0.808525 0.952109
O O8 0.806154 0.787749 0.970988
O O9 0.503740 0.216238 0.202731
O O10 0.718436 0.234638 0.370095
O O11 0.555478 0.000000 0.301808
O O12 0.305339 0.246410 0.817717
O O13 0.407117 0.000000 0.828281
O O14 0.209213 0.500000 0.765745
O O15 0.098621 0.701904 0.650294
O O16 0.023323 0.695448 0.737703
O O17 0.815373 0.500000 0.395778
O O18 0.000000 0.287603 0.500000
O O19 0.253223 0.500000 0.076777
O O20 0.000000 0.385238 0.000000
O O21 0.985574 0.500000 0.174823
#
# Coordination Sequence:
#
# PCOD8058086 Si02
#       8
#     4   4   4   4   4   4   4   4
#     4  10  19  31  49  70  98 135 170 210 253 293
#     4  11  21  31  45  68  98 135 177 218 259 293
#     4  10  19  32  51  78 108 132 163 205 250 299
#     4   9  19  33  47  67  99 133 166 212 258 294
#     4   9  19  35  55  75  97 129 166 206 250 303
#     4   9  18  35  60  87 107 124 155 200 252 307
#     4  10  18  30  46  66  93 131 176 221 262 291
#     4  10  21  36  49  68  99 136 178 212 248 297
#
# _framework density 17.918078999999999
#
# number of rings (size 3 to 8) (size 9 to 14) (size 15 to 20)
#    0.000    2.250    2.500    0.750    0.000    3.500 
#    0.000    2.500    0.000    0.750    0.000    5.250 
#    0.000    0.000    0.000    0.000    0.000    0.000 
#
# Total GULP energy -396533.900633 kJ/mol
# GULP energy per Si atom -12391.684395 kJ/mol
# Density = 1.787730 g / cm^3
# Si number density = 17.918079 Si / 1000 Ang^3
#
#
#
# Elastic Constant Matrix: (Units=GPa)
#
#
# Indices 1 2 3 4 5 6 
#
# 1 132.9701 50.9343 53.1799 0.0000 5.2303 0.0000
# 2 50.9343 62.8429 38.2514 0.0000 7.6233 0.0000
# 3 53.1799 38.2514 78.1990 0.0000 11.3335 0.0000
# 4 0.0000 0.0000 0.0000 19.7593 0.0000 4.0925
# 5 5.2303 7.6233 11.3335 0.0000 17.4460 0.0000
# 6 0.0000 0.0000 0.0000 4.0925 0.0000 14.3100
#
#
#
# Elastic Compliance Matrix: (Units=1/GPa)
#
#
# Indices 1 2 3 4 5 6 
#
# 1 0.012213 -0.007030 -0.005278 0.000000 0.002839 0.000000
# 2 -0.007030 0.026848 -0.007680 0.000000 -0.004635 0.000000
# 3 -0.005278 -0.007680 0.021436 0.000000 -0.008988 0.000000
# 4 0.000000 0.000000 0.000000 0.053796 0.000000 -0.015385
# 5 0.002839 -0.004635 -0.008988 0.000000 0.064332 0.000000
# 6 0.000000 0.000000 0.000000 -0.015385 0.000000 0.074281
#
#
# Mechanical properties :
#
#
# Convention : Reuss Voigt Hill
#
# Bulk Modulus (GPa) = 48.73187 62.08259 55.40723
# Shear Modulus (GPa) = 16.68214 19.07948 17.88081
#
# Velocity S-wave (km/s) = 3.05458 3.26669 3.16241
# Velocity P-wave (km/s) = 6.30053 6.99654 6.65764
#
# Compressibility (1/GPa) = 0.02052045
#
# Stress axis : x y z
#
# Youngs Moduli (GPa) = 81.88292 37.24731 46.64944
#
# Poissons Ratio (x) = 0.26185 0.24621
# Poissons Ratio (y) = 0.57565 0.35827
# Poissons Ratio (z) = 0.43217 0.28606
#
# Static dielectric constant tensor:
#      x y z
#    x 3.421480 0.000000 0.035410 
#    y 0.000000 3.349950 0.000000 
#    z 0.035410 0.000000 3.101560 
# 
# 
# High freq. dielectric constant tensor:
#      x y z
#    x 1.689780 0.000000 0.007780 
#    y 0.000000 1.694420 0.000000 
#    z 0.007780 0.000000 1.659010 
# 
# From -- ./inp_files/55227.got.cif
#   From: 2010.06.25/outbox.cif.g09.slc.cpg/sg10_28_cif.got.tgz:55227.got - 2010.06.27 22:07:45.
