data_PCOD8058877
_publ_section_title
;
Structure prediction by ZEFSAII (Michael W. Deem and Ramdas Pophale) SiO2 
 PCOD8058877
Probable space group: P 2/M
;
_chemical_formula_sum "Si O2"
_cell_formula_units_Z 32
_cell_length_a 26.262322
_cell_length_b 9.019562
_cell_length_c 20.816256
_cell_angle_alpha 90.000000
_cell_angle_beta 21.300259
_cell_angle_gamma 90.000000
_cell_volume 1791.155619
_symmetry_space_group_name_H-M "P 2/M"
_symmetry_group_IT_number 10
_symmetry_cell_setting 'monoclinic'
loop_
_space_group_symop_operation_xyz
x,y,z
-x,y,-z
-x,-y,-z
x,-y,z
loop_
_atom_site_type_symbol
_atom_site_label
_atom_site_fract_x
_atom_site_fract_y
_atom_site_fract_z
Si Si1 0.901662 0.824922 0.919862
Si Si2 0.409658 0.173382 0.012624
Si Si3 0.376797 0.671543 0.794026
Si Si4 0.293701 0.174480 0.286239
Si Si5 0.894350 0.175531 0.072174
Si Si6 0.020041 0.675806 0.661538
Si Si7 0.271363 0.330859 0.055740
Si Si8 0.586175 0.172651 0.462880
O O1 0.009419 0.746204 0.744882
O O2 0.905502 0.000000 0.903510
O O3 0.744225 0.768979 0.095617
O O4 0.946353 0.781781 0.939712
O O5 0.572358 0.222542 0.828055
O O6 0.405346 0.000000 0.008186
O O7 0.324844 0.217312 0.176115
O O8 0.334801 0.242463 0.039853
O O9 0.354976 0.500000 0.800790
O O10 0.523678 0.733342 0.595421
O O11 0.373424 0.690147 0.874882
O O12 0.160256 0.268620 0.463510
O O13 0.262974 0.000000 0.329781
O O14 0.740408 0.237115 0.268737
O O15 0.888097 0.000000 0.085673
O O16 0.000000 0.245248 0.000000
O O17 0.022233 0.500000 0.666681
O O18 0.885100 0.726186 0.778216
O O19 0.262793 0.500000 0.087592
O O20 0.500000 0.201728 0.500000
O O21 0.585441 0.000000 0.482916
#
# Coordination Sequence:
#
# PCOD8058877 Si02
#       8
#     4   4   4   4   4   4   4   4
#     4  10  18  33  56  77 103 138 176 218 263 309
#     4   9  19  36  58  81 107 137 176 222 263 305
#     4  10  20  34  52  77 108 139 174 215 264 313
#     4   9  19  37  57  80 108 139 176 218 261 312
#     4   9  18  33  52  75 104 133 168 217 266 310
#     4  10  21  36  54  80 110 142 178 216 260 317
#     4   9  20  36  52  75 110 143 175 216 263 315
#     4  10  18  32  54  79 100 130 178 220 257 309
#
# _framework density 17.865561
#
# number of rings (size 3 to 8) (size 9 to 14) (size 15 to 20)
#    0.000    2.500    1.250    2.625    0.000    4.750 
#    2.250    3.750    0.000    2.625    0.000    0.000 
#    0.000    0.000    0.000    0.000    0.000    0.000 
#
# Total GULP energy -396762.274176 kJ/mol
# GULP energy per Si atom -12398.821068 kJ/mol
# Density = 1.782490 g / cm^3
# Si number density = 17.865561 Si / 1000 Ang^3
#
#
#
# Elastic Constant Matrix: (Units=GPa)
#
#
# Indices 1 2 3 4 5 6 
#
# 1 137.8709 48.3340 71.3566 0.0000 0.4454 0.0000
# 2 48.3340 61.6691 50.4128 0.0000 7.1942 0.0000
# 3 71.3566 50.4128 133.9964 0.0000 4.2923 0.0000
# 4 0.0000 0.0000 0.0000 25.5255 0.0000 -1.3532
# 5 0.4454 7.1942 4.2923 0.0000 20.8023 0.0000
# 6 0.0000 0.0000 0.0000 -1.3532 0.0000 7.2460
#
#
#
# Elastic Compliance Matrix: (Units=1/GPa)
#
#
# Indices 1 2 3 4 5 6 
#
# 1 0.011367 -0.006066 -0.003856 0.000000 0.002650 0.000000
# 2 -0.006066 0.027511 -0.006865 0.000000 -0.007968 0.000000
# 3 -0.003856 -0.006865 0.012100 0.000000 -0.000040 0.000000
# 4 0.000000 0.000000 0.000000 0.039568 0.000000 0.007390
# 5 0.002650 -0.007968 -0.000040 0.000000 0.050779 0.000000
# 6 0.000000 0.000000 0.000000 0.007390 0.000000 0.139387
#
#
# Mechanical properties :
#
#
# Convention : Reuss Voigt Hill
#
# Bulk Modulus (GPa) = 57.45510 74.86036 66.15773
# Shear Modulus (GPa) = 15.62075 21.61031 18.61553
#
# Velocity S-wave (km/s) = 2.96015 3.48171 3.23147
# Velocity P-wave (km/s) = 6.62667 7.62602 7.14384
#
# Compressibility (1/GPa) = 0.01740490
#
# Stress axis : x y z
#
# Youngs Moduli (GPa) = 87.97527 36.34868 82.64301
#
# Poissons Ratio (x) = 0.22049 0.31866
# Poissons Ratio (y) = 0.53366 0.56733
# Poissons Ratio (z) = 0.33922 0.24953
#
# Static dielectric constant tensor:
#      x y z
#    x 3.693690 0.000000 -0.052570 
#    y 0.000000 3.161840 0.000000 
#    z -0.052570 0.000000 3.444290 
# 
# 
# High freq. dielectric constant tensor:
#      x y z
#    x 1.687350 0.000000 0.008800 
#    y 0.000000 1.681200 0.000000 
#    z 0.008800 0.000000 1.694680 
# 
# From -- ./inp_files/83347.got.cif
#   From: 2010.06.25/outbox.cif.g09.slc.cpg/sg10_42_cif.got.tgz:83347.got - 2010.06.27 22:07:45.
