data_PCOD8058527
_publ_section_title
;
Structure prediction by ZEFSAII (Michael W. Deem and Ramdas Pophale) SiO2 
 PCOD8058527
Probable space group: P 2/M
;
_chemical_formula_sum "Si O2"
_cell_formula_units_Z 32
_cell_length_a 30.026315
_cell_length_b 8.880673
_cell_length_c 21.010064
_cell_angle_alpha 90.000000
_cell_angle_beta 161.231537
_cell_angle_gamma 90.000000
_cell_volume 1802.546764
_symmetry_space_group_name_H-M "P 2/M"
_symmetry_group_IT_number 10
_symmetry_cell_setting 'monoclinic'
loop_
_space_group_symop_operation_xyz
x,y,z
-x,y,-z
-x,-y,-z
x,-y,z
loop_
_atom_site_type_symbol
_atom_site_label
_atom_site_fract_x
_atom_site_fract_y
_atom_site_fract_z
Si Si1 0.029021 0.821109 0.138988
Si Si2 0.788063 0.821546 0.729169
Si Si3 0.931735 0.327076 0.555036
Si Si4 0.499382 0.821489 0.703966
Si Si5 0.827942 0.820930 0.541938
Si Si6 0.238075 0.823235 0.784511
Si Si7 0.544615 0.824158 0.213003
Si Si8 0.771063 0.673861 0.092641
O O1 0.138509 0.758309 0.235314
O O2 0.068789 0.760731 0.262789
O O3 0.036741 0.000000 0.150305
O O4 0.873988 0.767505 0.907994
O O5 0.626796 0.771612 0.513493
O O6 0.793650 0.000000 0.732322
O O7 0.890836 0.500000 0.507107
O O8 0.877568 0.238798 0.542170
O O9 0.862110 0.265551 0.397235
O O10 0.096193 0.304846 0.772520
O O11 0.457430 0.764079 0.717600
O O12 0.527223 0.000000 0.739600
O O13 0.639897 0.735285 0.874616
O O14 0.673329 0.756410 0.347414
O O15 0.828067 0.000000 0.538400
O O16 0.208982 0.771186 0.816822
O O17 0.207062 0.000000 0.738023
O O18 0.397625 0.787618 0.980758
O O19 0.570382 0.000000 0.252369
O O20 0.749795 0.500000 0.082743
#
# Coordination Sequence:
#
# PCOD8058527 Si02
#       8
#     4   4   4   4   4   4   4   4
#     4   8  13  22  43  75 106 132 156 190 238 292
#     4   8  12  21  43  77 108 128 153 193 243 290
#     4  11  24  38  49  66  96 133 169 204 245 287
#     4   9  15  27  50  77 103 127 158 201 244 289
#     4  10  18  31  51  72 100 134 167 196 231 289
#     4  10  20  35  57  79  97 118 155 206 251 294
#     4   8  15  28  47  74 102 125 151 191 242 287
#     4  10  21  36  52  70  96 128 163 206 250 288
#
# _framework density 17.752659999999999
#
# number of rings (size 3 to 8) (size 9 to 14) (size 15 to 20)
#    0.000    2.750    1.250    3.000    0.000    4.000 
#    0.000    5.625    0.000    1.500    0.000    7.000 
#    0.000    0.000    0.000    0.000    0.000    0.000 
#
# Total GULP energy -396558.471020 kJ/mol
# GULP energy per Si atom -12392.452219 kJ/mol
# Density = 1.771225 g / cm^3
# Si number density = 17.752660 Si / 1000 Ang^3
#
#
#
# Elastic Constant Matrix: (Units=GPa)
#
#
# Indices 1 2 3 4 5 6 
#
# 1 33.7841 10.6409 11.5440 0.0000 16.8534 0.0000
# 2 10.6409 25.3143 27.5384 0.0000 8.4770 0.0000
# 3 11.5440 27.5384 111.6573 0.0000 14.9117 0.0000
# 4 0.0000 0.0000 0.0000 -2.0134 0.0000 -6.4809
# 5 16.8534 8.4770 14.9117 0.0000 20.3044 0.0000
# 6 0.0000 0.0000 0.0000 -6.4809 0.0000 0.3057
#
#
#
# Elastic Compliance Matrix: (Units=1/GPa)
#
#
# Indices 1 2 3 4 5 6 
#
# 1 0.052742 -0.011551 0.002881 0.000000 -0.041071 0.000000
# 2 -0.011551 0.060451 -0.012889 0.000000 -0.006185 0.000000
# 3 0.002881 -0.012889 0.012682 0.000000 -0.006324 0.000000
# 4 0.000000 0.000000 0.000000 -0.007173 0.000000 -0.152071
# 5 -0.041071 -0.006185 -0.006324 0.000000 0.090567 0.000000
# 6 0.000000 0.000000 0.000000 -0.152071 0.000000 0.047243
#
#
# Mechanical properties :
#
#
# Convention : Reuss Voigt Hill
#
# Bulk Modulus (GPa) = 12.08358 30.02246 21.05302
# Shear Modulus (GPa) = 15.28046 11.78817 13.53431
#
# Velocity S-wave (km/s) = 2.93702 2.57966 2.76412
# Velocity P-wave (km/s) = 4.28052 5.08145 4.69808
#
# Compressibility (1/GPa) = 0.08275693
#
# Stress axis : x y z
#
# Youngs Moduli (GPa) = 18.96021 16.54221 78.85487
#
# Poissons Ratio (x) = 0.19108 -0.22718
# Poissons Ratio (y) = 0.21901 1.01637
# Poissons Ratio (z) = -0.05462 0.21322
#
# Static dielectric constant tensor:
#      x y z
#    x 3.077100 0.000000 0.029570 
#    y 0.000000 2.973740 0.000000 
#    z 0.029570 0.000000 3.876110 
# 
# 
# High freq. dielectric constant tensor:
#      x y z
#    x 1.650570 0.000000 0.002240 
#    y 0.000000 1.650640 0.000000 
#    z 0.002240 0.000000 1.707970 
# 
# From -- ./inp_files/87213.got.cif
#   From: 2010.06.25/outbox.cif.g09.slc.cpg/sg10_44_cif.got.tgz:87213.got - 2010.06.27 22:07:45.
