data_PCOD8058324
_publ_section_title
;
Structure prediction by ZEFSAII (Michael W. Deem and Ramdas Pophale) SiO2 
 PCOD8058324
Probable space group: P 2/M
;
_chemical_formula_sum "Si O2"
_cell_formula_units_Z 24
_cell_length_a 20.075713
_cell_length_b 8.664446
_cell_length_c 11.399439
_cell_angle_alpha 90.000000
_cell_angle_beta 42.857452
_cell_angle_gamma 90.000000
_cell_volume 1348.705110
_symmetry_space_group_name_H-M "P 2/M"
_symmetry_group_IT_number 10
_symmetry_cell_setting 'monoclinic'
loop_
_space_group_symop_operation_xyz
x,y,z
-x,y,-z
-x,-y,-z
x,-y,z
loop_
_atom_site_type_symbol
_atom_site_label
_atom_site_fract_x
_atom_site_fract_y
_atom_site_fract_z
Si Si1 0.512180 0.326543 0.122823
Si Si2 0.314246 0.180021 0.406070
Si Si3 0.052937 0.817472 0.095763
Si Si4 0.709825 0.818318 0.832407
Si Si5 0.863125 0.680991 0.238453
Si Si6 0.091308 0.183408 0.309048
O O1 0.504714 0.500000 0.181085
O O2 0.426211 0.224613 0.291633
O O3 0.500000 0.320932 0.000000
O O4 0.618095 0.257579 0.018330
O O5 0.287702 0.227302 0.307444
O O6 0.245637 0.276520 0.581187
O O7 0.298340 0.000000 0.449066
O O8 0.083884 0.761588 0.184694
O O9 0.940187 0.772116 0.220114
O O10 0.064246 0.000000 0.065463
O O11 0.123747 0.731216 0.913350
O O12 0.808257 0.753122 0.764841
O O13 0.699176 0.000000 0.861120
O O14 0.882123 0.500000 0.226093
O O15 0.000000 0.252063 0.500000
O O16 0.089401 0.000000 0.319576
#
# Coordination Sequence:
#
# PCOD8058324 Si02
#       6
#     4   4   4   4   4   4
#     4   9  17  29  45  69 101 131 159 195 241 287
#     4  10  18  30  51  75  97 125 164 202 238 285
#     4  10  19  33  52  72  96 128 165 199 236 284
#     4   9  17  30  49  73 100 129 161 198 240 285
#     4  11  21  33  49  70  99 129 160 202 246 284
#     4   9  17  30  50  75 100 126 159 199 237 278
#
# _framework density 17.794846
#
# number of rings (size 3 to 8) (size 9 to 14) (size 15 to 20)
#    0.000    2.333    0.000    5.000    0.000    5.333 
#    0.000    1.667    0.000    4.500    0.000    7.000 
#    0.000    0.000    0.000    0.000    0.000    0.000 
#
# Total GULP energy -297629.733796 kJ/mol
# GULP energy per Si atom -12401.238908 kJ/mol
# Density = 1.775434 g / cm^3
# Si number density = 17.794846 Si / 1000 Ang^3
#
#
#
# Elastic Constant Matrix: (Units=GPa)
#
#
# Indices 1 2 3 4 5 6 
#
# 1 106.6753 18.3682 63.6447 0.0000 -13.3353 0.0000
# 2 18.3682 54.9302 30.7740 0.0000 0.8685 0.0000
# 3 63.6447 30.7740 125.1542 0.0000 -18.8970 0.0000
# 4 0.0000 0.0000 0.0000 24.7693 0.0000 -4.4070
# 5 -13.3353 0.8685 -18.8970 0.0000 26.4501 0.0000
# 6 0.0000 0.0000 0.0000 -4.4070 0.0000 10.9754
#
#
#
# Elastic Compliance Matrix: (Units=1/GPa)
#
#
# Indices 1 2 3 4 5 6 
#
# 1 0.013616 -0.001061 -0.006301 0.000000 0.002398 0.000000
# 2 -0.001061 0.021787 -0.005612 0.000000 -0.005259 0.000000
# 3 -0.006301 -0.005612 0.013588 0.000000 0.006715 0.000000
# 4 0.000000 0.000000 0.000000 0.043479 0.000000 0.017458
# 5 0.002398 -0.005259 0.006715 0.000000 0.043986 0.000000
# 6 0.000000 0.000000 0.000000 0.017458 0.000000 0.098123
#
#
# Mechanical properties :
#
#
# Convention : Reuss Voigt Hill
#
# Bulk Modulus (GPa) = 43.39635 56.92596 50.16116
# Shear Modulus (GPa) = 18.64223 24.03714 21.33969
#
# Velocity S-wave (km/s) = 3.24021 3.67930 3.46671
# Velocity P-wave (km/s) = 6.19988 7.07879 6.65386
#
# Compressibility (1/GPa) = 0.02304341
#
# Stress axis : x y z
#
# Youngs Moduli (GPa) = 73.44218 45.89951 73.59214
#
# Poissons Ratio (x) = 0.04869 0.46373
# Poissons Ratio (y) = 0.07791 0.41298
# Poissons Ratio (z) = 0.46279 0.25758
#
# Static dielectric constant tensor:
#      x y z
#    x 3.236690 0.000000 -0.166420 
#    y 0.000000 3.180440 0.000000 
#    z -0.166420 0.000000 3.363330 
# 
# 
# High freq. dielectric constant tensor:
#      x y z
#    x 1.662270 0.000000 -0.018060 
#    y 0.000000 1.682680 0.000000 
#    z -0.018060 0.000000 1.691290 
# 
# From -- ./inp_files/48668.got.cif
#   From: 2010.06.25/outbox.cif.g09.slc.cpg/sg10_25_cif.got.tgz:48668.got - 2010.06.27 22:07:45.
