data_PCOD8058557
_publ_section_title
;
Structure prediction by ZEFSAII (Michael W. Deem and Ramdas Pophale) SiO2 
 PCOD8058557
Probable space group: P 2/M
;
_chemical_formula_sum "Si O2"
_cell_formula_units_Z 22
_cell_length_a 15.247453
_cell_length_b 12.798853
_cell_length_c 12.819744
_cell_angle_alpha 90.000000
_cell_angle_beta 29.288209
_cell_angle_gamma 90.000000
_cell_volume 1223.874252
_symmetry_space_group_name_H-M "P 2/M"
_symmetry_group_IT_number 10
_symmetry_cell_setting 'monoclinic'
loop_
_space_group_symop_operation_xyz
x,y,z
-x,y,-z
-x,-y,-z
x,-y,z
loop_
_atom_site_type_symbol
_atom_site_label
_atom_site_fract_x
_atom_site_fract_y
_atom_site_fract_z
Si Si1 0.849612 0.710568 0.901500
Si Si2 0.702120 0.621967 0.259691
Si Si3 0.500000 0.780535 0.000000
Si Si4 0.806672 0.382520 0.375465
Si Si5 0.157936 0.878386 0.259808
Si Si6 0.518694 0.383514 0.148796
O O1 0.843148 0.823685 0.853011
O O2 0.059423 0.683153 0.690571
O O3 0.766913 0.702748 0.103617
O O4 0.729364 0.634019 0.953997
O O5 0.500000 0.646801 0.500000
O O6 0.723010 0.500000 0.202321
O O7 0.822553 0.645785 0.236982
O O8 0.341172 0.856006 0.130260
O O9 0.437695 0.702807 0.156024
O O10 0.872256 0.500000 0.323493
O O11 0.598962 0.370095 0.624366
O O12 0.000000 0.838205 0.500000
O O13 0.137843 0.000000 0.257012
O O14 0.496044 0.500000 0.125566
#
# Coordination Sequence:
#
# PCOD8058557 Si02
#       6
#     4   4   2   4   4   4
#     4  11  20  32  53  77 102 139 178 214 259 302
#     4  10  18  31  51  78 111 145 175 202 239 299
#     4  10  20  34  56  80 100 136 172 212 266 316
#     4  10  19  30  49  76 109 145 175 201 239 301
#     4  10  22  40  59  77  98 127 176 232 273 312
#     4  10  19  31  47  76 114 142 169 206 249 306
#
# _framework density 17.975702999999999
#
# number of rings (size 3 to 8) (size 9 to 14) (size 15 to 20)
#    0.000    1.818    1.818    3.818    0.000    1.455 
#    0.000    0.000    0.000   14.182    0.000    0.000 
#    0.000    0.000    0.000    0.000    0.000    0.000 
#
# Total GULP energy -272649.939484 kJ/mol
# GULP energy per Si atom -12393.179067 kJ/mol
# Density = 1.793479 g / cm^3
# Si number density = 17.975703 Si / 1000 Ang^3
#
#
#
# Elastic Constant Matrix: (Units=GPa)
#
#
# Indices 1 2 3 4 5 6 
#
# 1 99.5702 43.9758 33.1476 0.0000 -0.4279 0.0000
# 2 43.9758 76.9632 41.7433 0.0000 7.1834 0.0000
# 3 33.1476 41.7433 88.1973 0.0000 1.6913 0.0000
# 4 0.0000 0.0000 0.0000 21.6413 0.0000 5.0110
# 5 -0.4279 7.1834 1.6913 0.0000 35.9419 0.0000
# 6 0.0000 0.0000 0.0000 5.0110 0.0000 24.8198
#
#
#
# Elastic Compliance Matrix: (Units=1/GPa)
#
#
# Indices 1 2 3 4 5 6 
#
# 1 0.013771 -0.006993 -0.001897 0.000000 0.001651 0.000000
# 2 -0.006993 0.021386 -0.007417 0.000000 -0.004009 0.000000
# 3 -0.001897 -0.007417 0.015548 0.000000 0.000728 0.000000
# 4 0.000000 0.000000 0.000000 0.048474 0.000000 -0.009787
# 5 0.001651 -0.004009 0.000728 0.000000 0.028609 0.000000
# 6 0.000000 0.000000 0.000000 -0.009787 0.000000 0.042266
#
#
# Mechanical properties :
#
#
# Convention : Reuss Voigt Hill
#
# Bulk Modulus (GPa) = 55.28035 55.82934 55.55484
# Shear Modulus (GPa) = 23.95812 26.20488 25.08150
#
# Velocity S-wave (km/s) = 3.65472 3.82225 3.73942
# Velocity P-wave (km/s) = 6.97344 7.11373 7.04393
#
# Compressibility (1/GPa) = 0.01808961
#
# Stress axis : x y z
#
# Youngs Moduli (GPa) = 72.61894 46.75977 64.31900
#
# Poissons Ratio (x) = 0.32701 0.12202
# Poissons Ratio (y) = 0.50785 0.47703
# Poissons Ratio (z) = 0.13777 0.34680
#
# Static dielectric constant tensor:
#      x y z
#    x 3.512890 0.000000 0.031840 
#    y 0.000000 2.984100 0.000000 
#    z 0.031840 0.000000 3.383430 
# 
# 
# High freq. dielectric constant tensor:
#      x y z
#    x 1.710370 0.000000 -0.007940 
#    y 0.000000 1.652290 0.000000 
#    z -0.007940 0.000000 1.704600 
# 
# From -- ./inp_files/51331.got.cif
#   From: 2010.06.25/outbox.cif.g09.slc.cpg/sg10_26_cif.got.tgz:51331.got - 2010.06.27 22:07:45.
