data_PCOD8058424
_publ_section_title
;
Structure prediction by ZEFSAII (Michael W. Deem and Ramdas Pophale) SiO2 
 PCOD8058424
Probable space group: P 2/M
;
_chemical_formula_sum "Si O2"
_cell_formula_units_Z 28
_cell_length_a 13.958875
_cell_length_b 9.070718
_cell_length_c 17.564227
_cell_angle_alpha 90.000000
_cell_angle_beta 51.013172
_cell_angle_gamma 90.000000
_cell_volume 1728.639971
_symmetry_space_group_name_H-M "P 2/M"
_symmetry_group_IT_number 10
_symmetry_cell_setting 'monoclinic'
loop_
_space_group_symop_operation_xyz
x,y,z
-x,y,-z
-x,-y,-z
x,-y,z
loop_
_atom_site_type_symbol
_atom_site_label
_atom_site_fract_x
_atom_site_fract_y
_atom_site_fract_z
Si Si1 0.858145 0.666385 0.593851
Si Si2 0.207045 0.827024 0.518571
Si Si3 0.792955 0.827024 0.225616
Si Si4 0.354282 0.331370 0.572859
Si Si5 0.929089 0.169891 0.699583
Si Si6 0.141855 0.666385 0.951996
Si Si7 0.070911 0.169891 0.128672
O O1 0.807557 0.500000 0.619689
O O2 0.779810 0.761886 0.573094
O O3 0.844896 0.734186 0.684950
O O4 0.000000 0.672902 0.500000
O O5 0.307163 0.749280 0.521010
O O6 0.073020 0.791479 0.619803
O O7 0.234105 0.000000 0.502677
O O8 0.692837 0.749280 0.328173
O O9 0.779810 0.761886 0.147096
O O10 0.926980 0.791478 0.192824
O O11 0.765895 0.000000 0.236781
O O12 0.500000 0.322445 0.500000
O O13 0.307624 0.500000 0.596188
O O14 0.886988 0.205535 0.806506
O O15 0.907946 0.000000 0.689133
O O16 0.192443 0.500000 0.927246
O O17 0.155104 0.734186 0.029846
O O18 0.000000 0.672902 0.000000
O O19 0.092053 0.000000 0.097080
#
# Coordination Sequence:
#
# PCOD8058424 Si02
#       7
#     4   4   4   4   4   4   4
#     4   9  17  27  40  62  87 115 147 180 220 266
#     4  10  18  31  47  62  83 116 152 187 225 264
#     4  10  18  31  47  62  83 116 152 187 225 264
#     4  11  23  35  47  65  89 117 151 193 234 269
#     4   9  16  27  42  63  89 118 150 182 218 262
#     4   9  17  27  40  62  87 115 147 180 220 266
#     4   9  16  27  42  63  89 118 150 182 218 262
#
# _framework density 16.197704999999999
#
# number of rings (size 3 to 8) (size 9 to 14) (size 15 to 20)
#    0.000    2.429    1.429    2.143    0.000    6.286 
#    0.000    0.000    0.000    0.000    0.000    0.000 
#    0.000    1.143    0.000   12.000    0.000    5.143 
#
# Total GULP energy -347211.971989 kJ/mol
# GULP energy per Si atom -12400.427571 kJ/mol
# Density = 1.616084 g / cm^3
# Si number density = 16.197705 Si / 1000 Ang^3
#
#
#
# Elastic Constant Matrix: (Units=GPa)
#
#
# Indices 1 2 3 4 5 6 
#
# 1 68.2325 50.2642 41.0170 0.0000 25.0747 0.0000
# 2 50.2642 122.1999 52.5492 0.0000 17.7549 0.0000
# 3 41.0170 52.5492 74.8432 0.0000 26.2903 0.0000
# 4 0.0000 0.0000 0.0000 23.5123 0.0000 6.6997
# 5 25.0747 17.7549 26.2903 0.0000 24.6671 0.0000
# 6 0.0000 0.0000 0.0000 6.6997 0.0000 22.6501
#
#
#
# Elastic Compliance Matrix: (Units=1/GPa)
#
#
# Indices 1 2 3 4 5 6 
#
# 1 0.030553 -0.007865 -0.003678 0.000000 -0.021477 0.000000
# 2 -0.007865 0.013752 -0.007475 0.000000 0.006064 0.000000
# 3 -0.003678 -0.007475 0.027848 0.000000 -0.020562 0.000000
# 4 0.000000 0.000000 0.000000 0.046446 0.000000 -0.013738
# 5 -0.021477 0.006064 -0.020562 0.000000 0.079922 0.000000
# 6 0.000000 0.000000 0.000000 -0.013738 0.000000 0.048214
#
#
# Mechanical properties :
#
#
# Convention : Reuss Voigt Hill
#
# Bulk Modulus (GPa) = 29.31105 61.43738 45.37422
# Shear Modulus (GPa) = 16.88375 22.26225 19.57300
#
# Velocity S-wave (km/s) = 3.23205 3.71132 3.47995
# Velocity P-wave (km/s) = 5.66245 7.50848 6.64983
#
# Compressibility (1/GPa) = 0.03411683
#
# Stress axis : x y z
#
# Youngs Moduli (GPa) = 32.72975 72.71635 35.90928
#
# Poissons Ratio (x) = 0.57195 0.13206
# Poissons Ratio (y) = 0.25743 0.26843
# Poissons Ratio (z) = 0.12037 0.54357
#
# Static dielectric constant tensor:
#      x y z
#    x 2.848440 0.000000 0.394280 
#    y 0.000000 3.234690 0.000000 
#    z 0.394280 0.000000 2.899190 
# 
# 
# High freq. dielectric constant tensor:
#      x y z
#    x 1.589320 0.000000 0.044660 
#    y 0.000000 1.639270 0.000000 
#    z 0.044660 0.000000 1.595070 
# 
# From -- ./inp_files/68614.got.cif
#   From: 2010.06.25/outbox.cif.g09.slc.cpg/sg10_35_cif.got.tgz:68614.got - 2010.06.27 22:07:45.
