data_PCOD8058057
_publ_section_title
;
Structure prediction by ZEFSAII (Michael W. Deem and Ramdas Pophale) SiO2 
 PCOD8058057
Probable space group: P 2/M
;
_chemical_formula_sum "Si O2"
_cell_formula_units_Z 28
_cell_length_a 13.664664
_cell_length_b 9.454962
_cell_length_c 20.929477
_cell_angle_alpha 90.000000
_cell_angle_beta 32.785170
_cell_angle_gamma 90.000000
_cell_volume 1464.225831
_symmetry_space_group_name_H-M "P 2/M"
_symmetry_group_IT_number 10
_symmetry_cell_setting 'monoclinic'
loop_
_space_group_symop_operation_xyz
x,y,z
-x,y,-z
-x,-y,-z
x,-y,z
loop_
_atom_site_type_symbol
_atom_site_label
_atom_site_fract_x
_atom_site_fract_y
_atom_site_fract_z
Si Si1 0.658380 0.345106 0.061315
Si Si2 0.169468 0.667530 0.452552
Si Si3 0.531188 0.160850 0.235299
Si Si4 0.633513 0.339566 0.877397
Si Si5 0.973454 0.332023 0.334750
Si Si6 0.869364 0.838402 0.128478
Si Si7 0.034836 0.661260 0.801628
O O1 0.683158 0.500000 0.080559
O O2 0.669776 0.219002 0.105644
O O3 0.459564 0.338013 0.140297
O O4 0.816135 0.325629 0.921970
O O5 0.200736 0.500000 0.430737
O O6 0.352488 0.744562 0.331993
O O7 0.000000 0.710500 0.500000
O O8 0.141070 0.720137 0.541515
O O9 0.655004 0.171316 0.230419
O O10 0.475467 0.000000 0.251207
O O11 0.663842 0.500000 0.885696
O O12 0.827072 0.264109 0.766140
O O13 0.500000 0.259241 0.000000
O O14 0.986197 0.500000 0.331900
O O15 0.897053 0.287164 0.306473
O O16 0.884543 0.753243 0.185838
O O17 0.927134 0.000000 0.109370
O O18 0.000000 0.777625 0.000000
O O19 0.097110 0.500000 0.778653
#
# Coordination Sequence:
#
# PCOD8058057 Si02
#       7
#     4   4   4   4   4   4   4
#     4  10  18  29  51  83 113 141 178 223 277 334
#     4  10  21  39  62  86 113 148 188 228 272 329
#     4  11  23  38  57  79 108 148 192 234 278 325
#     4   9  14  24  46  78 112 140 168 209 266 332
#     4   9  17  31  51  80 116 146 177 223 279 330
#     4  10  21  38  56  77 110 151 189 229 282 336
#     4  10  19  31  53  85 113 140 178 228 281 331
#
# _framework density 19.122731999999999
#
# number of rings (size 3 to 8) (size 9 to 14) (size 15 to 20)
#    0.000    2.143    2.857    1.286    0.000    4.000 
#    0.000    1.429    0.000    5.571    0.000    0.000 
#    0.000    0.000    0.000    0.000    0.000    0.000 
#
# Total GULP energy -346915.962542 kJ/mol
# GULP energy per Si atom -12389.855805 kJ/mol
# Density = 1.907921 g / cm^3
# Si number density = 19.122732 Si / 1000 Ang^3
#
#
#
# Elastic Constant Matrix: (Units=GPa)
#
#
# Indices 1 2 3 4 5 6 
#
# 1 95.9629 42.8277 32.8968 0.0000 14.0873 0.0000
# 2 42.8277 58.9262 30.0795 0.0000 5.9396 0.0000
# 3 32.8968 30.0795 71.7928 0.0000 14.9203 0.0000
# 4 0.0000 0.0000 0.0000 7.8660 0.0000 -12.3364
# 5 14.0873 5.9396 14.9203 0.0000 37.3722 0.0000
# 6 0.0000 0.0000 0.0000 -12.3364 0.0000 13.0822
#
#
#
# Elastic Compliance Matrix: (Units=1/GPa)
#
#
# Indices 1 2 3 4 5 6 
#
# 1 0.016377 -0.010292 -0.002453 0.000000 -0.003558 0.000000
# 2 -0.010292 0.028057 -0.007545 0.000000 0.002433 0.000000
# 3 -0.002453 -0.007545 0.019380 0.000000 -0.005614 0.000000
# 4 0.000000 0.000000 0.000000 -0.265459 0.000000 -0.250325
# 5 -0.003558 0.002433 -0.005614 0.000000 0.029954 0.000000
# 6 0.000000 0.000000 0.000000 -0.250325 0.000000 -0.159614
#
#
# Mechanical properties :
#
#
# Convention : Reuss Voigt Hill
#
# Bulk Modulus (GPa) = 43.03749 48.69886 45.86817
# Shear Modulus (GPa) = -17.66908 19.72260 1.02676
#
# Velocity S-wave (km/s) = -3.04301 3.21498 0.73355
# Velocity P-wave (km/s) = 3.19504 6.26923 4.97551
#
# Compressibility (1/GPa) = 0.02323556
#
# Stress axis : x y z
#
# Youngs Moduli (GPa) = 61.06020 35.64182 51.59838
#
# Poissons Ratio (x) = 0.36684 0.12655
# Poissons Ratio (y) = 0.62846 0.38929
# Poissons Ratio (z) = 0.14975 0.26890
#
# Static dielectric constant tensor:
#      x y z
#    x 3.489300 0.000000 0.097740 
#    y 0.000000 3.116570 0.000000 
#    z 0.097740 0.000000 3.579260 
# 
# 
# High freq. dielectric constant tensor:
#      x y z
#    x 1.747870 0.000000 0.004650 
#    y 0.000000 1.698070 0.000000 
#    z 0.004650 0.000000 1.735880 
# 
# From -- ./inp_files/63352.got.cif
#   From: 2010.06.25/outbox.cif.g09.slc.cpg/sg10_32_cif.got.tgz:63352.got - 2010.06.27 22:07:45.
