data_PCOD8058587
_publ_section_title
;
Structure prediction by ZEFSAII (Michael W. Deem and Ramdas Pophale) SiO2 
 PCOD8058587
Probable space group: P 2/M
;
_chemical_formula_sum "Si O2"
_cell_formula_units_Z 16
_cell_length_a 8.844087
_cell_length_b 9.333784
_cell_length_c 25.081957
_cell_angle_alpha 90.000000
_cell_angle_beta 151.826136
_cell_angle_gamma 90.000000
_cell_volume 977.576990
_symmetry_space_group_name_H-M "P 2/M"
_symmetry_group_IT_number 10
_symmetry_cell_setting 'monoclinic'
loop_
_space_group_symop_operation_xyz
x,y,z
-x,y,-z
-x,-y,-z
x,-y,z
loop_
_atom_site_type_symbol
_atom_site_label
_atom_site_fract_x
_atom_site_fract_y
_atom_site_fract_z
Si Si1 0.349697 0.842451 0.808295
Si Si2 0.327133 0.669115 1.000000
Si Si3 0.308224 0.157549 0.191705
Si Si4 0.264738 0.000000 0.377526
Si Si5 0.622891 0.000000 0.377526
O O1 0.457476 0.792010 0.782990
O O2 0.961878 0.857838 0.689785
O O3 0.498872 0.000000 0.867865
O O4 0.470554 0.727058 0.887743
O O5 0.311008 0.500000 1.000000
O O6 0.968160 0.727059 0.887743
O O7 0.500000 0.719877 0.000000
O O8 0.159551 0.000000 0.132136
O O9 0.512951 0.142162 0.310214
O O10 0.500000 0.000000 0.500000
O O11 0.464134 0.000000 0.385654
O O12 0.000000 0.000000 0.500000
#
# Coordination Sequence:
#
# PCOD8058587 Si02
#       5
#     4   4   4   2   2
#     4   9  19  33  51  75 100 130 168 207 247 295
#     4  11  22  33  48  74 105 136 168 203 248 300
#     4   9  19  33  51  75 100 130 168 207 247 295
#     4  10  18  31  52  77 102 128 162 208 250 290
#     4  10  18  31  52  77 102 128 162 208 250 290
#
# _framework density 16.366997000000001
#
# number of rings (size 3 to 8) (size 9 to 14) (size 15 to 20)
#    1.500    0.750    0.000    4.500    0.000    5.000 
#    0.000    0.000    0.000    1.500    0.000    0.000 
#    0.000    0.000    0.000    0.000    0.000    0.000 
#
# Total GULP energy -198248.969791 kJ/mol
# GULP energy per Si atom -12390.560612 kJ/mol
# Density = 1.632974 g / cm^3
# Si number density = 16.366997 Si / 1000 Ang^3
#
#
#
# Elastic Constant Matrix: (Units=GPa)
#
#
# Indices 1 2 3 4 5 6 
#
# 1 187.2632 40.6575 79.9742 0.0000 -2.6959 0.0000
# 2 40.6575 42.6922 34.3047 0.0000 -0.4553 0.0000
# 3 79.9742 34.3047 142.0908 0.0000 -0.5423 0.0000
# 4 0.0000 0.0000 0.0000 0.3813 0.0000 -1.6298
# 5 -2.6959 -0.4553 -0.5423 0.0000 34.9956 0.0000
# 6 0.0000 0.0000 0.0000 -1.6298 0.0000 23.1147
#
#
#
# Elastic Compliance Matrix: (Units=1/GPa)
#
#
# Indices 1 2 3 4 5 6 
#
# 1 0.007760 -0.004810 -0.003204 0.000000 0.000486 0.000000
# 2 -0.004810 0.032045 -0.005029 0.000000 -0.000032 0.000000
# 3 -0.003204 -0.005029 0.010055 0.000000 -0.000156 0.000000
# 4 0.000000 0.000000 0.000000 3.754442 0.000000 0.264729
# 5 0.000486 -0.000032 -0.000156 0.000000 0.028610 0.000000
# 6 0.000000 0.000000 0.000000 0.264729 0.000000 0.061929
#
#
# Mechanical properties :
#
#
# Convention : Reuss Voigt Hill
#
# Bulk Modulus (GPa) = 42.06580 75.76878 58.91729
# Shear Modulus (GPa) = 1.27264 26.17230 13.72247
#
# Velocity S-wave (km/s) = 0.88275 4.00320 2.89870
# Velocity P-wave (km/s) = 5.17652 8.23174 6.87597
#
# Compressibility (1/GPa) = 0.02377228
#
# Stress axis : x y z
#
# Youngs Moduli (GPa) = 128.86757 31.20588 99.45295
#
# Poissons Ratio (x) = 0.15010 0.31869
# Poissons Ratio (y) = 0.61985 0.50020
# Poissons Ratio (z) = 0.41295 0.15695
#
# Static dielectric constant tensor:
#      x y z
#    x 3.289370 0.000000 -0.024820 
#    y 0.000000 2.745220 0.000000 
#    z -0.024820 0.000000 2.943210 
# 
# 
# High freq. dielectric constant tensor:
#      x y z
#    x 1.655350 0.000000 -0.002420 
#    y 0.000000 1.590610 0.000000 
#    z -0.002420 0.000000 1.621650 
# 
# From -- ./inp_files/87776.got.cif
#   From: 2010.06.25/outbox.cif.g09.slc.cpg/sg10_44_cif.got.tgz:87776.got - 2010.06.27 22:07:45.
