data_PCOD8058076
_publ_section_title
;
Structure prediction by ZEFSAII (Michael W. Deem and Ramdas Pophale) SiO2 
 PCOD8058076
Probable space group: P 2/M
;
_chemical_formula_sum "Si O2"
_cell_formula_units_Z 28
_cell_length_a 14.510236
_cell_length_b 8.613726
_cell_length_c 13.642921
_cell_angle_alpha 90.000000
_cell_angle_beta 76.052696
_cell_angle_gamma 90.000000
_cell_volume 1654.917717
_symmetry_space_group_name_H-M "P 2/M"
_symmetry_group_IT_number 10
_symmetry_cell_setting 'monoclinic'
loop_
_space_group_symop_operation_xyz
x,y,z
-x,y,-z
-x,-y,-z
x,-y,z
loop_
_atom_site_type_symbol
_atom_site_label
_atom_site_fract_x
_atom_site_fract_y
_atom_site_fract_z
Si Si1 0.611323 0.820465 0.587353
Si Si2 0.714145 0.179184 0.360896
Si Si3 0.096161 0.681989 0.368804
Si Si4 0.900914 0.817237 0.418360
Si Si5 0.435588 0.318902 0.721492
Si Si6 0.297354 0.679454 0.252978
Si Si7 0.527838 0.181706 0.884941
O O1 0.645119 0.787530 0.469667
O O2 0.501062 0.776120 0.628063
O O3 0.671434 0.712416 0.644139
O O4 0.626683 0.000000 0.612311
O O5 0.820708 0.234446 0.360834
O O6 0.673244 0.276187 0.278962
O O7 0.714661 0.000000 0.330800
O O8 0.075425 0.500000 0.375359
O O9 0.118124 0.734481 0.473685
O O10 0.185405 0.721689 0.275198
O O11 0.003949 0.770122 0.349688
O O12 0.894895 0.000000 0.439111
O O13 0.453885 0.500000 0.704967
O O14 0.459773 0.270444 0.826297
O O15 0.314752 0.500000 0.224325
O O16 0.360895 0.779814 0.161780
O O17 0.510793 0.000000 0.876131
O O18 0.500000 0.238723 0.000000
#
# Coordination Sequence:
#
# PCOD8058076 Si02
#       7
#     4   4   4   4   4   4   4
#     4  10  18  30  46  64  93 130 165 200 232 272
#     4  10  20  32  45  65  94 131 168 200 234 274
#     4  10  19  30  44  67  98 130 163 201 242 279
#     4  10  19  30  46  66  92 131 173 205 234 271
#     4  11  22  32  47  70  95 125 158 195 239 290
#     4  10  19  30  48  72  99 129 160 197 241 288
#     4  10  21  37  56  75  95 121 155 198 244 289
#
# _framework density 16.919270999999998
#
# number of rings (size 3 to 8) (size 9 to 14) (size 15 to 20)
#    0.000    1.857    1.429    6.429    0.000    6.857 
#    0.000    0.000    0.000    0.000    0.000    1.000 
#    0.000    8.000    0.000    0.000    0.000    0.000 
#
# Total GULP energy -347134.344280 kJ/mol
# GULP energy per Si atom -12397.655153 kJ/mol
# Density = 1.688076 g / cm^3
# Si number density = 16.919271 Si / 1000 Ang^3
#
#
#
# Elastic Constant Matrix: (Units=GPa)
#
#
# Indices 1 2 3 4 5 6 
#
# 1 128.9412 26.3190 47.8852 0.0000 2.6421 0.0000
# 2 26.3190 47.3555 21.2207 0.0000 0.2686 0.0000
# 3 47.8852 21.2207 66.5387 0.0000 -1.8087 0.0000
# 4 0.0000 0.0000 0.0000 12.8542 0.0000 -4.4150
# 5 2.6421 0.2686 -1.8087 0.0000 13.0481 0.0000
# 6 0.0000 0.0000 0.0000 -4.4150 0.0000 24.5167
#
#
#
# Elastic Compliance Matrix: (Units=1/GPa)
#
#
# Indices 1 2 3 4 5 6 
#
# 1 0.011061 -0.002945 -0.007107 0.000000 -0.003164 0.000000
# 2 -0.002945 0.025455 -0.006020 0.000000 -0.000762 0.000000
# 3 -0.007107 -0.006020 0.022189 0.000000 0.004639 0.000000
# 4 0.000000 0.000000 0.000000 0.082925 0.000000 0.014933
# 5 -0.003164 -0.000762 0.004639 0.000000 0.077939 0.000000
# 6 0.000000 0.000000 0.000000 0.014933 0.000000 0.043478
#
#
# Mechanical properties :
#
#
# Convention : Reuss Voigt Hill
#
# Bulk Modulus (GPa) = 37.64682 48.18724 42.91703
# Shear Modulus (GPa) = 16.44499 19.91116 18.17807
#
# Velocity S-wave (km/s) = 3.12102 3.43422 3.28136
# Velocity P-wave (km/s) = 5.94028 6.65340 6.30692
#
# Compressibility (1/GPa) = 0.02656267
#
# Stress axis : x y z
#
# Youngs Moduli (GPa) = 90.41097 39.28454 45.06678
#
# Poissons Ratio (x) = 0.11568 0.32028
# Poissons Ratio (y) = 0.26622 0.27130
# Poissons Ratio (z) = 0.64253 0.23649
#
# Static dielectric constant tensor:
#      x y z
#    x 3.462850 0.000000 -0.088170 
#    y 0.000000 3.208400 0.000000 
#    z -0.088170 0.000000 2.833900 
# 
# 
# High freq. dielectric constant tensor:
#      x y z
#    x 1.659270 0.000000 -0.002090 
#    y 0.000000 1.665180 0.000000 
#    z -0.002090 0.000000 1.599360 
# 
# From -- ./inp_files/65727.got.cif
#   From: 2010.06.25/outbox.cif.g09.slc.cpg/sg10_33_cif.got.tgz:65727.got - 2010.06.27 22:07:45.
