data_PCOD8058518
_publ_section_title
;
Structure prediction by ZEFSAII (Michael W. Deem and Ramdas Pophale) SiO2 
 PCOD8058518
Probable space group: P 2/M
;
_chemical_formula_sum "Si O2"
_cell_formula_units_Z 24
_cell_length_a 20.620385
_cell_length_b 8.737623
_cell_length_c 9.782519
_cell_angle_alpha 90.000000
_cell_angle_beta 131.132716
_cell_angle_gamma 90.000000
_cell_volume 1327.529286
_symmetry_space_group_name_H-M "P 2/M"
_symmetry_group_IT_number 10
_symmetry_cell_setting 'monoclinic'
loop_
_space_group_symop_operation_xyz
x,y,z
-x,y,-z
-x,-y,-z
x,-y,z
loop_
_atom_site_type_symbol
_atom_site_label
_atom_site_fract_x
_atom_site_fract_y
_atom_site_fract_z
Si Si1 0.862072 0.180104 0.028894
Si Si2 0.742313 0.682251 0.647340
Si Si3 0.977128 0.680885 0.622167
Si Si4 0.594931 0.319876 0.639539
Si Si5 0.271266 0.679620 0.955755
Si Si6 0.214764 0.680699 0.588874
O O1 0.959429 0.236103 0.184231
O O2 0.806298 0.230600 0.081870
O O3 0.859168 0.000000 0.008948
O O4 0.825989 0.254972 0.840544
O O5 0.745627 0.500000 0.659129
O O6 0.655650 0.743825 0.601784
O O7 0.743514 0.744811 0.493276
O O8 0.985625 0.500000 0.653793
O O9 0.000000 0.729252 0.500000
O O10 0.881751 0.742760 0.523759
O O11 0.500000 0.243406 0.500000
O O12 0.585733 0.500000 0.608462
O O13 0.638048 0.279816 0.845956
O O14 0.250129 0.500000 0.942839
O O15 0.274718 0.728184 0.801051
O O16 0.209917 0.500000 0.571648
#
# Coordination Sequence:
#
# PCOD8058518 Si02
#       6
#     4   4   4   4   4   4
#     4  11  21  32  47  70  99 129 165 199 240 283
#     4   9  18  33  51  69  96 128 162 198 238 286
#     4  10  18  31  51  70  93 125 168 205 233 275
#     4   8  14  26  48  75  99 124 154 192 237 285
#     4   9  16  31  52  71  95 127 164 198 236 285
#     4   9  17  30  50  73  92 124 167 203 235 277
#
# _framework density 18.078697999999999
#
# number of rings (size 3 to 8) (size 9 to 14) (size 15 to 20)
#    0.000    2.667    1.667    2.500    0.000    1.000 
#    0.000    5.833    0.000   13.000    0.000    0.000 
#    0.000   10.667    0.000    0.000    0.000    0.000 
#
# Total GULP energy -297499.306783 kJ/mol
# GULP energy per Si atom -12395.804449 kJ/mol
# Density = 1.803755 g / cm^3
# Si number density = 18.078698 Si / 1000 Ang^3
#
#
#
# Elastic Constant Matrix: (Units=GPa)
#
#
# Indices 1 2 3 4 5 6 
#
# 1 117.6116 14.5018 94.6348 0.0000 -5.7974 0.0000
# 2 14.5018 27.8205 15.5094 0.0000 -1.0443 0.0000
# 3 94.6348 15.5094 155.7098 0.0000 -6.8559 0.0000
# 4 0.0000 0.0000 0.0000 3.7256 0.0000 -1.5457
# 5 -5.7974 -1.0443 -6.8559 0.0000 38.4446 0.0000
# 6 0.0000 0.0000 0.0000 -1.5457 0.0000 5.5267
#
#
#
# Elastic Compliance Matrix: (Units=1/GPa)
#
#
# Indices 1 2 3 4 5 6 
#
# 1 0.016934 -0.003262 -0.009937 0.000000 0.000693 0.000000
# 2 -0.003262 0.038691 -0.001861 0.000000 0.000227 0.000000
# 3 -0.009937 -0.001861 0.012678 0.000000 0.000712 0.000000
# 4 0.000000 0.000000 0.000000 0.303647 0.000000 0.084923
# 5 0.000693 0.000227 0.000712 0.000000 0.026249 0.000000
# 6 0.000000 0.000000 0.000000 0.084923 0.000000 0.204690
#
#
# Mechanical properties :
#
#
# Convention : Reuss Voigt Hill
#
# Bulk Modulus (GPa) = 26.18905 61.15931 43.67418
# Shear Modulus (GPa) = 7.74309 21.30578 14.52444
#
# Velocity S-wave (km/s) = 2.07178 3.43666 2.83751
# Velocity P-wave (km/s) = 4.49896 7.04630 5.91147
#
# Compressibility (1/GPa) = 0.03818390
#
# Stress axis : x y z
#
# Youngs Moduli (GPa) = 59.05169 25.84571 78.87611
#
# Poissons Ratio (x) = 0.08430 0.78377
# Poissons Ratio (y) = 0.19261 0.14683
# Poissons Ratio (z) = 0.58678 0.04811
#
# Static dielectric constant tensor:
#      x y z
#    x 3.559230 0.000000 -0.065310 
#    y 0.000000 2.875650 0.000000 
#    z -0.065310 0.000000 3.629540 
# 
# 
# High freq. dielectric constant tensor:
#      x y z
#    x 1.683510 0.000000 -0.004300 
#    y 0.000000 1.654760 0.000000 
#    z -0.004300 0.000000 1.710330 
# 
# From -- ./inp_files/33768.got.cif
#   From: 2010.06.25/outbox.cif.g09.slc.cpg/sg10_17_cif.got.tgz:33768.got - 2010.06.27 22:07:45.
