data_PCOD8058002
_publ_section_title
;
Structure prediction by ZEFSAII (Michael W. Deem and Ramdas Pophale) SiO2 
 PCOD8058002
Probable space group: P 2/M
;
_chemical_formula_sum "Si O2"
_cell_formula_units_Z 32
_cell_length_a 14.081408
_cell_length_b 8.909994
_cell_length_c 14.309013
_cell_angle_alpha 90.000000
_cell_angle_beta 86.678386
_cell_angle_gamma 90.000000
_cell_volume 1792.268025
_symmetry_space_group_name_H-M "P 2/M"
_symmetry_group_IT_number 10
_symmetry_cell_setting 'monoclinic'
loop_
_space_group_symop_operation_xyz
x,y,z
-x,y,-z
-x,-y,-z
x,-y,z
loop_
_atom_site_type_symbol
_atom_site_label
_atom_site_fract_x
_atom_site_fract_y
_atom_site_fract_z
Si Si1 0.815404 0.833515 0.815552
Si Si2 0.520581 0.823274 0.605291
Si Si3 0.311672 0.164602 0.996554
Si Si4 0.200357 0.671355 0.850775
Si Si5 0.527782 0.176540 0.882292
Si Si6 0.391232 0.675843 0.764205
Si Si7 0.338123 0.677679 0.279186
Si Si8 0.996252 0.675444 0.890625
O O1 0.736554 0.842413 0.899830
O O2 0.768573 0.737194 0.734233
O O3 0.912480 0.761448 0.844685
O O4 0.838591 0.000000 0.777128
O O5 0.500000 0.782636 0.500000
O O6 0.435666 0.753429 0.671706
O O7 0.621717 0.749008 0.626857
O O8 0.524499 0.000000 0.622979
O O9 0.424649 0.202071 0.015542
O O10 0.308261 0.000000 0.948523
O O11 0.251336 0.282964 0.943476
O O12 0.176260 0.500000 0.868995
O O13 0.276146 0.697582 0.762878
O O14 0.095785 0.742357 0.841394
O O15 0.421635 0.241780 0.862027
O O16 0.588318 0.272543 0.804827
O O17 0.532205 0.000000 0.858270
O O18 0.418206 0.500000 0.767123
O O19 0.335412 0.500000 0.287400
O O20 0.980287 0.500000 0.872998
O O21 0.000000 0.712586 0.000000
#
# Coordination Sequence:
#
# PCOD8058002 Si02
#       8
#     4   4   4   4   4   4   4   4
#     4  10  19  31  47  69  98 130 168 213 253 289
#     4  10  20  35  56  80 104 128 155 191 237 293
#     4   9  18  29  43  63  88 124 166 206 246 285
#     4  10  21  33  45  65  94 127 167 210 249 287
#     4   9  17  30  45  64  92 126 164 203 240 283
#     4  10  20  33  48  69  97 128 160 198 241 291
#     4  10  18  29  49  75 101 129 160 196 241 292
#     4  10  19  32  49  68  92 129 175 219 256 289
#
# _framework density 17.854472000000001
#
# number of rings (size 3 to 8) (size 9 to 14) (size 15 to 20)
#    0.000    2.250    1.250    4.875    0.000    5.750 
#    0.000    2.500    0.000    0.000    0.000    0.875 
#    0.000    7.000    0.000    0.000    0.000    0.000 
#
# Total GULP energy -396543.929392 kJ/mol
# GULP energy per Si atom -12391.997793 kJ/mol
# Density = 1.781383 g / cm^3
# Si number density = 17.854472 Si / 1000 Ang^3
#
#
#
# Elastic Constant Matrix: (Units=GPa)
#
#
# Indices 1 2 3 4 5 6 
#
# 1 142.7008 59.6674 37.2192 0.0000 27.0202 0.0000
# 2 59.6674 105.8966 45.8589 0.0000 12.5616 0.0000
# 3 37.2192 45.8589 67.4250 0.0000 15.5960 0.0000
# 4 0.0000 0.0000 0.0000 18.1201 0.0000 7.1355
# 5 27.0202 12.5616 15.5960 0.0000 22.8010 0.0000
# 6 0.0000 0.0000 0.0000 7.1355 0.0000 22.5203
#
#
#
# Elastic Compliance Matrix: (Units=1/GPa)
#
#
# Indices 1 2 3 4 5 6 
#
# 1 0.011070 -0.004825 -0.000486 0.000000 -0.010127 0.000000
# 2 -0.004825 0.015525 -0.008601 0.000000 0.003048 0.000000
# 3 -0.000486 -0.008601 0.023427 0.000000 -0.010710 0.000000
# 4 0.000000 0.000000 0.000000 0.063055 0.000000 -0.019979
# 5 -0.010127 0.003048 -0.010710 0.000000 0.061505 0.000000
# 6 0.000000 0.000000 0.000000 -0.019979 0.000000 0.050735
#
#
# Mechanical properties :
#
#
# Convention : Reuss Voigt Hill
#
# Bulk Modulus (GPa) = 45.05135 66.83482 55.94309
# Shear Modulus (GPa) = 19.19100 24.24007 21.71554
#
# Velocity S-wave (km/s) = 3.28206 3.68862 3.49126
# Velocity P-wave (km/s) = 6.29681 7.46027 6.90310
#
# Compressibility (1/GPa) = 0.02219689
#
# Stress axis : x y z
#
# Youngs Moduli (GPa) = 90.33718 64.41211 42.68663
#
# Poissons Ratio (x) = 0.31081 0.02075
# Poissons Ratio (y) = 0.43591 0.36713
# Poissons Ratio (z) = 0.04391 0.55399
#
# Static dielectric constant tensor:
#      x y z
#    x 3.647780 0.000000 0.173380 
#    y 0.000000 3.385040 0.000000 
#    z 0.173380 0.000000 3.087520 
# 
# 
# High freq. dielectric constant tensor:
#      x y z
#    x 1.704600 0.000000 0.013910 
#    y 0.000000 1.699130 0.000000 
#    z 0.013910 0.000000 1.646990 
# 
# From -- ./inp_files/66189.got.cif
#   From: 2010.06.25/outbox.cif.g09.slc.cpg/sg10_34_cif.got.tgz:66189.got - 2010.06.27 22:07:45.
