data_PCOD8058405
_publ_section_title
;
Structure prediction by ZEFSAII (Michael W. Deem and Ramdas Pophale) SiO2 
 PCOD8058405
Probable space group: P 2/M
;
_chemical_formula_sum "Si O2"
_cell_formula_units_Z 32
_cell_length_a 24.876054
_cell_length_b 8.786275
_cell_length_c 16.251186
_cell_angle_alpha 90.000000
_cell_angle_beta 153.446540
_cell_angle_gamma 90.000000
_cell_volume 1587.854039
_symmetry_space_group_name_H-M "P 2/M"
_symmetry_group_IT_number 10
_symmetry_cell_setting 'monoclinic'
loop_
_space_group_symop_operation_xyz
x,y,z
-x,y,-z
-x,-y,-z
x,-y,z
loop_
_atom_site_type_symbol
_atom_site_label
_atom_site_fract_x
_atom_site_fract_y
_atom_site_fract_z
Si Si1 0.829087 0.820642 0.966419
Si Si2 0.253604 0.180178 0.853754
Si Si3 0.512109 0.180735 0.268850
Si Si4 0.274211 0.822200 0.552137
Si Si5 0.413013 0.819844 0.451084
Si Si6 0.964298 0.177569 0.864385
Si Si7 0.180248 0.320617 0.587870
Si Si8 0.905312 0.679172 0.230524
O O1 0.721929 0.774369 0.758408
O O2 0.828545 0.000000 0.983749
O O3 0.951072 0.757923 0.091908
O O4 0.817481 0.737370 0.037959
O O5 0.251972 0.237346 0.758300
O O6 0.140121 0.249805 0.746364
O O7 0.244392 0.000000 0.843172
O O8 0.378135 0.237419 0.065057
O O9 0.601372 0.234590 0.317999
O O10 0.553318 0.249669 0.413485
O O11 0.518696 0.000000 0.282213
O O12 0.245673 0.724809 0.593327
O O13 0.173682 0.790382 0.345093
O O14 0.276657 0.000000 0.579782
O O15 0.500000 0.751855 0.500000
O O16 0.428719 0.000000 0.476801
O O17 0.993944 0.000000 0.910967
O O18 0.000000 0.255255 0.000000
O O19 0.189224 0.500000 0.612589
O O20 0.041427 0.266065 0.398980
O O21 0.897325 0.500000 0.227501
#
# Coordination Sequence:
#
# PCOD8058405 Si02
#       8
#     4   4   4   4   4   4   4   4
#     4  10  18  30  54  85 113 146 190 230 273 334
#     4  11  23  39  62  87 111 144 192 241 287 343
#     4   9  19  35  56  87 120 149 186 237 291 337
#     4  10  19  35  59  84 116 151 188 234 282 337
#     4   9  16  28  50  82 118 151 185 231 284 332
#     4   9  16  27  49  83 114 141 180 231 276 318
#     4  11  24  41  59  82 115 151 189 235 292 345
#     4  11  23  39  58  82 117 152 186 235 293 345
#
# _framework density 20.152985000000001
#
# number of rings (size 3 to 8) (size 9 to 14) (size 15 to 20)
#    0.000    2.000    1.250    3.000    0.000    8.500 
#    0.000    3.750    0.000    7.875    0.000    0.000 
#    0.000    0.000    0.000    0.000    0.000    0.000 
#
# Total GULP energy -396838.342892 kJ/mol
# GULP energy per Si atom -12401.198215 kJ/mol
# Density = 2.010712 g / cm^3
# Si number density = 20.152985 Si / 1000 Ang^3
#
#
#
# Elastic Constant Matrix: (Units=GPa)
#
#
# Indices 1 2 3 4 5 6 
#
# 1 130.8337 23.8676 47.0576 0.0000 -0.3349 0.0000
# 2 23.8676 41.5200 32.0663 0.0000 -0.5299 0.0000
# 3 47.0576 32.0663 103.1022 0.0000 -7.0530 0.0000
# 4 0.0000 0.0000 0.0000 6.6610 0.0000 5.9731
# 5 -0.3349 -0.5299 -7.0530 0.0000 40.5215 0.0000
# 6 0.0000 0.0000 0.0000 5.9731 0.0000 15.1584
#
#
#
# Elastic Compliance Matrix: (Units=1/GPa)
#
#
# Indices 1 2 3 4 5 6 
#
# 1 0.009389 -0.002718 -0.003478 0.000000 -0.000563 0.000000
# 2 -0.002718 0.032555 -0.008964 0.000000 -0.001157 0.000000
# 3 -0.003478 -0.008964 0.014234 0.000000 0.002332 0.000000
# 4 0.000000 0.000000 0.000000 0.232164 0.000000 -0.091484
# 5 -0.000563 -0.001157 0.002332 0.000000 0.025064 0.000000
# 6 0.000000 0.000000 0.000000 -0.091484 0.000000 0.102019
#
#
# Mechanical properties :
#
#
# Convention : Reuss Voigt Hill
#
# Bulk Modulus (GPa) = 38.67298 53.49321 46.08309
# Shear Modulus (GPa) = 11.00438 23.96581 17.48509
#
# Velocity S-wave (km/s) = 2.33929 3.45221 2.94873
# Velocity P-wave (km/s) = 5.15051 6.51855 5.87449
#
# Compressibility (1/GPa) = 0.02585785
#
# Stress axis : x y z
#
# Youngs Moduli (GPa) = 106.51026 30.71711 70.25385
#
# Poissons Ratio (x) = 0.08348 0.24437
# Poissons Ratio (y) = 0.28948 0.62974
# Poissons Ratio (z) = 0.37049 0.27534
#
# Static dielectric constant tensor:
#      x y z
#    x 3.835160 0.000000 -0.001560 
#    y 0.000000 3.152330 0.000000 
#    z -0.001560 0.000000 3.782310 
# 
# 
# High freq. dielectric constant tensor:
#      x y z
#    x 1.802270 0.000000 -0.003960 
#    y 0.000000 1.736320 0.000000 
#    z -0.003960 0.000000 1.795020 
# 
# From -- ./inp_files/71702.got.cif
#   From: 2010.06.25/outbox.cif.g09.slc.cpg/sg10_36_cif.got.tgz:71702.got - 2010.06.27 22:07:45.
