data_PCOD8058111
_publ_section_title
;
Structure prediction by ZEFSAII (Michael W. Deem and Ramdas Pophale) SiO2 
 PCOD8058111
Probable space group: P 2/M
;
_chemical_formula_sum "Si O2"
_cell_formula_units_Z 28
_cell_length_a 14.406501
_cell_length_b 8.980633
_cell_length_c 21.944620
_cell_angle_alpha 90.000000
_cell_angle_beta 36.543892
_cell_angle_gamma 90.000000
_cell_volume 1690.559176
_symmetry_space_group_name_H-M "P 2/M"
_symmetry_group_IT_number 10
_symmetry_cell_setting 'monoclinic'
loop_
_space_group_symop_operation_xyz
x,y,z
-x,y,-z
-x,-y,-z
x,-y,z
loop_
_atom_site_type_symbol
_atom_site_label
_atom_site_fract_x
_atom_site_fract_y
_atom_site_fract_z
Si Si1 0.549232 0.168502 0.246074
Si Si2 0.774583 0.823874 0.630056
Si Si3 0.456691 0.833453 0.432509
Si Si4 0.014585 0.323891 0.581495
Si Si5 0.191352 0.828840 0.733368
Si Si6 0.850189 0.674276 0.117591
Si Si7 0.160359 0.672437 0.630889
O O1 0.411324 0.208274 0.271252
O O2 0.473725 0.187835 0.351830
O O3 0.697456 0.275397 0.160213
O O4 0.608777 0.000000 0.205601
O O5 0.851865 0.751963 0.529489
O O6 0.847704 0.747313 0.651558
O O7 0.808037 0.000000 0.611767
O O8 0.623970 0.807839 0.375828
O O9 0.336690 0.712958 0.520280
O O10 0.394895 0.000000 0.480083
O O11 0.015185 0.500000 0.568717
O O12 0.045002 0.287286 0.636197
O O13 0.137245 0.750206 0.823479
O O14 0.103866 0.759931 0.720967
O O15 0.145248 0.000000 0.764393
O O16 0.840623 0.500000 0.133354
O O17 0.000000 0.721564 0.000000
O O18 0.155068 0.500000 0.649453
#
# Coordination Sequence:
#
# PCOD8058111 Si02
#       7
#     4   4   4   4   4   4   4
#     4   9  18  31  49  72  97 127 163 200 239 283
#     4  10  18  30  47  67  92 128 169 204 237 275
#     4   9  17  30  44  63  93 127 162 197 232 275
#     4  10  20  30  42  65  97 132 167 202 239 277
#     4  10  21  34  49  68  92 125 162 198 236 283
#     4  10  21  36  54  76  99 122 152 194 243 293
#     4  11  21  30  43  66  96 131 165 197 236 280
#
# _framework density 16.562567000000001
#
# number of rings (size 3 to 8) (size 9 to 14) (size 15 to 20)
#    0.000    2.143    1.429    4.286    0.000    8.571 
#    0.000    0.000    0.000    0.000    0.000    1.000 
#    0.000    8.000    0.000    0.000    0.000    0.000 
#
# Total GULP energy -347167.187618 kJ/mol
# GULP energy per Si atom -12398.828129 kJ/mol
# Density = 1.652487 g / cm^3
# Si number density = 16.562567 Si / 1000 Ang^3
#
#
#
# Elastic Constant Matrix: (Units=GPa)
#
#
# Indices 1 2 3 4 5 6 
#
# 1 122.8698 63.6768 54.8523 0.0000 6.7265 0.0000
# 2 63.6768 95.8294 47.0969 0.0000 2.6074 0.0000
# 3 54.8523 47.0969 63.3499 0.0000 -3.4911 0.0000
# 4 0.0000 0.0000 0.0000 15.5669 0.0000 -5.1827
# 5 6.7265 2.6074 -3.4911 0.0000 14.4702 0.0000
# 6 0.0000 0.0000 0.0000 -5.1827 0.0000 25.0328
#
#
#
# Elastic Compliance Matrix: (Units=1/GPa)
#
#
# Indices 1 2 3 4 5 6 
#
# 1 0.016034 -0.005264 -0.010467 0.000000 -0.009030 0.000000
# 2 -0.005264 0.018701 -0.009522 0.000000 -0.003220 0.000000
# 3 -0.010467 -0.009522 0.032726 0.000000 0.014477 0.000000
# 4 0.000000 0.000000 0.000000 0.068994 0.000000 0.014284
# 5 -0.009030 -0.003220 0.014477 0.000000 0.077378 0.000000
# 6 0.000000 0.000000 0.000000 0.014284 0.000000 0.042905
#
#
# Mechanical properties :
#
#
# Convention : Reuss Voigt Hill
#
# Bulk Modulus (GPa) = 58.98704 68.14459 63.56581
# Shear Modulus (GPa) = 15.97973 18.77552 17.37762
#
# Velocity S-wave (km/s) = 3.10951 3.37057 3.24267
# Velocity P-wave (km/s) = 6.97023 7.50871 7.24447
#
# Compressibility (1/GPa) = 0.01695288
#
# Stress axis : x y z
#
# Youngs Moduli (GPa) = 62.36666 53.47401 30.55721
#
# Poissons Ratio (x) = 0.28151 0.31985
# Poissons Ratio (y) = 0.32832 0.29097
# Poissons Ratio (z) = 0.65281 0.50918
#
# Static dielectric constant tensor:
#      x y z
#    x 3.432240 0.000000 0.068190 
#    y 0.000000 3.206910 0.000000 
#    z 0.068190 0.000000 2.730880 
# 
# 
# High freq. dielectric constant tensor:
#      x y z
#    x 1.643630 0.000000 0.010000 
#    y 0.000000 1.652110 0.000000 
#    z 0.010000 0.000000 1.587790 
# 
# From -- ./inp_files/77707.got.cif
#   From: 2010.06.25/outbox.cif.g09.slc.cpg/sg10_39_cif.got.tgz:77707.got - 2010.06.27 22:07:45.
