data_PCOD8058971
_publ_section_title
;
Structure prediction by ZEFSAII (Michael W. Deem and Ramdas Pophale) SiO2 
 PCOD8058971
Probable space group: P 2/M
;
_chemical_formula_sum "Si O2"
_cell_formula_units_Z 24
_cell_length_a 10.617018
_cell_length_b 11.970127
_cell_length_c 10.440635
_cell_angle_alpha 90.000000
_cell_angle_beta 59.137858
_cell_angle_gamma 90.000000
_cell_volume 1138.990174
_symmetry_space_group_name_H-M "P 2/M"
_symmetry_group_IT_number 10
_symmetry_cell_setting 'monoclinic'
loop_
_space_group_symop_operation_xyz
x,y,z
-x,y,-z
-x,-y,-z
x,-y,z
loop_
_atom_site_type_symbol
_atom_site_label
_atom_site_fract_x
_atom_site_fract_y
_atom_site_fract_z
Si Si1 0.828451 0.126784 0.330144
Si Si2 0.674473 0.263512 0.922711
Si Si3 0.660948 0.130673 0.167727
Si Si4 0.407788 0.740221 0.417902
Si Si5 0.466138 0.500000 0.365938
Si Si6 0.638597 0.500000 0.020831
Si Si7 0.893443 0.126930 0.672805
O O1 0.778917 0.163997 0.214754
O O2 0.747179 0.199990 0.481061
O O3 0.003221 0.139228 0.254466
O O4 0.777526 0.000000 0.382003
O O5 0.760311 0.217875 0.751238
O O6 0.500000 0.261773 0.000000
O O7 0.726624 0.173332 0.000546
O O8 0.728620 0.387391 0.937678
O O9 0.505016 0.192283 0.265802
O O10 0.630846 0.000000 0.178688
O O11 0.500000 0.736678 0.500000
O O12 0.377170 0.613897 0.382413
O O13 0.500000 0.500000 0.500000
O O14 0.602226 0.500000 0.193107
O O15 0.500000 0.500000 0.000000
O O16 0.000000 0.155415 0.500000
O O17 0.831845 0.000000 0.692950
#
# Coordination Sequence:
#
# PCOD8058971 Si02
#       7
#     4   4   4   4   2   2   4
#     4   9  19  35  55  84 123 159 193 239 303 364
#     4  11  24  41  62  87 118 155 204 249 299 360
#     4  10  19  32  57  87 116 152 197 245 294 353
#     4   9  17  30  52  86 118 151 193 243 293 347
#     4  10  18  32  57  87 121 158 201 254 304 350
#     4  10  22  40  60  86 120 163 199 251 308 358
#     4  10  23  41  61  87 123 162 196 244 307 364
#
# _framework density 21.071297000000001
#
# number of rings (size 3 to 8) (size 9 to 14) (size 15 to 20)
#    0.000    2.167    1.667    1.000    2.333    4.000 
#    0.000    3.750    0.000    1.000    0.000    0.000 
#    0.000    0.000    0.000    0.000    0.000    0.000 
#
# Total GULP energy -297420.427408 kJ/mol
# GULP energy per Si atom -12392.517809 kJ/mol
# Density = 2.102334 g / cm^3
# Si number density = 21.071297 Si / 1000 Ang^3
#
#
#
# Elastic Constant Matrix: (Units=GPa)
#
#
# Indices 1 2 3 4 5 6 
#
# 1 45.1999 20.3645 13.7207 0.0000 -7.8958 0.0000
# 2 20.3645 147.8579 61.6417 0.0000 -13.4276 0.0000
# 3 13.7207 61.6417 107.4880 0.0000 -2.2948 0.0000
# 4 0.0000 0.0000 0.0000 29.7167 0.0000 0.1553
# 5 -7.8958 -13.4276 -2.2948 0.0000 29.1074 0.0000
# 6 0.0000 0.0000 0.0000 0.1553 0.0000 18.7325
#
#
#
# Elastic Compliance Matrix: (Units=1/GPa)
#
#
# Indices 1 2 3 4 5 6 
#
# 1 0.024600 -0.002135 -0.001797 0.000000 0.005546 0.000000
# 2 -0.002135 0.009491 -0.005098 0.000000 0.003397 0.000000
# 3 -0.001797 -0.005098 0.012417 0.000000 -0.001860 0.000000
# 4 0.000000 0.000000 0.000000 0.033653 0.000000 -0.000279
# 5 0.005546 0.003397 -0.001860 0.000000 0.037281 0.000000
# 6 0.000000 0.000000 0.000000 -0.000279 0.000000 0.053385
#
#
# Mechanical properties :
#
#
# Convention : Reuss Voigt Hill
#
# Bulk Modulus (GPa) = 35.15261 54.66662 44.90962
# Shear Modulus (GPa) = 25.20543 29.16592 27.18568
#
# Velocity S-wave (km/s) = 3.46236 3.72446 3.59580
# Velocity P-wave (km/s) = 5.71864 6.67049 6.21282
#
# Compressibility (1/GPa) = 0.02844739
#
# Stress axis : x y z
#
# Youngs Moduli (GPa) = 40.64966 105.36141 80.53764
#
# Poissons Ratio (x) = 0.22497 0.14475
# Poissons Ratio (y) = 0.08680 0.41057
# Poissons Ratio (z) = 0.07306 0.53712
#
# Static dielectric constant tensor:
#      x y z
#    x 3.697970 0.000000 0.266350 
#    y 0.000000 4.205220 0.000000 
#    z 0.266350 0.000000 3.867860 
# 
# 
# High freq. dielectric constant tensor:
#      x y z
#    x 1.803130 0.000000 0.028580 
#    y 0.000000 1.830300 0.000000 
#    z 0.028580 0.000000 1.822670 
# 
# From -- ./inp_files/46546.got.cif
#   From: 2010.06.25/outbox.cif.g09.slc.cpg/sg10_24_cif.got.tgz:46546.got - 2010.06.27 22:07:45.
