data_PCOD8058141
_publ_section_title
;
Structure prediction by ZEFSAII (Michael W. Deem and Ramdas Pophale) SiO2 
 PCOD8058141
Probable space group: P 2/M
;
_chemical_formula_sum "Si O2"
_cell_formula_units_Z 32
_cell_length_a 15.571735
_cell_length_b 14.394976
_cell_length_c 18.041377
_cell_angle_alpha 90.000000
_cell_angle_beta 149.667886
_cell_angle_gamma 90.000000
_cell_volume 2042.296891
_symmetry_space_group_name_H-M "P 2/M"
_symmetry_group_IT_number 10
_symmetry_cell_setting 'monoclinic'
loop_
_space_group_symop_operation_xyz
x,y,z
-x,y,-z
-x,-y,-z
x,-y,z
loop_
_atom_site_type_symbol
_atom_site_label
_atom_site_fract_x
_atom_site_fract_y
_atom_site_fract_z
Si Si1 0.577404 0.899261 0.673869
Si Si2 0.339337 0.607158 0.671325
Si Si3 0.770335 0.100739 0.673869
Si Si4 0.832266 0.704874 0.673949
Si Si5 0.830564 0.390350 0.830564
Si Si6 0.003312 0.607158 0.671324
Si Si7 0.334348 0.610486 0.834348
Si Si8 0.484368 0.704874 0.326051
O O1 0.406475 0.901725 0.500000
O O2 0.734028 0.882799 0.734028
O O3 0.569279 0.813125 0.724711
O O4 0.600327 0.000000 0.731566
O O5 0.397129 0.500000 0.712175
O O6 0.339899 0.648147 0.754653
O O7 0.473960 0.665499 0.723903
O O8 0.150364 0.619169 0.500000
O O9 0.880144 0.186875 0.724711
O O10 0.862805 0.000000 0.731566
O O11 0.837910 0.648027 0.753380
O O12 0.644602 0.693637 0.500000
O O13 0.973847 0.665499 0.723903
O O14 0.812360 0.500000 0.812360
O O15 0.668850 0.351973 0.753380
O O16 0.000000 0.360024 0.000000
O O17 0.027221 0.500000 0.712175
O O18 0.169407 0.648147 0.754652
O O19 0.325607 0.500000 0.825607
O O20 0.500000 0.647356 0.000000
#
# Coordination Sequence:
#
# PCOD8058141 Si02
#       8
#     4   4   4   4   4   4   4   4
#     4   8  13  23  42  67  90 111 141 184 226 258
#     4   9  17  28  43  64  88 112 142 182 220 253
#     4   8  13  23  42  67  90 111 141 184 226 258
#     4  10  18  30  48  67  86 116 154 185 216 261
#     4  11  23  33  40  57  90 126 153 181 218 257
#     4   9  17  28  43  64  88 112 142 182 220 253
#     4   9  17  29  45  63  84 113 144 174 215 265
#     4  10  18  30  48  67  86 116 154 185 216 261
#
# _framework density 15.668633
#
# number of rings (size 3 to 8) (size 9 to 14) (size 15 to 20)
#    0.000    2.750    1.250    2.250    0.000    4.500 
#    0.000    2.500    0.000    1.500    0.000    0.875 
#    0.000    7.000    0.000    0.000    0.000    0.000 
#
# Total GULP energy -396627.549190 kJ/mol
# GULP energy per Si atom -12394.610912 kJ/mol
# Density = 1.563297 g / cm^3
# Si number density = 15.668633 Si / 1000 Ang^3
#
#
#
# Elastic Constant Matrix: (Units=GPa)
#
#
# Indices 1 2 3 4 5 6 
#
# 1 148.3016 69.6602 51.0269 0.0000 2.6480 0.0000
# 2 69.6602 98.7331 29.7675 0.0000 1.3217 0.0000
# 3 51.0269 29.7675 47.1901 0.0000 0.7019 0.0000
# 4 0.0000 0.0000 0.0000 8.6405 0.0000 -0.0863
# 5 2.6480 1.3217 0.7019 0.0000 8.7416 0.0000
# 6 0.0000 0.0000 0.0000 -0.0863 0.0000 6.0366
#
#
#
# Elastic Compliance Matrix: (Units=1/GPa)
#
#
# Indices 1 2 3 4 5 6 
#
# 1 0.013278 -0.006198 -0.010414 0.000000 -0.002249 0.000000
# 2 -0.006198 0.015414 -0.003018 0.000000 -0.000211 0.000000
# 3 -0.010414 -0.003018 0.034343 0.000000 0.000853 0.000000
# 4 0.000000 0.000000 0.000000 0.115750 0.000000 0.001655
# 5 -0.002249 -0.000211 0.000853 0.000000 0.115041 0.000000
# 6 0.000000 0.000000 0.000000 0.001655 0.000000 0.165679
#
#
# Mechanical properties :
#
#
# Convention : Reuss Voigt Hill
#
# Bulk Modulus (GPa) = 42.06244 66.12598 54.09421
# Shear Modulus (GPa) = 9.86796 14.26842 12.06819
#
# Velocity S-wave (km/s) = 2.51229 3.02095 2.77828
# Velocity P-wave (km/s) = 5.94296 7.37988 6.70005
#
# Compressibility (1/GPa) = 0.02377418
#
# Stress axis : x y z
#
# Youngs Moduli (GPa) = 75.31380 64.87583 29.11818
#
# Poissons Ratio (x) = 0.40211 0.30324
# Poissons Ratio (y) = 0.46680 0.08788
# Poissons Ratio (z) = 0.78433 0.19580
#
# Static dielectric constant tensor:
#      x y z
#    x 3.044870 0.000000 0.007630 
#    y 0.000000 3.259790 0.000000 
#    z 0.007630 0.000000 2.814620 
# 
# 
# High freq. dielectric constant tensor:
#      x y z
#    x 1.591230 0.000000 0.000380 
#    y 0.000000 1.588450 0.000000 
#    z 0.000380 0.000000 1.579790 
# 
# From -- ./inp_files/61557.got.cif
#   From: 2010.06.25/outbox.cif.g09.slc.cpg/sg10_31_cif.got.tgz:61557.got - 2010.06.27 22:07:45.
