data_PCOD8058042
_publ_section_title
;
Structure prediction by ZEFSAII (Michael W. Deem and Ramdas Pophale) SiO2 
 PCOD8058042
Probable space group: P 2/M
;
_chemical_formula_sum "Si O2"
_cell_formula_units_Z 28
_cell_length_a 14.284317
_cell_length_b 9.470643
_cell_length_c 14.881367
_cell_angle_alpha 90.000000
_cell_angle_beta 126.122532
_cell_angle_gamma 90.000000
_cell_volume 1626.159359
_symmetry_space_group_name_H-M "P 2/M"
_symmetry_group_IT_number 10
_symmetry_cell_setting 'monoclinic'
loop_
_space_group_symop_operation_xyz
x,y,z
-x,y,-z
-x,-y,-z
x,-y,z
loop_
_atom_site_type_symbol
_atom_site_label
_atom_site_fract_x
_atom_site_fract_y
_atom_site_fract_z
Si Si1 0.339872 0.836303 0.566666
Si Si2 0.067840 0.500000 0.172660
Si Si3 0.644028 0.264047 0.897909
Si Si4 0.383245 0.660172 0.765389
Si Si5 0.397879 0.844884 0.314803
Si Si6 0.636777 0.846427 0.082938
Si Si7 0.253155 0.342079 0.363530
Si Si8 0.173551 0.500000 0.036085
O O1 0.334830 0.756220 0.658070
O O2 0.465503 0.822239 0.591530
O O3 0.250986 0.758461 0.449156
O O4 0.305031 0.000000 0.560867
O O5 0.120684 0.360593 0.252612
O O6 0.114910 0.500000 0.098847
O O7 0.928810 0.500000 0.096927
O O8 0.522951 0.344583 0.847081
O O9 0.626072 0.156322 0.805635
O O10 0.747561 0.364962 0.929959
O O11 0.685847 0.186371 0.011822
O O12 0.337766 0.500000 0.729945
O O13 0.329418 0.726040 0.826125
O O14 0.330105 0.723318 0.327583
O O15 0.361010 0.000000 0.329912
O O16 0.685557 0.000000 0.140953
O O17 0.500000 0.856230 0.000000
O O18 0.303615 0.500000 0.413959
#
# Coordination Sequence:
#
# PCOD8058042 Si02
#       8
#     4   2   4   4   4   4   4   2
#     4  10  20  31  47  69 102 137 161 194 242 299
#     4   9  22  34  52  70  97 128 168 222 263 284
#     4  10  18  29  51  71 100 136 170 200 243 288
#     4  10  19  29  46  76 108 132 167 196 231 291
#     4  10  19  30  45  71 103 132 164 195 239 299
#     4   9  18  30  45  69 107 141 164 193 238 294
#     4  10  19  33  47  71  91 129 165 207 249 288
#     4  11  18  36  52  73  96 129 172 216 260 281
#
# _framework density 17.218485000000001
#
# number of rings (size 3 to 8) (size 9 to 14) (size 15 to 20)
#    0.429    1.714    2.143    2.143    1.000    7.143 
#    0.000    0.000    0.000    4.286    0.000    2.000 
#    0.000    2.286    0.000    0.000    0.000    0.000 
#
# Total GULP energy -347021.977192 kJ/mol
# GULP energy per Si atom -12393.642043 kJ/mol
# Density = 1.717929 g / cm^3
# Si number density = 17.218485 Si / 1000 Ang^3
#
#
#
# Elastic Constant Matrix: (Units=GPa)
#
#
# Indices 1 2 3 4 5 6 
#
# 1 24.1574 13.3813 22.4862 0.0000 -2.7423 0.0000
# 2 13.3813 127.1352 43.5756 0.0000 -7.7597 0.0000
# 3 22.4862 43.5756 98.8486 0.0000 -5.4916 0.0000
# 4 0.0000 0.0000 0.0000 32.7115 0.0000 -2.1778
# 5 -2.7423 -7.7597 -5.4916 0.0000 27.6157 0.0000
# 6 0.0000 0.0000 0.0000 -2.1778 0.0000 24.4688
#
#
#
# Elastic Compliance Matrix: (Units=1/GPa)
#
#
# Indices 1 2 3 4 5 6 
#
# 1 0.053005 -0.001575 -0.011219 0.000000 0.002590 0.000000
# 2 -0.001575 0.009403 -0.003689 0.000000 0.001752 0.000000
# 3 -0.011219 -0.003689 0.014334 0.000000 0.000700 0.000000
# 4 0.000000 0.000000 0.000000 0.030753 0.000000 0.002737
# 5 0.002590 0.001752 0.000700 0.000000 0.037100 0.000000
# 6 0.000000 0.000000 0.000000 0.002737 0.000000 0.041112
#
#
# Mechanical properties :
#
#
# Convention : Reuss Voigt Hill
#
# Bulk Modulus (GPa) = 22.84481 45.44750 34.14616
# Shear Modulus (GPa) = 21.43479 28.33907 24.88693
#
# Velocity S-wave (km/s) = 3.53210 4.06131 3.80592
# Velocity P-wave (km/s) = 5.47090 6.96019 6.25999
#
# Compressibility (1/GPa) = 0.04377362
#
# Stress axis : x y z
#
# Youngs Moduli (GPa) = 18.86616 106.34978 69.76455
#
# Poissons Ratio (x) = 0.16755 0.78271
# Poissons Ratio (y) = 0.02972 0.25739
# Poissons Ratio (z) = 0.21166 0.39237
#
# Static dielectric constant tensor:
#      x y z
#    x 2.840300 0.000000 -0.195420 
#    y 0.000000 3.321440 0.000000 
#    z -0.195420 0.000000 3.310890 
# 
# 
# High freq. dielectric constant tensor:
#      x y z
#    x 1.609680 0.000000 -0.032120 
#    y 0.000000 1.673440 0.000000 
#    z -0.032120 0.000000 1.664100 
# 
# From -- ./inp_files/66262.got.cif
#   From: 2010.06.25/outbox.cif.g09.slc.cpg/sg10_34_cif.got.tgz:66262.got - 2010.06.27 22:07:45.
