data_PCOD8058537
_publ_section_title
;
Structure prediction by ZEFSAII (Michael W. Deem and Ramdas Pophale) SiO2 
 PCOD8058537
Probable space group: P 2/M
;
_chemical_formula_sum "Si O2"
_cell_formula_units_Z 32
_cell_length_a 19.547081
_cell_length_b 9.079054
_cell_length_c 14.388150
_cell_angle_alpha 90.000000
_cell_angle_beta 47.212834
_cell_angle_gamma 90.000000
_cell_volume 1873.931566
_symmetry_space_group_name_H-M "P 2/M"
_symmetry_group_IT_number 10
_symmetry_cell_setting 'monoclinic'
loop_
_space_group_symop_operation_xyz
x,y,z
-x,y,-z
-x,-y,-z
x,-y,z
loop_
_atom_site_type_symbol
_atom_site_label
_atom_site_fract_x
_atom_site_fract_y
_atom_site_fract_z
Si Si1 0.157050 0.671955 0.531421
Si Si2 0.017003 0.174740 0.377908
Si Si3 0.688470 0.328045 0.468579
Si Si4 0.559233 0.168414 0.729406
Si Si5 0.605088 0.825260 0.377908
Si Si6 0.288638 0.831586 0.270594
Si Si7 0.779814 0.826549 0.861779
Si Si8 0.641594 0.173451 0.138221
O O1 0.139255 0.500000 0.535519
O O2 0.210813 0.706462 0.578373
O O3 0.218117 0.726440 0.389018
O O4 0.058657 0.755329 0.621563
O O5 0.116787 0.236927 0.250818
O O6 0.000000 0.225333 0.500000
O O7 0.010980 0.000000 0.375899
O O8 0.674774 0.500000 0.464481
O O9 0.607135 0.273560 0.610982
O O10 0.680219 0.244671 0.378437
O O11 0.606487 0.188076 0.787025
O O12 0.451050 0.211518 0.835646
O O13 0.570479 0.000000 0.683110
O O14 0.500000 0.774667 0.500000
O O15 0.632395 0.763073 0.250818
O O16 0.613121 0.000000 0.375899
O O17 0.286696 0.788482 0.164354
O O18 0.253589 0.000000 0.316890
O O19 0.788019 0.000000 0.866193
O O20 0.730010 0.759019 1.000000
O O21 0.654213 0.000000 0.133807
#
# Coordination Sequence:
#
# PCOD8058537 Si02
#       8
#     4   4   4   4   4   4   4   4
#     4  10  20  32  48  72  99 126 160 202 244 283
#     4  10  18  31  51  74  97 125 161 199 240 284
#     4  10  20  32  48  72  99 126 160 202 244 283
#     4   9  16  28  47  70  98 131 163 193 230 279
#     4  10  18  31  51  74  97 125 161 199 240 284
#     4   9  16  28  47  70  98 131 163 193 230 279
#     4   9  17  29  46  71 101 128 157 197 240 282
#     4   9  17  29  46  71 101 128 157 197 240 282
#
# _framework density 17.076397
#
# number of rings (size 3 to 8) (size 9 to 14) (size 15 to 20)
#    0.000    2.500    2.500    0.750    0.000    2.500 
#    0.000    2.500    0.000    3.750    0.000    8.750 
#    0.000    0.000    0.000    0.000    0.000    0.000 
#
# Total GULP energy -396650.270964 kJ/mol
# GULP energy per Si atom -12395.320968 kJ/mol
# Density = 1.703753 g / cm^3
# Si number density = 17.076397 Si / 1000 Ang^3
#
#
#
# Elastic Constant Matrix: (Units=GPa)
#
#
# Indices 1 2 3 4 5 6 
#
# 1 123.7763 34.5921 75.4440 0.0000 -0.2185 0.0000
# 2 34.5921 30.2678 22.5401 0.0000 -0.5702 0.0000
# 3 75.4440 22.5401 131.1762 0.0000 0.5685 0.0000
# 4 0.0000 0.0000 0.0000 5.8190 0.0000 -0.7546
# 5 -0.2185 -0.5702 0.5685 0.0000 21.8952 0.0000
# 6 0.0000 0.0000 0.0000 -0.7546 0.0000 21.7678
#
#
#
# Elastic Compliance Matrix: (Units=1/GPa)
#
#
# Indices 1 2 3 4 5 6 
#
# 1 0.015958 -0.013077 -0.006931 0.000000 -0.000001 0.000000
# 2 -0.013077 0.048631 -0.000840 0.000000 0.001158 0.000000
# 3 -0.006931 -0.000840 0.011756 0.000000 -0.000396 0.000000
# 4 0.000000 0.000000 0.000000 0.172626 0.000000 0.005984
# 5 -0.000001 0.001158 -0.000396 0.000000 0.045713 0.000000
# 6 0.000000 0.000000 0.000000 0.005984 0.000000 0.046147
#
#
# Mechanical properties :
#
#
# Convention : Reuss Voigt Hill
#
# Bulk Modulus (GPa) = 28.86126 61.15251 45.00688
# Shear Modulus (GPa) = 12.68786 20.07268 16.38027
#
# Velocity S-wave (km/s) = 2.72877 3.43222 3.10051
# Velocity P-wave (km/s) = 5.18326 7.18302 6.26346
#
# Compressibility (1/GPa) = 0.03464852
#
# Stress axis : x y z
#
# Youngs Moduli (GPa) = 62.66287 20.56295 85.06400
#
# Poissons Ratio (x) = 0.26890 0.58960
# Poissons Ratio (y) = 0.81943 0.07149
# Poissons Ratio (z) = 0.43433 0.01728
#
# Static dielectric constant tensor:
#      x y z
#    x 3.441670 0.000000 -0.009240 
#    y 0.000000 2.938720 0.000000 
#    z -0.009240 0.000000 3.246280 
# 
# 
# High freq. dielectric constant tensor:
#      x y z
#    x 1.667950 0.000000 -0.001660 
#    y 0.000000 1.629520 0.000000 
#    z -0.001660 0.000000 1.632830 
# 
# From -- ./inp_files/69964.got.cif
#   From: 2010.06.25/outbox.cif.g09.slc.cpg/sg10_35_cif.got.tgz:69964.got - 2010.06.27 22:07:45.
