data_PCOD8058831
_publ_section_title
;
Structure prediction by ZEFSAII (Michael W. Deem and Ramdas Pophale) SiO2 
 PCOD8058831
Probable space group: P 2/M
;
_chemical_formula_sum "Si O2"
_cell_formula_units_Z 28
_cell_length_a 23.302902
_cell_length_b 9.099493
_cell_length_c 15.177734
_cell_angle_alpha 90.000000
_cell_angle_beta 153.709489
_cell_angle_gamma 90.000000
_cell_volume 1425.483168
_symmetry_space_group_name_H-M "P 2/M"
_symmetry_group_IT_number 10
_symmetry_cell_setting 'monoclinic'
loop_
_space_group_symop_operation_xyz
x,y,z
-x,y,-z
-x,-y,-z
x,-y,z
loop_
_atom_site_type_symbol
_atom_site_label
_atom_site_fract_x
_atom_site_fract_y
_atom_site_fract_z
Si Si1 0.137671 0.173775 0.949128
Si Si2 0.235183 0.336161 0.432271
Si Si3 0.478179 0.663213 0.207832
Si Si4 0.577260 0.174330 0.693939
Si Si5 0.137728 0.836623 0.145303
Si Si6 0.142361 0.173675 0.469676
Si Si7 0.623980 0.326202 0.114834
O O1 0.008197 0.218883 0.715632
O O2 0.143019 0.000000 0.960084
O O3 0.273849 0.233649 0.098483
O O4 0.124514 0.232412 0.030444
O O5 0.174804 0.500000 0.358817
O O6 0.387279 0.342511 0.660509
O O7 0.224569 0.277498 0.318316
O O8 0.166777 0.222145 0.403021
O O9 0.440781 0.500000 0.189789
O O10 0.485780 0.768619 0.302629
O O11 0.382667 0.716392 0.998159
O O12 0.500000 0.230859 0.500000
O O13 0.571568 0.000000 0.687604
O O14 0.202432 0.000000 0.231914
O O15 0.000000 0.847895 0.000000
O O16 0.241332 0.254588 0.669795
O O17 0.163045 0.000000 0.505558
O O18 0.635145 0.500000 0.144236
O O19 0.500000 0.266078 0.000000
#
# Coordination Sequence:
#
# PCOD8058831 Si02
#       7
#     4   4   4   4   4   4   4
#     4   9  19  36  55  80 117 151 183 236 298 337
#     4  11  21  34  52  80 116 151 186 230 288 345
#     4  10  22  39  59  82 114 152 190 237 290 338
#     4  10  21  39  63  86 112 151 197 239 280 338
#     4  10  18  32  53  78 110 148 185 230 285 341
#     4  11  21  35  56  84 115 148 188 233 284 344
#     4  10  20  39  60  82 117 155 186 234 297 344
#
# _framework density 19.642464
#
# number of rings (size 3 to 8) (size 9 to 14) (size 15 to 20)
#    0.000    1.857    2.857    1.714    0.000    3.714 
#    0.000    2.857    0.000    4.286    0.000    0.000 
#    0.000    0.000    0.000    0.000    0.000    0.000 
#
# Total GULP energy -347000.145088 kJ/mol
# GULP energy per Si atom -12392.862325 kJ/mol
# Density = 1.959776 g / cm^3
# Si number density = 19.642464 Si / 1000 Ang^3
#
#
#
# Elastic Constant Matrix: (Units=GPa)
#
#
# Indices 1 2 3 4 5 6 
#
# 1 69.1857 20.1304 34.6040 0.0000 -4.2855 0.0000
# 2 20.1304 48.6907 37.2649 0.0000 -8.7075 0.0000
# 3 34.6040 37.2649 136.9189 0.0000 -6.3892 0.0000
# 4 0.0000 0.0000 0.0000 -2.9005 0.0000 10.2182
# 5 -4.2855 -8.7075 -6.3892 0.0000 32.5109 0.0000
# 6 0.0000 0.0000 0.0000 10.2182 0.0000 12.5177
#
#
#
# Elastic Compliance Matrix: (Units=1/GPa)
#
#
# Indices 1 2 3 4 5 6 
#
# 1 0.017408 -0.004763 -0.003084 0.000000 0.000413 0.000000
# 2 -0.004763 0.028300 -0.006231 0.000000 0.005727 0.000000
# 3 -0.003084 -0.006231 0.009772 0.000000 -0.000155 0.000000
# 4 0.000000 0.000000 0.000000 -0.088955 0.000000 0.072614
# 5 0.000413 0.005727 -0.000155 0.000000 0.032317 0.000000
# 6 0.000000 0.000000 0.000000 0.072614 0.000000 0.020612
#
#
# Mechanical properties :
#
#
# Convention : Reuss Voigt Hill
#
# Bulk Modulus (GPa) = 36.59875 48.75489 42.67682
# Shear Modulus (GPa) = 88.15499 19.27868 53.71683
#
# Velocity S-wave (km/s) = 6.70651 3.13626 5.23514
# Velocity P-wave (km/s) = 8.86806 6.16359 7.63650
#
# Compressibility (1/GPa) = 0.02732334
#
# Stress axis : x y z
#
# Youngs Moduli (GPa) = 57.44582 35.33526 102.33555
#
# Poissons Ratio (x) = 0.16830 0.31560
# Poissons Ratio (y) = 0.27360 0.63770
# Poissons Ratio (z) = 0.17716 0.22019
#
# Static dielectric constant tensor:
#      x y z
#    x 3.454070 0.000000 0.000590 
#    y 0.000000 3.390910 0.000000 
#    z 0.000590 0.000000 3.922640 
# 
# 
# High freq. dielectric constant tensor:
#      x y z
#    x 1.744620 0.000000 -0.004810 
#    y 0.000000 1.743700 0.000000 
#    z -0.004810 0.000000 1.779620 
# 
# From -- ./inp_files/63485.got.cif
#   From: 2010.06.25/outbox.cif.g09.slc.cpg/sg10_32_cif.got.tgz:63485.got - 2010.06.27 22:07:45.
