data_PCOD8058908
_publ_section_title
;
Structure prediction by ZEFSAII (Michael W. Deem and Ramdas Pophale) SiO2 
 PCOD8058908
Probable space group: P 2/M
;
_chemical_formula_sum "Si O2"
_cell_formula_units_Z 32
_cell_length_a 23.027435
_cell_length_b 9.168168
_cell_length_c 12.150081
_cell_angle_alpha 90.000000
_cell_angle_beta 136.104309
_cell_angle_gamma 90.000000
_cell_volume 1778.518309
_symmetry_space_group_name_H-M "P 2/M"
_symmetry_group_IT_number 10
_symmetry_cell_setting 'monoclinic'
loop_
_space_group_symop_operation_xyz
x,y,z
-x,y,-z
-x,-y,-z
x,-y,z
loop_
_atom_site_type_symbol
_atom_site_label
_atom_site_fract_x
_atom_site_fract_y
_atom_site_fract_z
Si Si1 0.993159 0.159022 0.618258
Si Si2 0.168092 0.331961 0.594896
Si Si3 0.731105 0.670600 0.051124
Si Si4 0.904502 0.826403 0.885508
Si Si5 0.404643 0.170175 0.761738
Si Si6 0.772865 0.170764 0.528033
Si Si7 0.839939 0.828825 0.033445
Si Si8 0.587644 0.172919 0.980203
O O1 0.927178 0.283927 0.554480
O O2 0.000000 0.135410 0.500000
O O3 0.080718 0.212099 0.784613
O O4 0.968459 0.000000 0.637635
O O5 0.176668 0.500000 0.575905
O O6 0.198512 0.299198 0.759888
O O7 0.222638 0.238471 0.586284
O O8 0.716424 0.500000 0.012300
O O9 0.761483 0.741683 0.977426
O O10 0.644434 0.743626 0.969337
O O11 0.842012 0.763392 0.705984
O O12 0.907491 0.000000 0.886512
O O13 0.862805 0.773814 0.942298
O O14 0.000000 0.766249 0.000000
O O15 0.324573 0.205198 0.573023
O O16 0.392385 0.232127 0.869242
O O17 0.414003 0.000000 0.794994
O O18 0.491106 0.221115 0.822784
O O19 0.788345 0.000000 0.539979
O O20 0.818628 0.000000 0.006378
O O21 0.602827 0.000000 0.987049
#
# Coordination Sequence:
#
# PCOD8058908 Si02
#       8
#     4   4   4   4   4   4   4   4
#     4  10  19  31  49  70  92 126 169 206 245 298
#     4  11  22  32  45  71 106 136 164 203 252 299
#     4  11  22  33  47  73 107 138 166 202 251 306
#     4   9  18  33  54  79 103 128 165 215 255 287
#     4   8  15  27  49  78 102 129 165 208 252 299
#     4  10  18  32  55  76  99 132 171 208 248 300
#     4  10  20  35  54  75  99 131 171 211 255 301
#     4   9  16  30  50  74 104 132 164 205 255 305
#
# _framework density 17.992505000000001
#
# number of rings (size 3 to 8) (size 9 to 14) (size 15 to 20)
#    0.000    2.250    2.500    2.250    0.000    3.750 
#    0.000    2.500    0.000    2.250    0.000    5.250 
#    0.000    0.000    0.000    0.000    0.000    0.000 
#
# Total GULP energy -396538.847103 kJ/mol
# GULP energy per Si atom -12391.838972 kJ/mol
# Density = 1.795155 g / cm^3
# Si number density = 17.992505 Si / 1000 Ang^3
#
#
#
# Elastic Constant Matrix: (Units=GPa)
#
#
# Indices 1 2 3 4 5 6 
#
# 1 141.6194 42.1003 49.0625 0.0000 12.6112 0.0000
# 2 42.1003 42.1568 27.4400 0.0000 6.5006 0.0000
# 3 49.0625 27.4400 86.2800 0.0000 16.0970 0.0000
# 4 0.0000 0.0000 0.0000 13.4469 0.0000 -5.0298
# 5 12.6112 6.5006 16.0970 0.0000 30.1267 0.0000
# 6 0.0000 0.0000 0.0000 -5.0298 0.0000 -0.2247
#
#
#
# Elastic Compliance Matrix: (Units=1/GPa)
#
#
# Indices 1 2 3 4 5 6 
#
# 1 0.010809 -0.008529 -0.003258 0.000000 -0.000944 0.000000
# 2 -0.008529 0.036705 -0.006678 0.000000 -0.000782 0.000000
# 3 -0.003258 -0.006678 0.016709 0.000000 -0.006123 0.000000
# 4 0.000000 0.000000 0.000000 0.007935 0.000000 -0.177600
# 5 -0.000944 -0.000782 -0.006123 0.000000 0.037028 0.000000
# 6 0.000000 0.000000 0.000000 -0.177600 0.000000 -0.474801
#
#
# Mechanical properties :
#
#
# Convention : Reuss Voigt Hill
#
# Bulk Modulus (GPa) = 36.63767 56.36242 46.50004
# Shear Modulus (GPa) = -15.64524 18.76669 1.56072
#
# Velocity S-wave (km/s) = -2.95200 3.23310 0.93237
# Velocity P-wave (km/s) = 2.96444 6.73281 5.20186
#
# Compressibility (1/GPa) = 0.02729431
#
# Stress axis : x y z
#
# Youngs Moduli (GPa) = 92.51257 27.24399 59.84769
#
# Poissons Ratio (x) = 0.23235 0.19500
# Poissons Ratio (y) = 0.78900 0.39966
# Poissons Ratio (z) = 0.30143 0.18193
#
# Static dielectric constant tensor:
#      x y z
#    x -0.231690 0.000000 -4.819810 
#    y 0.000000 3.018730 0.000000 
#    z -4.819810 0.000000 -3.476940 
# 
# 
# High freq. dielectric constant tensor:
#      x y z
#    x 1.696380 0.000000 0.017400 
#    y 0.000000 1.663340 0.000000 
#    z 0.017400 0.000000 1.679520 
# 
# From -- ./inp_files/55321.got.cif
#   From: 2010.06.25/outbox.cif.g09.slc.cpg/sg10_28_cif.got.tgz:55321.got - 2010.06.27 22:07:45.
