data_PCOD8058220
_publ_section_title
;
Structure prediction by ZEFSAII (Michael W. Deem and Ramdas Pophale) SiO2 
 PCOD8058220
Probable space group: P 2/M
;
_chemical_formula_sum "Si O2"
_cell_formula_units_Z 32
_cell_length_a 21.178256
_cell_length_b 8.843242
_cell_length_c 30.597472
_cell_angle_alpha 90.000000
_cell_angle_beta 19.567646
_cell_angle_gamma 90.000000
_cell_volume 1919.233214
_symmetry_space_group_name_H-M "P 2/M"
_symmetry_group_IT_number 10
_symmetry_cell_setting 'monoclinic'
loop_
_space_group_symop_operation_xyz
x,y,z
-x,y,-z
-x,-y,-z
x,-y,z
loop_
_atom_site_type_symbol
_atom_site_label
_atom_site_fract_x
_atom_site_fract_y
_atom_site_fract_z
Si Si1 0.390983 0.832829 0.616497
Si Si2 0.955988 0.822102 0.461173
Si Si3 0.334803 0.678183 0.980833
Si Si4 0.716876 0.677271 0.445818
Si Si5 0.698144 0.178615 0.707500
Si Si6 0.947157 0.179178 0.217824
Si Si7 0.663224 0.176426 0.926784
Si Si8 0.064247 0.178043 0.623373
O O1 0.500000 0.840279 0.500000
O O2 0.497594 0.719290 0.579739
O O3 0.178959 0.778105 0.742675
O O4 0.387485 0.000000 0.640178
O O5 0.775897 0.781657 0.608466
O O6 0.930431 0.756180 0.429321
O O7 0.149126 0.761813 0.356814
O O8 0.979657 0.000000 0.442793
O O9 0.313387 0.500000 0.994161
O O10 0.508196 0.728875 0.837902
O O11 0.363861 0.731903 0.011288
O O12 0.151442 0.750452 0.077985
O O13 0.743607 0.500000 0.423996
O O14 0.856264 0.758281 0.321331
O O15 0.771474 0.733841 0.458314
O O16 0.660181 0.000000 0.737360
O O17 0.961619 0.000000 0.214108
O O18 0.862400 0.217007 0.775555
O O19 0.647096 0.000000 0.948751
O O20 0.500000 0.226192 0.000000
O O21 0.105931 0.000000 0.597837
#
# Coordination Sequence:
#
# PCOD8058220 Si02
#       8
#     4   4   4   4   4   4   4   4
#     4   8  16  30  48  67  90 124 164 200 238 283
#     4   8  16  32  56  78  91 119 169 218 249 282
#     4  12  23  32  46  72 104 133 162 198 247 298
#     4  11  20  29  44  70 102 132 160 194 241 295
#     4   9  17  34  56  74  94 122 167 215 252 288
#     4  10  19  33  50  68  93 129 168 204 239 283
#     4  10  20  33  50  69  93 131 170 200 239 290
#     4  10  18  30  49  71  98 129 164 203 244 288
#
# _framework density 16.673324999999998
#
# number of rings (size 3 to 8) (size 9 to 14) (size 15 to 20)
#    0.000    2.250    1.250    4.875    0.000    5.000 
#    0.000    3.750    0.000    0.000    0.000    0.875 
#    0.000    7.000    0.000    0.000    0.000    0.000 
#
# Total GULP energy -396752.085288 kJ/mol
# GULP energy per Si atom -12398.502665 kJ/mol
# Density = 1.663538 g / cm^3
# Si number density = 16.673325 Si / 1000 Ang^3
#
#
#
# Elastic Constant Matrix: (Units=GPa)
#
#
# Indices 1 2 3 4 5 6 
#
# 1 90.3514 36.5531 55.4303 0.0000 -18.2938 0.0000
# 2 36.5531 75.9772 40.1920 0.0000 -10.5317 0.0000
# 3 55.4303 40.1920 97.3220 0.0000 -15.3728 0.0000
# 4 0.0000 0.0000 0.0000 11.7774 0.0000 -1.7741
# 5 -18.2938 -10.5317 -15.3728 0.0000 28.7501 0.0000
# 6 0.0000 0.0000 0.0000 -1.7741 0.0000 6.4079
#
#
#
# Elastic Compliance Matrix: (Units=1/GPa)
#
#
# Indices 1 2 3 4 5 6 
#
# 1 0.018935 -0.003917 -0.008181 0.000000 0.006239 0.000000
# 2 -0.003917 0.017842 -0.004914 0.000000 0.001416 0.000000
# 3 -0.008181 -0.004914 0.017321 0.000000 0.002255 0.000000
# 4 0.000000 0.000000 0.000000 0.088603 0.000000 0.024530
# 5 0.006239 0.001416 0.002255 0.000000 0.040477 0.000000
# 6 0.000000 0.000000 0.000000 0.024530 0.000000 0.162848
#
#
# Mechanical properties :
#
#
# Convention : Reuss Voigt Hill
#
# Bulk Modulus (GPa) = 49.81767 58.66682 54.24224
# Shear Modulus (GPa) = 12.92854 18.15211 15.54033
#
# Velocity S-wave (km/s) = 2.78763 3.30311 3.05626
# Velocity P-wave (km/s) = 6.34860 7.05761 6.71247
#
# Compressibility (1/GPa) = 0.02007320
#
# Stress axis : x y z
#
# Youngs Moduli (GPa) = 52.81188 56.04759 57.73491
#
# Poissons Ratio (x) = 0.21954 0.47236
# Poissons Ratio (y) = 0.20686 0.28370
# Poissons Ratio (z) = 0.43208 0.27540
#
# Static dielectric constant tensor:
#      x y z
#    x 3.418590 0.000000 -0.252590 
#    y 0.000000 2.968700 0.000000 
#    z -0.252590 0.000000 3.144330 
# 
# 
# High freq. dielectric constant tensor:
#      x y z
#    x 1.635560 0.000000 -0.022630 
#    y 0.000000 1.629250 0.000000 
#    z -0.022630 0.000000 1.624470 
# 
# From -- ./inp_files/95649.got.cif
#   From: 2010.06.25/outbox.cif.g09.slc.cpg/sg10_48_cif.got.tgz:95649.got - 2010.06.27 22:07:45.
