data_PCOD8058713
_publ_section_title
;
Structure prediction by ZEFSAII (Michael W. Deem and Ramdas Pophale) SiO2 
 PCOD8058713
Probable space group: P 2/M
;
_chemical_formula_sum "Si O2"
_cell_formula_units_Z 32
_cell_length_a 12.175619
_cell_length_b 16.945287
_cell_length_c 18.061815
_cell_angle_alpha 90.000000
_cell_angle_beta 26.812644
_cell_angle_gamma 90.000000
_cell_volume 1680.930082
_symmetry_space_group_name_H-M "P 2/M"
_symmetry_group_IT_number 10
_symmetry_cell_setting 'monoclinic'
loop_
_space_group_symop_operation_xyz
x,y,z
-x,y,-z
-x,-y,-z
x,-y,z
loop_
_atom_site_type_symbol
_atom_site_label
_atom_site_fract_x
_atom_site_fract_y
_atom_site_fract_z
Si Si1 0.379701 0.708025 0.651709
Si Si2 0.627095 0.227535 0.761537
Si Si3 0.699919 0.194140 0.549267
Si Si4 0.243981 0.410583 0.133891
Si Si5 0.469733 0.593926 0.731896
Si Si6 0.165711 0.678928 0.038988
Si Si7 0.915215 0.087024 0.635461
Si Si8 0.032083 0.662277 0.575656
O O1 0.500000 0.690230 0.500000
O O2 0.481214 0.792807 0.622423
O O3 0.439346 0.634268 0.669671
O O4 0.089590 0.720327 0.825419
O O5 0.600739 0.203109 0.692123
O O6 0.361725 0.255444 0.946444
O O7 0.701130 0.152392 0.768283
O O8 0.830193 0.297921 0.642321
O O9 0.854689 0.112819 0.450692
O O10 0.881771 0.266803 0.422815
O O11 0.296013 0.500000 0.081889
O O12 0.078915 0.404898 0.305702
O O13 0.500000 0.367879 0.000000
O O14 0.114117 0.375052 0.140671
O O15 0.441111 0.500000 0.741973
O O16 0.264658 0.627139 0.910884
O O17 0.736705 0.618841 0.603270
O O18 0.000000 0.085242 0.500000
O O19 0.826391 0.000000 0.714370
#
# Coordination Sequence:
#
# PCOD8058713 Si02
#       8
#     4   4   4   4   4   4   4   4
#     4  11  24  40  57  76 102 146 199 237 274 329
#     4  10  18  31  57  85 115 145 181 224 268 334
#     4   9  18  33  56  81 110 141 186 228 263 329
#     4  11  23  35  49  75 110 146 189 236 283 333
#     4  11  24  38  56  78 104 143 190 241 293 334
#     4  12  22  37  56  79 109 149 185 237 283 326
#     4   8  15  29  56  92 123 145 168 213 272 331
#     4  10  18  35  54  78 108 144 182 226 283 330
#
# _framework density 19.03708
#
# number of rings (size 3 to 8) (size 9 to 14) (size 15 to 20)
#    0.000    1.750    3.750    3.750    0.000    1.750 
#    0.000    0.625    0.000    1.125    0.000   18.375 
#    0.000    0.000    0.000    0.000    0.000    0.000 
#
# Total GULP energy -396418.785390 kJ/mol
# GULP energy per Si atom -12388.087043 kJ/mol
# Density = 1.899375 g / cm^3
# Si number density = 19.037080 Si / 1000 Ang^3
#
#
#
# Elastic Constant Matrix: (Units=GPa)
#
#
# Indices 1 2 3 4 5 6 
#
# 1 96.3181 46.6176 43.5433 0.0000 -10.9313 0.0000
# 2 46.6176 111.8492 35.5838 0.0000 -15.7530 0.0000
# 3 43.5433 35.5838 104.9408 0.0000 -17.2944 0.0000
# 4 0.0000 0.0000 0.0000 13.7216 0.0000 -3.2549
# 5 -10.9313 -15.7530 -17.2944 0.0000 38.9512 0.0000
# 6 0.0000 0.0000 0.0000 -3.2549 0.0000 19.8039
#
#
#
# Elastic Compliance Matrix: (Units=1/GPa)
#
#
# Indices 1 2 3 4 5 6 
#
# 1 0.014690 -0.004665 -0.004473 0.000000 0.000250 0.000000
# 2 -0.004665 0.011783 -0.001608 0.000000 0.002742 0.000000
# 3 -0.004473 -0.001608 0.012533 0.000000 0.003659 0.000000
# 4 0.000000 0.000000 0.000000 0.075834 0.000000 0.012464
# 5 0.000250 0.002742 0.003659 0.000000 0.028477 0.000000
# 6 0.000000 0.000000 0.000000 0.012464 0.000000 0.052544
#
#
# Mechanical properties :
#
#
# Convention : Reuss Voigt Hill
#
# Bulk Modulus (GPa) = 57.09035 62.73305 59.91170
# Shear Modulus (GPa) = 22.40245 26.98622 24.69434
#
# Velocity S-wave (km/s) = 3.43414 3.76914 3.60553
# Velocity P-wave (km/s) = 6.76599 7.20878 6.99089
#
# Compressibility (1/GPa) = 0.01751609
#
# Stress axis : x y z
#
# Youngs Moduli (GPa) = 68.07235 84.87159 79.78788
#
# Poissons Ratio (x) = 0.39589 0.35685
# Poissons Ratio (y) = 0.31753 0.12829
# Poissons Ratio (z) = 0.30445 0.13646
#
# Static dielectric constant tensor:
#      x y z
#    x 3.601980 0.000000 -0.250690 
#    y 0.000000 3.545240 0.000000 
#    z -0.250690 0.000000 3.420780 
# 
# 
# High freq. dielectric constant tensor:
#      x y z
#    x 1.738070 0.000000 -0.009630 
#    y 0.000000 1.706690 0.000000 
#    z -0.009630 0.000000 1.730930 
# 
# From -- ./inp_files/77122.got.cif
#   From: 2010.06.25/outbox.cif.g09.slc.cpg/sg10_39_cif.got.tgz:77122.got - 2010.06.27 22:07:45.
