data_PCOD8058351
_publ_section_title
;
Structure prediction by ZEFSAII (Michael W. Deem and Ramdas Pophale) SiO2 
 PCOD8058351
Probable space group: P 2/M
;
_chemical_formula_sum "Si O2"
_cell_formula_units_Z 26
_cell_length_a 11.211288
_cell_length_b 9.866953
_cell_length_c 20.144012
_cell_angle_alpha 90.000000
_cell_angle_beta 39.426787
_cell_angle_gamma 90.000000
_cell_volume 1415.210317
_symmetry_space_group_name_H-M "P 2/M"
_symmetry_group_IT_number 10
_symmetry_cell_setting 'monoclinic'
loop_
_space_group_symop_operation_xyz
x,y,z
-x,y,-z
-x,-y,-z
x,-y,z
loop_
_atom_site_type_symbol
_atom_site_label
_atom_site_fract_x
_atom_site_fract_y
_atom_site_fract_z
Si Si1 0.500000 0.731594 0.000000
Si Si2 0.165135 0.840609 0.475279
Si Si3 0.087479 0.648996 0.168492
Si Si4 0.440556 0.838481 0.753473
Si Si5 0.905596 0.656737 0.109687
Si Si6 0.988646 0.159642 0.685835
Si Si7 0.421881 0.845053 0.168253
O O1 0.688730 0.644312 0.913630
O O2 0.473293 0.824793 0.946508
O O3 0.371359 0.791674 0.365759
O O4 0.000000 0.775778 0.500000
O O5 0.138779 0.803295 0.564385
O O6 0.152301 0.000000 0.471054
O O7 0.009339 0.500000 0.220092
O O8 0.974739 0.757906 0.261925
O O9 0.053624 0.679931 0.105480
O O10 0.268535 0.754021 0.797781
O O11 0.461915 0.784335 0.820234
O O12 0.402180 0.000000 0.763315
O O13 0.840155 0.500000 0.133520
O O14 0.000000 0.702533 0.000000
O O15 0.789038 0.212245 0.743749
O O16 0.988308 0.000000 0.703587
O O17 0.400996 0.000000 0.195442
#
# Coordination Sequence:
#
# PCOD8058351 Si02
#       7
#     2   4   4   4   4   4   4
#     4  10  18  30  52  76  99 132 173 216 263 322
#     4   9  15  29  55  83 111 139 171 213 265 315
#     4  10  21  36  53  74 102 136 174 219 268 314
#     4  10  19  32  55  83 107 136 178 220 259 307
#     4  10  22  40  56  72 103 146 183 216 263 318
#     4   9  17  31  53  79 106 136 166 209 263 315
#     4   9  16  27  46  77 109 133 163 209 263 311
#
# _framework density 18.371827
#
# number of rings (size 3 to 8) (size 9 to 14) (size 15 to 20)
#    0.000    2.462    1.538    1.385    0.000    1.538 
#    0.000    4.615    0.000    5.538    0.000    0.000 
#    0.000    0.000    0.000    0.000    0.000    0.000 
#
# Total GULP energy -322216.871571 kJ/mol
# GULP energy per Si atom -12392.956599 kJ/mol
# Density = 1.833001 g / cm^3
# Si number density = 18.371827 Si / 1000 Ang^3
#
#
#
# Elastic Constant Matrix: (Units=GPa)
#
#
# Indices 1 2 3 4 5 6 
#
# 1 89.7220 38.5733 44.9886 0.0000 9.8088 0.0000
# 2 38.5733 55.6591 41.4360 0.0000 1.8370 0.0000
# 3 44.9886 41.4360 118.9526 0.0000 9.2833 0.0000
# 4 0.0000 0.0000 0.0000 18.3212 0.0000 2.4923
# 5 9.8088 1.8370 9.2833 0.0000 30.7205 0.0000
# 6 0.0000 0.0000 0.0000 2.4923 0.0000 23.6915
#
#
#
# Elastic Compliance Matrix: (Units=1/GPa)
#
#
# Indices 1 2 3 4 5 6 
#
# 1 0.017149 -0.009664 -0.002803 0.000000 -0.004050 0.000000
# 2 -0.009664 0.029741 -0.006972 0.000000 0.003414 0.000000
# 3 -0.002803 -0.006972 0.012078 0.000000 -0.002338 0.000000
# 4 0.000000 0.000000 0.000000 0.055374 0.000000 -0.005825
# 5 -0.004050 0.003414 -0.002338 0.000000 0.034347 0.000000
# 6 0.000000 0.000000 0.000000 -0.005825 0.000000 0.042822
#
#
# Mechanical properties :
#
#
# Convention : Reuss Voigt Hill
#
# Bulk Modulus (GPa) = 49.77531 57.14772 53.46151
# Shear Modulus (GPa) = 21.08946 23.83569 22.46258
#
# Velocity S-wave (km/s) = 3.39178 3.60586 3.50046
# Velocity P-wave (km/s) = 6.51851 6.96491 6.74540
#
# Compressibility (1/GPa) = 0.02009028
#
# Stress axis : x y z
#
# Youngs Moduli (GPa) = 58.31349 33.62336 82.79608
#
# Poissons Ratio (x) = 0.32493 0.23210
# Poissons Ratio (y) = 0.56353 0.57722
# Poissons Ratio (z) = 0.16347 0.23441
#
# Static dielectric constant tensor:
#      x y z
#    x 3.405990 0.000000 0.174810 
#    y 0.000000 3.093430 0.000000 
#    z 0.174810 0.000000 3.477000 
# 
# 
# High freq. dielectric constant tensor:
#      x y z
#    x 1.706870 0.000000 0.014070 
#    y 0.000000 1.678900 0.000000 
#    z 0.014070 0.000000 1.711270 
# 
# From -- ./inp_files/63578.got.cif
#   From: 2010.06.25/outbox.cif.g09.slc.cpg/sg10_32_cif.got.tgz:63578.got - 2010.06.27 22:07:45.
