data_PCOD8058940
_publ_section_title
;
Structure prediction by ZEFSAII (Michael W. Deem and Ramdas Pophale) SiO2 
 PCOD8058940
Probable space group: P 2/M
;
_chemical_formula_sum "Si O2"
_cell_formula_units_Z 16
_cell_length_a 12.225082
_cell_length_b 8.448329
_cell_length_c 10.422332
_cell_angle_alpha 90.000000
_cell_angle_beta 52.152165
_cell_angle_gamma 90.000000
_cell_volume 849.998797
_symmetry_space_group_name_H-M "P 2/M"
_symmetry_group_IT_number 10
_symmetry_cell_setting 'monoclinic'
loop_
_space_group_symop_operation_xyz
x,y,z
-x,y,-z
-x,-y,-z
x,-y,z
loop_
_atom_site_type_symbol
_atom_site_label
_atom_site_fract_x
_atom_site_fract_y
_atom_site_fract_z
Si Si1 0.069495 0.687651 0.581489
Si Si2 0.911868 0.312155 0.945302
Si Si3 0.626605 0.684456 0.256388
Si Si4 0.340783 0.183340 0.491287
O O1 0.087502 0.500000 0.572588
O O2 0.220093 0.767266 0.480791
O O3 0.000000 0.744628 0.500000
O O4 0.973559 0.750327 0.767006
O O5 0.920981 0.500000 0.944536
O O6 0.751579 0.259220 0.073878
O O7 0.000000 0.239788 0.000000
O O8 0.594988 0.500000 0.261878
O O9 0.672696 0.714167 0.369857
O O10 0.489044 0.781677 0.318110
O O11 0.331110 0.000000 0.534006
#
# Coordination Sequence:
#
# PCOD8058940 Si02
#       4
#     4   4   4   4
#     4  10  20  36  57  79 104 138 177 215 259 312
#     4   9  16  30  54  82 105 127 171 225 261 297
#     4  10  18  32  56  79 104 136 176 220 262 301
#     4  11  21  33  50  77 112 140 172 213 263 314
#
# _framework density 18.823557000000001
#
# number of rings (size 3 to 8) (size 9 to 14) (size 15 to 20)
#    0.000    2.000    2.500    4.500    0.000    0.500 
#    0.000    5.000    0.000    7.500    0.000    0.000 
#    0.000    0.000    0.000    0.000    0.000    0.000 
#
# Total GULP energy -198405.853281 kJ/mol
# GULP energy per Si atom -12400.365830 kJ/mol
# Density = 1.878071 g / cm^3
# Si number density = 18.823557 Si / 1000 Ang^3
#
#
#
# Elastic Constant Matrix: (Units=GPa)
#
#
# Indices 1 2 3 4 5 6 
#
# 1 154.9098 22.9834 80.1832 0.0000 -13.7350 0.0000
# 2 22.9834 38.9247 14.1024 0.0000 -5.2010 0.0000
# 3 80.1832 14.1024 127.6775 0.0000 -8.3882 0.0000
# 4 0.0000 0.0000 0.0000 2.6072 0.0000 1.5019
# 5 -13.7350 -5.2010 -8.3882 0.0000 29.1254 0.0000
# 6 0.0000 0.0000 0.0000 1.5019 0.0000 12.7335
#
#
#
# Elastic Compliance Matrix: (Units=1/GPa)
#
#
# Indices 1 2 3 4 5 6 
#
# 1 0.010252 -0.003590 -0.005878 0.000000 0.002501 0.000000
# 2 -0.003590 0.028484 -0.000682 0.000000 0.003197 0.000000
# 3 -0.005878 -0.000682 0.011629 0.000000 0.000456 0.000000
# 4 0.000000 0.000000 0.000000 0.411507 0.000000 -0.048537
# 5 0.002501 0.003197 0.000456 0.000000 0.036216 0.000000
# 6 0.000000 0.000000 0.000000 -0.048537 0.000000 0.084258
#
#
# Mechanical properties :
#
#
# Convention : Reuss Voigt Hill
#
# Bulk Modulus (GPa) = 33.25910 61.78335 47.52122
# Shear Modulus (GPa) = 8.16104 22.50942 15.33523
#
# Velocity S-wave (km/s) = 2.08446 3.46180 2.85736
# Velocity P-wave (km/s) = 4.84773 6.99088 6.01552
#
# Compressibility (1/GPa) = 0.03006696
#
# Stress axis : x y z
#
# Youngs Moduli (GPa) = 97.54166 35.10686 85.99431
#
# Poissons Ratio (x) = 0.12603 0.50544
# Poissons Ratio (y) = 0.35015 0.05862
# Poissons Ratio (z) = 0.57331 0.02393
#
# Static dielectric constant tensor:
#      x y z
#    x 3.503520 0.000000 -0.279520 
#    y 0.000000 3.119370 0.000000 
#    z -0.279520 0.000000 3.573830 
# 
# 
# High freq. dielectric constant tensor:
#      x y z
#    x 1.728550 0.000000 -0.028190 
#    y 0.000000 1.708390 0.000000 
#    z -0.028190 0.000000 1.717910 
# 
# From -- ./inp_files/21465.got.cif
#   From: 2010.06.25/outbox.cif.g09.slc.cpg/sg10_11_cif.got.tgz:21465.got - 2010.06.27 22:07:45.
