data_PCOD8058084
_publ_section_title
;
Structure prediction by ZEFSAII (Michael W. Deem and Ramdas Pophale) SiO2 
 PCOD8058084
Probable space group: P 2/M
;
_chemical_formula_sum "Si O2"
_cell_formula_units_Z 32
_cell_length_a 12.583113
_cell_length_b 9.212633
_cell_length_c 20.422583
_cell_angle_alpha 90.000000
_cell_angle_beta 114.812349
_cell_angle_gamma 90.000000
_cell_volume 2148.912231
_symmetry_space_group_name_H-M "P 2/M"
_symmetry_group_IT_number 10
_symmetry_cell_setting 'monoclinic'
loop_
_space_group_symop_operation_xyz
x,y,z
-x,y,-z
-x,-y,-z
x,-y,z
loop_
_atom_site_type_symbol
_atom_site_label
_atom_site_fract_x
_atom_site_fract_y
_atom_site_fract_z
Si Si1 0.002210 0.667871 0.336225
Si Si2 0.029832 0.834787 0.078520
Si Si3 0.027030 0.332901 0.199157
Si Si4 0.104667 0.828537 0.575094
Si Si5 0.418747 0.329441 0.328313
Si Si6 0.679638 0.668457 0.430643
Si Si7 0.265823 0.669342 0.409066
Si Si8 0.237071 0.165683 0.216387
O O1 0.997910 0.500000 0.357687
O O2 0.956518 0.683047 0.249063
O O3 0.916696 0.761641 0.358942
O O4 0.133851 0.732352 0.376012
O O5 0.964700 0.745765 0.120464
O O6 0.171317 0.827359 0.128206
O O7 0.983889 0.000000 0.069524
O O8 0.000000 0.766241 0.000000
O O9 0.047070 0.500000 0.186089
O O10 0.153583 0.256870 0.244652
O O11 0.225782 0.768252 0.579608
O O12 0.000000 0.780350 0.500000
O O13 0.113568 0.000000 0.583801
O O14 0.401132 0.500000 0.314437
O O15 0.554808 0.290667 0.367644
O O16 0.351029 0.266964 0.374953
O O17 0.363642 0.244431 0.251119
O O18 0.711514 0.500000 0.427230
O O19 0.673317 0.703054 0.505985
O O20 0.254331 0.500000 0.392293
O O21 0.249085 0.000000 0.242969
#
# Coordination Sequence:
#
# PCOD8058084 Si02
#       8
#     4   4   4   4   4   4   4   4
#     4  10  18  30  50  66  85 116 153 193 231 276
#     4   8  15  27  42  64  96 128 153 175 208 263
#     4   9  16  27  43  67  91 115 149 186 220 258
#     4  11  23  35  46  62  86 114 151 201 244 279
#     4  10  18  30  46  66  89 113 149 190 224 267
#     4  10  20  32  48  64  82 113 152 192 233 275
#     4   9  15  27  46  66  84 108 143 187 231 271
#     4   9  17  27  41  61  89 124 148 170 213 262
#
# _framework density 14.891254
#
# number of rings (size 3 to 8) (size 9 to 14) (size 15 to 20)
#    0.750    1.750    2.500    1.125    0.000    3.750 
#    0.000    0.625    0.000    1.500    0.000    0.000 
#    0.000    1.000    0.000   11.250    0.000    5.000 
#
# Total GULP energy -396462.346104 kJ/mol
# GULP energy per Si atom -12389.448316 kJ/mol
# Density = 1.485736 g / cm^3
# Si number density = 14.891254 Si / 1000 Ang^3
#
#
#
# Elastic Constant Matrix: (Units=GPa)
#
#
# Indices 1 2 3 4 5 6 
#
# 1 69.6848 36.1165 34.3409 0.0000 1.7015 0.0000
# 2 36.1165 66.5672 39.0765 0.0000 -4.3956 0.0000
# 3 34.3409 39.0765 86.0908 0.0000 -4.2288 0.0000
# 4 0.0000 0.0000 0.0000 21.3966 0.0000 1.6147
# 5 1.7015 -4.3956 -4.2288 0.0000 15.1124 0.0000
# 6 0.0000 0.0000 0.0000 1.6147 0.0000 13.6754
#
#
#
# Elastic Compliance Matrix: (Units=1/GPa)
#
#
# Indices 1 2 3 4 5 6 
#
# 1 0.021726 -0.009464 -0.004690 0.000000 -0.006511 0.000000
# 2 -0.009464 0.024776 -0.007163 0.000000 0.006268 0.000000
# 3 -0.004690 -0.007163 0.016894 0.000000 0.003172 0.000000
# 4 0.000000 0.000000 0.000000 0.047157 0.000000 -0.005568
# 5 -0.006511 0.006268 0.003172 0.000000 0.069615 0.000000
# 6 0.000000 0.000000 0.000000 -0.005568 0.000000 0.073781
#
#
# Mechanical properties :
#
#
# Convention : Reuss Voigt Hill
#
# Bulk Modulus (GPa) = 48.16758 49.04563 48.60660
# Shear Modulus (GPa) = 16.47434 17.55747 17.01591
#
# Velocity S-wave (km/s) = 3.32973 3.43745 3.38402
# Velocity P-wave (km/s) = 6.87017 6.98299 6.92681
#
# Compressibility (1/GPa) = 0.02076085
#
# Stress axis : x y z
#
# Youngs Moduli (GPa) = 46.02812 40.36201 59.19429
#
# Poissons Ratio (x) = 0.38199 0.27764
# Poissons Ratio (y) = 0.43562 0.42399
# Poissons Ratio (z) = 0.21589 0.28910
#
# Static dielectric constant tensor:
#      x y z
#    x 2.629060 0.000000 -0.011160 
#    y 0.000000 2.794940 0.000000 
#    z -0.011160 0.000000 2.845490 
# 
# 
# High freq. dielectric constant tensor:
#      x y z
#    x 1.533260 0.000000 -0.003010 
#    y 0.000000 1.567130 0.000000 
#    z -0.003010 0.000000 1.557560 
# 
# From -- ./inp_files/88448.got.cif
#   From: 2010.06.25/outbox.cif.g09.slc.cpg/sg10_45_cif.got.tgz:88448.got - 2010.06.27 22:07:45.
