data_PCOD8058361
_publ_section_title
;
Structure prediction by ZEFSAII (Michael W. Deem and Ramdas Pophale) SiO2 
 PCOD8058361
Probable space group: P 2/M
;
_chemical_formula_sum "Si O2"
_cell_formula_units_Z 32
_cell_length_a 24.718541
_cell_length_b 9.071781
_cell_length_c 19.887077
_cell_angle_alpha 90.000000
_cell_angle_beta 23.223278
_cell_angle_gamma 90.000000
_cell_volume 1758.449805
_symmetry_space_group_name_H-M "P 2/M"
_symmetry_group_IT_number 10
_symmetry_cell_setting 'monoclinic'
loop_
_space_group_symop_operation_xyz
x,y,z
-x,y,-z
-x,-y,-z
x,-y,z
loop_
_atom_site_type_symbol
_atom_site_label
_atom_site_fract_x
_atom_site_fract_y
_atom_site_fract_z
Si Si1 0.658724 0.666485 0.337403
Si Si2 0.119630 0.829040 0.172973
Si Si3 0.402584 0.172711 0.463138
Si Si4 0.801860 0.168537 0.542983
Si Si5 0.288847 0.829711 0.850994
Si Si6 0.389610 0.326022 0.340866
Si Si7 0.351473 0.830338 0.146115
Si Si8 0.684041 0.674068 0.950028
O O1 0.500000 0.673263 0.500000
O O2 0.709179 0.500000 0.291308
O O3 0.683913 0.759294 0.376343
O O4 0.743981 0.736587 0.178474
O O5 0.960366 0.790380 0.355850
O O6 0.148612 0.000000 0.155692
O O7 0.175951 0.787033 0.035059
O O8 0.192440 0.732873 0.146180
O O9 0.562955 0.209924 0.287851
O O10 0.349193 0.246623 0.456091
O O11 0.373387 0.000000 0.493733
O O12 0.718852 0.279530 0.591235
O O13 0.758057 0.191822 0.669851
O O14 0.773416 0.000000 0.552953
O O15 0.283074 0.000000 0.836931
O O16 0.383893 0.500000 0.358241
O O17 0.539777 0.272885 0.145911
O O18 0.363394 0.000000 0.109839
O O19 0.500000 0.771697 0.000000
O O20 0.297999 0.736060 0.145074
O O21 0.692615 0.500000 0.936901
#
# Coordination Sequence:
#
# PCOD8058361 Si02
#       8
#     4   4   4   4   4   4   4   4
#     4   9  17  28  45  74 111 144 175 218 269 319
#     4  10  21  38  58  81 111 145 184 228 271 323
#     4  10  18  30  52  79 107 140 182 227 267 316
#     4  10  22  39  59  82 107 142 186 228 275 327
#     4   9  17  30  50  76 106 142 179 219 267 319
#     4  11  22  35  54  81 112 144 181 226 275 326
#     4  10  20  36  59  82 107 142 184 230 274 322
#     4  11  23  36  56  83 111 145 182 224 275 329
#
# _framework density 18.197845000000001
#
# number of rings (size 3 to 8) (size 9 to 14) (size 15 to 20)
#    0.000    2.000    2.500    1.500    0.000    5.250 
#    0.000    2.500    0.000    0.750    0.000    5.250 
#    0.000    0.000    0.000    0.000    0.000    0.000 
#
# Total GULP energy -396944.228864 kJ/mol
# GULP energy per Si atom -12404.507152 kJ/mol
# Density = 1.815643 g / cm^3
# Si number density = 18.197845 Si / 1000 Ang^3
#
#
#
# Elastic Constant Matrix: (Units=GPa)
#
#
# Indices 1 2 3 4 5 6 
#
# 1 89.1797 52.8786 33.9331 0.0000 18.8474 0.0000
# 2 52.8786 84.2872 32.7536 0.0000 8.6657 0.0000
# 3 33.9331 32.7536 82.3217 0.0000 10.7713 0.0000
# 4 0.0000 0.0000 0.0000 17.0076 0.0000 -0.6506
# 5 18.8474 8.6657 10.7713 0.0000 25.4790 0.0000
# 6 0.0000 0.0000 0.0000 -0.6506 0.0000 27.4719
#
#
#
# Elastic Compliance Matrix: (Units=1/GPa)
#
#
# Indices 1 2 3 4 5 6 
#
# 1 0.021100 -0.011007 -0.002927 0.000000 -0.010627 0.000000
# 2 -0.011007 0.019935 -0.003782 0.000000 0.002961 0.000000
# 3 -0.002927 -0.003782 0.015251 0.000000 -0.002996 0.000000
# 4 0.000000 0.000000 0.000000 0.058850 0.000000 0.001394
# 5 -0.010627 0.002961 -0.002996 0.000000 0.047368 0.000000
# 6 0.000000 0.000000 0.000000 0.001394 0.000000 0.036434
#
#
# Mechanical properties :
#
#
# Convention : Reuss Voigt Hill
#
# Bulk Modulus (GPa) = 47.95555 54.99101 51.47328
# Shear Modulus (GPa) = 20.71928 23.07325 21.89626
#
# Velocity S-wave (km/s) = 3.37791 3.56464 3.47253
# Velocity P-wave (km/s) = 6.45161 6.87213 6.66519
#
# Compressibility (1/GPa) = 0.02085264
#
# Stress axis : x y z
#
# Youngs Moduli (GPa) = 47.39428 50.16368 65.57031
#
# Poissons Ratio (x) = 0.55215 0.19196
# Poissons Ratio (y) = 0.52167 0.24798
# Poissons Ratio (z) = 0.13875 0.18971
#
# Static dielectric constant tensor:
#      x y z
#    x 3.262060 0.000000 0.242350 
#    y 0.000000 3.354530 0.000000 
#    z 0.242350 0.000000 3.308240 
# 
# 
# High freq. dielectric constant tensor:
#      x y z
#    x 1.702740 0.000000 0.024130 
#    y 0.000000 1.708270 0.000000 
#    z 0.024130 0.000000 1.688250 
# 
# From -- ./inp_files/86107.got.cif
#   From: 2010.06.25/outbox.cif.g09.slc.cpg/sg10_44_cif.got.tgz:86107.got - 2010.06.27 22:07:45.
