data_PCOD8058449
_publ_section_title
;
Structure prediction by ZEFSAII (Michael W. Deem and Ramdas Pophale) SiO2 
 PCOD8058449
Probable space group: P 2/M
;
_chemical_formula_sum "Si O2"
_cell_formula_units_Z 32
_cell_length_a 18.759873
_cell_length_b 9.012340
_cell_length_c 24.161639
_cell_angle_alpha 90.000000
_cell_angle_beta 29.196099
_cell_angle_gamma 90.000000
_cell_volume 1992.672140
_symmetry_space_group_name_H-M "P 2/M"
_symmetry_group_IT_number 10
_symmetry_cell_setting 'monoclinic'
loop_
_space_group_symop_operation_xyz
x,y,z
-x,y,-z
-x,-y,-z
x,-y,z
loop_
_atom_site_type_symbol
_atom_site_label
_atom_site_fract_x
_atom_site_fract_y
_atom_site_fract_z
Si Si1 0.876812 0.172204 0.420215
Si Si2 0.634464 0.824870 0.969561
Si Si3 0.637396 0.667526 0.522421
Si Si4 0.065887 0.171900 0.395592
Si Si5 0.833306 0.332851 0.280577
Si Si6 0.062904 0.170319 0.188272
Si Si7 0.341401 0.322720 0.164438
Si Si8 0.401744 0.832864 0.621132
O O1 0.725339 0.259546 0.513637
O O2 0.943863 0.218689 0.433591
O O3 0.994459 0.215269 0.293721
O O4 0.837396 0.000000 0.444730
O O5 0.763817 0.798883 0.926167
O O6 0.680691 0.749986 0.880573
O O7 0.608026 0.000000 0.977813
O O8 0.489661 0.744256 0.090835
O O9 0.599306 0.500000 0.564195
O O10 0.735748 0.677027 0.401302
O O11 0.485127 0.751828 0.614849
O O12 0.207382 0.275447 0.293964
O O13 0.000000 0.201767 0.500000
O O14 0.110728 0.000000 0.356628
O O15 0.855745 0.500000 0.245265
O O16 0.753370 0.245554 0.285277
O O17 0.992056 0.264106 0.186457
O O18 0.028294 0.000000 0.198753
O O19 0.352116 0.500000 0.152526
O O20 0.500000 0.827054 0.500000
O O21 0.370062 0.000000 0.661153
#
# Coordination Sequence:
#
# PCOD8058449 Si02
#       8
#     4   4   4   4   4   4   4   4
#     4   9  16  28  42  59  79 103 140 180 216 256
#     4  10  18  31  49  65  86 115 149 184 219 262
#     4   9  16  24  35  52  73 101 134 171 212 250
#     4  10  20  35  52  66  84 115 152 187 224 269
#     4   9  16  23  33  51  77 105 134 169 207 251
#     4   9  16  26  41  59  80 108 141 178 213 251
#     4  11  21  31  45  67  91 112 141 182 230 272
#     4   9  15  23  34  48  69 101 138 172 203 241
#
# _framework density 16.058838000000002
#
# number of rings (size 3 to 8) (size 9 to 14) (size 15 to 20)
#    0.000    2.500    1.250    3.375    0.000    6.250 
#    0.000    0.000    0.000    0.000    0.000    0.000 
#    0.000    0.000    0.000    1.125    0.000   22.625 
#
# Total GULP energy -396743.472289 kJ/mol
# GULP energy per Si atom -12398.233509 kJ/mol
# Density = 1.602229 g / cm^3
# Si number density = 16.058838 Si / 1000 Ang^3
#
#
#
# Elastic Constant Matrix: (Units=GPa)
#
#
# Indices 1 2 3 4 5 6 
#
# 1 102.8987 59.7291 49.3846 0.0000 -37.3919 0.0000
# 2 59.7291 124.3763 46.3115 0.0000 -25.5767 0.0000
# 3 49.3846 46.3115 55.1051 0.0000 -19.9524 0.0000
# 4 0.0000 0.0000 0.0000 16.1261 0.0000 -6.4408
# 5 -37.3919 -25.5767 -19.9524 0.0000 28.1269 0.0000
# 6 0.0000 0.0000 0.0000 -6.4408 0.0000 14.8368
#
#
#
# Elastic Compliance Matrix: (Units=1/GPa)
#
#
# Indices 1 2 3 4 5 6 
#
# 1 0.025507 -0.003121 -0.012091 0.000000 0.022493 0.000000
# 2 -0.003121 0.012615 -0.006935 0.000000 0.002402 0.000000
# 3 -0.012091 -0.006935 0.035939 0.000000 0.003113 0.000000
# 4 0.000000 0.000000 0.000000 0.075019 0.000000 0.032566
# 5 0.022493 0.002402 0.003113 0.000000 0.069849 0.000000
# 6 0.000000 0.000000 0.000000 0.032566 0.000000 0.081537
#
#
# Mechanical properties :
#
#
# Convention : Reuss Voigt Hill
#
# Bulk Modulus (GPa) = 33.59573 65.91450 49.75512
# Shear Modulus (GPa) = 14.09706 20.28161 17.18934
#
# Velocity S-wave (km/s) = 2.96605 3.55767 3.27524
# Velocity P-wave (km/s) = 5.71802 7.61648 6.73448
#
# Compressibility (1/GPa) = 0.02976568
#
# Stress axis : x y z
#
# Youngs Moduli (GPa) = 39.20491 79.26815 27.82494
#
# Poissons Ratio (x) = 0.24743 0.33644
# Poissons Ratio (y) = 0.12238 0.19297
# Poissons Ratio (z) = 0.47404 0.54972
#
# Static dielectric constant tensor:
#      x y z
#    x 3.014790 0.000000 -0.416930 
#    y 0.000000 3.141590 0.000000 
#    z -0.416930 0.000000 2.673940 
# 
# 
# High freq. dielectric constant tensor:
#      x y z
#    x 1.604590 0.000000 -0.048780 
#    y 0.000000 1.628840 0.000000 
#    z -0.048780 0.000000 1.560680 
# 
# From -- ./inp_files/89928.got.cif
#   From: 2010.06.25/outbox.cif.g09.slc.cpg/sg10_45_cif.got.tgz:89928.got - 2010.06.27 22:07:45.
