data_PCOD8058832
_publ_section_title
;
Structure prediction by ZEFSAII (Michael W. Deem and Ramdas Pophale) SiO2 
 PCOD8058832
Probable space group: P 2/M
;
_chemical_formula_sum "Si O2"
_cell_formula_units_Z 32
_cell_length_a 28.262708
_cell_length_b 8.985316
_cell_length_c 21.744933
_cell_angle_alpha 90.000000
_cell_angle_beta 161.195287
_cell_angle_gamma 90.000000
_cell_volume 1780.017216
_symmetry_space_group_name_H-M "P 2/M"
_symmetry_group_IT_number 10
_symmetry_cell_setting 'monoclinic'
loop_
_space_group_symop_operation_xyz
x,y,z
-x,y,-z
-x,-y,-z
x,-y,z
loop_
_atom_site_type_symbol
_atom_site_label
_atom_site_fract_x
_atom_site_fract_y
_atom_site_fract_z
Si Si1 0.587645 0.324229 0.406246
Si Si2 0.843543 0.830591 0.173618
Si Si3 0.077803 0.675658 0.534333
Si Si4 0.670794 0.673673 0.718992
Si Si5 0.589432 0.675271 0.049540
Si Si6 0.163275 0.324068 0.196822
Si Si7 0.543943 0.176356 0.868590
Si Si8 0.327664 0.828005 0.156115
O O1 0.568436 0.500000 0.374172
O O2 0.745429 0.282377 0.629590
O O3 0.575435 0.244824 0.325113
O O4 0.465273 0.268268 0.303152
O O5 0.988223 0.735412 0.365668
O O6 0.878526 0.000000 0.233322
O O7 0.705669 0.774676 0.044812
O O8 0.806820 0.810360 0.056782
O O9 0.073284 0.500000 0.526502
O O10 0.244536 0.732898 0.736959
O O11 0.000000 0.737694 0.500000
O O12 0.500000 0.705539 0.500000
O O13 0.701609 0.500000 0.768185
O O14 0.756313 0.737390 0.765066
O O15 0.729239 0.766208 0.849117
O O16 0.583983 0.500000 0.029691
O O17 0.500000 0.719245 0.000000
O O18 0.515455 0.758994 0.901160
O O19 0.154855 0.500000 0.180029
O O20 0.000000 0.254669 0.000000
O O21 0.525212 0.000000 0.845173
O O22 0.376189 0.000000 0.220206
#
# Coordination Sequence:
#
# PCOD8058832 Si02
#       8
#     4   4   4   4   4   4   4   4
#     4  10  18  32  55  79 105 138 176 218 263 308
#     4   9  19  33  50  75 106 138 171 212 260 315
#     4  10  19  32  53  80 103 128 171 218 258 303
#     4  10  18  32  53  79 103 131 176 220 260 309
#     4  10  21  37  55  78 108 140 175 218 263 310
#     4   9  18  33  53  78 107 137 173 217 264 314
#     4  10  20  34  53  79 108 138 176 216 260 316
#     4  10  20  33  50  78 110 139 175 216 266 315
#
# _framework density 17.977353999999998
#
# number of rings (size 3 to 8) (size 9 to 14) (size 15 to 20)
#    0.000    2.250    2.500    1.875    0.000    3.750 
#    0.000    1.250    0.000    9.375    0.000    0.000 
#    0.000    0.000    0.000    0.000    0.000    0.000 
#
# Total GULP energy -396836.897333 kJ/mol
# GULP energy per Si atom -12401.153042 kJ/mol
# Density = 1.793644 g / cm^3
# Si number density = 17.977354 Si / 1000 Ang^3
#
#
#
# Elastic Constant Matrix: (Units=GPa)
#
#
# Indices 1 2 3 4 5 6 
#
# 1 136.2643 45.9869 72.7136 0.0000 -13.2811 0.0000
# 2 45.9869 55.1958 40.8694 0.0000 -11.1985 0.0000
# 3 72.7136 40.8694 126.4965 0.0000 -8.6519 0.0000
# 4 0.0000 0.0000 0.0000 15.4346 0.0000 -6.3290
# 5 -13.2811 -11.1985 -8.6519 0.0000 30.4930 0.0000
# 6 0.0000 0.0000 0.0000 -6.3290 0.0000 23.4056
#
#
#
# Elastic Compliance Matrix: (Units=1/GPa)
#
#
# Indices 1 2 3 4 5 6 
#
# 1 0.012209 -0.006211 -0.004899 0.000000 0.001647 0.000000
# 2 -0.006211 0.028393 -0.005175 0.000000 0.006254 0.000000
# 3 -0.004899 -0.005175 0.012357 0.000000 -0.000528 0.000000
# 4 0.000000 0.000000 0.000000 0.072869 0.000000 0.019704
# 5 0.001647 0.006254 -0.000528 0.000000 0.035658 0.000000
# 6 0.000000 0.000000 0.000000 0.019704 0.000000 0.048053
#
#
# Mechanical properties :
#
#
# Convention : Reuss Voigt Hill
#
# Bulk Modulus (GPa) = 49.04592 70.78851 59.91721
# Shear Modulus (GPa) = 20.08779 24.42576 22.25678
#
# Velocity S-wave (km/s) = 3.34637 3.69005 3.52240
# Velocity P-wave (km/s) = 6.50171 7.59060 7.06716
#
# Compressibility (1/GPa) = 0.02038906
#
# Stress axis : x y z
#
# Youngs Moduli (GPa) = 81.90349 35.22012 80.92266
#
# Poissons Ratio (x) = 0.21875 0.39645
# Poissons Ratio (y) = 0.50869 0.41881
# Poissons Ratio (z) = 0.40125 0.18228
#
# Static dielectric constant tensor:
#      x y z
#    x 3.339430 0.000000 -0.111360 
#    y 0.000000 3.147780 0.000000 
#    z -0.111360 0.000000 3.368760 
# 
# 
# High freq. dielectric constant tensor:
#      x y z
#    x 1.688020 0.000000 -0.021620 
#    y 0.000000 1.685220 0.000000 
#    z -0.021620 0.000000 1.688400 
# 
# From -- ./inp_files/52705.got.cif
#   From: 2010.06.25/outbox.cif.g09.slc.cpg/sg10_27_cif.got.tgz:52705.got - 2010.06.27 22:07:45.
