data_PCOD8058344
_publ_section_title
;
Structure prediction by ZEFSAII (Michael W. Deem and Ramdas Pophale) SiO2 
 PCOD8058344
Probable space group: P 2/M
;
_chemical_formula_sum "Si O2"
_cell_formula_units_Z 32
_cell_length_a 14.169324
_cell_length_b 9.189659
_cell_length_c 14.370195
_cell_angle_alpha 90.000000
_cell_angle_beta 61.984159
_cell_angle_gamma 90.000000
_cell_volume 1651.894285
_symmetry_space_group_name_H-M "P 2/M"
_symmetry_group_IT_number 10
_symmetry_cell_setting 'monoclinic'
loop_
_space_group_symop_operation_xyz
x,y,z
-x,y,-z
-x,-y,-z
x,-y,z
loop_
_atom_site_type_symbol
_atom_site_label
_atom_site_fract_x
_atom_site_fract_y
_atom_site_fract_z
Si Si1 0.835639 0.672725 0.825331
Si Si2 0.702997 0.671136 0.551285
Si Si3 0.889374 0.328700 0.004281
Si Si4 0.620886 0.829692 0.423820
Si Si5 0.488292 0.661715 0.237887
Si Si6 0.892094 0.673377 0.596595
Si Si7 0.395169 0.336467 0.087796
Si Si8 0.312758 0.170476 0.816247
O O1 0.826582 0.500000 0.819413
O O2 0.888363 0.733084 0.705363
O O3 0.715688 0.739732 0.890107
O O4 0.897812 0.716556 0.890876
O O5 0.719306 0.500000 0.529087
O O6 0.707880 0.750938 0.449746
O O7 0.583657 0.710220 0.641940
O O8 0.793208 0.731493 0.580222
O O9 0.868085 0.500000 0.023964
O O10 0.795606 0.246060 0.101055
O O11 0.000000 0.281488 0.000000
O O12 0.500000 0.774415 0.500000
O O13 0.659291 0.789236 0.302681
O O14 0.628195 0.000000 0.439491
O O15 0.536014 0.500000 0.230615
O O16 0.401860 0.660718 0.195480
O O17 0.586617 0.769461 0.171213
O O18 0.891136 0.500000 0.598250
O O19 0.000000 0.733838 0.500000
O O20 0.395337 0.500000 0.045020
O O21 0.500000 0.252599 0.000000
O O22 0.301277 0.000000 0.838379
#
# Coordination Sequence:
#
# PCOD8058344 Si02
#       8
#     4   4   4   4   4   4   4   4
#     4   9  16  30  51  77 109 145 180 215 267 329
#     4  10  19  31  52  82 109 139 183 233 276 318
#     4  10  22  39  60  85 112 145 187 234 277 319
#     4  10  21  37  54  75 109 153 191 222 274 344
#     4  10  18  30  51  80 110 137 178 231 276 323
#     4   9  17  30  50  80 116 147 176 217 273 332
#     4   9  15  24  44  73 103 138 177 216 262 320
#     4  11  23  38  57  80 109 149 190 228 277 336
#
# _framework density 19.371700000000001
#
# number of rings (size 3 to 8) (size 9 to 14) (size 15 to 20)
#    0.000    2.250    2.500    1.125    0.000    4.500 
#    0.000    2.500    0.000    4.500    0.000    0.000 
#    0.000    0.000    0.000    0.000    0.000    0.000 
#
# Total GULP energy -396603.624492 kJ/mol
# GULP energy per Si atom -12393.863265 kJ/mol
# Density = 1.932761 g / cm^3
# Si number density = 19.371700 Si / 1000 Ang^3
#
#
#
# Elastic Constant Matrix: (Units=GPa)
#
#
# Indices 1 2 3 4 5 6 
#
# 1 145.4373 33.4194 68.9768 0.0000 1.4529 0.0000
# 2 33.4194 32.2772 24.9573 0.0000 -4.0854 0.0000
# 3 68.9768 24.9573 120.5763 0.0000 -4.0706 0.0000
# 4 0.0000 0.0000 0.0000 20.9756 0.0000 -3.1336
# 5 1.4529 -4.0854 -4.0706 0.0000 29.4825 0.0000
# 6 0.0000 0.0000 0.0000 -3.1336 0.0000 5.5940
#
#
#
# Elastic Compliance Matrix: (Units=1/GPa)
#
#
# Indices 1 2 3 4 5 6 
#
# 1 0.010966 -0.008018 -0.004691 0.000000 -0.002299 0.000000
# 2 -0.008018 0.043241 -0.004167 0.000000 0.005812 0.000000
# 3 -0.004691 -0.004167 0.011883 0.000000 0.001294 0.000000
# 4 0.000000 0.000000 0.000000 0.052029 0.000000 0.029145
# 5 -0.002299 0.005812 0.001294 0.000000 0.035016 0.000000
# 6 0.000000 0.000000 0.000000 0.029145 0.000000 0.195090
#
#
# Mechanical properties :
#
#
# Convention : Reuss Voigt Hill
#
# Bulk Modulus (GPa) = 30.92368 61.44421 46.18395
# Shear Modulus (GPa) = 12.73052 22.60624 17.66838
#
# Velocity S-wave (km/s) = 2.56632 3.41980 3.02333
# Velocity P-wave (km/s) = 4.97788 6.88337 6.00667
#
# Compressibility (1/GPa) = 0.03233768
#
# Stress axis : x y z
#
# Youngs Moduli (GPa) = 91.18986 23.12625 84.15034
#
# Poissons Ratio (x) = 0.18542 0.39478
# Poissons Ratio (y) = 0.73114 0.35068
# Poissons Ratio (z) = 0.42780 0.09637
#
# Static dielectric constant tensor:
#      x y z
#    x 3.577510 0.000000 0.050130 
#    y 0.000000 3.006830 0.000000 
#    z 0.050130 0.000000 3.707620 
# 
# 
# High freq. dielectric constant tensor:
#      x y z
#    x 1.757340 0.000000 0.007350 
#    y 0.000000 1.694790 0.000000 
#    z 0.007350 0.000000 1.765570 
# 
# From -- ./inp_files/66457.got.cif
#   From: 2010.06.25/outbox.cif.g09.slc.cpg/sg10_34_cif.got.tgz:66457.got - 2010.06.27 22:07:45.
