data_PCOD8058858
_publ_section_title
;
Structure prediction by ZEFSAII (Michael W. Deem and Ramdas Pophale) SiO2 
 PCOD8058858
Probable space group: P 2/M
;
_chemical_formula_sum "Si O2"
_cell_formula_units_Z 32
_cell_length_a 26.459910
_cell_length_b 9.179575
_cell_length_c 21.239981
_cell_angle_alpha 90.000000
_cell_angle_beta 159.597333
_cell_angle_gamma 90.000000
_cell_volume 1798.506337
_symmetry_space_group_name_H-M "P 2/M"
_symmetry_group_IT_number 10
_symmetry_cell_setting 'monoclinic'
loop_
_space_group_symop_operation_xyz
x,y,z
-x,y,-z
-x,-y,-z
x,-y,z
loop_
_atom_site_type_symbol
_atom_site_label
_atom_site_fract_x
_atom_site_fract_y
_atom_site_fract_z
Si Si1 0.657371 0.328507 0.486361
Si Si2 0.333037 0.334162 0.296051
Si Si3 0.338516 0.334257 0.158601
Si Si4 0.545042 0.670356 0.982601
Si Si5 0.560621 0.165008 0.256257
Si Si6 0.141927 0.329748 0.702595
Si Si7 0.763382 0.162944 0.071310
Si Si8 0.168236 0.832517 0.207787
O O1 0.682621 0.500000 0.507634
O O2 0.507278 0.292578 0.346943
O O3 0.661927 0.254332 0.422764
O O4 0.785536 0.261641 0.677818
O O5 0.500000 0.298613 0.500000
O O6 0.300135 0.500000 0.279235
O O7 0.290178 0.310024 0.173589
O O8 0.243889 0.221535 0.232826
O O9 0.317139 0.500000 0.111827
O O10 0.232311 0.236584 0.992225
O O11 0.518363 0.500000 0.939821
O O12 0.440206 0.757332 0.812650
O O13 0.500000 0.717513 0.000000
O O14 0.713961 0.710650 0.168815
O O15 0.618899 0.000000 0.317375
O O16 0.399539 0.166740 0.094630
O O17 0.135932 0.500000 0.709750
O O18 0.136275 0.249581 0.762954
O O19 0.000000 0.276431 0.500000
O O20 0.823753 0.000000 0.135716
O O21 0.210614 0.000000 0.269312
O O22 0.000000 0.811334 0.000000
#
# Coordination Sequence:
#
# PCOD8058858 Si02
#       8
#     4   4   4   4   4   4   4   4
#     4  10  18  32  54  77 101 132 171 214 256 300
#     4  10  19  35  56  81 105 130 172 218 258 303
#     4   9  17  30  51  77 104 128 160 213 259 295
#     4   9  17  30  49  73  99 127 163 205 245 290
#     4   9  17  29  47  74 103 129 163 206 252 300
#     4   9  17  30  49  71  96 128 163 200 242 289
#     4   9  17  28  45  72 102 130 163 201 243 296
#     4  11  24  38  52  75 108 142 173 209 257 313
#
# _framework density 17.792542999999998
#
# number of rings (size 3 to 8) (size 9 to 14) (size 15 to 20)
#    0.000    2.500    1.250    1.500    0.000    5.750 
#    0.000    0.000    2.750    0.000    0.000    0.000 
#    0.000    0.000    0.000    0.000    0.000    0.000 
#
# Total GULP energy -396830.792938 kJ/mol
# GULP energy per Si atom -12400.962279 kJ/mol
# Density = 1.775205 g / cm^3
# Si number density = 17.792543 Si / 1000 Ang^3
#
#
#
# Elastic Constant Matrix: (Units=GPa)
#
#
# Indices 1 2 3 4 5 6 
#
# 1 92.6709 53.6411 49.2389 0.0000 -25.0182 0.0000
# 2 53.6411 108.5526 62.1354 0.0000 -21.0774 0.0000
# 3 49.2389 62.1354 91.4667 0.0000 -22.8601 0.0000
# 4 0.0000 0.0000 0.0000 29.8954 0.0000 -11.6260
# 5 -25.0182 -21.0774 -22.8601 0.0000 16.6961 0.0000
# 6 0.0000 0.0000 0.0000 -11.6260 0.0000 29.4754
#
#
#
# Elastic Compliance Matrix: (Units=1/GPa)
#
#
# Indices 1 2 3 4 5 6 
#
# 1 0.020633 -0.004472 -0.002665 0.000000 0.021623 0.000000
# 2 -0.004472 0.016707 -0.008127 0.000000 0.003264 0.000000
# 3 -0.002665 -0.008127 0.021779 0.000000 0.015566 0.000000
# 4 0.000000 0.000000 0.000000 0.039510 0.000000 0.015584
# 5 0.021623 0.003264 0.015566 0.000000 0.117728 0.000000
# 6 0.000000 0.000000 0.000000 0.015584 0.000000 0.040073
#
#
# Mechanical properties :
#
#
# Convention : Reuss Voigt Hill
#
# Bulk Modulus (GPa) = 34.97523 69.19121 52.08322
# Shear Modulus (GPa) = 16.86404 23.72505 20.29454
#
# Velocity S-wave (km/s) = 3.08200 3.65557 3.38097
# Velocity P-wave (km/s) = 5.68901 7.53590 6.67663
#
# Compressibility (1/GPa) = 0.02859166
#
# Stress axis : x y z
#
# Youngs Moduli (GPa) = 48.46642 59.85446 45.91616
#
# Poissons Ratio (x) = 0.26764 0.12239
# Poissons Ratio (y) = 0.21672 0.37314
# Poissons Ratio (z) = 0.12918 0.48641
#
# Static dielectric constant tensor:
#      x y z
#    x 3.120800 0.000000 -0.308000 
#    y 0.000000 3.407400 0.000000 
#    z -0.308000 0.000000 3.143290 
# 
# 
# High freq. dielectric constant tensor:
#      x y z
#    x 1.674300 0.000000 -0.031870 
#    y 0.000000 1.694450 0.000000 
#    z -0.031870 0.000000 1.668980 
# 
# From -- ./inp_files/86993.got.cif
#   From: 2010.06.25/outbox.cif.g09.slc.cpg/sg10_44_cif.got.tgz:86993.got - 2010.06.27 22:07:45.
