data_PCOD8058676
_publ_section_title
;
Structure prediction by ZEFSAII (Michael W. Deem and Ramdas Pophale) SiO2 
 PCOD8058676
Probable space group: P 2/M
;
_chemical_formula_sum "Si O2"
_cell_formula_units_Z 24
_cell_length_a 8.874520
_cell_length_b 7.700936
_cell_length_c 19.301067
_cell_angle_alpha 90.000000
_cell_angle_beta 62.525452
_cell_angle_gamma 90.000000
_cell_volume 1170.304847
_symmetry_space_group_name_H-M "P 2/M"
_symmetry_group_IT_number 10
_symmetry_cell_setting 'monoclinic'
loop_
_space_group_symop_operation_xyz
x,y,z
-x,y,-z
-x,-y,-z
x,-y,z
loop_
_atom_site_type_symbol
_atom_site_label
_atom_site_fract_x
_atom_site_fract_y
_atom_site_fract_z
Si Si1 0.392450 0.000000 0.416719
Si Si2 0.938866 0.808043 0.712373
Si Si3 0.647600 0.697972 0.679653
Si Si4 0.337725 0.707496 0.993295
Si Si5 0.757491 0.000000 0.400863
Si Si6 0.982461 0.300910 0.857098
Si Si7 0.666502 0.706501 0.162091
O O1 0.337533 0.174405 0.388640
O O2 0.593107 0.000000 0.387210
O O3 0.288085 0.000000 0.509397
O O4 0.822668 0.697831 0.685365
O O5 0.946139 0.711980 0.783730
O O6 0.858035 0.000000 0.739654
O O7 0.129852 0.828108 0.640407
O O8 0.614586 0.500000 0.661277
O O9 0.495574 0.769800 0.760013
O O10 0.336594 0.500000 0.995278
O O11 0.346384 0.778428 0.913200
O O12 0.500000 0.780043 0.000000
O O13 0.169473 0.784222 0.066154
O O14 0.992862 0.500000 0.876565
O O15 0.163007 0.214612 0.838918
O O16 0.668635 0.500000 0.160953
#
# Coordination Sequence:
#
# PCOD8058676 Si02
#       7
#     2   4   4   4   2   4   4
#     4  11  21  45  67  90 123 154 201 241 299 357
#     4  10  21  38  57  84 117 155 195 235 301 353
#     4  11  22  38  64  92 122 159 200 247 297 355
#     4   9  16  27  47  76 113 153 195 248 299 346
#     4   9  23  41  67  86 121 166 187 245 303 355
#     4  10  18  31  54  81 113 152 200 250 292 350
#     4   9  18  31  51  83 114 152 201 245 298 351
#
# _framework density 20.507477000000002
#
# number of rings (size 3 to 8) (size 9 to 14) (size 15 to 20)
#    0.500    1.667    0.833    3.000    0.000    6.000 
#    0.000    5.000    1.833    2.500    0.000    0.000 
#    0.000    0.000    0.000    0.000    0.000    0.000 
#
# Total GULP energy -297546.643486 kJ/mol
# GULP energy per Si atom -12397.776812 kJ/mol
# Density = 2.046080 g / cm^3
# Si number density = 20.507477 Si / 1000 Ang^3
#
#
#
# Elastic Constant Matrix: (Units=GPa)
#
#
# Indices 1 2 3 4 5 6 
#
# 1 113.7131 12.4346 25.9451 0.0000 13.3929 0.0000
# 2 12.4346 49.6941 14.3008 0.0000 4.4394 0.0000
# 3 25.9451 14.3008 94.1428 0.0000 9.6387 0.0000
# 4 0.0000 0.0000 0.0000 -100.7926 0.0000 11.7905
# 5 13.3929 4.4394 9.6387 0.0000 40.1550 0.0000
# 6 0.0000 0.0000 0.0000 11.7905 0.0000 20.5521
#
#
#
# Elastic Compliance Matrix: (Units=1/GPa)
#
#
# Indices 1 2 3 4 5 6 
#
# 1 0.009768 -0.001586 -0.002189 0.000000 -0.002557 0.000000
# 2 -0.001586 0.021401 -0.002692 0.000000 -0.001191 0.000000
# 3 -0.002189 -0.002692 0.011820 0.000000 -0.001809 0.000000
# 4 0.000000 0.000000 0.000000 -0.009297 0.000000 0.005334
# 5 -0.002557 -0.001191 -0.001809 0.000000 0.026322 0.000000
# 6 0.000000 0.000000 0.000000 0.005334 0.000000 0.045597
#
#
# Mechanical properties :
#
#
# Convention : Reuss Voigt Hill
#
# Bulk Modulus (GPa) = 33.27261 40.32345 36.79803
# Shear Modulus (GPa) = 38.89143 5.64087 22.26615
#
# Velocity S-wave (km/s) = 4.35955 1.66030 3.29866
# Velocity P-wave (km/s) = 6.44986 4.83539 5.70008
#
# Compressibility (1/GPa) = 0.03005475
#
# Stress axis : x y z
#
# Youngs Moduli (GPa) = 102.37339 46.72679 84.60452
#
# Poissons Ratio (x) = 0.07410 0.18523
# Poissons Ratio (y) = 0.16234 0.22775
# Poissons Ratio (z) = 0.22413 0.12579
#
# Static dielectric constant tensor:
#      x y z
#    x 3.885200 0.000000 -0.135520 
#    y 0.000000 3.252440 0.000000 
#    z -0.135520 0.000000 3.670840 
# 
# 
# High freq. dielectric constant tensor:
#      x y z
#    x 1.816960 0.000000 -0.002440 
#    y 0.000000 1.769320 0.000000 
#    z -0.002440 0.000000 1.798310 
# 
# From -- ./inp_files/81730.got.cif
#   From: 2010.06.25/outbox.cif.g09.slc.cpg/sg10_41_cif.got.tgz:81730.got - 2010.06.27 22:07:45.
