data_PCOD8058973
_publ_section_title
;
Structure prediction by ZEFSAII (Michael W. Deem and Ramdas Pophale) SiO2 
 PCOD8058973
Probable space group: P 2/M
;
_chemical_formula_sum "Si O2"
_cell_formula_units_Z 32
_cell_length_a 20.290225
_cell_length_b 9.143859
_cell_length_c 25.474354
_cell_angle_alpha 90.000000
_cell_angle_beta 22.622282
_cell_angle_gamma 90.000000
_cell_volume 1817.984528
_symmetry_space_group_name_H-M "P 2/M"
_symmetry_group_IT_number 10
_symmetry_cell_setting 'monoclinic'
loop_
_space_group_symop_operation_xyz
x,y,z
-x,y,-z
-x,-y,-z
x,-y,z
loop_
_atom_site_type_symbol
_atom_site_label
_atom_site_fract_x
_atom_site_fract_y
_atom_site_fract_z
Si Si1 0.951890 0.328223 0.914542
Si Si2 0.529928 0.673133 0.829984
Si Si3 0.822153 0.662319 0.161750
Si Si4 0.665768 0.831932 0.188921
Si Si5 0.010228 0.674165 0.336128
Si Si6 0.144918 0.671446 0.126791
Si Si7 0.326634 0.830211 0.376565
Si Si8 0.346626 0.327717 0.147606
O O1 0.917286 0.500000 0.948281
O O2 0.970191 0.288866 0.839585
O O3 0.127427 0.283649 0.816232
O O4 0.785994 0.248047 0.058892
O O5 0.533793 0.500000 0.815922
O O6 0.620165 0.756226 0.716631
O O7 0.633524 0.715252 0.806290
O O8 0.336487 0.733603 0.978519
O O9 0.741323 0.500000 0.222707
O O10 0.687676 0.768212 0.231885
O O11 0.000000 0.661477 0.000000
O O12 0.471202 0.808692 0.314541
O O13 0.719965 0.000000 0.150343
O O14 0.982785 0.500000 0.357903
O O15 0.840662 0.752999 0.479053
O O16 0.053728 0.733436 0.245643
O O17 0.163104 0.726749 0.261882
O O18 0.165118 0.500000 0.119899
O O19 0.290914 0.000000 0.392226
O O20 0.356556 0.500000 0.132958
O O21 0.500000 0.257650 0.000000
#
# Coordination Sequence:
#
# PCOD8058973 Si02
#       8
#     4   4   4   4   4   4   4   4
#     4   9  16  28  48  76 105 128 159 206 257 306
#     4  10  18  32  58  82 101 132 170 212 259 306
#     4   8  15  26  43  70 102 131 159 201 255 304
#     4  10  19  30  46  68  98 135 173 211 247 291
#     4  10  20  35  56  80 104 134 171 211 258 310
#     4   9  16  29  54  82 103 128 167 212 256 303
#     4  11  24  38  49  71 108 143 176 214 252 298
#     4   9  16  30  55  85 108 125 161 217 264 302
#
# _framework density 17.601911000000001
#
# number of rings (size 3 to 8) (size 9 to 14) (size 15 to 20)
#    0.000    2.500    2.500    1.500    0.000    4.250 
#    0.000    4.375    0.000    1.500    0.000    5.250 
#    0.000    0.000    0.000    0.000    0.000    0.000 
#
# Total GULP energy -396665.481657 kJ/mol
# GULP energy per Si atom -12395.796302 kJ/mol
# Density = 1.756185 g / cm^3
# Si number density = 17.601911 Si / 1000 Ang^3
#
#
#
# Elastic Constant Matrix: (Units=GPa)
#
#
# Indices 1 2 3 4 5 6 
#
# 1 160.4732 50.3835 69.5510 0.0000 -2.0196 0.0000
# 2 50.3835 60.3648 45.0205 0.0000 -2.1811 0.0000
# 3 69.5510 45.0205 112.1984 0.0000 8.3790 0.0000
# 4 0.0000 0.0000 0.0000 4.1904 0.0000 -10.5238
# 5 -2.0196 -2.1811 8.3790 0.0000 23.0433 0.0000
# 6 0.0000 0.0000 0.0000 -10.5238 0.0000 12.5909
#
#
#
# Elastic Compliance Matrix: (Units=1/GPa)
#
#
# Indices 1 2 3 4 5 6 
#
# 1 0.009562 -0.004834 -0.004128 0.000000 0.001882 0.000000
# 2 -0.004834 0.026876 -0.008168 0.000000 0.005090 0.000000
# 3 -0.004128 -0.008168 0.015248 0.000000 -0.006679 0.000000
# 4 0.000000 0.000000 0.000000 -0.217126 0.000000 -0.181479
# 5 0.001882 0.005090 -0.006679 0.000000 0.046472 0.000000
# 6 0.000000 0.000000 0.000000 -0.181479 0.000000 -0.072263
#
#
# Mechanical properties :
#
#
# Convention : Reuss Voigt Hill
#
# Bulk Modulus (GPa) = 57.38533 73.66070 65.52301
# Shear Modulus (GPa) = -33.07745 19.17036 -6.95354
#
# Velocity S-wave (km/s) = -4.33967 3.30374 -1.98973
# Velocity P-wave (km/s) = 2.74994 7.51611 5.65925
#
# Compressibility (1/GPa) = 0.01742606
#
# Stress axis : x y z
#
# Youngs Moduli (GPa) = 104.57699 37.20742 65.58185
#
# Poissons Ratio (x) = 0.17987 0.27075
# Poissons Ratio (y) = 0.50555 0.53566
# Poissons Ratio (z) = 0.43173 0.30390
#
# Static dielectric constant tensor:
#      x y z
#    x 3.848170 0.000000 -0.098840 
#    y 0.000000 3.023960 0.000000 
#    z -0.098840 0.000000 3.029230 
# 
# 
# High freq. dielectric constant tensor:
#      x y z
#    x 1.704010 0.000000 -0.008910 
#    y 0.000000 1.650430 0.000000 
#    z -0.008910 0.000000 1.648650 
# 
# From -- ./inp_files/93671.got.cif
#   From: 2010.06.25/outbox.cif.g09.slc.cpg/sg10_47_cif.got.tgz:93671.got - 2010.06.27 22:07:45.
