data_PCOD8058827
_publ_section_title
;
Structure prediction by ZEFSAII (Michael W. Deem and Ramdas Pophale) SiO2 
 PCOD8058827
Probable space group: P 2/M
;
_chemical_formula_sum "Si O2"
_cell_formula_units_Z 32
_cell_length_a 19.896231
_cell_length_b 9.052634
_cell_length_c 25.521332
_cell_angle_alpha 90.000000
_cell_angle_beta 158.242459
_cell_angle_gamma 90.000000
_cell_volume 1703.914870
_symmetry_space_group_name_H-M "P 2/M"
_symmetry_group_IT_number 10
_symmetry_cell_setting 'monoclinic'
loop_
_space_group_symop_operation_xyz
x,y,z
-x,y,-z
-x,-y,-z
x,-y,z
loop_
_atom_site_type_symbol
_atom_site_label
_atom_site_fract_x
_atom_site_fract_y
_atom_site_fract_z
Si Si1 0.335028 0.675314 0.134735
Si Si2 0.029225 0.676079 0.079395
Si Si3 0.380193 0.675523 0.572709
Si Si4 0.823030 0.833211 0.406425
Si Si5 0.474206 0.674759 0.124023
Si Si6 0.062046 0.173720 0.395603
Si Si7 0.344028 0.826289 0.927100
Si Si8 0.575912 0.324014 0.609422
O O1 0.337165 0.500000 0.139227
O O2 0.481955 0.734964 0.282892
O O3 0.381574 0.731555 0.110519
O O4 0.134971 0.735945 0.003655
O O5 0.031332 0.500000 0.080708
O O6 0.220065 0.738209 0.238235
O O7 0.000000 0.736739 0.000000
O O8 0.362501 0.500000 0.561618
O O9 0.181946 0.744753 0.438461
O O10 0.453128 0.730247 0.569115
O O11 0.681183 0.727699 0.274889
O O12 0.869678 0.773448 0.498028
O O13 0.000000 0.829518 0.500000
O O14 0.745659 0.000000 0.353056
O O15 0.468429 0.500000 0.114475
O O16 0.365680 0.744503 0.997676
O O17 0.851568 0.218143 0.237516
O O18 0.085778 0.000000 0.405660
O O19 0.361325 0.000000 0.949506
O O20 0.500000 0.772564 0.000000
O O21 0.500000 0.260245 0.500000
O O22 0.578318 0.500000 0.610907
#
# Coordination Sequence:
#
# PCOD8058827 Si02
#       8
#     4   4   4   4   4   4   4   4
#     4   9  17  29  47  75 110 144 174 215 273 325
#     4   9  14  24  43  65  96 140 181 213 254 312
#     4  10  18  32  53  77 111 144 172 222 282 324
#     4  10  20  36  58  81 105 140 187 230 266 315
#     4  11  22  35  54  84 117 143 174 222 280 335
#     4  10  21  36  57  82 105 140 187 225 270 330
#     4  10  22  42  62  78 105 145 187 230 271 322
#     4   9  17  27  44  74 105 136 180 226 265 310
#
# _framework density 18.780280999999999
#
# number of rings (size 3 to 8) (size 9 to 14) (size 15 to 20)
#    0.000    2.250    2.500    1.125    0.000    4.000 
#    0.000    3.750    0.000    0.375    0.000    3.500 
#    0.000    0.000    0.000    0.000    0.000    0.000 
#
# Total GULP energy -396804.694053 kJ/mol
# GULP energy per Si atom -12400.146689 kJ/mol
# Density = 1.873754 g / cm^3
# Si number density = 18.780281 Si / 1000 Ang^3
#
#
#
# Elastic Constant Matrix: (Units=GPa)
#
#
# Indices 1 2 3 4 5 6 
#
# 1 124.4880 22.6957 50.2095 0.0000 2.4474 0.0000
# 2 22.6957 22.8394 23.2589 0.0000 -0.8193 0.0000
# 3 50.2095 23.2589 121.7829 0.0000 5.8197 0.0000
# 4 0.0000 0.0000 0.0000 21.4376 0.0000 -0.4730
# 5 2.4474 -0.8193 5.8197 0.0000 40.7550 0.0000
# 6 0.0000 0.0000 0.0000 -0.4730 0.0000 15.7167
#
#
#
# Elastic Compliance Matrix: (Units=1/GPa)
#
#
# Indices 1 2 3 4 5 6 
#
# 1 0.010593 -0.007586 -0.002901 0.000000 -0.000374 0.000000
# 2 -0.007586 0.060062 -0.008481 0.000000 0.002874 0.000000
# 3 -0.002901 -0.008481 0.011103 0.000000 -0.001582 0.000000
# 4 0.000000 0.000000 0.000000 0.046678 0.000000 0.001405
# 5 -0.000374 0.002874 -0.001582 0.000000 0.024843 0.000000
# 6 0.000000 0.000000 0.000000 0.001405 0.000000 0.063669
#
#
# Mechanical properties :
#
#
# Convention : Reuss Voigt Hill
#
# Bulk Modulus (GPa) = 22.81921 51.27093 37.04507
# Shear Modulus (GPa) = 18.55357 27.11162 22.83260
#
# Velocity S-wave (km/s) = 3.14654 3.80362 3.49058
# Velocity P-wave (km/s) = 5.03766 6.83006 6.00115
#
# Compressibility (1/GPa) = 0.04382274
#
# Stress axis : x y z
#
# Youngs Moduli (GPa) = 94.39995 16.64949 90.06934
#
# Poissons Ratio (x) = 0.12630 0.26127
# Poissons Ratio (y) = 0.71612 0.76386
# Poissons Ratio (z) = 0.27383 0.14120
#
# Static dielectric constant tensor:
#      x y z
#    x 3.658960 0.000000 0.033390 
#    y 0.000000 2.990580 0.000000 
#    z 0.033390 0.000000 3.598780 
# 
# 
# High freq. dielectric constant tensor:
#      x y z
#    x 1.742460 0.000000 0.005150 
#    y 0.000000 1.679770 0.000000 
#    z 0.005150 0.000000 1.737430 
# 
# From -- ./inp_files/93732.got.cif
#   From: 2010.06.25/outbox.cif.g09.slc.cpg/sg10_47_cif.got.tgz:93732.got - 2010.06.27 22:07:45.
