data_PCOD8058814
_publ_section_title
;
Structure prediction by ZEFSAII (Michael W. Deem and Ramdas Pophale) SiO2 
 PCOD8058814
Probable space group: P 2/M
;
_chemical_formula_sum "Si O2"
_cell_formula_units_Z 28
_cell_length_a 18.598236
_cell_length_b 18.231143
_cell_length_c 10.271006
_cell_angle_alpha 90.000000
_cell_angle_beta 154.873984
_cell_angle_gamma 90.000000
_cell_volume 1478.731866
_symmetry_space_group_name_H-M "P 2/M"
_symmetry_group_IT_number 10
_symmetry_cell_setting 'monoclinic'
loop_
_space_group_symop_operation_xyz
x,y,z
-x,y,-z
-x,-y,-z
x,-y,z
loop_
_atom_site_type_symbol
_atom_site_label
_atom_site_fract_x
_atom_site_fract_y
_atom_site_fract_z
Si Si1 0.242186 0.919766 0.155143
Si Si2 0.740820 0.226272 0.151685
Si Si3 0.988242 0.500000 0.135597
Si Si4 0.851746 0.647111 0.859965
Si Si5 0.089135 0.226272 0.848315
Si Si6 0.412957 0.919766 0.155143
Si Si7 0.508219 0.352889 0.859965
Si Si8 0.352644 0.500000 0.864402
O O1 0.326695 0.919878 0.153389
O O2 0.386637 0.905396 0.500000
O O3 0.156871 0.000000 0.039587
O O4 0.104120 0.854991 0.935827
O O5 0.802979 0.231530 0.105958
O O6 0.892199 0.242633 0.500000
O O7 0.668292 0.145009 0.064173
O O8 0.592515 0.284480 0.926812
O O9 0.169580 0.500000 0.500000
O O10 0.888743 0.574621 0.009227
O O11 0.000000 0.500000 0.000000
O O12 0.679739 0.635068 0.500000
O O13 0.834298 0.715520 0.926813
O O14 0.000000 0.662129 0.000000
O O15 0.382716 0.000000 0.039587
O O16 0.500000 0.337871 0.000000
O O17 0.620484 0.425379 0.009227
O O18 0.500000 0.500000 0.000000
#
# Coordination Sequence:
#
# PCOD8058814 Si02
#       8
#     4   4   2   4   4   4   4   2
#     4   8  14  26  45  69  97 130 168 207 246 291
#     4  10  20  33  50  75 106 136 168 208 253 298
#     4  10  18  32  53  76 101 128 165 207 247 293
#     4  11  21  35  55  77 102 132 169 208 249 298
#     4  10  20  33  50  75 106 136 168 208 253 298
#     4   8  14  26  45  69  97 130 168 207 246 291
#     4  11  21  35  55  77 102 132 169 208 249 298
#     4  10  18  32  53  76 101 128 165 207 247 293
#
# _framework density 18.935144999999999
#
# number of rings (size 3 to 8) (size 9 to 14) (size 15 to 20)
#    0.000    2.286    0.000    7.286    0.000    2.286 
#    0.000    3.571    0.000    5.143    0.000    0.000 
#    0.000    0.000    0.000    0.000    0.000    0.000 
#
# Total GULP energy -347070.781150 kJ/mol
# GULP energy per Si atom -12395.385041 kJ/mol
# Density = 1.889205 g / cm^3
# Si number density = 18.935145 Si / 1000 Ang^3
#
#
#
# Elastic Constant Matrix: (Units=GPa)
#
#
# Indices 1 2 3 4 5 6 
#
# 1 23.2890 30.5008 24.6281 0.0000 -3.7217 0.0000
# 2 30.5008 161.9845 60.2323 0.0000 -2.5755 0.0000
# 3 24.6281 60.2323 142.1495 0.0000 -6.5747 0.0000
# 4 0.0000 0.0000 0.0000 40.2465 0.0000 5.4294
# 5 -3.7217 -2.5755 -6.5747 0.0000 21.0592 0.0000
# 6 0.0000 0.0000 0.0000 5.4294 0.0000 102.9236
#
#
#
# Elastic Compliance Matrix: (Units=1/GPa)
#
#
# Indices 1 2 3 4 5 6 
#
# 1 0.063522 -0.009353 -0.006673 0.000000 0.007999 0.000000
# 2 -0.009353 0.008705 -0.002126 0.000000 -0.001252 0.000000
# 3 -0.006673 -0.002126 0.009157 0.000000 0.001420 0.000000
# 4 0.000000 0.000000 0.000000 0.025025 0.000000 -0.001320
# 5 0.007999 -0.001252 0.001420 0.000000 0.049189 0.000000
# 6 0.000000 0.000000 0.000000 -0.001320 0.000000 0.009786
#
#
# Mechanical properties :
#
#
# Convention : Reuss Voigt Hill
#
# Bulk Modulus (GPa) = 22.18174 62.01616 42.09895
# Shear Modulus (GPa) = 23.07186 46.98332 35.02759
#
# Velocity S-wave (km/s) = 3.49444 4.98664 4.30568
# Velocity P-wave (km/s) = 5.29354 8.12271 6.85565
#
# Compressibility (1/GPa) = 0.04508212
#
# Stress axis : x y z
#
# Youngs Moduli (GPa) = 15.74255 114.87491 109.20037
#
# Poissons Ratio (x) = 1.07437 0.72866
# Poissons Ratio (y) = 0.14723 0.23217
# Poissons Ratio (z) = 0.10504 0.24424
#
# Static dielectric constant tensor:
#      x y z
#    x 2.879960 0.000000 -0.057990 
#    y 0.000000 4.279580 0.000000 
#    z -0.057990 0.000000 3.549410 
# 
# 
# High freq. dielectric constant tensor:
#      x y z
#    x 1.670900 0.000000 -0.006450 
#    y 0.000000 1.762780 0.000000 
#    z -0.006450 0.000000 1.745400 
# 
# From -- ./inp_files/56132.got.cif
#   From: 2010.06.25/outbox.cif.g09.slc.cpg/sg10_29_cif.got.tgz:56132.got - 2010.06.27 22:07:45.
