data_PCOD8058913
_publ_section_title
;
Structure prediction by ZEFSAII (Michael W. Deem and Ramdas Pophale) SiO2 
 PCOD8058913
Probable space group: P 2/M
;
_chemical_formula_sum "Si O2"
_cell_formula_units_Z 32
_cell_length_a 22.945908
_cell_length_b 8.564603
_cell_length_c 11.566034
_cell_angle_alpha 90.000000
_cell_angle_beta 132.469089
_cell_angle_gamma 90.000000
_cell_volume 1676.650007
_symmetry_space_group_name_H-M "P 2/M"
_symmetry_group_IT_number 10
_symmetry_cell_setting 'monoclinic'
loop_
_space_group_symop_operation_xyz
x,y,z
-x,y,-z
-x,-y,-z
x,-y,z
loop_
_atom_site_type_symbol
_atom_site_label
_atom_site_fract_x
_atom_site_fract_y
_atom_site_fract_z
Si Si1 0.930603 0.180452 0.688643
Si Si2 0.297862 0.182740 0.541860
Si Si3 0.395171 0.185385 0.259361
Si Si4 0.210509 0.681633 0.632303
Si Si5 0.566510 0.185367 0.437206
Si Si6 0.890728 0.820256 0.077260
Si Si7 0.242273 0.816314 0.920793
Si Si8 0.155526 0.680426 0.222697
O O1 0.870356 0.228701 0.506808
O O2 0.916043 0.277885 0.786315
O O3 0.917048 0.000000 0.700378
O O4 0.019325 0.211800 0.763513
O O5 0.280079 0.274358 0.636001
O O6 0.381086 0.244212 0.600654
O O7 0.230687 0.214658 0.356573
O O8 0.300749 0.000000 0.573865
O O9 0.475397 0.239213 0.300425
O O10 0.397925 0.250987 0.394221
O O11 0.390336 0.000000 0.256160
O O12 0.318479 0.250696 0.091028
O O13 0.192785 0.500000 0.600074
O O14 0.238969 0.725918 0.796845
O O15 0.571050 0.000000 0.449601
O O16 0.869442 0.712502 0.941108
O O17 0.877867 0.000000 0.023638
O O18 0.835825 0.775448 0.111302
O O19 0.249385 0.000000 0.906208
O O20 0.177671 0.500000 0.267247
#
# Coordination Sequence:
#
# PCOD8058913 Si02
#       8
#     4   4   4   4   4   4   4   4
#     4  10  20  36  56  76 101 133 172 215 257 303
#     4  10  18  32  55  78 102 135 176 215 253 300
#     4   8  14  27  50  81 112 133 156 202 257 302
#     4  11  23  38  53  71 100 136 175 217 260 305
#     4   8  14  26  50  84 111 130 159 204 255 301
#     4  10  21  35  54  79 103 132 171 213 257 307
#     4  10  20  36  56  76 101 135 174 213 255 303
#     4  11  21  32  50  78 111 140 168 206 255 308
#
# _framework density 19.085678000000001
#
# number of rings (size 3 to 8) (size 9 to 14) (size 15 to 20)
#    0.000    2.250    0.000    6.375    0.000    5.500 
#    0.000    3.125    0.000    5.250    0.000    5.250 
#    0.000    0.000    0.000    0.000    0.000    0.000 
#
# Total GULP energy -396780.193905 kJ/mol
# GULP energy per Si atom -12399.381060 kJ/mol
# Density = 1.904224 g / cm^3
# Si number density = 19.085678 Si / 1000 Ang^3
#
#
#
# Elastic Constant Matrix: (Units=GPa)
#
#
# Indices 1 2 3 4 5 6 
#
# 1 152.0005 20.4898 63.0822 0.0000 12.4141 0.0000
# 2 20.4898 43.7415 13.7113 0.0000 -3.0601 0.0000
# 3 63.0822 13.7113 77.1055 0.0000 -8.8003 0.0000
# 4 0.0000 0.0000 0.0000 12.3827 0.0000 -2.6197
# 5 12.4141 -3.0601 -8.8003 0.0000 23.9497 0.0000
# 6 0.0000 0.0000 0.0000 -2.6197 0.0000 1.2183
#
#
#
# Elastic Compliance Matrix: (Units=1/GPa)
#
#
# Indices 1 2 3 4 5 6 
#
# 1 0.012357 -0.003164 -0.010776 0.000000 -0.010769 0.000000
# 2 -0.003164 0.025078 -0.001376 0.000000 0.004339 0.000000
# 3 -0.010776 -0.001376 0.023639 0.000000 0.014096 0.000000
# 4 0.000000 0.000000 0.000000 0.148153 0.000000 0.318565
# 5 -0.010769 0.004339 0.014096 0.000000 0.053070 0.000000
# 6 0.000000 0.000000 0.000000 0.318565 0.000000 1.505799
#
#
# Mechanical properties :
#
#
# Convention : Reuss Voigt Hill
#
# Bulk Modulus (GPa) = 32.84868 51.93490 42.39179
# Shear Modulus (GPa) = 2.76414 19.21442 10.98928
#
# Velocity S-wave (km/s) = 1.20475 3.17637 2.40216
# Velocity P-wave (km/s) = 4.37993 6.38145 5.47297
#
# Compressibility (1/GPa) = 0.03044262
#
# Stress axis : x y z
#
# Youngs Moduli (GPa) = 80.92366 39.87482 42.30252
#
# Poissons Ratio (x) = 0.12616 0.45587
# Poissons Ratio (y) = 0.25604 0.05820
# Poissons Ratio (z) = 0.87207 0.05486
#
# Static dielectric constant tensor:
#      x y z
#    x 3.760150 0.000000 0.155700 
#    y 0.000000 3.220660 0.000000 
#    z 0.155700 0.000000 3.411620 
# 
# 
# High freq. dielectric constant tensor:
#      x y z
#    x 1.750590 0.000000 0.006560 
#    y 0.000000 1.717790 0.000000 
#    z 0.006560 0.000000 1.728320 
# 
# From -- ./inp_files/56469.got.cif
#   From: 2010.06.25/outbox.cif.g09.slc.cpg/sg10_29_cif.got.tgz:56469.got - 2010.06.27 22:07:45.
