data_PCOD8058302
_publ_section_title
;
Structure prediction by ZEFSAII (Michael W. Deem and Ramdas Pophale) SiO2 
 PCOD8058302
Probable space group: P 2/M
;
_chemical_formula_sum "Si O2"
_cell_formula_units_Z 28
_cell_length_a 14.758112
_cell_length_b 12.647505
_cell_length_c 9.866120
_cell_angle_alpha 90.000000
_cell_angle_beta 117.278090
_cell_angle_gamma 90.000000
_cell_volume 1636.750430
_symmetry_space_group_name_H-M "P 2/M"
_symmetry_group_IT_number 10
_symmetry_cell_setting 'monoclinic'
loop_
_space_group_symop_operation_xyz
x,y,z
-x,y,-z
-x,-y,-z
x,-y,z
loop_
_atom_site_type_symbol
_atom_site_label
_atom_site_fract_x
_atom_site_fract_y
_atom_site_fract_z
Si Si1 0.840014 0.622872 0.140741
Si Si2 0.543648 0.620977 0.179466
Si Si3 0.791021 0.381026 0.682191
Si Si4 0.761090 0.694542 0.366720
Si Si5 0.343456 0.376417 0.172739
Si Si6 0.975621 0.236062 0.836650
Si Si7 0.093552 0.121628 0.467542
O O1 0.864459 0.500000 0.126198
O O2 0.819334 0.635212 0.286235
O O3 0.934546 0.695446 0.166277
O O4 0.742244 0.665509 0.990625
O O5 0.575935 0.500000 0.239438
O O6 0.640357 0.698896 0.255785
O O7 0.456062 0.669284 0.218502
O O8 0.500000 0.623382 0.000000
O O9 0.818182 0.500000 0.741140
O O10 0.777269 0.372744 0.513219
O O11 0.688287 0.348277 0.694528
O O12 0.882171 0.312829 0.802760
O O13 0.807084 0.811499 0.420744
O O14 0.354061 0.500000 0.152263
O O15 0.941629 0.144391 0.710305
O O16 0.000000 0.184492 0.000000
O O17 0.000000 0.151583 0.500000
O O18 0.125049 0.000000 0.502690
#
# Coordination Sequence:
#
# PCOD8058302 Si02
#       7
#     4   4   4   4   4   4   4
#     4  11  19  30  49  78 115 147 173 201 245 309
#     4  10  18  30  50  77 108 142 179 211 243 298
#     4  10  20  31  45  74 113 145 175 209 246 301
#     4  11  21  34  53  77 100 140 179 215 260 310
#     4   9  18  30  46  71 107 149 178 204 242 286
#     4  11  21  33  53  80 106 139 177 209 259 320
#     4  10  22  41  58  75 100 129 171 229 280 314
#
# _framework density 17.107067000000001
#
# number of rings (size 3 to 8) (size 9 to 14) (size 15 to 20)
#    0.000    1.714    4.286    1.714    0.000    1.429 
#    0.000    4.286    0.000    0.429    0.000    8.000 
#    0.000    0.000    0.000    0.000    0.000    0.000 
#
# Total GULP energy -347113.131360 kJ/mol
# GULP energy per Si atom -12396.897549 kJ/mol
# Density = 1.706813 g / cm^3
# Si number density = 17.107067 Si / 1000 Ang^3
#
#
#
# Elastic Constant Matrix: (Units=GPa)
#
#
# Indices 1 2 3 4 5 6 
#
# 1 120.5299 36.7911 28.1310 0.0000 -2.9238 0.0000
# 2 36.7911 58.0809 21.4092 0.0000 7.3313 0.0000
# 3 28.1310 21.4092 82.7705 0.0000 -9.6354 0.0000
# 4 0.0000 0.0000 0.0000 15.2658 0.0000 -2.9422
# 5 -2.9238 7.3313 -9.6354 0.0000 36.2119 0.0000
# 6 0.0000 0.0000 0.0000 -2.9422 0.0000 18.4423
#
#
#
# Elastic Compliance Matrix: (Units=1/GPa)
#
#
# Indices 1 2 3 4 5 6 
#
# 1 0.010685 -0.006313 -0.001805 0.000000 0.001660 0.000000
# 2 -0.006313 0.023812 -0.004782 0.000000 -0.006603 0.000000
# 3 -0.001805 -0.004782 0.014476 0.000000 0.004674 0.000000
# 4 0.000000 0.000000 0.000000 0.067584 0.000000 0.010782
# 5 0.001660 -0.006603 0.004674 0.000000 0.030330 0.000000
# 6 0.000000 0.000000 0.000000 0.010782 0.000000 0.055943
#
#
# Mechanical properties :
#
#
# Convention : Reuss Voigt Hill
#
# Bulk Modulus (GPa) = 43.15380 48.22710 45.69045
# Shear Modulus (GPa) = 21.15447 25.65401 23.40424
#
# Velocity S-wave (km/s) = 3.52034 3.87669 3.70280
# Velocity P-wave (km/s) = 6.46561 6.94916 6.71174
#
# Compressibility (1/GPa) = 0.02317293
#
# Stress axis : x y z
#
# Youngs Moduli (GPa) = 93.58693 41.99486 69.07792
#
# Poissons Ratio (x) = 0.26510 0.12472
# Poissons Ratio (y) = 0.59078 0.33037
# Poissons Ratio (z) = 0.16897 0.20084
#
# Static dielectric constant tensor:
#      x y z
#    x 3.554880 0.000000 -0.057930 
#    y 0.000000 2.753440 0.000000 
#    z -0.057930 0.000000 3.364240 
# 
# 
# High freq. dielectric constant tensor:
#      x y z
#    x 1.675950 0.000000 -0.012480 
#    y 0.000000 1.603630 0.000000 
#    z -0.012480 0.000000 1.672330 
# 
# From -- ./inp_files/28350.got.cif
#   From: 2010.06.25/outbox.cif.g09.slc.cpg/sg10_15_cif.got.tgz:28350.got - 2010.06.27 22:07:45.
