data_PCOD8058265
_publ_section_title
;
Structure prediction by ZEFSAII (Michael W. Deem and Ramdas Pophale) SiO2 
 PCOD8058265
Probable space group: P 2/M
;
_chemical_formula_sum "Si O2"
_cell_formula_units_Z 20
_cell_length_a 19.210582
_cell_length_b 7.781704
_cell_length_c 14.205775
_cell_angle_alpha 90.000000
_cell_angle_beta 31.263966
_cell_angle_gamma 90.000000
_cell_volume 1102.128281
_symmetry_space_group_name_H-M "P 2/M"
_symmetry_group_IT_number 10
_symmetry_cell_setting 'monoclinic'
loop_
_space_group_symop_operation_xyz
x,y,z
-x,y,-z
-x,-y,-z
x,-y,z
loop_
_atom_site_type_symbol
_atom_site_label
_atom_site_fract_x
_atom_site_fract_y
_atom_site_fract_z
Si Si1 0.896554 0.190730 0.372206
Si Si2 0.206398 0.195920 0.043475
Si Si3 0.651589 0.799810 0.312693
Si Si4 0.134921 0.500000 0.464860
Si Si5 0.819903 0.500000 0.795112
Si Si6 0.869874 0.695057 0.201981
O O1 0.826088 0.329184 0.521793
O O2 0.838413 0.202859 0.334048
O O3 0.055317 0.224676 0.182630
O O4 0.865841 0.000000 0.447460
O O5 0.240977 0.327468 0.087703
O O6 0.228337 0.000000 0.053557
O O7 0.303631 0.241523 0.845007
O O8 0.500000 0.735326 0.500000
O O9 0.741919 0.698546 0.282392
O O10 0.666622 0.000000 0.318107
O O11 0.218303 0.500000 0.271111
O O12 0.978676 0.500000 0.622985
O O13 0.903050 0.500000 0.192360
O O14 0.000000 0.776947 0.000000
#
# Coordination Sequence:
#
# PCOD8058265 Si02
#       6
#     4   4   4   2   2   4
#     4  10  18  30  50  73 102 135 170 211 256 305
#     4   9  18  31  49  73 100 136 175 207 252 310
#     4  10  21  35  50  74 109 142 175 214 252 302
#     4   9  18  32  44  74 102 128 169 217 262 306
#     4   9  18  30  50  67 102 135 165 215 264 307
#     4  11  21  31  51  77 105 141 177 212 255 309
#
# _framework density 18.146706999999999
#
# number of rings (size 3 to 8) (size 9 to 14) (size 15 to 20)
#    0.000    2.200    3.000    0.600    1.400    2.000 
#    0.000    4.000    0.000    0.000    0.000    2.800 
#    0.000    6.400    0.000    0.000    0.000    0.000 
#
# Total GULP energy -248022.889193 kJ/mol
# GULP energy per Si atom -12401.144460 kJ/mol
# Density = 1.810540 g / cm^3
# Si number density = 18.146707 Si / 1000 Ang^3
#
#
#
# Elastic Constant Matrix: (Units=GPa)
#
#
# Indices 1 2 3 4 5 6 
#
# 1 84.6859 45.3714 55.6647 0.0000 22.1523 0.0000
# 2 45.3714 118.3491 47.5522 0.0000 26.4529 0.0000
# 3 55.6647 47.5522 84.4873 0.0000 20.7054 0.0000
# 4 0.0000 0.0000 0.0000 15.8618 0.0000 6.3626
# 5 22.1523 26.4529 20.7054 0.0000 35.5141 0.0000
# 6 0.0000 0.0000 0.0000 6.3626 0.0000 20.0361
#
#
#
# Elastic Compliance Matrix: (Units=1/GPa)
#
#
# Indices 1 2 3 4 5 6 
#
# 1 0.022487 -0.002639 -0.012104 0.000000 -0.005004 0.000000
# 2 -0.002639 0.012159 -0.003837 0.000000 -0.005174 0.000000
# 3 -0.012104 -0.003837 0.022657 0.000000 -0.002801 0.000000
# 4 0.000000 0.000000 0.000000 0.072247 0.000000 -0.022943
# 5 -0.005004 -0.005174 -0.002801 0.000000 0.036766 0.000000
# 6 0.000000 0.000000 0.000000 -0.022943 0.000000 0.057196
#
#
# Mechanical properties :
#
#
# Convention : Reuss Voigt Hill
#
# Bulk Modulus (GPa) = 49.64396 64.96655 57.30525
# Shear Modulus (GPa) = 18.69942 23.54466 21.12204
#
# Velocity S-wave (km/s) = 3.21356 3.60594 3.41539
# Velocity P-wave (km/s) = 6.41761 7.29490 6.87027
#
# Compressibility (1/GPa) = 0.02014344
#
# Stress axis : x y z
#
# Youngs Moduli (GPa) = 44.46940 82.24057 44.13631
#
# Poissons Ratio (x) = 0.21704 0.53423
# Poissons Ratio (y) = 0.11736 0.16935
# Poissons Ratio (z) = 0.53826 0.31556
#
# Static dielectric constant tensor:
#      x y z
#    x 3.088420 0.000000 0.260850 
#    y 0.000000 3.444140 0.000000 
#    z 0.260850 0.000000 3.195130 
# 
# 
# High freq. dielectric constant tensor:
#      x y z
#    x 1.674560 0.000000 0.025450 
#    y 0.000000 1.716550 0.000000 
#    z 0.025450 0.000000 1.669480 
# 
# From -- ./inp_files/31443.got.cif
#   From: 2010.06.25/outbox.cif.g09.slc.cpg/sg10_16_cif.got.tgz:31443.got - 2010.06.27 22:07:45.
