data_PCOD8058634
_publ_section_title
;
Structure prediction by ZEFSAII (Michael W. Deem and Ramdas Pophale) SiO2 
 PCOD8058634
Probable space group: P 2/M
;
_chemical_formula_sum "Si O2"
_cell_formula_units_Z 32
_cell_length_a 20.323240
_cell_length_b 9.150496
_cell_length_c 25.149307
_cell_angle_alpha 90.000000
_cell_angle_beta 22.743219
_cell_angle_gamma 90.000000
_cell_volume 1808.121012
_symmetry_space_group_name_H-M "P 2/M"
_symmetry_group_IT_number 10
_symmetry_cell_setting 'monoclinic'
loop_
_space_group_symop_operation_xyz
x,y,z
-x,y,-z
-x,-y,-z
x,-y,z
loop_
_atom_site_type_symbol
_atom_site_label
_atom_site_fract_x
_atom_site_fract_y
_atom_site_fract_z
Si Si1 0.334213 0.339001 0.160130
Si Si2 0.371045 0.327047 0.852313
Si Si3 0.152378 0.171780 0.849262
Si Si4 0.019648 0.330475 0.850166
Si Si5 0.820925 0.670299 0.382266
Si Si6 0.553414 0.674683 0.087488
Si Si7 0.863780 0.325629 0.787440
Si Si8 0.488190 0.827456 0.661764
O O1 0.267171 0.500000 0.224842
O O2 0.392574 0.262055 0.172357
O O3 0.186179 0.261582 0.234426
O O4 0.500000 0.350588 0.000000
O O5 0.386802 0.500000 0.832371
O O6 0.458301 0.276261 0.842599
O O7 0.473527 0.245437 0.730215
O O8 0.174539 0.277210 0.998828
O O9 0.140933 0.245226 0.800301
O O10 0.328976 0.218644 0.744263
O O11 0.138663 0.000000 0.851244
O O12 0.000000 0.229935 0.000000
O O13 0.034282 0.500000 0.852714
O O14 0.082027 0.296702 0.744598
O O15 0.771477 0.500000 0.423748
O O16 0.654253 0.768656 0.508464
O O17 0.945966 0.719196 0.337279
O O18 0.552883 0.500000 0.084101
O O19 0.730469 0.733685 0.930760
O O20 0.848413 0.500000 0.797144
O O21 0.499427 0.000000 0.660635
#
# Coordination Sequence:
#
# PCOD8058634 Si02
#       8
#     4   4   4   4   4   4   4   4
#     4   7  10  16  33  66 103 133 158 191 240 292
#     4  10  18  31  53  79 104 131 164 206 254 298
#     4  10  21  38  56  73  98 132 168 209 253 296
#     4  10  20  33  55  82 104 129 163 205 252 304
#     4  10  20  35  53  77 108 136 165 204 251 301
#     4   8  12  21  41  72 105 130 159 201 247 293
#     4   8  12  22  42  69 103 136 161 194 244 296
#     4  11  24  39  53  72  99 133 173 211 249 299
#
# _framework density 17.697929999999999
#
# number of rings (size 3 to 8) (size 9 to 14) (size 15 to 20)
#    0.000    2.750    2.500    1.875    0.000    2.250 
#    0.000    2.500    0.000    0.750    0.000    6.125 
#    0.000    3.000    0.000    0.000    0.000    0.000 
#
# Total GULP energy -396527.225296 kJ/mol
# GULP energy per Si atom -12391.475790 kJ/mol
# Density = 1.765765 g / cm^3
# Si number density = 17.697930 Si / 1000 Ang^3
#
#
#
# Elastic Constant Matrix: (Units=GPa)
#
#
# Indices 1 2 3 4 5 6 
#
# 1 134.2333 28.4744 24.9020 0.0000 -20.7588 0.0000
# 2 28.4744 23.9508 16.5682 0.0000 -3.2240 0.0000
# 3 24.9020 16.5682 58.8397 0.0000 -10.8173 0.0000
# 4 0.0000 0.0000 0.0000 17.6509 0.0000 -0.1672
# 5 -20.7588 -3.2240 -10.8173 0.0000 24.4007 0.0000
# 6 0.0000 0.0000 0.0000 -0.1672 0.0000 -0.2057
#
#
#
# Elastic Compliance Matrix: (Units=1/GPa)
#
#
# Indices 1 2 3 4 5 6 
#
# 1 0.011311 -0.012513 0.000220 0.000000 0.008067 0.000000
# 2 -0.012513 0.065699 -0.014769 0.000000 -0.008512 0.000000
# 3 0.000220 -0.014769 0.022577 0.000000 0.008244 0.000000
# 4 0.000000 0.000000 0.000000 0.056221 0.000000 -0.045694
# 5 0.008067 -0.008512 0.008244 0.000000 0.050375 0.000000
# 6 0.000000 0.000000 0.000000 -0.045694 0.000000 -4.824154
#
#
# Mechanical properties :
#
#
# Convention : Reuss Voigt Hill
#
# Bulk Modulus (GPa) = 21.99643 39.65702 30.82673
# Shear Modulus (GPa) = -1.09922 18.17447 8.53762
#
# Velocity S-wave (km/s) = -0.78895 3.20805 2.19876
# Velocity P-wave (km/s) = 3.40967 6.01485 4.88898
#
# Compressibility (1/GPa) = 0.04546192
#
# Stress axis : x y z
#
# Youngs Moduli (GPa) = 88.41071 15.22084 44.29349
#
# Poissons Ratio (x) = 0.19046 -0.00972
# Poissons Ratio (y) = 1.10630 0.65417
# Poissons Ratio (z) = -0.01941 0.22480
#
# Static dielectric constant tensor:
#      x y z
#    x 3.750000 0.000000 -0.242730 
#    y 0.000000 2.822360 0.000000 
#    z -0.242730 0.000000 3.073820 
# 
# 
# High freq. dielectric constant tensor:
#      x y z
#    x 1.708120 0.000000 -0.014050 
#    y 0.000000 1.632980 0.000000 
#    z -0.014050 0.000000 1.657150 
# 
# From -- ./inp_files/86115.got.cif
#   From: 2010.06.25/outbox.cif.g09.slc.cpg/sg10_44_cif.got.tgz:86115.got - 2010.06.27 22:07:45.
