data_PCOD8058145
_publ_section_title
;
Structure prediction by ZEFSAII (Michael W. Deem and Ramdas Pophale) SiO2 
 PCOD8058145
Probable space group: P 2/M
;
_chemical_formula_sum "Si O2"
_cell_formula_units_Z 32
_cell_length_a 11.384343
_cell_length_b 9.079392
_cell_length_c 22.132838
_cell_angle_alpha 90.000000
_cell_angle_beta 49.437076
_cell_angle_gamma 90.000000
_cell_volume 1737.959085
_symmetry_space_group_name_H-M "P 2/M"
_symmetry_group_IT_number 10
_symmetry_cell_setting 'monoclinic'
loop_
_space_group_symop_operation_xyz
x,y,z
-x,y,-z
-x,-y,-z
x,-y,z
loop_
_atom_site_type_symbol
_atom_site_label
_atom_site_fract_x
_atom_site_fract_y
_atom_site_fract_z
Si Si1 0.385276 0.326652 0.986976
Si Si2 0.165930 0.670114 0.464174
Si Si3 0.898479 0.673546 0.845448
Si Si4 0.234809 0.672356 0.704840
Si Si5 0.122201 0.331467 0.614382
Si Si6 0.468038 0.670743 0.184604
Si Si7 0.512853 0.328741 0.687907
Si Si8 0.173758 0.173267 0.250298
O O1 0.407255 0.500000 0.980689
O O2 0.424447 0.269636 0.906277
O O3 0.500000 0.258756 0.000000
O O4 0.205264 0.286108 0.061140
O O5 0.153789 0.500000 0.449665
O O6 0.203532 0.690557 0.522832
O O7 0.315506 0.741620 0.380477
O O8 0.000000 0.743358 0.500000
O O9 0.897315 0.500000 0.833133
O O10 0.811851 0.750363 0.819269
O O11 0.075521 0.731624 0.789455
O O12 0.243442 0.500000 0.714209
O O13 0.235894 0.707918 0.632540
O O14 0.383712 0.746214 0.687284
O O15 0.064266 0.500000 0.641660
O O16 0.977949 0.222719 0.663338
O O17 0.422528 0.500000 0.189744
O O18 0.548689 0.691682 0.222894
O O19 0.317751 0.771415 0.240676
O O20 0.528690 0.500000 0.665767
O O21 0.174859 0.000000 0.242073
#
# Coordination Sequence:
#
# PCOD8058145 Si02
#       8
#     4   4   4   4   4   4   4   4
#     4   9  15  25  45  71  94 120 158 192 226 282
#     4   9  16  26  43  70  98 122 155 195 233 277
#     4   9  16  30  49  68  95 126 156 190 232 283
#     4   8  15  27  44  68  95 123 157 196 233 270
#     4   9  17  30  49  69  93 127 158 188 235 282
#     4  10  18  30  48  67  93 129 159 188 237 284
#     4   9  17  28  45  71  98 121 156 202 236 270
#     4  11  20  29  45  71  99 122 153 197 239 280
#
# _framework density 18.412402
#
# number of rings (size 3 to 8) (size 9 to 14) (size 15 to 20)
#    0.000    2.750    1.250    2.625    0.000    2.500 
#    0.000    4.375    0.000   10.125    0.000    3.500 
#    0.000    5.000    0.000    0.000    0.000    0.000 
#
# Total GULP energy -396453.114493 kJ/mol
# GULP energy per Si atom -12389.159828 kJ/mol
# Density = 1.837050 g / cm^3
# Si number density = 18.412402 Si / 1000 Ang^3
#
#
#
# Elastic Constant Matrix: (Units=GPa)
#
#
# Indices 1 2 3 4 5 6 
#
# 1 123.0125 7.1042 62.6385 0.0000 -2.3565 0.0000
# 2 7.1042 30.9039 7.8078 0.0000 -0.8494 0.0000
# 3 62.6385 7.8078 126.6750 0.0000 7.9762 0.0000
# 4 0.0000 0.0000 0.0000 3.2389 0.0000 0.3059
# 5 -2.3565 -0.8494 7.9762 0.0000 22.1287 0.0000
# 6 0.0000 0.0000 0.0000 0.3059 0.0000 1.8647
#
#
#
# Elastic Compliance Matrix: (Units=1/GPa)
#
#
# Indices 1 2 3 4 5 6 
#
# 1 0.011119 -0.001045 -0.005634 0.000000 0.003175 0.000000
# 2 -0.001045 0.033059 -0.001631 0.000000 0.001745 0.000000
# 3 -0.005634 -0.001631 0.011074 0.000000 -0.004654 0.000000
# 4 0.000000 0.000000 0.000000 0.313606 0.000000 -0.051442
# 5 0.003175 0.001745 -0.004654 0.000000 0.047273 0.000000
# 6 0.000000 0.000000 0.000000 -0.051442 0.000000 0.544724
#
#
# Mechanical properties :
#
#
# Convention : Reuss Voigt Hill
#
# Bulk Modulus (GPa) = 25.88534 48.41027 37.14780
# Shear Modulus (GPa) = 5.04872 18.98251 12.01561
#
# Velocity S-wave (km/s) = 1.65770 3.21434 2.55734
# Velocity P-wave (km/s) = 4.21345 6.33445 5.37952
#
# Compressibility (1/GPa) = 0.03863191
#
# Stress axis : x y z
#
# Youngs Moduli (GPa) = 89.93502 30.24926 90.30568
#
# Poissons Ratio (x) = 0.03162 0.50875
# Poissons Ratio (y) = 0.09403 0.14725
# Poissons Ratio (z) = 0.50666 0.04932
#
# Static dielectric constant tensor:
#      x y z
#    x 3.514000 0.000000 -0.079190 
#    y 0.000000 2.755370 0.000000 
#    z -0.079190 0.000000 3.631570 
# 
# 
# High freq. dielectric constant tensor:
#      x y z
#    x 1.702850 0.000000 0.001640 
#    y 0.000000 1.640210 0.000000 
#    z 0.001640 0.000000 1.724080 
# 
# From -- ./inp_files/83570.got.cif
#   From: 2010.06.25/outbox.cif.g09.slc.cpg/sg10_42_cif.got.tgz:83570.got - 2010.06.27 22:07:45.
