data_PCOD8058872
_publ_section_title
;
Structure prediction by ZEFSAII (Michael W. Deem and Ramdas Pophale) SiO2 
 PCOD8058872
Probable space group: P 2/M
;
_chemical_formula_sum "Si O2"
_cell_formula_units_Z 32
_cell_length_a 12.351847
_cell_length_b 13.480366
_cell_length_c 9.463901
_cell_angle_alpha 90.000000
_cell_angle_beta 91.653405
_cell_angle_gamma 90.000000
_cell_volume 1575.153643
_symmetry_space_group_name_H-M "P 2/M"
_symmetry_group_IT_number 10
_symmetry_cell_setting 'monoclinic'
loop_
_space_group_symop_operation_xyz
x,y,z
-x,y,-z
-x,-y,-z
x,-y,z
loop_
_atom_site_type_symbol
_atom_site_label
_atom_site_fract_x
_atom_site_fract_y
_atom_site_fract_z
Si Si1 0.141228 0.108246 0.551572
Si Si2 0.526449 0.209656 0.666039
Si Si3 0.756410 0.884334 0.732813
Si Si4 0.033959 0.704218 0.651783
Si Si5 0.540544 0.387439 0.153709
Si Si6 0.227655 0.687657 0.852962
Si Si7 0.322416 0.110503 0.772631
Si Si8 0.898838 0.749920 0.905521
O O1 0.159951 0.136817 0.390361
O O2 0.054673 0.179489 0.622072
O O3 0.261108 0.110542 0.621390
O O4 0.089107 0.000000 0.567994
O O5 0.500000 0.210222 0.500000
O O6 0.647051 0.175474 0.701452
O O7 0.510838 0.320710 0.725295
O O8 0.447344 0.135204 0.746675
O O9 0.818170 0.840965 0.870941
O O10 0.730175 0.000000 0.752158
O O11 0.147057 0.662142 0.718710
O O12 0.000000 0.652394 0.500000
O O13 0.939037 0.693830 0.764683
O O14 0.502765 0.500000 0.179353
O O15 0.671045 0.384312 0.160936
O O16 0.500000 0.348864 0.000000
O O17 0.266749 0.803131 0.862911
O O18 0.164858 0.669956 0.998750
O O19 0.315397 0.000000 0.843584
O O20 0.000000 0.792369 0.000000
#
# Coordination Sequence:
#
# PCOD8058872 Si02
#       8
#     4   4   4   4   4   4   4   4
#     4   9  17  28  44  71 105 146 193 228 255 304
#     4  11  21  34  58  88 116 142 179 231 283 331
#     4  11  21  31  49  79 117 157 196 228 263 317
#     4  10  18  32  54  78 107 148 190 228 278 326
#     4  10  22  42  65  85 109 142 178 223 286 355
#     4   9  20  36  55  82 110 144 186 237 278 326
#     4   9  17  31  50  75 113 153 186 219 268 328
#     4  10  21  35  51  73 109 151 200 241 278 305
#
# _framework density 20.315479
#
# number of rings (size 3 to 8) (size 9 to 14) (size 15 to 20)
#    0.000    2.125    2.500    1.125    0.000    2.250 
#    0.000    2.500    0.000    7.875    0.000    0.000 
#    0.000    0.000    0.000    0.000    0.000    0.000 
#
# Total GULP energy -396615.730278 kJ/mol
# GULP energy per Si atom -12394.241571 kJ/mol
# Density = 2.026924 g / cm^3
# Si number density = 20.315479 Si / 1000 Ang^3
#
#
#
# Elastic Constant Matrix: (Units=GPa)
#
#
# Indices 1 2 3 4 5 6 
#
# 1 108.5036 18.0315 43.5915 0.0000 13.3581 0.0000
# 2 18.0315 48.0207 12.2131 0.0000 2.0863 0.0000
# 3 43.5915 12.2131 105.0113 0.0000 6.3678 0.0000
# 4 0.0000 0.0000 0.0000 13.1157 0.0000 -1.4644
# 5 13.3581 2.0863 6.3678 0.0000 31.6984 0.0000
# 6 0.0000 0.0000 0.0000 -1.4644 0.0000 12.3173
#
#
#
# Elastic Compliance Matrix: (Units=1/GPa)
#
#
# Indices 1 2 3 4 5 6 
#
# 1 0.011993 -0.003221 -0.004363 0.000000 -0.003965 0.000000
# 2 -0.003221 0.022351 -0.001271 0.000000 0.000142 0.000000
# 3 -0.004363 -0.001271 0.011505 0.000000 -0.000389 0.000000
# 4 0.000000 0.000000 0.000000 0.077270 0.000000 0.009187
# 5 -0.003965 0.000142 -0.000389 0.000000 0.033287 0.000000
# 6 0.000000 0.000000 0.000000 0.009187 0.000000 0.082279
#
#
# Mechanical properties :
#
#
# Convention : Reuss Voigt Hill
#
# Bulk Modulus (GPa) = 35.53864 45.46754 40.50309
# Shear Modulus (GPa) = 18.81283 23.93956 21.37620
#
# Velocity S-wave (km/s) = 3.04638 3.43649 3.24730
# Velocity P-wave (km/s) = 5.46857 6.17862 5.83441
#
# Compressibility (1/GPa) = 0.02813839
#
# Stress axis : x y z
#
# Youngs Moduli (GPa) = 83.38390 44.74076 86.91558
#
# Poissons Ratio (x) = 0.14412 0.37923
# Poissons Ratio (y) = 0.26860 0.11046
# Poissons Ratio (z) = 0.36382 0.05686
#
# Static dielectric constant tensor:
#      x y z
#    x 3.809430 0.000000 0.163880 
#    y 0.000000 3.233480 0.000000 
#    z 0.163880 0.000000 3.835470 
# 
# 
# High freq. dielectric constant tensor:
#      x y z
#    x 1.812420 0.000000 0.009260 
#    y 0.000000 1.746600 0.000000 
#    z 0.009260 0.000000 1.795350 
# 
# From -- ./inp_files/25340.got.cif
#   From: 2010.06.25/outbox.cif.g09.slc.cpg/sg10_13_cif.got.tgz:25340.got - 2010.06.27 22:07:45.
