data_PCOD8058288
_publ_section_title
;
Structure prediction by ZEFSAII (Michael W. Deem and Ramdas Pophale) SiO2 
 PCOD8058288
Probable space group: P 2/M
;
_chemical_formula_sum "Si O2"
_cell_formula_units_Z 32
_cell_length_a 28.168584
_cell_length_b 8.986162
_cell_length_c 21.671977
_cell_angle_alpha 90.000000
_cell_angle_beta 18.719846
_cell_angle_gamma 90.000000
_cell_volume 1760.609655
_symmetry_space_group_name_H-M "P 2/M"
_symmetry_group_IT_number 10
_symmetry_cell_setting 'monoclinic'
loop_
_space_group_symop_operation_xyz
x,y,z
-x,y,-z
-x,-y,-z
x,-y,z
loop_
_atom_site_type_symbol
_atom_site_label
_atom_site_fract_x
_atom_site_fract_y
_atom_site_fract_z
Si Si1 0.826942 0.322934 0.098558
Si Si2 0.798879 0.172743 0.499629
Si Si3 0.334103 0.677003 0.581923
Si Si4 0.333165 0.323651 0.826385
Si Si5 0.838135 0.676531 0.326462
Si Si6 0.330682 0.325646 0.223835
Si Si7 0.069584 0.824409 0.479071
Si Si8 0.896740 0.829952 0.811768
O O1 0.821742 0.500000 0.106233
O O2 0.750041 0.257933 0.254677
O O3 0.739909 0.261283 0.146288
O O4 0.994914 0.266986 0.888809
O O5 0.764633 0.246401 0.476100
O O6 0.699426 0.251909 0.673197
O O7 0.971405 0.196332 0.302096
O O8 0.755949 0.000000 0.551408
O O9 0.333414 0.500000 0.586181
O O10 0.500718 0.738783 0.375246
O O11 0.252506 0.731946 0.621059
O O12 0.331406 0.500000 0.829512
O O13 0.243249 0.268157 0.996607
O O14 0.830790 0.500000 0.344586
O O15 0.298287 0.500000 0.267927
O O16 0.225012 0.257397 0.300706
O O17 0.500000 0.290984 0.000000
O O18 0.000000 0.772574 0.500000
O O19 0.950928 0.779876 0.677442
O O20 0.101831 0.000000 0.441009
O O21 0.845483 0.000000 0.874134
#
# Coordination Sequence:
#
# PCOD8058288 Si02
#       8
#     4   4   4   4   4   4   4   4
#     4   9  16  28  50  75  98 132 175 212 257 314
#     4  10  20  35  56  78 103 139 180 217 256 310
#     4   9  18  30  46  74 108 133 163 217 269 308
#     4  10  18  30  50  75 100 132 171 212 256 308
#     4  10  18  31  52  76 102 133 172 217 263 308
#     4  10  21  37  58  85 114 140 174 222 270 315
#     4   9  19  37  59  82 110 145 183 219 260 313
#     4   9  18  33  53  75 101 134 172 216 253 297
#
# _framework density 18.175522000000001
#
# number of rings (size 3 to 8) (size 9 to 14) (size 15 to 20)
#    0.000    2.500    1.250    2.250    0.000    6.250 
#    2.250    0.625    0.000    4.500    0.000    0.000 
#    0.000    0.000    0.000    0.000    0.000    0.000 
#
# Total GULP energy -396830.596107 kJ/mol
# GULP energy per Si atom -12400.956128 kJ/mol
# Density = 1.813415 g / cm^3
# Si number density = 18.175522 Si / 1000 Ang^3
#
#
#
# Elastic Constant Matrix: (Units=GPa)
#
#
# Indices 1 2 3 4 5 6 
#
# 1 159.8599 38.7049 83.3824 0.0000 -0.3392 0.0000
# 2 38.7049 48.4982 46.5911 0.0000 2.1267 0.0000
# 3 83.3824 46.5911 138.9638 0.0000 -1.8846 0.0000
# 4 0.0000 0.0000 0.0000 12.7783 0.0000 -0.3505
# 5 -0.3392 2.1267 -1.8846 0.0000 29.1274 0.0000
# 6 0.0000 0.0000 0.0000 -0.3505 0.0000 20.1433
#
#
#
# Elastic Compliance Matrix: (Units=1/GPa)
#
#
# Indices 1 2 3 4 5 6 
#
# 1 0.009406 -0.003078 -0.004611 0.000000 0.000036 0.000000
# 2 -0.003078 0.031667 -0.008810 0.000000 -0.002918 0.000000
# 3 -0.004611 -0.008810 0.012936 0.000000 0.001427 0.000000
# 4 0.000000 0.000000 0.000000 0.078295 0.000000 0.001362
# 5 0.000036 -0.002918 0.001427 0.000000 0.034638 0.000000
# 6 0.000000 0.000000 0.000000 0.001362 0.000000 0.049668
#
#
# Mechanical properties :
#
#
# Convention : Reuss Voigt Hill
#
# Bulk Modulus (GPa) = 47.59488 76.07544 61.83516
# Shear Modulus (GPa) = 19.48463 24.31937 21.90200
#
# Velocity S-wave (km/s) = 3.27773 3.66188 3.47512
# Velocity P-wave (km/s) = 6.36929 7.73472 7.08498
#
# Compressibility (1/GPa) = 0.02101067
#
# Stress axis : x y z
#
# Youngs Moduli (GPa) = 106.31330 31.57835 77.30266
#
# Poissons Ratio (x) = 0.09721 0.35648
# Poissons Ratio (y) = 0.32726 0.68102
# Poissons Ratio (z) = 0.49026 0.27820
#
# Static dielectric constant tensor:
#      x y z
#    x 3.452960 0.000000 0.017010 
#    y 0.000000 3.029970 0.000000 
#    z 0.017010 0.000000 3.368100 
# 
# 
# High freq. dielectric constant tensor:
#      x y z
#    x 1.708330 0.000000 0.007460 
#    y 0.000000 1.674280 0.000000 
#    z 0.007460 0.000000 1.706290 
# 
# From -- ./inp_files/86775.got.cif
#   From: 2010.06.25/outbox.cif.g09.slc.cpg/sg10_44_cif.got.tgz:86775.got - 2010.06.27 22:07:45.
