data_PCOD8058665
_publ_section_title
;
Structure prediction by ZEFSAII (Michael W. Deem and Ramdas Pophale) SiO2 
 PCOD8058665
Probable space group: P 2/M
;
_chemical_formula_sum "Si O2"
_cell_formula_units_Z 32
_cell_length_a 24.746737
_cell_length_b 9.095107
_cell_length_c 19.948075
_cell_angle_alpha 90.000000
_cell_angle_beta 22.776574
_cell_angle_gamma 90.000000
_cell_volume 1738.174076
_symmetry_space_group_name_H-M "P 2/M"
_symmetry_group_IT_number 10
_symmetry_cell_setting 'monoclinic'
loop_
_space_group_symop_operation_xyz
x,y,z
-x,y,-z
-x,-y,-z
x,-y,z
loop_
_atom_site_type_symbol
_atom_site_label
_atom_site_fract_x
_atom_site_fract_y
_atom_site_fract_z
Si Si1 0.662189 0.666011 0.331606
Si Si2 0.135011 0.673146 0.148213
Si Si3 0.406513 0.169743 0.463734
Si Si4 0.855682 0.168619 0.493294
Si Si5 0.276269 0.827673 0.867765
Si Si6 0.375403 0.169093 0.348034
Si Si7 0.347034 0.828386 0.153083
Si Si8 0.645698 0.673087 0.989709
O O1 0.500000 0.672059 0.500000
O O2 0.719179 0.500000 0.266951
O O3 0.683894 0.736270 0.380165
O O4 0.746209 0.759030 0.180223
O O5 0.135899 0.500000 0.134488
O O6 0.985781 0.722720 0.346466
O O7 0.164462 0.754955 0.044873
O O8 0.250682 0.720976 0.069720
O O9 0.569960 0.209244 0.280497
O O10 0.352076 0.210695 0.452266
O O11 0.383132 0.000000 0.508423
O O12 0.770044 0.195611 0.523010
O O13 0.760026 0.209127 0.665713
O O14 0.906675 0.000000 0.439057
O O15 0.247357 0.000000 0.896556
O O16 0.491764 0.269733 0.181573
O O17 0.424852 0.000000 0.284255
O O18 0.350731 0.000000 0.131745
O O19 0.500000 0.773617 0.000000
O O20 0.297322 0.742526 0.144097
O O21 0.640132 0.500000 0.987439
#
# Coordination Sequence:
#
# PCOD8058665 Si02
#       8
#     4   4   4   4   4   4   4   4
#     4   9  17  28  45  74 114 149 178 221 274 328
#     4  11  24  39  54  79 117 152 184 226 277 333
#     4   9  17  29  51  81 109 140 181 231 274 320
#     4  10  22  39  60  83 108 144 187 229 278 332
#     4  10  18  31  54  79 107 145 188 229 273 326
#     4  10  19  36  59  83 111 143 186 235 277 323
#     4  10  20  38  62  84 110 142 183 233 278 326
#     4  11  23  36  56  84 113 147 184 225 277 333
#
# _framework density 18.410124
#
# number of rings (size 3 to 8) (size 9 to 14) (size 15 to 20)
#    0.000    2.000    2.500    1.500    0.000    5.750 
#    0.000    2.500    0.000    0.750    0.000    5.250 
#    0.000    0.000    0.000    0.000    0.000    0.000 
#
# Total GULP energy -396932.165852 kJ/mol
# GULP energy per Si atom -12404.130183 kJ/mol
# Density = 1.836822 g / cm^3
# Si number density = 18.410124 Si / 1000 Ang^3
#
#
#
# Elastic Constant Matrix: (Units=GPa)
#
#
# Indices 1 2 3 4 5 6 
#
# 1 87.9139 43.3844 33.7932 0.0000 28.9241 0.0000
# 2 43.3844 81.9375 42.8320 0.0000 14.6681 0.0000
# 3 33.7932 42.8320 78.3325 0.0000 16.9872 0.0000
# 4 0.0000 0.0000 0.0000 27.2812 0.0000 4.7802
# 5 28.9241 14.6681 16.9872 0.0000 28.7115 0.0000
# 6 0.0000 0.0000 0.0000 4.7802 0.0000 27.1696
#
#
#
# Elastic Compliance Matrix: (Units=1/GPa)
#
#
# Indices 1 2 3 4 5 6 
#
# 1 0.021034 -0.007431 -0.001421 0.000000 -0.016552 0.000000
# 2 -0.007431 0.020059 -0.008218 0.000000 0.002100 0.000000
# 3 -0.001421 -0.008218 0.019103 0.000000 -0.005672 0.000000
# 4 0.000000 0.000000 0.000000 0.037821 0.000000 -0.006654
# 5 -0.016552 0.002100 -0.005672 0.000000 0.053787 0.000000
# 6 0.000000 0.000000 0.000000 -0.006654 0.000000 0.037977
#
#
# Mechanical properties :
#
#
# Convention : Reuss Voigt Hill
#
# Bulk Modulus (GPa) = 38.38008 54.24483 46.31246
# Shear Modulus (GPa) = 21.49558 25.17741 23.33650
#
# Velocity S-wave (km/s) = 3.42072 3.70210 3.56419
# Velocity P-wave (km/s) = 6.04105 6.91395 6.49219
#
# Compressibility (1/GPa) = 0.02605518
#
# Stress axis : x y z
#
# Youngs Moduli (GPa) = 47.54192 49.85361 52.34837
#
# Poissons Ratio (x) = 0.37046 0.07441
# Poissons Ratio (y) = 0.35328 0.43019
# Poissons Ratio (z) = 0.06758 0.40969
#
# Static dielectric constant tensor:
#      x y z
#    x 3.499330 0.000000 0.218820 
#    y 0.000000 3.375860 0.000000 
#    z 0.218820 0.000000 3.144500 
# 
# 
# High freq. dielectric constant tensor:
#      x y z
#    x 1.715410 0.000000 0.024910 
#    y 0.000000 1.716290 0.000000 
#    z 0.024910 0.000000 1.692860 
# 
# From -- ./inp_files/86909.got.cif
#   From: 2010.06.25/outbox.cif.g09.slc.cpg/sg10_44_cif.got.tgz:86909.got - 2010.06.27 22:07:45.
