data_PCOD8058139
_publ_section_title
;
Structure prediction by ZEFSAII (Michael W. Deem and Ramdas Pophale) SiO2 
 PCOD8058139
Probable space group: P 2/M
;
_chemical_formula_sum "Si O2"
_cell_formula_units_Z 24
_cell_length_a 23.775805
_cell_length_b 9.106119
_cell_length_c 12.106726
_cell_angle_alpha 90.000000
_cell_angle_beta 146.533863
_cell_angle_gamma 90.000000
_cell_volume 1445.428842
_symmetry_space_group_name_H-M "P 2/M"
_symmetry_group_IT_number 10
_symmetry_cell_setting 'monoclinic'
loop_
_space_group_symop_operation_xyz
x,y,z
-x,y,-z
-x,-y,-z
x,-y,z
loop_
_atom_site_type_symbol
_atom_site_label
_atom_site_fract_x
_atom_site_fract_y
_atom_site_fract_z
Si Si1 0.353718 0.668650 0.952742
Si Si2 0.157003 0.673123 0.744473
Si Si3 0.541433 0.165591 0.191471
Si Si4 0.984232 0.673813 0.296104
Si Si5 0.056744 0.169351 0.207655
Si Si6 0.269581 0.669248 0.569996
O O1 0.383749 0.500000 0.022838
O O2 0.456450 0.763242 0.132114
O O3 0.272209 0.728806 0.909915
O O4 0.300741 0.687237 0.747757
O O5 0.154790 0.500000 0.726013
O O6 0.119234 0.714686 0.805732
O O7 0.079424 0.732858 0.524422
O O8 0.645906 0.256779 0.370645
O O9 0.562379 0.000000 0.265020
O O10 0.500000 0.170624 0.000000
O O11 0.991197 0.500000 0.284611
O O12 0.983372 0.760225 0.179990
O O13 0.163057 0.252953 0.375328
O O14 0.077354 0.000000 0.269816
O O15 0.000000 0.188744 0.000000
O O16 0.259948 0.500000 0.520340
#
# Coordination Sequence:
#
# PCOD8058139 Si02
#       6
#     4   4   4   4   4   4
#     4   9  15  26  44  68  94 122 152 183 225 276
#     4   8  14  26  47  71  95 120 149 190 235 272
#     4   9  17  27  40  63  95 125 150 183 227 276
#     4   9  16  30  49  68  90 121 158 192 229 275
#     4  11  23  35  46  64  94 128 159 195 236 274
#     4  10  18  30  48  66  87 120 159 196 229 271
#
# _framework density 16.604068999999999
#
# number of rings (size 3 to 8) (size 9 to 14) (size 15 to 20)
#    0.000    2.667    1.667    2.500    0.000    4.000 
#    0.000    2.500    0.000    0.000    0.000    1.167 
#    0.000    9.333    0.000    0.000    0.000    0.000 
#
# Total GULP energy -297503.248935 kJ/mol
# GULP energy per Si atom -12395.968706 kJ/mol
# Density = 1.656628 g / cm^3
# Si number density = 16.604069 Si / 1000 Ang^3
#
#
#
# Elastic Constant Matrix: (Units=GPa)
#
#
# Indices 1 2 3 4 5 6 
#
# 1 141.4716 63.9497 48.0756 0.0000 33.8199 0.0000
# 2 63.9497 109.2500 42.4601 0.0000 15.5827 0.0000
# 3 48.0756 42.4601 39.7855 0.0000 15.0179 0.0000
# 4 0.0000 0.0000 0.0000 22.1105 0.0000 2.6934
# 5 33.8199 15.5827 15.0179 0.0000 30.0370 0.0000
# 6 0.0000 0.0000 0.0000 2.6934 0.0000 9.8464
#
#
#
# Elastic Compliance Matrix: (Units=1/GPa)
#
#
# Indices 1 2 3 4 5 6 
#
# 1 0.014147 -0.002861 -0.010588 0.000000 -0.009151 0.000000
# 2 -0.002861 0.016221 -0.014661 0.000000 0.002136 0.000000
# 3 -0.010588 -0.014661 0.056953 0.000000 -0.008948 0.000000
# 4 0.000000 0.000000 0.000000 0.046786 0.000000 -0.012798
# 5 -0.009151 0.002136 -0.008948 0.000000 0.046962 0.000000
# 6 0.000000 0.000000 0.000000 -0.012798 0.000000 0.105061
#
#
# Mechanical properties :
#
#
# Convention : Reuss Voigt Hill
#
# Bulk Modulus (GPa) = 32.15189 66.60866 49.38027
# Shear Modulus (GPa) = 14.17566 21.46690 17.82128
#
# Velocity S-wave (km/s) = 2.92506 3.59955 3.27969
# Velocity P-wave (km/s) = 5.55103 7.58147 6.64427
#
# Compressibility (1/GPa) = 0.03110237
#
# Stress axis : x y z
#
# Youngs Moduli (GPa) = 70.68388 61.64719 17.55843
#
# Poissons Ratio (x) = 0.17638 0.18590
# Poissons Ratio (y) = 0.20223 0.25742
# Poissons Ratio (z) = 0.74837 0.90380
#
# Static dielectric constant tensor:
#      x y z
#    x 3.442930 0.000000 0.421130 
#    y 0.000000 3.111250 0.000000 
#    z 0.421130 0.000000 2.838970 
# 
# 
# High freq. dielectric constant tensor:
#      x y z
#    x 1.640750 0.000000 0.035890 
#    y 0.000000 1.632710 0.000000 
#    z 0.035890 0.000000 1.593920 
# 
# From -- ./inp_files/45150.got.cif
#   From: 2010.06.25/outbox.cif.g09.slc.cpg/sg10_23_cif.got.tgz:45150.got - 2010.06.27 22:07:45.
