data_PCOD8058401
_publ_section_title
;
Structure prediction by ZEFSAII (Michael W. Deem and Ramdas Pophale) SiO2 
 PCOD8058401
Probable space group: P 2/M
;
_chemical_formula_sum "Si O2"
_cell_formula_units_Z 32
_cell_length_a 18.165075
_cell_length_b 13.362628
_cell_length_c 21.989008
_cell_angle_alpha 90.000000
_cell_angle_beta 161.449761
_cell_angle_gamma 90.000000
_cell_volume 1698.038791
_symmetry_space_group_name_H-M "P 2/M"
_symmetry_group_IT_number 10
_symmetry_cell_setting 'monoclinic'
loop_
_space_group_symop_operation_xyz
x,y,z
-x,y,-z
-x,-y,-z
x,-y,z
loop_
_atom_site_type_symbol
_atom_site_label
_atom_site_fract_x
_atom_site_fract_y
_atom_site_fract_z
Si Si1 0.389835 0.616612 0.978974
Si Si2 0.094120 0.707101 0.400706
Si Si3 0.297830 0.184744 0.384777
Si Si4 0.770844 0.389107 0.614078
Si Si5 0.880880 0.198745 0.971053
Si Si6 0.369842 0.887306 0.570988
Si Si7 0.215920 0.389997 0.041439
Si Si8 0.354282 0.384326 0.702388
O O1 0.312010 0.500000 0.927451
O O2 0.179014 0.693528 0.823829
O O3 0.500000 0.632988 0.000000
O O4 0.582904 0.647428 0.179944
O O5 0.228878 0.636816 0.457376
O O6 0.188160 0.819875 0.466541
O O7 0.134843 0.673722 0.502723
O O8 0.500000 0.145731 0.500000
O O9 0.359537 0.300621 0.451290
O O10 0.295875 0.117126 0.442815
O O11 0.051885 0.167661 0.159586
O O12 0.656825 0.500000 0.534146
O O13 0.030404 0.389689 0.842138
O O14 0.639139 0.142019 0.789341
O O15 0.837663 0.317659 0.943838
O O16 0.000000 0.175213 0.000000
O O17 0.340008 0.000000 0.571504
O O18 0.239127 0.500000 0.088578
O O19 0.445181 0.354231 0.187409
O O20 0.292572 0.500000 0.652829
#
# Coordination Sequence:
#
# PCOD8058401 Si02
#       8
#     4   4   4   4   4   4   4   4
#     4  10  21  36  56  89 128 153 173 208 257 322
#     4  11  20  35  58  79 108 146 186 227 270 325
#     4  10  21  37  54  77 108 143 182 231 286 341
#     4   9  17  30  51  76 108 146 181 216 262 322
#     4  11  21  38  56  77 113 143 181 236 289 330
#     4  11  25  41  57  79 102 138 191 244 290 331
#     4   9  17  31  51  77 109 147 183 217 261 321
#     4  10  18  30  54  83 113 149 185 213 251 318
#
# _framework density 18.845269999999999
#
# number of rings (size 3 to 8) (size 9 to 14) (size 15 to 20)
#    0.000    1.875    3.750    1.125    0.000    2.000 
#    0.000    1.875    0.000    0.375    0.000    0.875 
#    0.000    0.000    0.000    0.000    0.000    0.000 
#
# Total GULP energy -396635.200360 kJ/mol
# GULP energy per Si atom -12394.850011 kJ/mol
# Density = 1.880238 g / cm^3
# Si number density = 18.845270 Si / 1000 Ang^3
#
#
#
# Elastic Constant Matrix: (Units=GPa)
#
#
# Indices 1 2 3 4 5 6 
#
# 1 72.5116 30.8161 42.7872 0.0000 -17.8275 0.0000
# 2 30.8161 93.4649 29.7464 0.0000 -2.7541 0.0000
# 3 42.7872 29.7464 66.4252 0.0000 -22.4283 0.0000
# 4 0.0000 0.0000 0.0000 16.3459 0.0000 0.4246
# 5 -17.8275 -2.7541 -22.4283 0.0000 29.7195 0.0000
# 6 0.0000 0.0000 0.0000 0.4246 0.0000 12.8997
#
#
#
# Elastic Compliance Matrix: (Units=1/GPa)
#
#
# Indices 1 2 3 4 5 6 
#
# 1 0.023620 -0.003879 -0.011829 0.000000 0.004882 0.000000
# 2 -0.003879 0.013500 -0.005247 0.000000 -0.005036 0.000000
# 3 -0.011829 -0.005247 0.030145 0.000000 0.015167 0.000000
# 4 0.000000 0.000000 0.000000 0.061230 0.000000 -0.002015
# 5 0.004882 -0.005036 0.015167 0.000000 0.047556 0.000000
# 6 0.000000 0.000000 0.000000 -0.002015 0.000000 0.077587
#
#
# Mechanical properties :
#
#
# Convention : Reuss Voigt Hill
#
# Bulk Modulus (GPa) = 39.44077 48.78901 44.11489
# Shear Modulus (GPa) = 16.44743 20.39650 18.42196
#
# Velocity S-wave (km/s) = 2.95746 3.29342 3.12995
# Velocity P-wave (km/s) = 5.71282 6.35670 6.04334
#
# Compressibility (1/GPa) = 0.02535447
#
# Stress axis : x y z
#
# Youngs Moduli (GPa) = 42.33773 74.07574 33.17314
#
# Poissons Ratio (x) = 0.28734 0.39240
# Poissons Ratio (y) = 0.16423 0.17406
# Poissons Ratio (z) = 0.50080 0.38868
#
# Static dielectric constant tensor:
#      x y z
#    x 3.253130 0.000000 -0.219050 
#    y 0.000000 3.282110 0.000000 
#    z -0.219050 0.000000 3.633460 
# 
# 
# High freq. dielectric constant tensor:
#      x y z
#    x 1.708620 0.000000 -0.022280 
#    y 0.000000 1.698560 0.000000 
#    z -0.022280 0.000000 1.745220 
# 
# From -- ./inp_files/85974.got.cif
#   From: 2010.06.25/outbox.cif.g09.slc.cpg/sg10_43_cif.got.tgz:85974.got - 2010.06.27 22:07:45.
