data_PCOD8058719
_publ_section_title
;
Structure prediction by ZEFSAII (Michael W. Deem and Ramdas Pophale) SiO2 
 PCOD8058719
Probable space group: P 2/M
;
_chemical_formula_sum "Si O2"
_cell_formula_units_Z 22
_cell_length_a 13.767710
_cell_length_b 16.418354
_cell_length_c 5.289380
_cell_angle_alpha 90.000000
_cell_angle_beta 99.481191
_cell_angle_gamma 90.000000
_cell_volume 1179.295444
_symmetry_space_group_name_H-M "P 2/M"
_symmetry_group_IT_number 10
_symmetry_cell_setting 'monoclinic'
loop_
_space_group_symop_operation_xyz
x,y,z
-x,y,-z
-x,-y,-z
x,-y,z
loop_
_atom_site_type_symbol
_atom_site_label
_atom_site_fract_x
_atom_site_fract_y
_atom_site_fract_z
Si Si1 0.399075 0.905271 0.714348
Si Si2 0.616481 0.837390 0.792368
Si Si3 0.775141 0.404213 0.379990
Si Si4 0.890842 0.405047 0.942797
Si Si5 0.564736 0.500000 0.781441
Si Si6 0.613138 0.662057 0.620471
O O1 0.499188 0.852917 0.750021
O O2 0.338796 0.884198 0.433579
O O3 0.425154 0.000000 0.742981
O O4 0.336733 0.875634 0.932229
O O5 0.644129 0.742290 0.787160
O O6 0.747741 0.500000 0.347264
O O7 0.846104 0.387074 0.649515
O O8 0.676095 0.351832 0.391658
O O9 0.824633 0.369532 0.145090
O O10 0.900363 0.500000 0.003442
O O11 0.000000 0.365614 0.000000
O O12 0.500000 0.500000 0.500000
O O13 0.631672 0.581908 0.807422
O O14 0.500000 0.500000 0.000000
O O15 0.500000 0.670726 0.500000
#
# Coordination Sequence:
#
# PCOD8058719 Si02
#       6
#     4   4   4   4   2   4
#     4  10  18  32  48  66  84 114 169 215 245 284
#     4  10  19  29  47  65  88 121 161 208 236 285
#     4  10  20  33  49  72  93 126 166 205 252 295
#     4   9  18  34  54  71  88 111 157 220 268 300
#     4  10  24  34  48  58  85 138 179 208 232 258
#     4  11  22  37  47  69 103 140 178 205 239 275
#
# _framework density 18.655206
#
# number of rings (size 3 to 8) (size 9 to 14) (size 15 to 20)
#    0.000    2.000    2.727    3.273    2.545    6.545 
#    0.000    0.000    0.000    0.000    0.000    0.000 
#    0.000    0.000    0.000    0.000    0.000  105.455 
#
# Total GULP energy -272640.423582 kJ/mol
# GULP energy per Si atom -12392.746526 kJ/mol
# Density = 1.861275 g / cm^3
# Si number density = 18.655206 Si / 1000 Ang^3
#
#
#
# Elastic Constant Matrix: (Units=GPa)
#
#
# Indices 1 2 3 4 5 6 
#
# 1 58.5367 4.7676 10.0880 0.0000 -17.4142 0.0000
# 2 4.7676 116.1190 39.7624 0.0000 -14.1570 0.0000
# 3 10.0880 39.7624 143.7823 0.0000 -23.4862 0.0000
# 4 0.0000 0.0000 0.0000 20.1701 0.0000 -1.5339
# 5 -17.4142 -14.1570 -23.4862 0.0000 22.9897 0.0000
# 6 0.0000 0.0000 0.0000 -1.5339 0.0000 -1.9974
#
#
#
# Elastic Compliance Matrix: (Units=1/GPa)
#
#
# Indices 1 2 3 4 5 6 
#
# 1 0.022388 0.000950 0.001239 0.000000 0.018809 0.000000
# 2 0.000950 0.009839 -0.002017 0.000000 0.004718 0.000000
# 3 0.001239 -0.002017 0.008854 0.000000 0.008741 0.000000
# 4 0.000000 0.000000 0.000000 0.046843 0.000000 -0.035972
# 5 0.018809 0.004718 0.008741 0.000000 0.069580 0.000000
# 6 0.000000 0.000000 0.000000 -0.035972 0.000000 -0.473015
#
#
# Mechanical properties :
#
#
# Convention : Reuss Voigt Hill
#
# Bulk Modulus (GPa) = 24.14072 47.51930 35.83001
# Shear Modulus (GPa) = -16.55366 25.82048 4.63341
#
# Velocity S-wave (km/s) = -2.98207 3.72437 1.57769
# Velocity P-wave (km/s) = 1.05431 6.63493 4.75047
#
# Compressibility (1/GPa) = 0.04142378
#
# Stress axis : x y z
#
# Youngs Moduli (GPa) = 44.66694 101.63989 112.94770
#
# Poissons Ratio (x) = -0.09653 -0.13994
# Poissons Ratio (y) = -0.04242 0.22780
# Poissons Ratio (z) = -0.05534 0.20499
#
# Static dielectric constant tensor:
#      x y z
#    x 3.033570 0.000000 -0.270930 
#    y 0.000000 3.487800 0.000000 
#    z -0.270930 0.000000 4.392140 
# 
# 
# High freq. dielectric constant tensor:
#      x y z
#    x 1.655850 0.000000 -0.011430 
#    y 0.000000 1.692270 0.000000 
#    z -0.011430 0.000000 1.757850 
# 
# From -- ./inp_files/9062.got.cif
#   From: 2010.06.25/outbox.cif.g09.slc.cpg/sg10_5_cif.got.tgz:9062.got - 2010.06.27 22:07:45.
