data_PCOD8058995
_publ_section_title
;
Structure prediction by ZEFSAII (Michael W. Deem and Ramdas Pophale) SiO2 
 PCOD8058995
Probable space group: P 2/M
;
_chemical_formula_sum "Si O2"
_cell_formula_units_Z 30
_cell_length_a 12.289546
_cell_length_b 17.368100
_cell_length_c 8.026115
_cell_angle_alpha 90.000000
_cell_angle_beta 81.702283
_cell_angle_gamma 90.000000
_cell_volume 1695.208690
_symmetry_space_group_name_H-M "P 2/M"
_symmetry_group_IT_number 10
_symmetry_cell_setting 'monoclinic'
loop_
_space_group_symop_operation_xyz
x,y,z
-x,y,-z
-x,-y,-z
x,-y,z
loop_
_atom_site_type_symbol
_atom_site_label
_atom_site_fract_x
_atom_site_fract_y
_atom_site_fract_z
Si Si1 0.206321 0.676559 0.442654
Si Si2 0.876904 0.344971 0.193059
Si Si3 0.719664 0.913261 0.317201
Si Si4 0.493045 0.917004 0.193856
Si Si5 0.613893 0.203265 0.572303
Si Si6 0.000000 0.787845 0.500000
Si Si7 0.075374 0.831003 0.827773
Si Si8 0.880580 0.590645 0.843718
O O1 0.197318 0.634999 0.627143
O O2 0.325896 0.716785 0.398059
O O3 0.107769 0.736687 0.451373
O O4 0.197787 0.616838 0.290982
O O5 0.874765 0.254067 0.160544
O O6 0.000965 0.370564 0.204256
O O7 0.830465 0.386130 0.036196
O O8 0.616023 0.902753 0.223427
O O9 0.705046 0.849577 0.462927
O O10 0.827850 0.893359 0.188370
O O11 0.728820 0.000000 0.386768
O O12 0.415435 0.845942 0.258012
O O13 0.450726 0.000000 0.277095
O O14 0.500000 0.922901 0.000000
O O15 0.500000 0.219231 0.500000
O O16 0.011358 0.838976 0.664781
O O17 0.000000 0.852260 0.000000
O O18 0.894756 0.500000 0.832633
#
# Coordination Sequence:
#
# PCOD8058995 Si02
#       8
#     4   4   4   4   4   2   4   4
#     4  11  19  35  56  80 113 144 183 221 276 333
#     4  10  18  33  51  79 112 150 177 217 271 331
#     4  10  20  35  54  77 110 149 186 233 283 323
#     4   9  19  35  54  81 109 138 186 243 293 323
#     4  10  20  36  58  81 107 144 191 234 276 328
#     4  10  18  34  52  78 102 148 184 216 270 330
#     4  11  19  33  55  75 112 152 189 222 272 331
#     4  11  21  33  54  86 115 141 181 226 276 330
#
# _framework density 17.696936999999998
#
# number of rings (size 3 to 8) (size 9 to 14) (size 15 to 20)
#    0.000    1.733    6.667    1.200    0.000    5.600 
#    0.000    0.333    0.000    0.400    0.000    0.933 
#    0.000    0.000    0.000    0.000    0.000    0.000 
#
# Total GULP energy -371788.826809 kJ/mol
# GULP energy per Si atom -12392.960894 kJ/mol
# Density = 1.765666 g / cm^3
# Si number density = 17.696937 Si / 1000 Ang^3
#
#
#
# Elastic Constant Matrix: (Units=GPa)
#
#
# Indices 1 2 3 4 5 6 
#
# 1 48.4741 25.4879 24.8450 0.0000 -9.5372 0.0000
# 2 25.4879 58.8243 22.9469 0.0000 3.8852 0.0000
# 3 24.8450 22.9469 113.9161 0.0000 -2.4038 0.0000
# 4 0.0000 0.0000 0.0000 20.1380 0.0000 2.1492
# 5 -9.5372 3.8852 -2.4038 0.0000 13.4828 0.0000
# 6 0.0000 0.0000 0.0000 2.1492 0.0000 7.9226
#
#
#
# Elastic Compliance Matrix: (Units=1/GPa)
#
#
# Indices 1 2 3 4 5 6 
#
# 1 0.037565 -0.016665 -0.004190 0.000000 0.030627 0.000000
# 2 -0.016665 0.026339 -0.002088 0.000000 -0.019750 0.000000
# 3 -0.004190 -0.002088 0.010101 0.000000 -0.000561 0.000000
# 4 0.000000 0.000000 0.000000 0.051138 0.000000 -0.013873
# 5 0.030627 -0.019750 -0.000561 0.000000 0.101424 0.000000
# 6 0.000000 0.000000 0.000000 -0.013873 0.000000 0.129985
#
#
# Mechanical properties :
#
#
# Convention : Reuss Voigt Hill
#
# Bulk Modulus (GPa) = 35.56140 40.86379 38.21260
# Shear Modulus (GPa) = 12.14147 18.17099 15.15623
#
# Velocity S-wave (km/s) = 2.62215 3.20783 2.92966
# Velocity P-wave (km/s) = 5.41349 6.07134 5.75183
#
# Compressibility (1/GPa) = 0.02812037
#
# Stress axis : x y z
#
# Youngs Moduli (GPa) = 26.62023 37.96585 99.00109
#
# Poissons Ratio (x) = 0.63270 0.41479
# Poissons Ratio (y) = 0.44363 0.20670
# Poissons Ratio (z) = 0.11153 0.07927
#
# Static dielectric constant tensor:
#      x y z
#    x 3.050830 0.000000 -0.041060 
#    y 0.000000 3.272580 0.000000 
#    z -0.041060 0.000000 3.602560 
# 
# 
# High freq. dielectric constant tensor:
#      x y z
#    x 1.656500 0.000000 0.001850 
#    y 0.000000 1.667340 0.000000 
#    z 0.001850 0.000000 1.694830 
# 
# From -- ./inp_files/25004.got.cif
#   From: 2010.06.25/outbox.cif.g09.slc.cpg/sg10_13_cif.got.tgz:25004.got - 2010.06.27 22:07:45.
