data_PCOD8058561
_publ_section_title
;
Structure prediction by ZEFSAII (Michael W. Deem and Ramdas Pophale) SiO2 
 PCOD8058561
Probable space group: P 2/M
;
_chemical_formula_sum "Si O2"
_cell_formula_units_Z 32
_cell_length_a 12.430938
_cell_length_b 9.192554
_cell_length_c 20.382761
_cell_angle_alpha 90.000000
_cell_angle_beta 65.429958
_cell_angle_gamma 90.000000
_cell_volume 2118.281482
_symmetry_space_group_name_H-M "P 2/M"
_symmetry_group_IT_number 10
_symmetry_cell_setting 'monoclinic'
loop_
_space_group_symop_operation_xyz
x,y,z
-x,y,-z
-x,-y,-z
x,-y,z
loop_
_atom_site_type_symbol
_atom_site_label
_atom_site_fract_x
_atom_site_fract_y
_atom_site_fract_z
Si Si1 0.994010 0.667713 0.822830
Si Si2 0.237074 0.332138 0.297628
Si Si3 0.073185 0.834284 0.420923
Si Si4 0.727025 0.668818 0.919350
Si Si5 0.043452 0.165327 0.286149
Si Si6 0.887569 0.668101 0.072098
Si Si7 0.555147 0.334664 0.841843
Si Si8 0.671711 0.827424 0.064474
O O1 0.993524 0.500000 0.802944
O O2 0.039425 0.760013 0.747971
O O3 0.083275 0.698154 0.859441
O O4 0.862165 0.720016 0.875318
O O5 0.200384 0.500000 0.310331
O O6 0.375655 0.314231 0.245345
O O7 0.195910 0.254614 0.376505
O O8 0.166263 0.256482 0.255261
O O9 0.993009 0.826875 0.374189
O O10 0.000000 0.765462 0.500000
O O11 0.108267 0.000000 0.428869
O O12 0.725421 0.500000 0.940425
O O13 0.646868 0.697790 0.876692
O O14 0.671578 0.762106 0.991904
O O15 0.068293 0.000000 0.259268
O O16 0.853101 0.500000 0.068688
O O17 0.780500 0.771009 0.079892
O O18 0.000000 0.710120 0.000000
O O19 0.507355 0.500000 0.859631
O O20 0.448189 0.222151 0.869179
O O21 0.676156 0.000000 0.059732
#
# Coordination Sequence:
#
# PCOD8058561 Si02
#       8
#     4   4   4   4   4   4   4   4
#     4  10  18  31  52  70  86 114 158 199 231 279
#     4   9  16  28  45  66  89 119 158 188 216 257
#     4   8  15  27  42  65  99 133 156 176 217 274
#     4  10  18  33  51  66  85 116 154 190 236 284
#     4   9  17  27  42  66  96 126 148 179 227 272
#     4  10  20  37  55  65  81 116 158 198 242 288
#     4  10  20  34  50  64  88 123 156 191 229 281
#     4  12  25  34  44  66  92 115 151 200 241 281
#
# _framework density 15.106585000000001
#
# number of rings (size 3 to 8) (size 9 to 14) (size 15 to 20)
#    0.750    1.500    2.500    1.875    0.000    4.500 
#    0.000    0.000    0.000    0.000    0.000    0.000 
#    0.000    1.000    0.000   11.250    0.000    5.000 
#
# Total GULP energy -396507.212337 kJ/mol
# GULP energy per Si atom -12390.850386 kJ/mol
# Density = 1.507220 g / cm^3
# Si number density = 15.106585 Si / 1000 Ang^3
#
#
#
# Elastic Constant Matrix: (Units=GPa)
#
#
# Indices 1 2 3 4 5 6 
#
# 1 56.4590 35.8952 31.8463 0.0000 -5.3169 0.0000
# 2 35.8952 88.8915 49.9074 0.0000 -3.4614 0.0000
# 3 31.8463 49.9074 98.5242 0.0000 -2.1582 0.0000
# 4 0.0000 0.0000 0.0000 21.7038 0.0000 3.1499
# 5 -5.3169 -3.4614 -2.1582 0.0000 13.6155 0.0000
# 6 0.0000 0.0000 0.0000 3.1499 0.0000 17.5586
#
#
#
# Elastic Compliance Matrix: (Units=1/GPa)
#
#
# Indices 1 2 3 4 5 6 
#
# 1 0.025703 -0.007710 -0.004240 0.000000 0.007405 0.000000
# 2 -0.007710 0.018136 -0.006683 0.000000 0.000541 0.000000
# 3 -0.004240 -0.006683 0.014884 0.000000 -0.000996 0.000000
# 4 0.000000 0.000000 0.000000 0.047307 0.000000 -0.008487
# 5 0.007405 0.000541 -0.000996 0.000000 0.076317 0.000000
# 6 0.000000 0.000000 0.000000 -0.008487 0.000000 0.058475
#
#
# Mechanical properties :
#
#
# Convention : Reuss Voigt Hill
#
# Bulk Modulus (GPa) = 46.60608 53.24137 49.92372
# Shear Modulus (GPa) = 17.52913 18.99064 18.25988
#
# Velocity S-wave (km/s) = 3.41011 3.54942 3.48046
# Velocity P-wave (km/s) = 6.81348 7.21929 7.01932
#
# Compressibility (1/GPa) = 0.02145643
#
# Stress axis : x y z
#
# Youngs Moduli (GPa) = 38.90608 55.13850 67.18719
#
# Poissons Ratio (x) = 0.42512 0.28489
# Poissons Ratio (y) = 0.29997 0.44900
# Poissons Ratio (z) = 0.16497 0.36848
#
# Static dielectric constant tensor:
#      x y z
#    x 2.689720 0.000000 0.041290 
#    y 0.000000 2.908160 0.000000 
#    z 0.041290 0.000000 2.877920 
# 
# 
# High freq. dielectric constant tensor:
#      x y z
#    x 1.542490 0.000000 0.006320 
#    y 0.000000 1.583580 0.000000 
#    z 0.006320 0.000000 1.564940 
# 
# From -- ./inp_files/83346.got.cif
#   From: 2010.06.25/outbox.cif.g09.slc.cpg/sg10_42_cif.got.tgz:83346.got - 2010.06.27 22:07:45.
