data_PCOD8058162
_publ_section_title
;
Structure prediction by ZEFSAII (Michael W. Deem and Ramdas Pophale) SiO2 
 PCOD8058162
Probable space group: P 2/M
;
_chemical_formula_sum "Si O2"
_cell_formula_units_Z 32
_cell_length_a 7.777074
_cell_length_b 18.862749
_cell_length_c 13.325219
_cell_angle_alpha 90.000000
_cell_angle_beta 73.033176
_cell_angle_gamma 90.000000
_cell_volume 1869.686062
_symmetry_space_group_name_H-M "P 2/M"
_symmetry_group_IT_number 10
_symmetry_cell_setting 'monoclinic'
loop_
_space_group_symop_operation_xyz
x,y,z
-x,y,-z
-x,-y,-z
x,-y,z
loop_
_atom_site_type_symbol
_atom_site_label
_atom_site_fract_x
_atom_site_fract_y
_atom_site_fract_z
Si Si1 0.292070 0.168858 0.809763
Si Si2 0.740594 0.319542 0.123935
Si Si3 0.562148 0.578963 0.875704
Si Si4 0.490498 0.079736 0.616179
Si Si5 0.135471 0.319542 0.123935
Si Si6 0.106677 0.920264 0.383821
Si Si7 0.101833 0.831142 0.190237
Si Si8 0.206021 0.920990 0.000000
O O1 0.359434 0.249026 0.816682
O O2 0.368685 0.135865 0.694898
O O3 0.333991 0.117988 0.896972
O O4 0.079425 0.175505 0.841150
O O5 0.593968 0.381817 0.161392
O O6 0.922835 0.339377 0.154329
O O7 0.788414 0.305530 0.000000
O O8 0.586638 0.500000 0.826724
O O9 0.755360 0.618183 0.838608
O O10 0.500000 0.574498 0.000000
O O11 0.500000 0.105163 0.500000
O O12 0.683766 0.080339 0.632467
O O13 0.407495 0.000000 0.635898
O O14 0.176116 0.249026 0.183318
O O15 0.063583 0.864135 0.305102
O O16 0.000000 0.894837 0.500000
O O17 0.043393 0.000000 0.364102
O O18 0.230963 0.882012 0.103028
O O19 0.281825 0.000000 1.000000
O O20 0.000000 0.923422 0.000000
#
# Coordination Sequence:
#
# PCOD8058162 Si02
#       8
#     4   4   4   4   4   4   4   4
#     4  10  18  30  48  69  94 128 164 202 248 295
#     4   9  17  30  47  69  99 134 166 198 244 295
#     4   9  18  30  46  70  98 132 168 200 240 293
#     4  10  21  35  49  66  90 125 167 212 258 297
#     4   9  17  30  47  69  99 134 166 198 244 295
#     4  10  21  35  49  66  90 125 167 212 258 297
#     4  10  18  30  48  69  94 128 164 202 248 295
#     4   9  16  26  43  67  93 124 164 201 238 292
#
# _framework density 17.115172000000001
#
# number of rings (size 3 to 8) (size 9 to 14) (size 15 to 20)
#    0.000    2.500    1.250    1.500    1.750    3.000 
#    0.000    3.125    0.000    2.250    0.000    0.000 
#    0.000    1.000    0.500    0.000    0.000    0.000 
#
# Total GULP energy -396676.473767 kJ/mol
# GULP energy per Si atom -12396.139805 kJ/mol
# Density = 1.707622 g / cm^3
# Si number density = 17.115172 Si / 1000 Ang^3
#
#
#
# Elastic Constant Matrix: (Units=GPa)
#
#
# Indices 1 2 3 4 5 6 
#
# 1 61.4988 48.4969 9.6661 0.0000 -0.4218 0.0000
# 2 48.4969 158.6630 51.2264 0.0000 0.0597 0.0000
# 3 9.6661 51.2264 75.7198 0.0000 0.7327 0.0000
# 4 0.0000 0.0000 0.0000 17.1738 0.0000 -0.1012
# 5 -0.4218 0.0597 0.7327 0.0000 16.2956 0.0000
# 6 0.0000 0.0000 0.0000 -0.1012 0.0000 21.8046
#
#
#
# Elastic Compliance Matrix: (Units=1/GPa)
#
#
# Indices 1 2 3 4 5 6 
#
# 1 0.021711 -0.007344 0.002192 0.000000 0.000490 0.000000
# 2 -0.007344 0.010549 -0.006200 0.000000 0.000050 0.000000
# 3 0.002192 -0.006200 0.017128 0.000000 -0.000691 0.000000
# 4 0.000000 0.000000 0.000000 0.058230 0.000000 0.000270
# 5 0.000490 0.000050 -0.000691 0.000000 0.061410 0.000000
# 6 0.000000 0.000000 0.000000 0.000270 0.000000 0.045863
#
#
# Mechanical properties :
#
#
# Convention : Reuss Voigt Hill
#
# Bulk Modulus (GPa) = 37.47521 57.18449 47.32985
# Shear Modulus (GPa) = 20.28495 23.48760 21.88628
#
# Velocity S-wave (km/s) = 3.44641 3.70851 3.57986
# Velocity P-wave (km/s) = 6.14658 7.19872 6.69335
#
# Compressibility (1/GPa) = 0.02668431
#
# Stress axis : x y z
#
# Youngs Moduli (GPa) = 46.06033 94.79505 58.38507
#
# Poissons Ratio (x) = 0.69618 -0.12799
# Poissons Ratio (y) = 0.33827 0.36197
# Poissons Ratio (z) = -0.10097 0.58770
#
# Static dielectric constant tensor:
#      x y z
#    x 3.156040 0.000000 -0.009180 
#    y 0.000000 3.358550 0.000000 
#    z -0.009180 0.000000 2.736110 
# 
# 
# High freq. dielectric constant tensor:
#      x y z
#    x 1.660030 0.000000 -0.000860 
#    y 0.000000 1.650980 0.000000 
#    z -0.000860 0.000000 1.620750 
# 
# From -- ./inp_files/62173.got.cif
#   From: 2010.06.25/outbox.cif.g09.slc.cpg/sg10_32_cif.got.tgz:62173.got - 2010.06.27 22:07:45.
