data_PCOD8058643
_publ_section_title
;
Structure prediction by ZEFSAII (Michael W. Deem and Ramdas Pophale) SiO2 
 PCOD8058643
Probable space group: P 2/M
;
_chemical_formula_sum "Si O2"
_cell_formula_units_Z 32
_cell_length_a 19.890922
_cell_length_b 9.124908
_cell_length_c 24.671767
_cell_angle_alpha 90.000000
_cell_angle_beta 157.009728
_cell_angle_gamma 90.000000
_cell_volume 1748.992395
_symmetry_space_group_name_H-M "P 2/M"
_symmetry_group_IT_number 10
_symmetry_cell_setting 'monoclinic'
loop_
_space_group_symop_operation_xyz
x,y,z
-x,y,-z
-x,-y,-z
x,-y,z
loop_
_atom_site_type_symbol
_atom_site_label
_atom_site_fract_x
_atom_site_fract_y
_atom_site_fract_z
Si Si1 0.163546 0.330202 0.655141
Si Si2 0.462347 0.671166 0.596557
Si Si3 0.203777 0.331329 0.914916
Si Si4 0.855506 0.331160 0.716526
Si Si5 0.321032 0.827685 0.590771
Si Si6 0.336322 0.834640 0.339778
Si Si7 0.032373 0.667747 0.676032
Si Si8 0.450223 0.171914 0.805171
O O1 0.193468 0.500000 0.663861
O O2 0.135308 0.301788 0.697485
O O3 0.333713 0.243574 0.765060
O O4 0.000000 0.270449 0.500000
O O5 0.498229 0.500000 0.630295
O O6 0.284315 0.703207 0.433452
O O7 0.451410 0.746668 0.646963
O O8 0.623065 0.741545 0.683843
O O9 0.256029 0.500000 0.962500
O O10 0.163123 0.301313 0.821855
O O11 0.040297 0.289283 0.830120
O O12 0.356444 0.227950 0.046878
O O13 0.843191 0.500000 0.724505
O O14 0.823816 0.235909 0.746941
O O15 0.375936 0.783543 0.691801
O O16 0.127425 0.775539 0.437286
O O17 0.332077 0.000000 0.588368
O O18 0.500000 0.829751 0.500000
O O19 0.288724 0.000000 0.287812
O O20 0.963662 0.500000 0.627494
O O21 0.448522 0.000000 0.812992
#
# Coordination Sequence:
#
# PCOD8058643 Si02
#       8
#     4   4   4   4   4   4   4   4
#     4  10  20  36  62  86 108 142 185 231 278 329
#     4  10  18  31  53  80 110 142 184 233 274 321
#     4  10  21  38  58  81 112 147 187 231 274 326
#     4   9  17  31  52  78 108 144 182 225 274 323
#     4  11  22  35  54  81 112 146 183 228 279 331
#     4   9  17  28  45  76 114 147 180 220 271 328
#     4  10  20  37  60  86 109 139 186 232 277 328
#     4  11  25  40  55  80 115 150 185 225 278 338
#
# _framework density 18.296249
#
# number of rings (size 3 to 8) (size 9 to 14) (size 15 to 20)
#    0.000    2.000    2.500    1.500    0.000    5.750 
#    0.000    2.500    0.000    0.750    0.000    5.250 
#    0.000    0.000    0.000    0.000    0.000    0.000 
#
# Total GULP energy -396931.800877 kJ/mol
# GULP energy per Si atom -12404.118777 kJ/mol
# Density = 1.825461 g / cm^3
# Si number density = 18.296249 Si / 1000 Ang^3
#
#
#
# Elastic Constant Matrix: (Units=GPa)
#
#
# Indices 1 2 3 4 5 6 
#
# 1 119.8097 62.4950 27.6495 0.0000 19.3437 0.0000
# 2 62.4950 87.8955 26.0293 0.0000 6.8538 0.0000
# 3 27.6495 26.0293 49.2544 0.0000 14.6140 0.0000
# 4 0.0000 0.0000 0.0000 23.3556 0.0000 1.6844
# 5 19.3437 6.8538 14.6140 0.0000 19.9742 0.0000
# 6 0.0000 0.0000 0.0000 1.6844 0.0000 31.0719
#
#
#
# Elastic Compliance Matrix: (Units=1/GPa)
#
#
# Indices 1 2 3 4 5 6 
#
# 1 0.015479 -0.010133 0.000104 0.000000 -0.011590 0.000000
# 2 -0.010133 0.020130 -0.007423 0.000000 0.008337 0.000000
# 3 0.000104 -0.007423 0.029941 0.000000 -0.019460 0.000000
# 4 0.000000 0.000000 0.000000 0.042984 0.000000 -0.002330
# 5 -0.011590 0.008337 -0.019460 0.000000 0.072665 0.000000
# 6 0.000000 0.000000 0.000000 -0.002330 0.000000 0.032310
#
#
# Mechanical properties :
#
#
# Convention : Reuss Voigt Hill
#
# Bulk Modulus (GPa) = 32.63067 54.36745 43.49906
# Shear Modulus (GPa) = 19.33261 24.26606 21.79933
#
# Velocity S-wave (km/s) = 3.25413 3.64577 3.45550
# Velocity P-wave (km/s) = 5.65619 6.89215 6.30453
#
# Compressibility (1/GPa) = 0.03064602
#
# Stress axis : x y z
#
# Youngs Moduli (GPa) = 64.60184 49.67638 33.39897
#
# Poissons Ratio (x) = 0.50338 -0.00348
# Poissons Ratio (y) = 0.65463 0.24794
# Poissons Ratio (z) = -0.00674 0.36877
#
# Static dielectric constant tensor:
#      x y z
#    x 3.567980 0.000000 0.058250 
#    y 0.000000 3.387530 0.000000 
#    z 0.058250 0.000000 3.039090 
# 
# 
# High freq. dielectric constant tensor:
#      x y z
#    x 1.724720 0.000000 0.011200 
#    y 0.000000 1.712730 0.000000 
#    z 0.011200 0.000000 1.675180 
# 
# From -- ./inp_files/86106.got.cif
#   From: 2010.06.25/outbox.cif.g09.slc.cpg/sg10_44_cif.got.tgz:86106.got - 2010.06.27 22:07:45.
