data_PCOD8058218
_publ_section_title
;
Structure prediction by ZEFSAII (Michael W. Deem and Ramdas Pophale) SiO2 
 PCOD8058218
Probable space group: P 2/M
;
_chemical_formula_sum "Si O2"
_cell_formula_units_Z 28
_cell_length_a 28.231188
_cell_length_b 8.720675
_cell_length_c 17.079651
_cell_angle_alpha 90.000000
_cell_angle_beta 23.279484
_cell_angle_gamma 90.000000
_cell_volume 1661.856170
_symmetry_space_group_name_H-M "P 2/M"
_symmetry_group_IT_number 10
_symmetry_cell_setting 'monoclinic'
loop_
_space_group_symop_operation_xyz
x,y,z
-x,y,-z
-x,-y,-z
x,-y,z
loop_
_atom_site_type_symbol
_atom_site_label
_atom_site_fract_x
_atom_site_fract_y
_atom_site_fract_z
Si Si1 0.844146 0.824525 0.897646
Si Si2 0.447815 0.678355 0.818862
Si Si3 0.460794 0.820147 0.174460
Si Si4 0.202440 0.175531 0.210740
Si Si5 0.327706 0.678440 0.242610
Si Si6 0.083313 0.322187 0.532712
Si Si7 0.593754 0.318910 0.292635
O O1 0.850930 0.803416 0.794184
O O2 0.957635 0.733288 0.761221
O O3 0.852759 0.000000 0.910514
O O4 0.720823 0.757523 0.118974
O O5 0.475467 0.500000 0.785252
O O6 0.542231 0.769995 0.729659
O O7 0.457272 0.734283 0.714441
O O8 0.314822 0.712438 0.052399
O O9 0.353203 0.734353 0.292371
O O10 0.441218 0.000000 0.196732
O O11 0.588552 0.773735 0.943437
O O12 0.102692 0.224086 0.424526
O O13 0.243010 0.000000 0.162912
O O14 0.360076 0.500000 0.184522
O O15 0.188935 0.710702 0.434402
O O16 0.075972 0.500000 0.521750
O O17 0.500000 0.263389 0.500000
O O18 0.612806 0.500000 0.264577
#
# Coordination Sequence:
#
# PCOD8058218 Si02
#       7
#     4   4   4   4   4   4   4
#     4  10  21  33  47  69  97 128 160 197 240 289
#     4  10  18  30  49  71  97 128 161 199 242 287
#     4  11  20  30  46  68  95 129 166 202 241 283
#     4  10  19  30  44  65  95 129 164 199 234 278
#     4  10  20  32  46  65  94 130 169 206 239 277
#     4  11  21  31  46  67  94 131 167 199 236 280
#     4   9  19  36  56  76  97 123 159 202 245 291
#
# _framework density 16.84863
#
# number of rings (size 3 to 8) (size 9 to 14) (size 15 to 20)
#    0.000    1.857    1.429    4.714    0.000    6.000 
#    0.000    0.000    0.000    0.000    0.000    1.000 
#    0.000    8.000    0.000    0.000    0.000    0.000 
#
# Total GULP energy -347232.385778 kJ/mol
# GULP energy per Si atom -12401.156635 kJ/mol
# Density = 1.681028 g / cm^3
# Si number density = 16.848630 Si / 1000 Ang^3
#
#
#
# Elastic Constant Matrix: (Units=GPa)
#
#
# Indices 1 2 3 4 5 6 
#
# 1 78.7155 29.5065 52.1061 0.0000 -11.2279 0.0000
# 2 29.5065 69.2546 32.3280 0.0000 -8.9224 0.0000
# 3 52.1061 32.3280 96.2077 0.0000 -7.4954 0.0000
# 4 0.0000 0.0000 0.0000 15.7598 0.0000 -1.3652
# 5 -11.2279 -8.9224 -7.4954 0.0000 20.8614 0.0000
# 6 0.0000 0.0000 0.0000 -1.3652 0.0000 21.8862
#
#
#
# Elastic Compliance Matrix: (Units=1/GPa)
#
#
# Indices 1 2 3 4 5 6 
#
# 1 0.021608 -0.003731 -0.009946 0.000000 0.006460 0.000000
# 2 -0.003731 0.018384 -0.003807 0.000000 0.004487 0.000000
# 3 -0.009946 -0.003807 0.016992 0.000000 -0.000876 0.000000
# 4 0.000000 0.000000 0.000000 0.063797 0.000000 0.003979
# 5 0.006460 0.004487 -0.000876 0.000000 0.053017 0.000000
# 6 0.000000 0.000000 0.000000 0.003979 0.000000 0.045939
#
#
# Mechanical properties :
#
#
# Convention : Reuss Voigt Hill
#
# Bulk Modulus (GPa) = 45.42188 52.45100 48.93644
# Shear Modulus (GPa) = 19.08078 20.38395 19.73237
#
# Velocity S-wave (km/s) = 3.36889 3.48203 3.42593
# Velocity P-wave (km/s) = 6.49229 6.88218 6.69008
#
# Compressibility (1/GPa) = 0.02201582
#
# Stress axis : x y z
#
# Youngs Moduli (GPa) = 46.27988 54.39373 58.85196
#
# Poissons Ratio (x) = 0.20295 0.58532
# Poissons Ratio (y) = 0.17268 0.22406
# Poissons Ratio (z) = 0.46028 0.20709
#
# Static dielectric constant tensor:
#      x y z
#    x 3.306200 0.000000 -0.146520 
#    y 0.000000 3.214180 0.000000 
#    z -0.146520 0.000000 2.886420 
# 
# 
# High freq. dielectric constant tensor:
#      x y z
#    x 1.641670 0.000000 -0.022100 
#    y 0.000000 1.664060 0.000000 
#    z -0.022100 0.000000 1.608300 
# 
# From -- ./inp_files/80637.got.cif
#   From: 2010.06.25/outbox.cif.g09.slc.cpg/sg10_41_cif.got.tgz:80637.got - 2010.06.27 22:07:45.
