data_PCOD8058246
_publ_section_title
;
Structure prediction by ZEFSAII (Michael W. Deem and Ramdas Pophale) SiO2 
 PCOD8058246
Probable space group: P 2/M
;
_chemical_formula_sum "Si O2"
_cell_formula_units_Z 24
_cell_length_a 17.874676
_cell_length_b 11.965206
_cell_length_c 13.057431
_cell_angle_alpha 90.000000
_cell_angle_beta 26.916268
_cell_angle_gamma 90.000000
_cell_volume 1264.197665
_symmetry_space_group_name_H-M "P 2/M"
_symmetry_group_IT_number 10
_symmetry_cell_setting 'monoclinic'
loop_
_space_group_symop_operation_xyz
x,y,z
-x,y,-z
-x,-y,-z
x,-y,z
loop_
_atom_site_type_symbol
_atom_site_label
_atom_site_fract_x
_atom_site_fract_y
_atom_site_fract_z
Si Si1 0.171382 0.370717 0.344953
Si Si2 0.972547 0.131213 0.915698
Si Si3 0.113841 0.500000 0.759264
Si Si4 0.437143 0.632959 0.851176
Si Si5 0.686111 0.500000 0.308078
Si Si6 0.328889 0.721227 0.767451
Si Si7 0.200673 0.704625 0.532520
O O1 0.182020 0.500000 0.364803
O O2 0.186392 0.296568 0.427900
O O3 0.000000 0.342601 0.500000
O O4 0.319967 0.338082 0.089165
O O5 0.126596 0.178996 0.662791
O O6 0.971415 0.000000 0.899997
O O7 0.000000 0.164213 0.000000
O O8 0.796213 0.176131 0.090726
O O9 0.298433 0.500000 0.586511
O O10 0.087667 0.607452 0.720620
O O11 0.000000 0.500000 0.000000
O O12 0.444441 0.500000 0.825451
O O13 0.364699 0.695436 0.841421
O O14 0.612090 0.687926 0.662126
O O15 0.500000 0.500000 0.500000
O O16 0.765587 0.613029 0.165832
O O17 0.500000 0.748573 0.500000
#
# Coordination Sequence:
#
# PCOD8058246 Si02
#       7
#     4   4   2   4   2   4   4
#     4  10  21  36  57  88 126 163 196 233 297 372
#     4  11  25  43  60  83 117 163 214 254 292 347
#     4  12  22  30  51  85 115 147 189 233 298 360
#     4  11  21  36  60  93 130 157 190 238 303 378
#     4  10  18  30  49  81 118 143 174 227 296 356
#     4  11  21  36  61  89 124 159 194 248 304 360
#     4  12  21  38  59  86 122 159 196 248 300 357
#
# _framework density 18.984373000000001
#
# number of rings (size 3 to 8) (size 9 to 14) (size 15 to 20)
#    0.000    1.000    2.500    7.000    0.000    1.667 
#    0.000    0.833    0.000    6.500    0.000    0.000 
#    0.000    0.000    0.000    0.000    0.000    0.000 
#
# Total GULP energy -297590.016485 kJ/mol
# GULP energy per Si atom -12399.584020 kJ/mol
# Density = 1.894116 g / cm^3
# Si number density = 18.984373 Si / 1000 Ang^3
#
#
#
# Elastic Constant Matrix: (Units=GPa)
#
#
# Indices 1 2 3 4 5 6 
#
# 1 134.6112 57.2999 62.9592 0.0000 17.2261 0.0000
# 2 57.2999 92.5068 58.5229 0.0000 2.0032 0.0000
# 3 62.9592 58.5229 146.7686 0.0000 5.1908 0.0000
# 4 0.0000 0.0000 0.0000 32.9604 0.0000 14.6163
# 5 17.2261 2.0032 5.1908 0.0000 38.9947 0.0000
# 6 0.0000 0.0000 0.0000 14.6163 0.0000 61.4156
#
#
#
# Elastic Compliance Matrix: (Units=1/GPa)
#
#
# Indices 1 2 3 4 5 6 
#
# 1 0.011521 -0.005367 -0.002644 0.000000 -0.004462 0.000000
# 2 -0.005367 0.016957 -0.004534 0.000000 0.002103 0.000000
# 3 -0.002644 -0.004534 0.009752 0.000000 0.000103 0.000000
# 4 0.000000 0.000000 0.000000 0.033919 0.000000 -0.008072
# 5 -0.004462 0.002103 0.000103 0.000000 0.027494 0.000000
# 6 0.000000 0.000000 0.000000 -0.008072 0.000000 0.018204
#
#
# Mechanical properties :
#
#
# Convention : Reuss Voigt Hill
#
# Bulk Modulus (GPa) = 76.10212 81.27228 78.68720
# Shear Modulus (GPa) = 33.94064 39.68112 36.81088
#
# Velocity S-wave (km/s) = 4.23285 4.57683 4.40820
# Velocity P-wave (km/s) = 8.00394 8.41623 8.21267
#
# Compressibility (1/GPa) = 0.01314024
#
# Stress axis : x y z
#
# Youngs Moduli (GPa) = 86.79766 58.97331 102.54372
#
# Poissons Ratio (x) = 0.31649 0.27117
# Poissons Ratio (y) = 0.46582 0.46490
# Poissons Ratio (z) = 0.22953 0.26736
#
# Static dielectric constant tensor:
#      x y z
#    x 3.864710 0.000000 -0.088320 
#    y 0.000000 3.306590 0.000000 
#    z -0.088320 0.000000 3.702720 
# 
# 
# High freq. dielectric constant tensor:
#      x y z
#    x 1.758400 0.000000 -0.004060 
#    y 0.000000 1.691860 0.000000 
#    z -0.004060 0.000000 1.757310 
# 
# From -- ./inp_files/53617.got.cif
#   From: 2010.06.25/outbox.cif.g09.slc.cpg/sg10_27_cif.got.tgz:53617.got - 2010.06.27 22:07:45.
