data_PCOD8058008
_publ_section_title
;
Structure prediction by ZEFSAII (Michael W. Deem and Ramdas Pophale) SiO2 
 PCOD8058008
Probable space group: P 2/M
;
_chemical_formula_sum "Si O2"
_cell_formula_units_Z 32
_cell_length_a 21.690343
_cell_length_b 9.066177
_cell_length_c 17.021136
_cell_angle_alpha 90.000000
_cell_angle_beta 146.510410
_cell_angle_gamma 90.000000
_cell_volume 1846.925656
_symmetry_space_group_name_H-M "P 2/M"
_symmetry_group_IT_number 10
_symmetry_cell_setting 'monoclinic'
loop_
_space_group_symop_operation_xyz
x,y,z
-x,y,-z
-x,-y,-z
x,-y,z
loop_
_atom_site_type_symbol
_atom_site_label
_atom_site_fract_x
_atom_site_fract_y
_atom_site_fract_z
Si Si1 0.910217 0.173942 0.509776
Si Si2 0.149898 0.171523 0.384387
Si Si3 0.155962 0.173827 0.727732
Si Si4 0.750724 0.674503 0.794295
Si Si5 0.096957 0.172096 0.928832
Si Si6 0.681239 0.674432 0.547664
Si Si7 0.432774 0.671544 0.280519
Si Si8 0.248895 0.327416 0.964939
O O1 0.859561 0.236432 0.536888
O O2 0.831662 0.214401 0.351664
O O3 0.035434 0.232670 0.628837
O O4 0.921909 0.000000 0.529599
O O5 0.249245 0.257964 0.449077
O O6 0.035264 0.198812 0.215733
O O7 0.180911 0.000000 0.418731
O O8 0.249051 0.260853 0.877062
O O9 0.170860 0.000000 0.756977
O O10 0.766313 0.500000 0.822869
O O11 0.736922 0.719282 0.689364
O O12 0.642478 0.732496 0.727608
O O13 0.860069 0.755772 0.944396
O O14 0.153547 0.247954 0.914111
O O15 0.126690 0.000000 0.958429
O O16 0.679495 0.500000 0.535149
O O17 0.555970 0.742956 0.410974
O O18 0.449234 0.500000 0.313300
O O19 0.370496 0.703323 0.131916
O O20 0.222284 0.500000 0.935281
#
# Coordination Sequence:
#
# PCOD8058008 Si02
#       8
#     4   4   4   4   4   4   4   4
#     4   8  15  29  49  70  96 131 163 191 229 285
#     4  10  20  34  49  68  99 133 162 194 235 284
#     4   9  15  28  51  74  96 126 163 194 233 287
#     4   9  18  33  53  74  95 119 157 210 251 281
#     4  10  19  32  50  70  97 132 163 192 237 294
#     4  10  20  34  52  71  92 127 168 200 239 290
#     4   8  16  32  52  71  93 125 162 199 242 287
#     4  10  18  29  49  76 103 125 153 201 248 284
#
# _framework density 17.326089
#
# number of rings (size 3 to 8) (size 9 to 14) (size 15 to 20)
#    0.000    2.750    1.250    2.625    0.000    3.500 
#    0.000    7.500    0.000    4.500    0.000    5.250 
#    0.000    0.000    0.000    0.000    0.000    0.000 
#
# Total GULP energy -396675.603803 kJ/mol
# GULP energy per Si atom -12396.112619 kJ/mol
# Density = 1.728665 g / cm^3
# Si number density = 17.326089 Si / 1000 Ang^3
#
#
#
# Elastic Constant Matrix: (Units=GPa)
#
#
# Indices 1 2 3 4 5 6 
#
# 1 106.5991 25.7618 49.7600 0.0000 -15.8966 0.0000
# 2 25.7618 45.4724 31.7634 0.0000 -7.3848 0.0000
# 3 49.7600 31.7634 67.0250 0.0000 -18.2590 0.0000
# 4 0.0000 0.0000 0.0000 13.3696 0.0000 -9.5211
# 5 -15.8966 -7.3848 -18.2590 0.0000 27.2685 0.0000
# 6 0.0000 0.0000 0.0000 -9.5211 0.0000 23.1022
#
#
#
# Elastic Compliance Matrix: (Units=1/GPa)
#
#
# Indices 1 2 3 4 5 6 
#
# 1 0.014444 -0.001101 -0.009771 0.000000 0.001579 0.000000
# 2 -0.001101 0.033036 -0.015382 0.000000 -0.001995 0.000000
# 3 -0.009771 -0.015382 0.032751 0.000000 0.012068 0.000000
# 4 0.000000 0.000000 0.000000 0.105868 0.000000 0.043631
# 5 0.001579 -0.001995 0.012068 0.000000 0.045134 0.000000
# 6 0.000000 0.000000 0.000000 0.043631 0.000000 0.061268
#
#
# Mechanical properties :
#
#
# Convention : Reuss Voigt Hill
#
# Bulk Modulus (GPa) = 36.07163 48.18523 42.12843
# Shear Modulus (GPa) = 14.11438 20.20214 17.15826
#
# Velocity S-wave (km/s) = 2.85727 3.41837 3.15034
# Velocity P-wave (km/s) = 5.63469 6.59178 6.13194
#
# Compressibility (1/GPa) = 0.02772262
#
# Stress axis : x y z
#
# Youngs Moduli (GPa) = 69.23459 30.27031 30.53332
#
# Poissons Ratio (x) = 0.03333 0.29834
# Poissons Ratio (y) = 0.07623 0.46966
# Poissons Ratio (z) = 0.67650 0.46561
#
# Static dielectric constant tensor:
#      x y z
#    x 3.209150 0.000000 -0.202750 
#    y 0.000000 2.981430 0.000000 
#    z -0.202750 0.000000 3.402290 
# 
# 
# High freq. dielectric constant tensor:
#      x y z
#    x 1.649670 0.000000 -0.020080 
#    y 0.000000 1.645040 0.000000 
#    z -0.020080 0.000000 1.672140 
# 
# From -- ./inp_files/54892.got.cif
#   From: 2010.06.25/outbox.cif.g09.slc.cpg/sg10_28_cif.got.tgz:54892.got - 2010.06.27 22:07:45.
