data_PCOD8058226
_publ_section_title
;
Structure prediction by ZEFSAII (Michael W. Deem and Ramdas Pophale) SiO2 
 PCOD8058226
Probable space group: P 2/M
;
_chemical_formula_sum "Si O2"
_cell_formula_units_Z 32
_cell_length_a 19.862254
_cell_length_b 9.117085
_cell_length_c 24.366345
_cell_angle_alpha 90.000000
_cell_angle_beta 24.037017
_cell_angle_gamma 90.000000
_cell_volume 1797.288845
_symmetry_space_group_name_H-M "P 2/M"
_symmetry_group_IT_number 10
_symmetry_cell_setting 'monoclinic'
loop_
_space_group_symop_operation_xyz
x,y,z
-x,y,-z
-x,-y,-z
x,-y,z
loop_
_atom_site_type_symbol
_atom_site_label
_atom_site_fract_x
_atom_site_fract_y
_atom_site_fract_z
Si Si1 0.326426 0.831021 0.462203
Si Si2 0.735508 0.674607 0.924580
Si Si3 0.824689 0.170229 0.746493
Si Si4 0.974736 0.829986 0.231630
Si Si5 0.809707 0.173882 0.549493
Si Si6 0.466044 0.664212 0.612909
Si Si7 0.397867 0.170448 0.192594
Si Si8 0.767813 0.333968 0.304720
O O1 0.163693 0.803279 0.619370
O O2 0.290248 0.764492 0.428857
O O3 0.490548 0.758139 0.365649
O O4 0.370072 0.000000 0.425906
O O5 0.742314 0.500000 0.919218
O O6 0.771354 0.733662 0.837453
O O7 0.866433 0.736415 0.870465
O O8 0.557642 0.728749 0.076753
O O9 0.689331 0.192588 0.800605
O O10 0.000817 0.228014 0.593095
O O11 0.835188 0.000000 0.757137
O O12 0.911685 0.773233 0.219158
O O13 0.022361 0.000000 0.191152
O O14 0.724555 0.227833 0.668649
O O15 0.811029 0.000000 0.546132
O O16 0.431756 0.500000 0.658564
O O17 0.303306 0.722202 0.701277
O O18 0.619625 0.668682 0.457926
O O19 0.445783 0.000000 0.165548
O O20 0.835870 0.500000 0.248701
#
# Coordination Sequence:
#
# PCOD8058226 Si02
#       8
#     4   4   4   4   4   4   4   4
#     4   9  16  27  46  71 100 128 162 210 251 293
#     4  12  24  36  51  73 105 140 171 209 256 306
#     4  10  19  36  59  80 100 127 170 215 257 308
#     4  10  18  30  49  72  98 129 170 214 251 298
#     4   9  17  33  55  80 104 129 167 214 260 302
#     4   8  14  24  39  62  97 135 167 197 238 298
#     4  10  21  36  57  78 100 133 170 212 259 306
#     4   8  14  25  40  63  97 133 165 201 246 294
#
# _framework density 17.804594999999999
#
# number of rings (size 3 to 8) (size 9 to 14) (size 15 to 20)
#    0.000    2.500    1.250    3.000    0.000    4.500 
#    0.000    3.750    0.000    1.500    0.000    0.875 
#    0.000    7.000    0.000    0.000    0.000    0.000 
#
# Total GULP energy -396688.278125 kJ/mol
# GULP energy per Si atom -12396.508691 kJ/mol
# Density = 1.776407 g / cm^3
# Si number density = 17.804595 Si / 1000 Ang^3
#
#
#
# Elastic Constant Matrix: (Units=GPa)
#
#
# Indices 1 2 3 4 5 6 
#
# 1 81.7879 41.7183 31.8255 0.0000 -32.8103 0.0000
# 2 41.7183 81.5053 35.9064 0.0000 -15.9559 0.0000
# 3 31.8255 35.9064 59.4473 0.0000 -6.3909 0.0000
# 4 0.0000 0.0000 0.0000 14.8339 0.0000 -9.2472
# 5 -32.8103 -15.9559 -6.3909 0.0000 21.1373 0.0000
# 6 0.0000 0.0000 0.0000 -9.2472 0.0000 22.2324
#
#
#
# Elastic Compliance Matrix: (Units=1/GPa)
#
#
# Indices 1 2 3 4 5 6 
#
# 1 0.045416 -0.004409 -0.014914 0.000000 0.062659 0.000000
# 2 -0.004409 0.019417 -0.008814 0.000000 0.005148 0.000000
# 3 -0.014914 -0.008814 0.027830 0.000000 -0.021389 0.000000
# 4 0.000000 0.000000 0.000000 0.091011 0.000000 0.037855
# 5 0.062659 0.005148 -0.021389 0.000000 0.141990 0.000000
# 6 0.000000 0.000000 0.000000 0.037855 0.000000 0.060724
#
#
# Mechanical properties :
#
#
# Convention : Reuss Voigt Hill
#
# Bulk Modulus (GPa) = 27.48161 49.07123 38.27642
# Shear Modulus (GPa) = 10.99404 19.19341 15.09373
#
# Velocity S-wave (km/s) = 2.48762 3.28686 2.91476
# Velocity P-wave (km/s) = 4.87028 6.48270 5.73346
#
# Compressibility (1/GPa) = 0.03638797
#
# Stress axis : x y z
#
# Youngs Moduli (GPa) = 22.01883 51.50240 35.93235
#
# Poissons Ratio (x) = 0.22709 0.53590
# Poissons Ratio (y) = 0.09709 0.31670
# Poissons Ratio (z) = 0.32839 0.45393
#
# Static dielectric constant tensor:
#      x y z
#    x 3.636710 0.000000 -0.236110 
#    y 0.000000 3.203310 0.000000 
#    z -0.236110 0.000000 3.113670 
# 
# 
# High freq. dielectric constant tensor:
#      x y z
#    x 1.700290 0.000000 -0.024450 
#    y 0.000000 1.669310 0.000000 
#    z -0.024450 0.000000 1.654430 
# 
# From -- ./inp_files/93587.got.cif
#   From: 2010.06.25/outbox.cif.g09.slc.cpg/sg10_47_cif.got.tgz:93587.got - 2010.06.27 22:07:45.
