data_PCOD8058744
_publ_section_title
;
Structure prediction by ZEFSAII (Michael W. Deem and Ramdas Pophale) SiO2 
 PCOD8058744
Probable space group: P 2/M
;
_chemical_formula_sum "Si O2"
_cell_formula_units_Z 30
_cell_length_a 9.214520
_cell_length_b 9.162232
_cell_length_c 24.096156
_cell_angle_alpha 90.000000
_cell_angle_beta 53.303932
_cell_angle_gamma 90.000000
_cell_volume 1631.161043
_symmetry_space_group_name_H-M "P 2/M"
_symmetry_group_IT_number 10
_symmetry_cell_setting 'monoclinic'
loop_
_space_group_symop_operation_xyz
x,y,z
-x,y,-z
-x,-y,-z
x,-y,z
loop_
_atom_site_type_symbol
_atom_site_label
_atom_site_fract_x
_atom_site_fract_y
_atom_site_fract_z
Si Si1 0.520368 0.335085 0.929719
Si Si2 0.143984 0.337094 0.419529
Si Si3 0.111547 0.334673 0.614403
Si Si4 0.500000 0.239199 0.500000
Si Si5 0.166817 0.325586 0.723391
Si Si6 0.167042 0.168674 0.999537
Si Si7 0.483407 0.162198 0.380095
Si Si8 0.875569 0.830003 0.861019
O O1 0.541462 0.500000 0.902081
O O2 0.343844 0.261795 0.942376
O O3 0.697545 0.241484 0.873958
O O4 0.500000 0.335282 0.000000
O O5 0.224304 0.500000 0.388383
O O6 0.292553 0.223174 0.404506
O O7 0.000000 0.357397 0.500000
O O8 0.037682 0.262126 0.391702
O O9 0.051675 0.500000 0.631400
O O10 0.316156 0.333164 0.543640
O O11 0.095270 0.268438 0.679870
O O12 0.495113 0.146956 0.444364
O O13 0.162839 0.500000 0.730250
O O14 0.371803 0.270072 0.680965
O O15 0.050452 0.251544 0.797853
O O16 0.212070 0.000000 0.977509
O O17 0.117549 0.193857 0.074775
O O18 0.000000 0.222428 0.000000
O O19 0.510146 0.000000 0.349783
O O20 0.878476 0.000000 0.844633
#
# Coordination Sequence:
#
# PCOD8058744 Si02
#       8
#     4   4   4   2   4   4   4   4
#     4   9  17  30  51  79 108 138 174 214 253 299
#     4  10  19  34  54  77 101 130 165 212 266 318
#     4   9  18  32  53  77 101 129 170 215 262 311
#     4  10  18  32  50  76 101 134 165 216 259 312
#     4  10  21  37  56  76 101 138 179 219 259 312
#     4   9  18  33  54  82 113 142 174 215 262 309
#     4  11  22  35  51  76 106 137 173 215 264 317
#     4  10  19  34  56  79 107 141 176 215 260 311
#
# _framework density 18.391808000000001
#
# number of rings (size 3 to 8) (size 9 to 14) (size 15 to 20)
#    0.000    2.267    1.333    2.000    0.000    3.733 
#    0.000    2.667    0.000    0.000    0.000    0.000 
#    0.000    0.000    0.000    0.000    0.000    0.000 
#
# Total GULP energy -371828.218387 kJ/mol
# GULP energy per Si atom -12394.273946 kJ/mol
# Density = 1.834995 g / cm^3
# Si number density = 18.391808 Si / 1000 Ang^3
#
#
#
# Elastic Constant Matrix: (Units=GPa)
#
#
# Indices 1 2 3 4 5 6 
#
# 1 128.5532 49.9810 30.1176 0.0000 -19.0058 0.0000
# 2 49.9810 109.8701 40.0369 0.0000 -11.6356 0.0000
# 3 30.1176 40.0369 72.7486 0.0000 -16.1793 0.0000
# 4 0.0000 0.0000 0.0000 29.8476 0.0000 -11.1410
# 5 -19.0058 -11.6356 -16.1793 0.0000 19.8405 0.0000
# 6 0.0000 0.0000 0.0000 -11.1410 0.0000 28.8024
#
#
#
# Elastic Compliance Matrix: (Units=1/GPa)
#
#
# Indices 1 2 3 4 5 6 
#
# 1 0.010469 -0.003755 -0.000644 0.000000 0.007302 0.000000
# 2 -0.003755 0.012791 -0.005640 0.000000 -0.000694 0.000000
# 3 -0.000644 -0.005640 0.019842 0.000000 0.012256 0.000000
# 4 0.000000 0.000000 0.000000 0.039157 0.000000 0.015146
# 5 0.007302 -0.000694 0.012256 0.000000 0.066984 0.000000
# 6 0.000000 0.000000 0.000000 0.015146 0.000000 0.040578
#
#
# Mechanical properties :
#
#
# Convention : Reuss Voigt Hill
#
# Bulk Modulus (GPa) = 43.42887 61.27144 52.35015
# Shear Modulus (GPa) = 22.98081 28.43386 25.70734
#
# Velocity S-wave (km/s) = 3.53868 3.93619 3.74272
# Velocity P-wave (km/s) = 6.35301 7.35153 6.87044
#
# Compressibility (1/GPa) = 0.02302616
#
# Stress axis : x y z
#
# Youngs Moduli (GPa) = 95.52017 78.17873 50.39791
#
# Poissons Ratio (x) = 0.29352 0.03245
# Poissons Ratio (y) = 0.35863 0.28422
# Poissons Ratio (z) = 0.06151 0.44090
#
# Static dielectric constant tensor:
#      x y z
#    x 3.386330 0.000000 0.031450 
#    y 0.000000 3.322850 0.000000 
#    z 0.031450 0.000000 3.191540 
# 
# 
# High freq. dielectric constant tensor:
#      x y z
#    x 1.714770 0.000000 -0.012000 
#    y 0.000000 1.708490 0.000000 
#    z -0.012000 0.000000 1.691140 
# 
# From -- ./inp_files/91833.got.cif
#   From: 2010.06.25/outbox.cif.g09.slc.cpg/sg10_46_cif.got.tgz:91833.got - 2010.06.27 22:07:45.
