data_PCOD8058516
_publ_section_title
;
Structure prediction by ZEFSAII (Michael W. Deem and Ramdas Pophale) SiO2 
 PCOD8058516
Probable space group: P 2/M
;
_chemical_formula_sum "Si O2"
_cell_formula_units_Z 24
_cell_length_a 5.196003
_cell_length_b 20.085792
_cell_length_c 13.257778
_cell_angle_alpha 90.000000
_cell_angle_beta 80.923096
_cell_angle_gamma 90.000000
_cell_volume 1366.332180
_symmetry_space_group_name_H-M "P 2/M"
_symmetry_group_IT_number 10
_symmetry_cell_setting 'monoclinic'
loop_
_space_group_symop_operation_xyz
x,y,z
-x,y,-z
-x,-y,-z
x,-y,z
loop_
_atom_site_type_symbol
_atom_site_label
_atom_site_fract_x
_atom_site_fract_y
_atom_site_fract_z
Si Si1 0.125209 0.424395 0.764903
Si Si2 0.179887 0.806953 0.714165
Si Si3 0.222664 0.923138 0.565189
Si Si4 0.418824 0.381756 0.116634
Si Si5 0.019159 0.685641 0.615639
Si Si6 0.659582 0.749498 0.782022
O O1 0.127867 0.500000 0.726119
O O2 0.375885 0.411793 0.818050
O O3 0.140521 0.377531 0.665759
O O4 0.867072 0.410742 0.845752
O O5 0.183505 0.880706 0.668437
O O6 0.199711 0.751205 0.623740
O O7 0.421183 0.798702 0.774646
O O8 0.911964 0.794986 0.793758
O O9 0.500000 0.905947 0.500000
O O10 0.000000 0.903309 0.500000
O O11 0.202576 0.000000 0.598101
O O12 0.413707 0.300965 0.123713
O O13 0.500000 0.403060 0.000000
O O14 0.000000 0.668242 0.500000
O O15 0.733590 0.702907 0.680082
#
# Coordination Sequence:
#
# PCOD8058516 Si02
#       6
#     4   4   4   4   4   4
#     4  11  23  38  52  77 105 129 170 216 256 317
#     4  10  18  31  51  69 102 133 171 205 244 287
#     4  10  20  31  45  73 108 141 177 207 238 288
#     4  11  21  39  58  75 101 130 164 216 275 317
#     4   9  20  33  52  73  97 139 171 209 246 294
#     4   9  19  33  49  77  98 124 172 218 241 299
#
# _framework density 17.565273999999999
#
# number of rings (size 3 to 8) (size 9 to 14) (size 15 to 20)
#    1.000    1.000    1.667    2.500    2.333    2.333 
#    0.000    0.000    0.000    3.000    0.000    0.000 
#    0.000    4.000    0.000    0.000    0.000    0.000 
#
# Total GULP energy -297474.030989 kJ/mol
# GULP energy per Si atom -12394.751291 kJ/mol
# Density = 1.752529 g / cm^3
# Si number density = 17.565274 Si / 1000 Ang^3
#
#
#
# Elastic Constant Matrix: (Units=GPa)
#
#
# Indices 1 2 3 4 5 6 
#
# 1 102.8463 19.4499 -5.8851 0.0000 3.3611 0.0000
# 2 19.4499 85.6834 3.3573 0.0000 1.1136 0.0000
# 3 -5.8851 3.3573 41.2380 0.0000 1.1306 0.0000
# 4 0.0000 0.0000 0.0000 12.5839 0.0000 2.4334
# 5 3.3611 1.1136 1.1306 0.0000 16.2466 0.0000
# 6 0.0000 0.0000 0.0000 2.4334 0.0000 33.3437
#
#
#
# Elastic Compliance Matrix: (Units=1/GPa)
#
#
# Indices 1 2 3 4 5 6 
#
# 1 0.010342 -0.002388 0.001728 0.000000 -0.002096 0.000000
# 2 -0.002388 0.012268 -0.001333 0.000000 -0.000254 0.000000
# 3 0.001728 -0.001333 0.024659 0.000000 -0.001982 0.000000
# 4 0.000000 0.000000 0.000000 0.080604 0.000000 -0.005882
# 5 -0.002096 -0.000254 -0.001982 0.000000 0.062140 0.000000
# 6 0.000000 0.000000 0.000000 -0.005882 0.000000 0.030420
#
#
# Mechanical properties :
#
#
# Convention : Reuss Voigt Hill
#
# Bulk Modulus (GPa) = 23.10334 29.29020 26.19677
# Shear Modulus (GPa) = 20.93384 26.62457 23.77921
#
# Velocity S-wave (km/s) = 3.45595 3.89749 3.68334
# Velocity P-wave (km/s) = 5.39502 6.07990 5.74767
#
# Compressibility (1/GPa) = 0.04328378
#
# Stress axis : x y z
#
# Youngs Moduli (GPa) = 96.69078 81.50968 40.55335
#
# Poissons Ratio (x) = 0.19465 -0.07007
# Poissons Ratio (y) = 0.23091 0.05404
# Poissons Ratio (z) = -0.16707 0.10862
#
# Static dielectric constant tensor:
#      x y z
#    x 3.378770 0.000000 -0.030200 
#    y 0.000000 3.199060 0.000000 
#    z -0.030200 0.000000 2.843320 
# 
# 
# High freq. dielectric constant tensor:
#      x y z
#    x 1.698130 0.000000 0.000500 
#    y 0.000000 1.670210 0.000000 
#    z 0.000500 0.000000 1.632800 
# 
# From -- ./inp_files/39509.got.cif
#   From: 2010.06.25/outbox.cif.g09.slc.cpg/sg10_20_cif.got.tgz:39509.got - 2010.06.27 22:07:45.
