data_PCOD8058563
_publ_section_title
;
Structure prediction by ZEFSAII (Michael W. Deem and Ramdas Pophale) SiO2 
 PCOD8058563
Probable space group: P 2/M
;
_chemical_formula_sum "Si O2"
_cell_formula_units_Z 32
_cell_length_a 20.574301
_cell_length_b 8.471595
_cell_length_c 20.182561
_cell_angle_alpha 90.000000
_cell_angle_beta 29.565721
_cell_angle_gamma 90.000000
_cell_volume 1735.740049
_symmetry_space_group_name_H-M "P 2/M"
_symmetry_group_IT_number 10
_symmetry_cell_setting 'monoclinic'
loop_
_space_group_symop_operation_xyz
x,y,z
-x,y,-z
-x,-y,-z
x,-y,z
loop_
_atom_site_type_symbol
_atom_site_label
_atom_site_fract_x
_atom_site_fract_y
_atom_site_fract_z
Si Si1 0.150047 0.325798 0.843470
Si Si2 0.201631 0.312458 0.167063
Si Si3 0.674041 0.686784 0.679319
Si Si4 0.643142 0.814828 0.850240
Si Si5 0.086488 0.687910 0.619586
Si Si6 0.395205 0.312269 0.879901
Si Si7 0.059008 0.688875 0.790193
Si Si8 0.775749 0.688809 0.085953
O O1 0.210142 0.500000 0.780898
O O2 0.149860 0.242320 0.770662
O O3 0.231605 0.241781 0.831555
O O4 0.000000 0.338302 0.000000
O O5 0.209657 0.500000 0.168651
O O6 0.247008 0.229007 0.193837
O O7 0.053794 0.253736 0.283567
O O8 0.295089 0.252534 0.024968
O O9 0.673230 0.500000 0.673806
O O10 0.686467 0.732097 0.744423
O O11 0.797790 0.757406 0.529115
O O12 0.539812 0.757162 0.766614
O O13 0.637696 0.000000 0.843080
O O14 0.500000 0.750585 0.000000
O O15 0.087524 0.500000 0.618878
O O16 0.110155 0.750081 0.673763
O O17 0.396986 0.500000 0.879210
O O18 0.346375 0.251985 0.850822
O O19 0.062452 0.500000 0.790742
O O20 0.908921 0.747141 0.931973
O O21 0.777922 0.500000 0.088550
#
# Coordination Sequence:
#
# PCOD8058563 Si02
#       8
#     4   4   4   4   4   4   4   4
#     4   7  10  14  25  48  80 116 149 179 214 257
#     4  10  18  31  52  72  89 117 153 187 223 265
#     4  10  20  33  49  70  92 118 152 188 227 270
#     4  11  23  37  52  70  92 117 145 185 232 275
#     4   9  17  28  44  67  93 118 151 192 225 259
#     4   9  15  24  42  64  86 114 151 189 220 256
#     4   8  11  18  32  53  83 117 149 182 220 259
#     4   8  11  17  31  55  83 113 152 188 215 254
#
# _framework density 18.435939999999999
#
# number of rings (size 3 to 8) (size 9 to 14) (size 15 to 20)
#    0.000    3.000    2.500    1.875    0.000    1.000 
#    0.000    3.125    0.000    0.750    0.000    5.250 
#    0.000    0.000    0.000    6.750    0.000    7.500 
#
# Total GULP energy -396433.384925 kJ/mol
# GULP energy per Si atom -12388.543279 kJ/mol
# Density = 1.839398 g / cm^3
# Si number density = 18.435940 Si / 1000 Ang^3
#
#
#
# Elastic Constant Matrix: (Units=GPa)
#
#
# Indices 1 2 3 4 5 6 
#
# 1 194.7172 -1.2612 79.3938 0.0000 7.5099 0.0000
# 2 -1.2612 3.9313 5.4456 0.0000 -2.1694 0.0000
# 3 79.3938 5.4456 126.9710 0.0000 1.9470 0.0000
# 4 0.0000 0.0000 0.0000 5.6870 0.0000 -2.9360
# 5 7.5099 -2.1694 1.9470 0.0000 26.2601 0.0000
# 6 0.0000 0.0000 0.0000 -2.9360 0.0000 -1.7060
#
#
#
# Elastic Compliance Matrix: (Units=1/GPa)
#
#
# Indices 1 2 3 4 5 6 
#
# 1 0.007210 0.008488 -0.004857 0.000000 -0.001000 0.000000
# 2 0.008488 0.295362 -0.018333 0.000000 0.023332 0.000000
# 3 -0.004857 -0.018333 0.011714 0.000000 -0.000994 0.000000
# 4 0.000000 0.000000 0.000000 0.093113 0.000000 -0.160242
# 5 -0.001000 0.023332 -0.000994 0.000000 0.040368 0.000000
# 6 0.000000 0.000000 0.000000 -0.160242 0.000000 -0.310385
#
#
# Mechanical properties :
#
#
# Convention : Reuss Voigt Hill
#
# Bulk Modulus (GPa) = 3.51022 54.75289 29.13155
# Shear Modulus (GPa) = 19.10255 22.18429 20.64342
#
# Velocity S-wave (km/s) = 3.22243 3.47265 3.34988
# Velocity P-wave (km/s) = 3.96908 6.77071 5.54960
#
# Compressibility (1/GPa) = 0.28488237
#
# Stress axis : x y z
#
# Youngs Moduli (GPa) = 138.70586 3.38568 85.36639
#
# Poissons Ratio (x) = -0.02874 0.41460
# Poissons Ratio (y) = -1.17738 1.56503
# Poissons Ratio (z) = 0.67366 0.06207
#
# Static dielectric constant tensor:
#      x y z
#    x 3.929010 0.000000 0.065170 
#    y 0.000000 2.676780 0.000000 
#    z 0.065170 0.000000 3.381770 
# 
# 
# High freq. dielectric constant tensor:
#      x y z
#    x 1.743810 0.000000 0.008940 
#    y 0.000000 1.643040 0.000000 
#    z 0.008940 0.000000 1.681780 
# 
# From -- ./inp_files/86114.got.cif
#   From: 2010.06.25/outbox.cif.g09.slc.cpg/sg10_44_cif.got.tgz:86114.got - 2010.06.27 22:07:45.
