data_PCOD8058003
_publ_section_title
;
Structure prediction by ZEFSAII (Michael W. Deem and Ramdas Pophale) SiO2 
 PCOD8058003
Probable space group: P 2/M
;
_chemical_formula_sum "Si O2"
_cell_formula_units_Z 24
_cell_length_a 21.256062
_cell_length_b 9.311691
_cell_length_c 8.054510
_cell_angle_alpha 90.000000
_cell_angle_beta 54.971081
_cell_angle_gamma 90.000000
_cell_volume 1305.453596
_symmetry_space_group_name_H-M "P 2/M"
_symmetry_group_IT_number 10
_symmetry_cell_setting 'monoclinic'
loop_
_space_group_symop_operation_xyz
x,y,z
-x,y,-z
-x,-y,-z
x,-y,z
loop_
_atom_site_type_symbol
_atom_site_label
_atom_site_fract_x
_atom_site_fract_y
_atom_site_fract_z
Si Si1 0.414439 0.170275 0.943745
Si Si2 0.018151 0.155640 0.286203
Si Si3 0.160954 0.332017 0.963407
Si Si4 0.316746 0.828356 0.776786
Si Si5 0.587150 0.170341 0.684889
Si Si6 0.923757 0.655031 0.225086
O O1 0.361731 0.226650 0.872933
O O2 0.615877 0.219298 0.826381
O O3 0.416347 0.000000 0.934453
O O4 0.500875 0.770738 0.786116
O O5 0.087830 0.266517 0.167901
O O6 0.000000 0.124663 0.500000
O O7 0.938131 0.219426 0.334667
O O8 0.036789 0.000000 0.173115
O O9 0.167943 0.500000 0.998541
O O10 0.234800 0.246139 0.910735
O O11 0.148754 0.310343 0.783725
O O12 0.358965 0.772002 0.545319
O O13 0.307221 0.000000 0.790561
O O14 0.585880 0.000000 0.677951
O O15 0.910667 0.500000 0.332582
O O16 0.000000 0.646265 0.000000
#
# Coordination Sequence:
#
# PCOD8058003 Si02
#       6
#     4   4   4   4   4   4
#     4   8  14  26  46  73 103 130 167 213 254 308
#     4  10  20  34  54  80 102 123 160 210 256 298
#     4  10  21  36  51  70 101 137 170 203 247 305
#     4  10  18  29  49  75 103 133 168 213 262 301
#     4   8  14  26  46  73 101 132 167 209 261 305
#     4   8  16  32  52  70  92 127 166 198 235 292
#
# _framework density 18.384414
#
# number of rings (size 3 to 8) (size 9 to 14) (size 15 to 20)
#    0.000    3.000    0.000    3.500    0.000    7.000 
#    3.000    0.000    0.000    2.000    0.000    2.333 
#    0.000    0.000    0.000    0.000    0.000    0.000 
#
# Total GULP energy -297317.111053 kJ/mol
# GULP energy per Si atom -12388.212961 kJ/mol
# Density = 1.834257 g / cm^3
# Si number density = 18.384414 Si / 1000 Ang^3
#
#
#
# Elastic Constant Matrix: (Units=GPa)
#
#
# Indices 1 2 3 4 5 6 
#
# 1 132.6249 42.2894 47.9959 0.0000 9.0086 0.0000
# 2 42.2894 70.4265 24.2516 0.0000 4.6433 0.0000
# 3 47.9959 24.2516 66.1359 0.0000 12.4683 0.0000
# 4 0.0000 0.0000 0.0000 3.1824 0.0000 5.6372
# 5 9.0086 4.6433 12.4683 0.0000 25.3180 0.0000
# 6 0.0000 0.0000 0.0000 5.6372 0.0000 18.8225
#
#
#
# Elastic Compliance Matrix: (Units=1/GPa)
#
#
# Indices 1 2 3 4 5 6 
#
# 1 0.011378 -0.004565 -0.006590 0.000000 0.000034 0.000000
# 2 -0.004565 0.018083 -0.003306 0.000000 -0.000064 0.000000
# 3 -0.006590 -0.003306 0.022663 0.000000 -0.008210 0.000000
# 4 0.000000 0.000000 0.000000 0.669306 0.000000 -0.200453
# 5 0.000034 -0.000064 -0.008210 0.000000 0.043540 0.000000
# 6 0.000000 0.000000 0.000000 -0.200453 0.000000 0.113162
#
#
# Mechanical properties :
#
#
# Convention : Reuss Voigt Hill
#
# Bulk Modulus (GPa) = 43.09911 55.36234 49.23073
# Shear Modulus (GPa) = 5.46575 19.77461 12.62018
#
# Velocity S-wave (km/s) = 1.72612 3.28322 2.62288
# Velocity P-wave (km/s) = 5.24088 6.67472 6.00078
#
# Compressibility (1/GPa) = 0.02320233
#
# Stress axis : x y z
#
# Youngs Moduli (GPa) = 87.88698 55.29996 44.12572
#
# Poissons Ratio (x) = 0.25247 0.29077
# Poissons Ratio (y) = 0.40124 0.14587
# Poissons Ratio (z) = 0.57915 0.18281
#
# Static dielectric constant tensor:
#      x y z
#    x 3.811260 0.000000 0.227740 
#    y 0.000000 3.243710 0.000000 
#    z 0.227740 0.000000 3.260700 
# 
# 
# High freq. dielectric constant tensor:
#      x y z
#    x 1.720430 0.000000 0.013030 
#    y 0.000000 1.681840 0.000000 
#    z 0.013030 0.000000 1.688320 
# 
# From -- ./inp_files/33773.got.cif
#   From: 2010.06.25/outbox.cif.g09.slc.cpg/sg10_17_cif.got.tgz:33773.got - 2010.06.27 22:07:45.
