data_PCOD8058165
_publ_section_title
;
Structure prediction by ZEFSAII (Michael W. Deem and Ramdas Pophale) SiO2 
 PCOD8058165
Probable space group: P 2/M
;
_chemical_formula_sum "Si O2"
_cell_formula_units_Z 32
_cell_length_a 12.786048
_cell_length_b 17.477781
_cell_length_c 24.630708
_cell_angle_alpha 90.000000
_cell_angle_beta 161.872529
_cell_angle_gamma 90.000000
_cell_volume 1712.554409
_symmetry_space_group_name_H-M "P 2/M"
_symmetry_group_IT_number 10
_symmetry_cell_setting 'monoclinic'
loop_
_space_group_symop_operation_xyz
x,y,z
-x,y,-z
-x,-y,-z
x,-y,z
loop_
_atom_site_type_symbol
_atom_site_label
_atom_site_fract_x
_atom_site_fract_y
_atom_site_fract_z
Si Si1 0.729420 0.820809 0.410151
Si Si2 0.081773 0.731163 0.678909
Si Si3 0.216703 0.584646 0.318422
Si Si4 0.691613 0.413753 0.453097
Si Si5 0.882751 0.268501 0.182737
Si Si6 0.897207 0.913005 0.887458
Si Si7 0.855996 0.223202 0.056875
Si Si8 0.274251 0.313614 0.178656
O O1 0.496349 0.891851 0.312551
O O2 0.502829 0.755924 0.268379
O O3 0.000000 0.849755 0.500000
O O4 0.891235 0.788695 0.545092
O O5 0.947689 0.746986 0.674692
O O6 0.992397 0.642950 0.619716
O O7 0.479507 0.743227 0.870265
O O8 0.500000 0.610350 0.500000
O O9 0.077427 0.500000 0.263312
O O10 0.378606 0.586667 0.339299
O O11 0.915142 0.643976 0.177817
O O12 0.836857 0.500000 0.517744
O O13 0.523417 0.384316 0.314023
O O14 0.004593 0.215923 0.191993
O O15 0.500000 0.248608 0.000000
O O16 0.130165 0.860006 0.964276
O O17 0.953178 0.000000 0.896497
O O18 0.000000 0.899575 0.000000
O O19 0.095775 0.283018 0.144802
O O20 0.000000 0.340368 0.000000
#
# Coordination Sequence:
#
# PCOD8058165 Si02
#       8
#     4   4   4   4   4   4   4   4
#     4  10  19  34  56  83 109 137 172 217 262 311
#     4  10  20  33  54  79 106 143 183 223 260 309
#     4  10  18  30  48  70 103 139 174 225 280 314
#     4  10  20  33  48  72 105 142 181 227 278 316
#     4  10  20  32  51  79 104 138 184 223 257 308
#     4  10  21  37  59  86 111 138 169 208 263 317
#     4  10  19  36  55  77 108 138 177 218 262 312
#     4  10  19  32  53  74  98 140 185 224 263 320
#
# _framework density 18.685537
#
# number of rings (size 3 to 8) (size 9 to 14) (size 15 to 20)
#    0.000    2.000    2.500    3.000    0.000    0.750 
#    0.000    3.125    0.000   17.625    0.000    0.000 
#    0.000    0.000    0.000    0.000    0.000    0.000 
#
# Total GULP energy -396565.340370 kJ/mol
# GULP energy per Si atom -12392.666887 kJ/mol
# Density = 1.864301 g / cm^3
# Si number density = 18.685537 Si / 1000 Ang^3
#
#
#
# Elastic Constant Matrix: (Units=GPa)
#
#
# Indices 1 2 3 4 5 6 
#
# 1 90.0962 50.6566 32.9761 0.0000 -5.7783 0.0000
# 2 50.6566 110.4453 30.7069 0.0000 -10.7453 0.0000
# 3 32.9761 30.7069 66.6733 0.0000 -11.5986 0.0000
# 4 0.0000 0.0000 0.0000 19.6320 0.0000 -1.6228
# 5 -5.7783 -10.7453 -11.5986 0.0000 28.7742 0.0000
# 6 0.0000 0.0000 0.0000 -1.6228 0.0000 21.0423
#
#
#
# Elastic Compliance Matrix: (Units=1/GPa)
#
#
# Indices 1 2 3 4 5 6 
#
# 1 0.016507 -0.006148 -0.005544 0.000000 -0.001216 0.000000
# 2 -0.006148 0.012793 -0.002403 0.000000 0.002574 0.000000
# 3 -0.005544 -0.002403 0.019893 0.000000 0.006008 0.000000
# 4 0.000000 0.000000 0.000000 0.051264 0.000000 0.003954
# 5 -0.001216 0.002574 0.006008 0.000000 0.037892 0.000000
# 6 0.000000 0.000000 0.000000 0.003954 0.000000 0.047828
#
#
# Mechanical properties :
#
#
# Convention : Reuss Voigt Hill
#
# Bulk Modulus (GPa) = 47.61598 55.09933 51.35766
# Shear Modulus (GPa) = 22.58678 24.08139 23.33408
#
# Velocity S-wave (km/s) = 3.48053 3.59384 3.53764
# Velocity P-wave (km/s) = 6.45680 6.83905 6.65067
#
# Compressibility (1/GPa) = 0.02100135
#
# Stress axis : x y z
#
# Youngs Moduli (GPa) = 60.57934 78.16974 50.26985
#
# Poissons Ratio (x) = 0.48059 0.27871
# Poissons Ratio (y) = 0.37244 0.12081
# Poissons Ratio (z) = 0.33587 0.18786
#
# Static dielectric constant tensor:
#      x y z
#    x 3.777010 0.000000 -0.101410 
#    y 0.000000 3.281540 0.000000 
#    z -0.101410 0.000000 3.519830 
# 
# 
# High freq. dielectric constant tensor:
#      x y z
#    x 1.730240 0.000000 -0.006430 
#    y 0.000000 1.695580 0.000000 
#    z -0.006430 0.000000 1.722930 
# 
# From -- ./inp_files/57092.got.cif
#   From: 2010.06.25/outbox.cif.g09.slc.cpg/sg10_29_cif.got.tgz:57092.got - 2010.06.27 22:07:45.
