data_PCOD8058857
_publ_section_title
;
Structure prediction by ZEFSAII (Michael W. Deem and Ramdas Pophale) SiO2 
 PCOD8058857
Probable space group: P 2/M
;
_chemical_formula_sum "Si O2"
_cell_formula_units_Z 32
_cell_length_a 31.414598
_cell_length_b 9.333492
_cell_length_c 12.207947
_cell_angle_alpha 90.000000
_cell_angle_beta 151.858867
_cell_angle_gamma 90.000000
_cell_volume 1688.237632
_symmetry_space_group_name_H-M "P 2/M"
_symmetry_group_IT_number 10
_symmetry_cell_setting 'monoclinic'
loop_
_space_group_symop_operation_xyz
x,y,z
-x,y,-z
-x,-y,-z
x,-y,z
loop_
_atom_site_type_symbol
_atom_site_label
_atom_site_fract_x
_atom_site_fract_y
_atom_site_fract_z
Si Si1 0.908977 0.167215 0.983872
Si Si2 0.906541 0.165004 0.225171
Si Si3 0.443097 0.831782 0.979294
Si Si4 0.372734 0.664223 0.209181
Si Si5 0.108123 0.167134 0.420489
Si Si6 0.495510 0.669303 0.673838
Si Si7 0.234978 0.170446 0.512274
Si Si8 0.168533 0.334155 0.760243
O O1 0.826191 0.234393 0.725915
O O2 0.891441 0.000000 0.952504
O O3 0.910119 0.227836 0.110281
O O4 0.005915 0.194200 0.144254
O O5 0.836699 0.263828 0.131992
O O6 0.000000 0.184862 0.500000
O O7 0.875205 0.000000 0.156444
O O8 0.338563 0.774586 0.737086
O O9 0.441860 0.000000 0.000118
O O10 0.500000 0.795840 0.000000
O O11 0.498429 0.753354 0.199284
O O12 0.401670 0.500000 0.274565
O O13 0.404265 0.717231 0.401683
O O14 0.424874 0.730299 0.223907
O O15 0.269713 0.690203 0.951325
O O16 0.184625 0.222173 0.509510
O O17 0.109170 0.253003 0.536259
O O18 0.122160 0.000000 0.479775
O O19 0.500844 0.500000 0.712194
O O20 0.232587 0.000000 0.503439
O O21 0.140409 0.500000 0.702088
#
# Coordination Sequence:
#
# PCOD8058857 Si02
#       8
#     4   4   4   4   4   4   4   4
#     4   9  17  31  52  75 100 131 171 215 252 289
#     4  10  19  34  52  73 102 134 172 212 246 290
#     4  10  21  35  50  74 109 137 162 206 262 310
#     4   8  17  33  53  78 103 130 167 216 258 301
#     4  10  18  32  54  77 100 129 174 220 251 291
#     4   9  17  35  59  75  96 133 176 212 252 302
#     4   9  18  32  53  78 100 131 172 211 255 307
#     4  11  21  32  50  77 108 138 169 204 259 312
#
# _framework density 18.954678999999999
#
# number of rings (size 3 to 8) (size 9 to 14) (size 15 to 20)
#    0.000    2.500    1.250    2.250    0.000    3.000 
#    0.000    4.375    0.000    3.750    0.000    0.000 
#    0.000    0.000    0.000    0.000    0.000    0.000 
#
# Total GULP energy -396506.907453 kJ/mol
# GULP energy per Si atom -12390.840858 kJ/mol
# Density = 1.891154 g / cm^3
# Si number density = 18.954679 Si / 1000 Ang^3
#
#
#
# Elastic Constant Matrix: (Units=GPa)
#
#
# Indices 1 2 3 4 5 6 
#
# 1 112.6514 30.1711 31.5511 0.0000 -14.7247 0.0000
# 2 30.1711 38.1732 18.5243 0.0000 -6.8313 0.0000
# 3 31.5511 18.5243 66.0674 0.0000 -14.8267 0.0000
# 4 0.0000 0.0000 0.0000 17.7871 0.0000 -1.3003
# 5 -14.7247 -6.8313 -14.8267 0.0000 30.7863 0.0000
# 6 0.0000 0.0000 0.0000 -1.3003 0.0000 19.2530
#
#
#
# Elastic Compliance Matrix: (Units=1/GPa)
#
#
# Indices 1 2 3 4 5 6 
#
# 1 0.012120 -0.007623 -0.003060 0.000000 0.002631 0.000000
# 2 -0.007623 0.035358 -0.005977 0.000000 0.001321 0.000000
# 3 -0.003060 -0.005977 0.019786 0.000000 0.006739 0.000000
# 4 0.000000 0.000000 0.000000 0.056499 0.000000 0.003816
# 5 0.002631 0.001321 0.006739 0.000000 0.037279 0.000000
# 6 0.000000 0.000000 0.000000 0.003816 0.000000 0.052198
#
#
# Mechanical properties :
#
#
# Convention : Reuss Voigt Hill
#
# Bulk Modulus (GPa) = 29.46066 41.93166 35.69616
# Shear Modulus (GPa) = 19.38931 22.67501 21.03216
#
# Velocity S-wave (km/s) = 3.20180 3.46247 3.33468
# Velocity P-wave (km/s) = 5.40787 6.17698 5.80518
#
# Compressibility (1/GPa) = 0.03394358
#
# Stress axis : x y z
#
# Youngs Moduli (GPa) = 82.51098 28.28182 50.54206
#
# Poissons Ratio (x) = 0.21560 0.15465
# Poissons Ratio (y) = 0.62900 0.30208
# Poissons Ratio (z) = 0.25247 0.16904
#
# Static dielectric constant tensor:
#      x y z
#    x 3.326980 0.000000 -0.282010 
#    y 0.000000 3.045990 0.000000 
#    z -0.282010 0.000000 3.383440 
# 
# 
# High freq. dielectric constant tensor:
#      x y z
#    x 1.743560 0.000000 -0.002180 
#    y 0.000000 1.688290 0.000000 
#    z -0.002180 0.000000 1.743180 
# 
# From -- ./inp_files/58274.got.cif
#   From: 2010.06.25/outbox.cif.g09.slc.cpg/sg10_30_cif.got.tgz:58274.got - 2010.06.27 22:07:45.
