data_PCOD8058109
_publ_section_title
;
Structure prediction by ZEFSAII (Michael W. Deem and Ramdas Pophale) SiO2 
 PCOD8058109
Probable space group: P 2/M
;
_chemical_formula_sum "Si O2"
_cell_formula_units_Z 28
_cell_length_a 19.623721
_cell_length_b 9.222541
_cell_length_c 14.694499
_cell_angle_alpha 90.000000
_cell_angle_beta 147.419018
_cell_angle_gamma 90.000000
_cell_volume 1432.073430
_symmetry_space_group_name_H-M "P 2/M"
_symmetry_group_IT_number 10
_symmetry_cell_setting 'monoclinic'
loop_
_space_group_symop_operation_xyz
x,y,z
-x,y,-z
-x,-y,-z
x,-y,z
loop_
_atom_site_type_symbol
_atom_site_label
_atom_site_fract_x
_atom_site_fract_y
_atom_site_fract_z
Si Si1 0.744146 0.662829 0.133154
Si Si2 0.532978 0.662896 0.136092
Si Si3 0.664378 0.829027 0.435729
Si Si4 0.879303 0.833476 0.427969
Si Si5 0.532566 0.827116 0.636282
Si Si6 0.204966 0.828493 0.987056
Si Si7 0.931368 0.829555 0.687399
O O1 0.800320 0.500000 0.192448
O O2 0.769988 0.733934 0.260941
O O3 0.594395 0.659159 0.947671
O O4 0.804813 0.761177 0.123602
O O5 0.589137 0.500000 0.188931
O O6 0.630982 0.764201 0.299558
O O7 0.500000 0.727972 0.000000
O O8 0.574673 0.767007 0.414886
O O9 0.813045 0.786866 0.620347
O O10 0.645741 0.000000 0.408056
O O11 0.909574 0.767398 0.561388
O O12 0.000000 0.816926 0.500000
O O13 0.832953 0.000000 0.380485
O O14 0.500000 0.765436 0.500000
O O15 0.673257 0.769689 0.820514
O O16 0.530232 0.000000 0.633229
O O17 0.217678 0.000000 0.989348
O O18 0.070311 0.783716 0.883593
O O19 0.934239 0.000000 0.678820
#
# Coordination Sequence:
#
# PCOD8058109 Si02
#       7
#     4   4   4   4   4   4   4
#     4  11  21  31  47  73 103 134 179 222 253 300
#     4  10  21  35  49  70 107 145 174 214 265 311
#     4  10  19  33  54  78 103 133 177 223 255 309
#     4  10  18  30  47  67 100 144 183 213 249 302
#     4   9  18  33  56  83 105 130 170 221 274 321
#     4  10  18  34  55  72 100 138 170 208 265 315
#     4   9  18  31  49  75 103 135 176 216 252 301
#
# _framework density 19.552071000000002
#
# number of rings (size 3 to 8) (size 9 to 14) (size 15 to 20)
#    0.000    2.143    2.857    1.286    0.000    1.143 
#    0.000    1.429    0.000    6.000    0.000    0.000 
#    0.000    2.286    0.000    0.000    0.000    0.000 
#
# Total GULP energy -346979.650764 kJ/mol
# GULP energy per Si atom -12392.130384 kJ/mol
# Density = 1.950757 g / cm^3
# Si number density = 19.552071 Si / 1000 Ang^3
#
#
#
# Elastic Constant Matrix: (Units=GPa)
#
#
# Indices 1 2 3 4 5 6 
#
# 1 103.7098 11.6122 72.2937 0.0000 11.8502 0.0000
# 2 11.6122 33.5260 21.1054 0.0000 2.9315 0.0000
# 3 72.2937 21.1054 135.0822 0.0000 17.7813 0.0000
# 4 0.0000 0.0000 0.0000 8.8043 0.0000 1.8325
# 5 11.8502 2.9315 17.7813 0.0000 34.1472 0.0000
# 6 0.0000 0.0000 0.0000 1.8325 0.0000 10.9397
#
#
#
# Elastic Compliance Matrix: (Units=1/GPa)
#
#
# Indices 1 2 3 4 5 6 
#
# 1 0.015421 -0.000156 -0.008080 0.000000 -0.001131 0.000000
# 2 -0.000156 0.033084 -0.005066 0.000000 -0.000148 0.000000
# 3 -0.008080 -0.005066 0.012982 0.000000 -0.003521 0.000000
# 4 0.000000 0.000000 0.000000 0.117684 0.000000 -0.019714
# 5 -0.001131 -0.000148 -0.003521 0.000000 0.031524 0.000000
# 6 0.000000 0.000000 0.000000 -0.019714 0.000000 0.094713
#
#
# Mechanical properties :
#
#
# Convention : Reuss Voigt Hill
#
# Bulk Modulus (GPa) = 28.66711 53.59342 41.13027
# Shear Modulus (GPa) = 14.55012 21.93201 18.24107
#
# Velocity S-wave (km/s) = 2.73091 3.35285 3.05773
# Velocity P-wave (km/s) = 4.96363 6.51605 5.79209
#
# Compressibility (1/GPa) = 0.03488318
#
# Stress axis : x y z
#
# Youngs Moduli (GPa) = 64.84503 30.22633 77.02833
#
# Poissons Ratio (x) = 0.00471 0.62239
# Poissons Ratio (y) = 0.01011 0.39023
# Poissons Ratio (z) = 0.52395 0.15313
#
# Static dielectric constant tensor:
#      x y z
#    x 3.661610 0.000000 0.353430 
#    y 0.000000 3.189320 0.000000 
#    z 0.353430 0.000000 3.815140 
# 
# 
# High freq. dielectric constant tensor:
#      x y z
#    x 1.752420 0.000000 0.028240 
#    y 0.000000 1.717840 0.000000 
#    z 0.028240 0.000000 1.757860 
# 
# From -- ./inp_files/70283.got.cif
#   From: 2010.06.25/outbox.cif.g09.slc.cpg/sg10_36_cif.got.tgz:70283.got - 2010.06.27 22:07:45.
