data_PCOD8058787
_publ_section_title
;
Structure prediction by ZEFSAII (Michael W. Deem and Ramdas Pophale) SiO2 
 PCOD8058787
Probable space group: P 2/M
;
_chemical_formula_sum "Si O2"
_cell_formula_units_Z 30
_cell_length_a 29.759223
_cell_length_b 8.993541
_cell_length_c 12.252317
_cell_angle_alpha 90.000000
_cell_angle_beta 150.921876
_cell_angle_gamma 90.000000
_cell_volume 1593.706515
_symmetry_space_group_name_H-M "P 2/M"
_symmetry_group_IT_number 10
_symmetry_cell_setting 'monoclinic'
loop_
_space_group_symop_operation_xyz
x,y,z
-x,y,-z
-x,-y,-z
x,-y,z
loop_
_atom_site_type_symbol
_atom_site_label
_atom_site_fract_x
_atom_site_fract_y
_atom_site_fract_z
Si Si1 0.763901 0.823830 0.299902
Si Si2 0.726141 0.822070 0.782578
Si Si3 0.915879 0.162447 0.107397
Si Si4 0.954717 0.822634 0.795593
Si Si5 0.800001 0.668654 0.146364
Si Si6 0.598091 0.328766 0.342809
Si Si7 0.617805 0.328693 0.138986
Si Si8 0.000000 0.243304 0.500000
O O1 0.849054 0.773367 0.557926
O O2 0.779432 0.750829 0.215741
O O3 0.672897 0.770606 0.169507
O O4 0.759248 0.000000 0.272978
O O5 0.638544 0.770733 0.526495
O O6 0.726294 0.000000 0.796411
O O7 0.816423 0.760415 0.909096
O O8 0.732877 0.749337 0.916310
O O9 0.967450 0.141029 0.331950
O O10 0.983189 0.250647 0.168787
O O11 0.897322 0.000000 0.018527
O O12 0.959345 0.000000 0.801347
O O13 0.000000 0.756441 0.000000
O O14 0.765986 0.500000 0.084900
O O15 0.909204 0.664168 0.345711
O O16 0.623813 0.500000 0.418684
O O17 0.636293 0.279735 0.304269
O O18 0.488990 0.305241 0.115124
O O19 0.646261 0.500000 0.184257
#
# Coordination Sequence:
#
# PCOD8058787 Si02
#       8
#     4   4   4   4   4   4   4   2
#     4  11  22  36  58  85 114 149 192 240 282 327
#     4  10  21  34  56  86 115 144 186 239 284 328
#     4   9  17  29  48  75 109 148 183 223 276 327
#     4   9  18  31  48  73 110 150 184 218 268 332
#     4  11  22  37  56  79 112 153 193 233 283 340
#     4   9  19  39  63  85 113 150 187 225 280 344
#     4   9  20  39  62  85 113 151 188 226 279 343
#     4  10  18  32  52  76 103 146 195 238 269 314
#
# _framework density 18.824041999999999
#
# number of rings (size 3 to 8) (size 9 to 14) (size 15 to 20)
#    0.000    2.267    1.333    2.400    1.867    2.133 
#    0.000    2.000    0.000    5.600    0.000    0.000 
#    0.000    0.000    0.000    0.000    0.000    0.000 
#
# Total GULP energy -371733.099094 kJ/mol
# GULP energy per Si atom -12391.103303 kJ/mol
# Density = 1.878120 g / cm^3
# Si number density = 18.824042 Si / 1000 Ang^3
#
#
#
# Elastic Constant Matrix: (Units=GPa)
#
#
# Indices 1 2 3 4 5 6 
#
# 1 135.3911 46.4153 52.9311 0.0000 -8.4111 0.0000
# 2 46.4153 89.4980 42.6701 0.0000 -5.0543 0.0000
# 3 52.9311 42.6701 111.7804 0.0000 -19.4892 0.0000
# 4 0.0000 0.0000 0.0000 14.0020 0.0000 -3.8367
# 5 -8.4111 -5.0543 -19.4892 0.0000 24.4536 0.0000
# 6 0.0000 0.0000 0.0000 -3.8367 0.0000 26.8070
#
#
#
# Elastic Compliance Matrix: (Units=1/GPa)
#
#
# Indices 1 2 3 4 5 6 
#
# 1 0.009907 -0.003547 -0.003334 0.000000 0.000017 0.000000
# 2 -0.003547 0.014980 -0.004311 0.000000 -0.001559 0.000000
# 3 -0.003334 -0.004311 0.013722 0.000000 0.008898 0.000000
# 4 0.000000 0.000000 0.000000 0.074334 0.000000 0.010639
# 5 0.000017 -0.001559 0.008898 0.000000 0.047669 0.000000
# 6 0.000000 0.000000 0.000000 0.010639 0.000000 0.038826
#
#
# Mechanical properties :
#
#
# Convention : Reuss Voigt Hill
#
# Bulk Modulus (GPa) = 61.63320 68.96694 65.30007
# Shear Modulus (GPa) = 22.00417 26.02938 24.01678
#
# Velocity S-wave (km/s) = 3.42269 3.72260 3.57579
# Velocity P-wave (km/s) = 6.95935 7.42928 7.19815
#
# Compressibility (1/GPa) = 0.01622502
#
# Stress axis : x y z
#
# Youngs Moduli (GPa) = 100.94328 66.75490 72.87704
#
# Poissons Ratio (x) = 0.23679 0.24297
# Poissons Ratio (y) = 0.35807 0.31414
# Poissons Ratio (z) = 0.33654 0.28775
#
# Static dielectric constant tensor:
#      x y z
#    x 3.541030 0.000000 -0.060220 
#    y 0.000000 3.140980 0.000000 
#    z -0.060220 0.000000 3.457870 
# 
# 
# High freq. dielectric constant tensor:
#      x y z
#    x 1.734630 0.000000 -0.006740 
#    y 0.000000 1.706890 0.000000 
#    z -0.006740 0.000000 1.731270 
# 
# From -- ./inp_files/58035.got.cif
#   From: 2010.06.25/outbox.cif.g09.slc.cpg/sg10_30_cif.got.tgz:58035.got - 2010.06.27 22:07:45.
