data_PCOD8058385
_publ_section_title
;
Structure prediction by ZEFSAII (Michael W. Deem and Ramdas Pophale) SiO2 
 PCOD8058385
Probable space group: P 2/M
;
_chemical_formula_sum "Si O2"
_cell_formula_units_Z 32
_cell_length_a 15.209126
_cell_length_b 9.380299
_cell_length_c 22.660968
_cell_angle_alpha 90.000000
_cell_angle_beta 31.352995
_cell_angle_gamma 90.000000
_cell_volume 1682.135247
_symmetry_space_group_name_H-M "P 2/M"
_symmetry_group_IT_number 10
_symmetry_cell_setting 'monoclinic'
loop_
_space_group_symop_operation_xyz
x,y,z
-x,y,-z
-x,-y,-z
x,-y,z
loop_
_atom_site_type_symbol
_atom_site_label
_atom_site_fract_x
_atom_site_fract_y
_atom_site_fract_z
Si Si1 0.059104 0.336428 0.808706
Si Si2 0.167956 0.668943 0.872346
Si Si3 0.210083 0.836261 0.098470
Si Si4 0.783116 0.331608 0.495723
Si Si5 0.546283 0.836639 0.841253
Si Si6 0.346855 0.664293 0.552224
Si Si7 0.880237 0.168208 0.718584
Si Si8 0.502600 0.667873 0.249263
O O1 0.005308 0.500000 0.848494
O O2 0.159888 0.282287 0.808682
O O3 0.174604 0.314175 0.685840
O O4 0.889525 0.248102 0.895333
O O5 0.174525 0.500000 0.873161
O O6 0.337016 0.729913 0.806116
O O7 0.000000 0.729409 0.000000
O O8 0.165032 0.778490 0.189470
O O9 0.156194 0.000000 0.124394
O O10 0.408413 0.815476 0.972069
O O11 0.819269 0.500000 0.468749
O O12 0.681349 0.272351 0.496789
O O13 0.670131 0.296104 0.617262
O O14 0.959670 0.250149 0.399779
O O15 0.725414 0.790824 0.765122
O O16 0.502000 0.739641 0.811377
O O17 0.549099 0.000000 0.818370
O O18 0.500000 0.741103 0.500000
O O19 0.397382 0.500000 0.515496
O O20 0.915564 0.000000 0.697833
O O21 0.521804 0.500000 0.229049
#
# Coordination Sequence:
#
# PCOD8058385 Si02
#       8
#     4   4   4   4   4   4   4   4
#     4  10  18  30  53  81 108 141 179 217 263 322
#     4   9  17  30  50  78 110 143 180 219 261 314
#     4  10  20  36  57  81 110 139 176 229 282 327
#     4  10  20  35  55  81 113 143 177 224 273 320
#     4  10  22  39  58  79 104 142 187 228 274 329
#     4   9  16  28  49  77 106 138 176 215 257 310
#     4  10  21  38  59  80 106 142 183 226 276 330
#     4  10  21  37  56  81 113 146 181 224 272 319
#
# _framework density 19.023440000000001
#
# number of rings (size 3 to 8) (size 9 to 14) (size 15 to 20)
#    0.000    2.250    1.250    1.875    0.000    7.500 
#    0.000    3.125    0.000    7.500    0.000    0.000 
#    0.000    0.000    0.000    0.000    0.000    0.000 
#
# Total GULP energy -396788.607379 kJ/mol
# GULP energy per Si atom -12399.643981 kJ/mol
# Density = 1.898014 g / cm^3
# Si number density = 19.023440 Si / 1000 Ang^3
#
#
#
# Elastic Constant Matrix: (Units=GPa)
#
#
# Indices 1 2 3 4 5 6 
#
# 1 115.0119 34.4360 47.5084 0.0000 -10.4997 0.0000
# 2 34.4360 35.7571 34.9673 0.0000 -5.7394 0.0000
# 3 47.5084 34.9673 96.1824 0.0000 -13.8053 0.0000
# 4 0.0000 0.0000 0.0000 20.8725 0.0000 7.1665
# 5 -10.4997 -5.7394 -13.8053 0.0000 38.8256 0.0000
# 6 0.0000 0.0000 0.0000 7.1665 0.0000 16.3653
#
#
#
# Elastic Compliance Matrix: (Units=1/GPa)
#
#
# Indices 1 2 3 4 5 6 
#
# 1 0.012740 -0.009455 -0.002699 0.000000 0.001088 0.000000
# 2 -0.009455 0.050438 -0.013660 0.000000 0.000042 0.000000
# 3 -0.002699 -0.013660 0.017179 0.000000 0.003359 0.000000
# 4 0.000000 0.000000 0.000000 0.056388 0.000000 -0.024693
# 5 0.001088 0.000042 0.003359 0.000000 0.027251 0.000000
# 6 0.000000 0.000000 0.000000 -0.024693 0.000000 0.071918
#
#
# Mechanical properties :
#
#
# Convention : Reuss Voigt Hill
#
# Bulk Modulus (GPa) = 34.81086 53.41941 44.11514
# Shear Modulus (GPa) = 16.82831 23.88198 20.35514
#
# Velocity S-wave (km/s) = 2.97746 3.54700 3.27464
# Velocity P-wave (km/s) = 5.49173 6.70200 6.12682
#
# Compressibility (1/GPa) = 0.02872667
#
# Stress axis : x y z
#
# Youngs Moduli (GPa) = 78.49279 19.82646 58.21196
#
# Poissons Ratio (x) = 0.18746 0.15713
# Poissons Ratio (y) = 0.74215 0.79520
# Poissons Ratio (z) = 0.21187 0.27084
#
# Static dielectric constant tensor:
#      x y z
#    x 3.593050 0.000000 -0.063500 
#    y 0.000000 3.111290 0.000000 
#    z -0.063500 0.000000 3.538950 
# 
# 
# High freq. dielectric constant tensor:
#      x y z
#    x 1.750720 0.000000 -0.002070 
#    y 0.000000 1.695750 0.000000 
#    z -0.002070 0.000000 1.750180 
# 
# From -- ./inp_files/89549.got.cif
#   From: 2010.06.25/outbox.cif.g09.slc.cpg/sg10_45_cif.got.tgz:89549.got - 2010.06.27 22:07:45.
