data_PCOD8058035
_publ_section_title
;
Structure prediction by ZEFSAII (Michael W. Deem and Ramdas Pophale) SiO2 
 PCOD8058035
Probable space group: P 2/M
;
_chemical_formula_sum "Si O2"
_cell_formula_units_Z 32
_cell_length_a 18.018453
_cell_length_b 9.485361
_cell_length_c 24.707759
_cell_angle_alpha 90.000000
_cell_angle_beta 156.484748
_cell_angle_gamma 90.000000
_cell_volume 1684.884705
_symmetry_space_group_name_H-M "P 2/M"
_symmetry_group_IT_number 10
_symmetry_cell_setting 'monoclinic'
loop_
_space_group_symop_operation_xyz
x,y,z
-x,y,-z
-x,-y,-z
x,-y,z
loop_
_atom_site_type_symbol
_atom_site_label
_atom_site_fract_x
_atom_site_fract_y
_atom_site_fract_z
Si Si1 0.547915 0.659957 0.654355
Si Si2 0.080154 0.833975 0.892833
Si Si3 0.509098 0.843055 0.844190
Si Si4 0.580395 0.840842 0.337699
Si Si5 0.072117 0.659778 0.411514
Si Si6 0.166719 0.661844 0.649677
Si Si7 0.040145 0.338238 0.088659
Si Si8 0.848734 0.661042 0.655586
O O1 0.530795 0.500000 0.664472
O O2 0.552212 0.761003 0.709069
O O3 0.740111 0.680613 0.750762
O O4 0.370624 0.694457 0.498127
O O5 0.073501 0.762606 0.947454
O O6 0.922912 0.767105 0.749897
O O7 0.043901 0.000000 0.875216
O O8 0.279796 0.804247 0.997823
O O9 0.517103 0.836906 0.785015
O O10 0.360965 0.739258 0.771265
O O11 0.456219 0.000000 0.828560
O O12 0.777898 0.765285 0.463767
O O13 0.612282 0.000000 0.379426
O O14 0.146708 0.500000 0.468849
O O15 0.885230 0.681120 0.321670
O O16 0.041008 0.689032 0.327085
O O17 0.200602 0.500000 0.656819
O O18 0.000000 0.721728 0.500000
O O19 0.977966 0.500000 0.056528
O O20 0.000000 0.293797 0.000000
O O21 0.878928 0.500000 0.695152
#
# Coordination Sequence:
#
# PCOD8058035 Si02
#       8
#     4   4   4   4   4   4   4   4
#     4   9  19  35  56  82 111 142 179 227 275 321
#     4  11  24  40  56  77 110 149 188 230 271 319
#     4  10  22  36  50  75 112 149 181 219 276 332
#     4  10  18  29  50  79 109 142 179 216 265 330
#     4   9  18  34  54  80 112 141 174 223 278 323
#     4  10  19  32  55  86 113 139 178 227 275 327
#     4  10  21  38  61  88 114 142 179 221 275 336
#     4   9  19  37  58  77 105 146 188 226 268 320
#
# _framework density 18.992395999999999
#
# number of rings (size 3 to 8) (size 9 to 14) (size 15 to 20)
#    0.000    2.250    1.250    2.250    0.000    5.500 
#    0.000    3.125    0.000    3.750    0.000    0.000 
#    0.000    0.000    0.000    0.000    0.000    0.000 
#
# Total GULP energy -396754.646958 kJ/mol
# GULP energy per Si atom -12398.582717 kJ/mol
# Density = 1.894917 g / cm^3
# Si number density = 18.992396 Si / 1000 Ang^3
#
#
#
# Elastic Constant Matrix: (Units=GPa)
#
#
# Indices 1 2 3 4 5 6 
#
# 1 74.0101 38.8472 31.0105 0.0000 8.1549 0.0000
# 2 38.8472 92.4709 39.6929 0.0000 7.1663 0.0000
# 3 31.0105 39.6929 81.2175 0.0000 5.9854 0.0000
# 4 0.0000 0.0000 0.0000 21.5868 0.0000 -0.2824
# 5 8.1549 7.1663 5.9854 0.0000 27.6472 0.0000
# 6 0.0000 0.0000 0.0000 -0.2824 0.0000 25.6910
#
#
#
# Elastic Compliance Matrix: (Units=1/GPa)
#
#
# Indices 1 2 3 4 5 6 
#
# 1 0.018608 -0.005853 -0.004016 0.000000 -0.003102 0.000000
# 2 -0.005853 0.015651 -0.005327 0.000000 -0.001177 0.000000
# 3 -0.004016 -0.005327 0.016524 0.000000 -0.001012 0.000000
# 4 0.000000 0.000000 0.000000 0.046331 0.000000 0.000509
# 5 -0.003102 -0.001177 -0.001012 0.000000 0.037609 0.000000
# 6 0.000000 0.000000 0.000000 0.000509 0.000000 0.038930
#
#
# Mechanical properties :
#
#
# Convention : Reuss Voigt Hill
#
# Bulk Modulus (GPa) = 49.04196 51.86665 50.45430
# Shear Modulus (GPa) = 23.71420 24.19486 23.95453
#
# Velocity S-wave (km/s) = 3.53741 3.57308 3.55529
# Velocity P-wave (km/s) = 6.52398 6.66265 6.59368
#
# Compressibility (1/GPa) = 0.02039070
#
# Stress axis : x y z
#
# Youngs Moduli (GPa) = 53.73904 63.89289 60.51732
#
# Poissons Ratio (x) = 0.37398 0.24303
# Poissons Ratio (y) = 0.31455 0.32241
# Poissons Ratio (z) = 0.21581 0.34039
#
# Static dielectric constant tensor:
#      x y z
#    x 3.439220 0.000000 0.111570 
#    y 0.000000 3.485310 0.000000 
#    z 0.111570 0.000000 3.339920 
# 
# 
# High freq. dielectric constant tensor:
#      x y z
#    x 1.733030 0.000000 0.008860 
#    y 0.000000 1.737340 0.000000 
#    z 0.008860 0.000000 1.724760 
# 
# From -- ./inp_files/93799.got.cif
#   From: 2010.06.25/outbox.cif.g09.slc.cpg/sg10_47_cif.got.tgz:93799.got - 2010.06.27 22:07:45.
