data_PCOD8058113
_publ_section_title
;
Structure prediction by ZEFSAII (Michael W. Deem and Ramdas Pophale) SiO2 
 PCOD8058113
Probable space group: P 2/M
;
_chemical_formula_sum "Si O2"
_cell_formula_units_Z 32
_cell_length_a 30.945048
_cell_length_b 8.570032
_cell_length_c 15.141415
_cell_angle_alpha 90.000000
_cell_angle_beta 151.517850
_cell_angle_gamma 90.000000
_cell_volume 1914.933440
_symmetry_space_group_name_H-M "P 2/M"
_symmetry_group_IT_number 10
_symmetry_cell_setting 'monoclinic'
loop_
_space_group_symop_operation_xyz
x,y,z
-x,y,-z
-x,-y,-z
x,-y,z
loop_
_atom_site_type_symbol
_atom_site_label
_atom_site_fract_x
_atom_site_fract_y
_atom_site_fract_z
Si Si1 0.437278 0.815231 0.264986
Si Si2 0.713764 0.816671 0.346778
Si Si3 0.367171 0.815199 0.321812
Si Si4 0.422627 0.185296 0.044587
Si Si5 0.625523 0.182734 0.374827
Si Si6 0.892155 0.318097 0.726891
Si Si7 0.753296 0.318548 0.751713
Si Si8 0.079084 0.817997 0.033922
O O1 0.370387 0.763453 0.224230
O O2 0.539646 0.757036 0.465542
O O3 0.441746 0.000000 0.272130
O O4 0.402598 0.751891 0.108007
O O5 0.653385 0.748521 0.158094
O O6 0.662112 0.777161 0.344118
O O7 0.809594 0.728327 0.514919
O O8 0.731063 0.000000 0.367995
O O9 0.284138 0.728142 0.219312
O O10 0.354404 0.000000 0.309244
O O11 0.419167 0.000000 0.035039
O O12 0.521832 0.240059 0.191782
O O13 0.681322 0.276405 0.547427
O O14 0.634413 0.000000 0.413341
O O15 0.890485 0.500000 0.746080
O O16 0.881485 0.223495 0.798874
O O17 0.986212 0.274618 0.848127
O O18 0.774679 0.500000 0.786622
O O19 0.847274 0.227107 0.906913
O O20 0.058042 0.000000 0.991800
#
# Coordination Sequence:
#
# PCOD8058113 Si02
#       8
#     4   4   4   4   4   4   4   4
#     4   8  14  26  48  73  94 123 166 213 245 276
#     4  10  19  30  48  72  98 133 173 205 235 281
#     4   9  16  29  49  70  94 126 166 205 246 291
#     4   9  16  28  48  73  97 128 174 214 239 270
#     4  10  18  30  47  67  97 134 173 206 234 276
#     4  11  21  34  50  72 101 128 157 198 246 291
#     4  12  22  31  46  72 102 131 159 197 249 299
#     4  11  21  35  54  72  93 124 164 203 241 289
#
# _framework density 16.710764000000001
#
# number of rings (size 3 to 8) (size 9 to 14) (size 15 to 20)
#    0.000    2.000    2.500    5.250    0.000    1.500 
#    0.000    1.875    0.000    1.500    0.000    0.875 
#    0.000    7.000    0.000    0.000    0.000    0.000 
#
# Total GULP energy -396776.615575 kJ/mol
# GULP energy per Si atom -12399.269237 kJ/mol
# Density = 1.667273 g / cm^3
# Si number density = 16.710764 Si / 1000 Ang^3
#
#
#
# Elastic Constant Matrix: (Units=GPa)
#
#
# Indices 1 2 3 4 5 6 
#
# 1 113.9810 16.3885 55.0011 0.0000 6.0405 0.0000
# 2 16.3885 48.6207 15.9459 0.0000 2.0752 0.0000
# 3 55.0011 15.9459 98.6680 0.0000 5.3875 0.0000
# 4 0.0000 0.0000 0.0000 7.6176 0.0000 1.9203
# 5 6.0405 2.0752 5.3875 0.0000 24.3800 0.0000
# 6 0.0000 0.0000 0.0000 1.9203 0.0000 10.8338
#
#
#
# Elastic Compliance Matrix: (Units=1/GPa)
#
#
# Indices 1 2 3 4 5 6 
#
# 1 0.012230 -0.001954 -0.006423 0.000000 -0.001445 0.000000
# 2 -0.001954 0.022059 -0.002429 0.000000 -0.000857 0.000000
# 3 -0.006423 -0.002429 0.014181 0.000000 -0.001336 0.000000
# 4 0.000000 0.000000 0.000000 0.137415 0.000000 -0.024357
# 5 -0.001445 -0.000857 -0.001336 0.000000 0.041743 0.000000
# 6 0.000000 0.000000 0.000000 -0.024357 0.000000 0.096621
#
#
# Mechanical properties :
#
#
# Convention : Reuss Voigt Hill
#
# Bulk Modulus (GPa) = 37.23253 48.43786 42.83519
# Shear Modulus (GPa) = 14.09190 20.16190 17.12690
#
# Velocity S-wave (km/s) = 2.90708 3.47727 3.20488
# Velocity P-wave (km/s) = 5.79630 6.72093 6.27567
#
# Compressibility (1/GPa) = 0.02685824
#
# Stress axis : x y z
#
# Youngs Moduli (GPa) = 81.76427 45.33244 70.51789
#
# Poissons Ratio (x) = 0.08859 0.45293
# Poissons Ratio (y) = 0.15979 0.17128
# Poissons Ratio (z) = 0.52516 0.11011
#
# Static dielectric constant tensor:
#      x y z
#    x 3.363100 0.000000 -0.022680 
#    y 0.000000 2.892360 0.000000 
#    z -0.022680 0.000000 3.169180 
# 
# 
# High freq. dielectric constant tensor:
#      x y z
#    x 1.639870 0.000000 0.010810 
#    y 0.000000 1.624700 0.000000 
#    z 0.010810 0.000000 1.621530 
# 
# From -- ./inp_files/66084.got.cif
#   From: 2010.06.25/outbox.cif.g09.slc.cpg/sg10_34_cif.got.tgz:66084.got - 2010.06.27 22:07:45.
