data_PCOD8058454
_publ_section_title
;
Structure prediction by ZEFSAII (Michael W. Deem and Ramdas Pophale) SiO2 
 PCOD8058454
Probable space group: P 2/M
;
_chemical_formula_sum "Si O2"
_cell_formula_units_Z 32
_cell_length_a 11.818077
_cell_length_b 8.941979
_cell_length_c 19.864288
_cell_angle_alpha 90.000000
_cell_angle_beta 121.020363
_cell_angle_gamma 90.000000
_cell_volume 1798.979770
_symmetry_space_group_name_H-M "P 2/M"
_symmetry_group_IT_number 10
_symmetry_cell_setting 'monoclinic'
loop_
_space_group_symop_operation_xyz
x,y,z
-x,y,-z
-x,-y,-z
x,-y,z
loop_
_atom_site_type_symbol
_atom_site_label
_atom_site_fract_x
_atom_site_fract_y
_atom_site_fract_z
Si Si1 0.379169 0.825076 0.762267
Si Si2 0.125346 0.325708 0.692368
Si Si3 0.100527 0.174164 0.826700
Si Si4 0.422260 0.329460 0.545508
Si Si5 0.609911 0.824415 0.082466
Si Si6 0.580968 0.825939 0.710020
Si Si7 0.841040 0.322972 0.750664
Si Si8 0.838154 0.673254 0.596973
O O1 0.253009 0.735602 0.691255
O O2 0.405590 0.762871 0.845912
O O3 0.506887 0.790117 0.756930
O O4 0.344117 0.000000 0.751179
O O5 0.141927 0.500000 0.716089
O O6 0.116141 0.224820 0.755171
O O7 0.985036 0.302236 0.610454
O O8 0.244095 0.208655 0.904007
O O9 0.979687 0.263234 0.824577
O O10 0.066758 0.000000 0.819651
O O11 0.500000 0.321536 0.500000
O O12 0.419339 0.500000 0.571894
O O13 0.491014 0.225449 0.620770
O O14 0.274748 0.261503 0.486863
O O15 0.584754 0.000000 0.078889
O O16 0.500000 0.749606 0.000000
O O17 0.719133 0.739032 0.756035
O O18 0.610380 0.000000 0.710574
O O19 0.841939 0.500000 0.754761
O O20 0.829254 0.261622 0.670262
O O21 0.803258 0.500000 0.593792
#
# Coordination Sequence:
#
# PCOD8058454 Si02
#       8
#     4   4   4   4   4   4   4   4
#     4   9  19  34  49  69 100 129 158 201 246 292
#     4   9  16  28  48  70  93 125 164 201 239 289
#     4   9  16  27  46  75 104 125 153 199 246 283
#     4  10  18  32  50  67  92 127 165 205 247 288
#     4   8  14  28  53  79  99 124 158 195 237 284
#     4  11  22  33  46  69  99 129 161 202 254 298
#     4  10  18  31  49  69  94 128 168 203 238 285
#     4   8  15  28  46  68  90 115 156 206 244 275
#
# _framework density 17.787860999999999
#
# number of rings (size 3 to 8) (size 9 to 14) (size 15 to 20)
#    0.000    2.750    1.250    3.000    0.000    1.250 
#    0.000    1.875    0.000   13.875    0.000    5.250 
#    0.000    0.000    0.000    0.000    0.000    0.000 
#
# Total GULP energy -396499.881741 kJ/mol
# GULP energy per Si atom -12390.621304 kJ/mol
# Density = 1.774737 g / cm^3
# Si number density = 17.787861 Si / 1000 Ang^3
#
#
#
# Elastic Constant Matrix: (Units=GPa)
#
#
# Indices 1 2 3 4 5 6 
#
# 1 134.8114 54.8963 56.8499 0.0000 29.4495 0.0000
# 2 54.8963 61.2353 28.6423 0.0000 14.1864 0.0000
# 3 56.8499 28.6423 70.9546 0.0000 24.5949 0.0000
# 4 0.0000 0.0000 0.0000 10.3486 0.0000 8.0240
# 5 29.4495 14.1864 24.5949 0.0000 30.7579 0.0000
# 6 0.0000 0.0000 0.0000 8.0240 0.0000 27.5716
#
#
#
# Elastic Compliance Matrix: (Units=1/GPa)
#
#
# Indices 1 2 3 4 5 6 
#
# 1 0.015044 -0.009263 -0.006644 0.000000 -0.004819 0.000000
# 2 -0.009263 0.026171 -0.002813 0.000000 -0.000953 0.000000
# 3 -0.006644 -0.002813 0.024760 0.000000 -0.012140 0.000000
# 4 0.000000 0.000000 0.000000 0.124791 0.000000 -0.036317
# 5 -0.004819 -0.000953 -0.012140 0.000000 0.047274 0.000000
# 6 0.000000 0.000000 0.000000 -0.036317 0.000000 0.046838
#
#
# Mechanical properties :
#
#
# Convention : Reuss Voigt Hill
#
# Bulk Modulus (GPa) = 35.04280 60.86426 47.95353
# Shear Modulus (GPa) = 15.06804 22.17648 18.62226
#
# Velocity S-wave (km/s) = 2.91365 3.53472 3.23911
# Velocity P-wave (km/s) = 5.57336 7.13793 6.40361
#
# Compressibility (1/GPa) = 0.02853653
#
# Stress axis : x y z
#
# Youngs Moduli (GPa) = 66.47102 38.21082 40.38704
#
# Poissons Ratio (x) = 0.35393 0.26833
# Poissons Ratio (y) = 0.61570 0.11359
# Poissons Ratio (z) = 0.44164 0.10747
#
# Static dielectric constant tensor:
#      x y z
#    x 3.655600 0.000000 0.436160 
#    y 0.000000 3.191170 0.000000 
#    z 0.436160 0.000000 3.414210 
# 
# 
# High freq. dielectric constant tensor:
#      x y z
#    x 1.694130 0.000000 0.035390 
#    y 0.000000 1.672800 0.000000 
#    z 0.035390 0.000000 1.649960 
# 
# From -- ./inp_files/83396.got.cif
#   From: 2010.06.25/outbox.cif.g09.slc.cpg/sg10_42_cif.got.tgz:83396.got - 2010.06.27 22:07:45.
