data_PCOD8058810
_publ_section_title
;
Structure prediction by ZEFSAII (Michael W. Deem and Ramdas Pophale) SiO2 
 PCOD8058810
Probable space group: P 2/M
;
_chemical_formula_sum "Si O2"
_cell_formula_units_Z 24
_cell_length_a 23.409641
_cell_length_b 8.840627
_cell_length_c 16.652986
_cell_angle_alpha 90.000000
_cell_angle_beta 157.187809
_cell_angle_gamma 90.000000
_cell_volume 1336.222786
_symmetry_space_group_name_H-M "P 2/M"
_symmetry_group_IT_number 10
_symmetry_cell_setting 'monoclinic'
loop_
_space_group_symop_operation_xyz
x,y,z
-x,y,-z
-x,-y,-z
x,-y,z
loop_
_atom_site_type_symbol
_atom_site_label
_atom_site_fract_x
_atom_site_fract_y
_atom_site_fract_z
Si Si1 0.336274 0.820595 0.291918
Si Si2 0.954936 0.679872 0.529616
Si Si3 0.176139 0.324430 0.403601
Si Si4 0.909766 0.178077 0.145987
Si Si5 0.658418 0.675516 0.224454
Si Si6 0.829935 0.177425 0.767042
O O1 0.500000 0.750969 0.500000
O O2 0.257555 0.758324 0.269763
O O3 0.341564 0.000000 0.305124
O O4 0.246411 0.774140 0.095504
O O5 0.958504 0.500000 0.539168
O O6 0.792077 0.742230 0.342878
O O7 0.000000 0.738899 0.500000
O O8 0.074748 0.741201 0.748061
O O9 0.131655 0.500000 0.343125
O O10 0.306894 0.297647 0.636980
O O11 0.232721 0.266248 0.391213
O O12 0.034641 0.228020 0.245415
O O13 0.921563 0.000000 0.173975
O O14 0.647272 0.500000 0.188546
O O15 0.500000 0.753530 0.000000
O O16 0.804825 0.000000 0.721091
O O17 0.000000 0.216572 0.000000
#
# Coordination Sequence:
#
# PCOD8058810 Si02
#       6
#     4   4   4   4   4   4
#     4   9  18  33  51  71  99 135 168 201 246 296
#     4   9  18  33  52  74  98 129 166 203 247 296
#     4  10  19  31  51  78 102 128 166 205 249 293
#     4  10  18  32  54  75  98 131 171 206 244 291
#     4   8  15  30  50  69  94 129 162 195 240 295
#     4  10  18  32  53  75  97 129 170 204 242 294
#
# _framework density 17.961075999999998
#
# number of rings (size 3 to 8) (size 9 to 14) (size 15 to 20)
#    0.000    2.667    1.667    2.000    0.000    0.667 
#    3.000    0.000    0.000   16.000    0.000    0.000 
#    0.000    0.000    0.000    0.000    0.000    0.000 
#
# Total GULP energy -297529.541941 kJ/mol
# GULP energy per Si atom -12397.064248 kJ/mol
# Density = 1.792020 g / cm^3
# Si number density = 17.961076 Si / 1000 Ang^3
#
#
#
# Elastic Constant Matrix: (Units=GPa)
#
#
# Indices 1 2 3 4 5 6 
#
# 1 158.6414 23.5428 76.6553 0.0000 -11.5680 0.0000
# 2 23.5428 21.7577 22.7949 0.0000 -5.7659 0.0000
# 3 76.6553 22.7949 145.8987 0.0000 -5.4453 0.0000
# 4 0.0000 0.0000 0.0000 17.3578 0.0000 -8.6320
# 5 -11.5680 -5.7659 -5.4453 0.0000 25.0134 0.0000
# 6 0.0000 0.0000 0.0000 -8.6320 0.0000 26.8626
#
#
#
# Elastic Compliance Matrix: (Units=1/GPa)
#
#
# Indices 1 2 3 4 5 6 
#
# 1 0.009117 -0.005210 -0.003895 0.000000 0.002167 0.000000
# 2 -0.005210 0.061040 -0.006417 0.000000 0.010264 0.000000
# 3 -0.003895 -0.006417 0.009861 0.000000 -0.001134 0.000000
# 4 0.000000 0.000000 0.000000 0.068569 0.000000 0.022034
# 5 0.002167 0.010264 -0.001134 0.000000 0.043100 0.000000
# 6 0.000000 0.000000 0.000000 0.022034 0.000000 0.044307
#
#
# Mechanical properties :
#
#
# Convention : Reuss Voigt Hill
#
# Bulk Modulus (GPa) = 20.41851 63.58710 42.00280
# Shear Modulus (GPa) = 17.64533 27.40041 22.52287
#
# Velocity S-wave (km/s) = 3.13776 3.91006 3.54500
# Velocity P-wave (km/s) = 4.95179 7.47424 6.33974
#
# Compressibility (1/GPa) = 0.04897517
#
# Stress axis : x y z
#
# Youngs Moduli (GPa) = 109.68720 16.38264 101.41171
#
# Poissons Ratio (x) = 0.08535 0.39502
# Poissons Ratio (y) = 0.57142 0.65072
# Poissons Ratio (z) = 0.42725 0.10512
#
# Static dielectric constant tensor:
#      x y z
#    x 3.472910 0.000000 -0.007890 
#    y 0.000000 3.002500 0.000000 
#    z -0.007890 0.000000 3.535140 
# 
# 
# High freq. dielectric constant tensor:
#      x y z
#    x 1.696900 0.000000 -0.012840 
#    y 0.000000 1.664200 0.000000 
#    z -0.012840 0.000000 1.690980 
# 
# From -- ./inp_files/72609.got.cif
#   From: 2010.06.25/outbox.cif.g09.slc.cpg/sg10_37_cif.got.tgz:72609.got - 2010.06.27 22:07:45.
