data_PCOD8058207
_publ_section_title
;
Structure prediction by ZEFSAII (Michael W. Deem and Ramdas Pophale) SiO2 
 PCOD8058207
Probable space group: P 2/M
;
_chemical_formula_sum "Si O2"
_cell_formula_units_Z 32
_cell_length_a 27.731063
_cell_length_b 9.214861
_cell_length_c 19.345128
_cell_angle_alpha 90.000000
_cell_angle_beta 23.662993
_cell_angle_gamma 90.000000
_cell_volume 1984.069896
_symmetry_space_group_name_H-M "P 2/M"
_symmetry_group_IT_number 10
_symmetry_cell_setting 'monoclinic'
loop_
_space_group_symop_operation_xyz
x,y,z
-x,y,-z
-x,-y,-z
x,-y,z
loop_
_atom_site_type_symbol
_atom_site_label
_atom_site_fract_x
_atom_site_fract_y
_atom_site_fract_z
Si Si1 0.653515 0.331316 0.433268
Si Si2 0.105435 0.672845 0.812550
Si Si3 0.413589 0.831846 0.753806
Si Si4 0.003305 0.670668 0.183845
Si Si5 0.794778 0.832906 0.867520
Si Si6 0.863997 0.661088 0.652202
Si Si7 0.726150 0.331205 0.180896
Si Si8 0.017881 0.329545 0.635983
O O1 0.629422 0.500000 0.480424
O O2 0.766285 0.270831 0.329205
O O3 0.540154 0.239218 0.606725
O O4 0.677430 0.306280 0.321345
O O5 0.105412 0.500000 0.815872
O O6 0.080327 0.732649 0.767828
O O7 0.000000 0.733657 0.000000
O O8 0.358503 0.755953 0.759263
O O9 0.430900 0.000000 0.713335
O O10 0.331315 0.810126 0.929207
O O11 0.013684 0.500000 0.159260
O O12 0.943904 0.710404 0.335847
O O13 0.138754 0.732340 0.001602
O O14 0.784319 0.768393 0.803411
O O15 0.895609 0.753081 0.779622
O O16 0.831168 0.000000 0.813590
O O17 0.807828 0.500000 0.731167
O O18 0.873183 0.712498 0.559566
O O19 0.000000 0.660698 0.500000
O O20 0.721610 0.500000 0.165821
O O21 0.988792 0.500000 0.666654
#
# Coordination Sequence:
#
# PCOD8058207 Si02
#       8
#     4   4   4   4   4   4   4   4
#     4  10  20  32  49  71  91 118 159 197 226 266
#     4   9  15  27  47  72  95 114 147 194 234 265
#     4  11  23  34  44  63  94 128 158 190 229 271
#     4   9  15  25  46  71  95 121 146 183 230 270
#     4  10  19  29  42  62  88 121 155 185 222 266
#     4   8  15  26  41  63  90 118 146 177 220 275
#     4  10  18  30  49  70  91 120 157 190 224 270
#     4   9  16  27  44  67  93 120 147 177 223 277
#
# _framework density 16.128464000000001
#
# number of rings (size 3 to 8) (size 9 to 14) (size 15 to 20)
#    0.000    2.500    2.500    1.875    0.000    5.750 
#    0.000    0.000    0.000    1.875    0.000    0.875 
#    0.000    7.000    0.000    0.000    0.000    0.000 
#
# Total GULP energy -396670.356495 kJ/mol
# GULP energy per Si atom -12395.948640 kJ/mol
# Density = 1.609176 g / cm^3
# Si number density = 16.128464 Si / 1000 Ang^3
#
#
#
# Elastic Constant Matrix: (Units=GPa)
#
#
# Indices 1 2 3 4 5 6 
#
# 1 120.7298 41.3302 71.7630 0.0000 7.2021 0.0000
# 2 41.3302 59.7474 45.5638 0.0000 4.6933 0.0000
# 3 71.7630 45.5638 87.1407 0.0000 1.4190 0.0000
# 4 0.0000 0.0000 0.0000 18.7168 0.0000 7.1635
# 5 7.2021 4.6933 1.4190 0.0000 29.1596 0.0000
# 6 0.0000 0.0000 0.0000 7.1635 0.0000 4.1407
#
#
#
# Elastic Compliance Matrix: (Units=1/GPa)
#
#
# Indices 1 2 3 4 5 6 
#
# 1 0.016631 -0.001405 -0.012909 0.000000 -0.003253 0.000000
# 2 -0.001405 0.028377 -0.013623 0.000000 -0.003558 0.000000
# 3 -0.012909 -0.013623 0.029165 0.000000 0.003962 0.000000
# 4 0.000000 0.000000 0.000000 0.158134 0.000000 -0.273575
# 5 -0.003253 -0.003558 0.003962 0.000000 0.035477 0.000000
# 6 0.000000 0.000000 0.000000 -0.273575 0.000000 0.714794
#
#
# Mechanical properties :
#
#
# Convention : Reuss Voigt Hill
#
# Bulk Modulus (GPa) = 54.64338 64.99244 59.81791
# Shear Modulus (GPa) = 4.78674 17.66747 11.22710
#
# Velocity S-wave (km/s) = 1.72462 3.31331 2.64124
# Velocity P-wave (km/s) = 6.15787 7.41765 6.81693
#
# Compressibility (1/GPa) = 0.01830048
#
# Stress axis : x y z
#
# Youngs Moduli (GPa) = 60.12894 35.23943 34.28762
#
# Poissons Ratio (x) = 0.04950 0.44261
# Poissons Ratio (y) = 0.08446 0.46710
# Poissons Ratio (z) = 0.77618 0.48007
#
# Static dielectric constant tensor:
#      x y z
#    x 3.313810 0.000000 0.261290 
#    y 0.000000 2.862190 0.000000 
#    z 0.261290 0.000000 3.062760 
# 
# 
# High freq. dielectric constant tensor:
#      x y z
#    x 1.612960 0.000000 0.023650 
#    y 0.000000 1.595590 0.000000 
#    z 0.023650 0.000000 1.603590 
# 
# From -- ./inp_files/55241.got.cif
#   From: 2010.06.25/outbox.cif.g09.slc.cpg/sg10_28_cif.got.tgz:55241.got - 2010.06.27 22:07:45.
