data_PCOD8058429
_publ_section_title
;
Structure prediction by ZEFSAII (Michael W. Deem and Ramdas Pophale) SiO2 
 PCOD8058429
Probable space group: P 2/M
;
_chemical_formula_sum "Si O2"
_cell_formula_units_Z 18
_cell_length_a 22.601228
_cell_length_b 7.523225
_cell_length_c 14.797853
_cell_angle_alpha 90.000000
_cell_angle_beta 155.456552
_cell_angle_gamma 90.000000
_cell_volume 1045.162161
_symmetry_space_group_name_H-M "P 2/M"
_symmetry_group_IT_number 10
_symmetry_cell_setting 'monoclinic'
loop_
_space_group_symop_operation_xyz
x,y,z
-x,y,-z
-x,-y,-z
x,-y,z
loop_
_atom_site_type_symbol
_atom_site_label
_atom_site_fract_x
_atom_site_fract_y
_atom_site_fract_z
Si Si1 0.951691 0.299927 0.153702
Si Si2 0.263393 0.000000 0.176562
Si Si3 0.137292 0.296935 0.249629
Si Si4 0.106134 0.294627 0.726149
Si Si5 0.329499 0.000000 0.065635
Si Si6 0.647675 0.000000 0.506160
O O1 0.894869 0.500000 0.061021
O O2 0.976852 0.259618 0.294692
O O3 0.097877 0.272601 0.301079
O O4 0.832093 0.174813 0.946255
O O5 0.368720 0.000000 0.407905
O O6 0.345948 0.000000 0.196876
O O7 0.179560 0.500000 0.286452
O O8 0.271920 0.175210 0.416017
O O9 0.000000 0.239342 0.000000
O O10 0.151815 0.500000 0.778685
O O11 0.247872 0.176059 0.918489
O O12 0.000000 0.234329 0.500000
O O13 0.487866 0.000000 0.243790
#
# Coordination Sequence:
#
# PCOD8058429 Si02
#       6
#     4   2   4   4   2   2
#     4   9  17  30  50  76  97 119 164 210 240 275
#     4  10  18  31  47  67 100 136 162 192 235 286
#     4  10  19  31  49  71  98 133 169 202 232 274
#     4   9  18  35  58  76  92 121 162 209 253 288
#     4  10  22  33  47  74 104 129 159 199 244 294
#     4  12  21  31  47  70 104 141 164 187 235 296
#
# _framework density 17.222208999999999
#
# number of rings (size 3 to 8) (size 9 to 14) (size 15 to 20)
#    0.000    2.222    2.222    1.667    0.000    0.889 
#    0.000    0.000    0.000    9.333    0.000    6.222 
#    0.000    0.000    0.000    0.000    0.000    0.000 
#
# Total GULP energy -223161.320645 kJ/mol
# GULP energy per Si atom -12397.851147 kJ/mol
# Density = 1.718301 g / cm^3
# Si number density = 17.222209 Si / 1000 Ang^3
#
#
#
# Elastic Constant Matrix: (Units=GPa)
#
#
# Indices 1 2 3 4 5 6 
#
# 1 78.9083 40.0665 60.1299 0.0000 -3.3207 0.0000
# 2 40.0665 102.4682 62.6044 0.0000 8.7430 0.0000
# 3 60.1299 62.6044 117.1519 0.0000 9.6367 0.0000
# 4 0.0000 0.0000 0.0000 18.3465 0.0000 1.0296
# 5 -3.3207 8.7430 9.6367 0.0000 23.7352 0.0000
# 6 0.0000 0.0000 0.0000 1.0296 0.0000 23.9239
#
#
#
# Elastic Compliance Matrix: (Units=1/GPa)
#
#
# Indices 1 2 3 4 5 6 
#
# 1 0.022819 -0.003077 -0.010784 0.000000 0.008704 0.000000
# 2 -0.003077 0.015024 -0.006165 0.000000 -0.003462 0.000000
# 3 -0.010784 -0.006165 0.017901 0.000000 -0.006506 0.000000
# 4 0.000000 0.000000 0.000000 0.054638 0.000000 -0.002352
# 5 0.008704 -0.003462 -0.006506 0.000000 0.047266 0.000000
# 6 0.000000 0.000000 0.000000 -0.002352 0.000000 0.041900
#
#
# Mechanical properties :
#
#
# Convention : Reuss Voigt Hill
#
# Bulk Modulus (GPa) = 63.72397 69.34778 66.53588
# Shear Modulus (GPa) = 20.42234 22.24963 21.33599
#
# Velocity S-wave (km/s) = 3.44730 3.59822 3.52357
# Velocity P-wave (km/s) = 7.27506 7.59058 7.43449
#
# Compressibility (1/GPa) = 0.01569268
#
# Stress axis : x y z
#
# Youngs Moduli (GPa) = 43.82272 66.56071 55.86404
#
# Poissons Ratio (x) = 0.20478 0.60245
# Poissons Ratio (y) = 0.13482 0.34439
# Poissons Ratio (z) = 0.47259 0.41033
#
# Static dielectric constant tensor:
#      x y z
#    x 3.412400 0.000000 -0.058230 
#    y 0.000000 3.377410 0.000000 
#    z -0.058230 0.000000 2.775010 
# 
# 
# High freq. dielectric constant tensor:
#      x y z
#    x 1.670240 0.000000 -0.001730 
#    y 0.000000 1.683820 0.000000 
#    z -0.001730 0.000000 1.617420 
# 
# From -- ./inp_files/21688.got.cif
#   From: 2010.06.25/outbox.cif.g09.slc.cpg/sg10_11_cif.got.tgz:21688.got - 2010.06.27 22:07:45.
