data_PCOD8058848
_publ_section_title
;
Structure prediction by ZEFSAII (Michael W. Deem and Ramdas Pophale) SiO2 
 PCOD8058848
Probable space group: P 2/M
;
_chemical_formula_sum "Si O2"
_cell_formula_units_Z 28
_cell_length_a 15.047802
_cell_length_b 8.904119
_cell_length_c 11.896433
_cell_angle_alpha 90.000000
_cell_angle_beta 108.953871
_cell_angle_gamma 90.000000
_cell_volume 1507.547794
_symmetry_space_group_name_H-M "P 2/M"
_symmetry_group_IT_number 10
_symmetry_cell_setting 'monoclinic'
loop_
_space_group_symop_operation_xyz
x,y,z
-x,y,-z
-x,-y,-z
x,-y,z
loop_
_atom_site_type_symbol
_atom_site_label
_atom_site_fract_x
_atom_site_fract_y
_atom_site_fract_z
Si Si1 0.875441 0.821623 0.349127
Si Si2 0.406381 0.827496 0.532468
Si Si3 0.694829 0.825160 0.144390
Si Si4 0.660726 0.825518 0.878422
Si Si5 0.920829 0.178673 0.615140
Si Si6 0.540557 0.322971 0.220614
Si Si7 0.756939 0.178238 0.696275
O O1 0.785410 0.756529 0.246069
O O2 0.873595 0.768504 0.478102
O O3 0.972186 0.761185 0.331375
O O4 0.873319 0.000000 0.339914
O O5 0.500000 0.809711 0.500000
O O6 0.409472 0.728125 0.644723
O O7 0.322303 0.763957 0.422019
O O8 0.389687 0.000000 0.561569
O O9 0.600671 0.739178 0.141136
O O10 0.680968 0.000000 0.166850
O O11 0.710464 0.799420 0.018195
O O12 0.564520 0.736577 0.829813
O O13 0.733200 0.765830 0.812562
O O14 0.636290 0.000000 0.847907
O O15 0.857961 0.239709 0.693628
O O16 0.922761 0.000000 0.615701
O O17 0.538055 0.500000 0.212755
O O18 0.757708 0.000000 0.695028
#
# Coordination Sequence:
#
# PCOD8058848 Si02
#       7
#     4   4   4   4   4   4   4
#     4   8  14  26  45  73 101 126 160 205 253 297
#     4  10  18  32  54  75 100 132 167 202 241 297
#     4  10  20  34  53  72  96 132 176 214 247 296
#     4  10  20  35  51  70  98 135 175 211 246 296
#     4   8  13  23  44  73 104 128 153 199 256 306
#     4  12  24  35  50  73 102 132 168 213 258 300
#     4   9  16  28  48  74 102 133 165 199 247 301
#
# _framework density 18.573208999999999
#
# number of rings (size 3 to 8) (size 9 to 14) (size 15 to 20)
#    0.000    2.429    1.429    3.429    0.000    4.857 
#    0.000    0.714    0.000    4.286    0.000    9.000 
#    0.000    2.286    0.000    0.000    0.000    0.000 
#
# Total GULP energy -347099.635829 kJ/mol
# GULP energy per Si atom -12396.415565 kJ/mol
# Density = 1.853094 g / cm^3
# Si number density = 18.573209 Si / 1000 Ang^3
#
#
#
# Elastic Constant Matrix: (Units=GPa)
#
#
# Indices 1 2 3 4 5 6 
#
# 1 145.8811 26.9303 60.4456 0.0000 -22.1575 0.0000
# 2 26.9303 44.4343 26.3142 0.0000 -7.4493 0.0000
# 3 60.4456 26.3142 98.3852 0.0000 -17.8693 0.0000
# 4 0.0000 0.0000 0.0000 5.0865 0.0000 -0.3578
# 5 -22.1575 -7.4493 -17.8693 0.0000 23.0986 0.0000
# 6 0.0000 0.0000 0.0000 -0.3578 0.0000 0.0366
#
#
#
# Elastic Compliance Matrix: (Units=1/GPa)
#
#
# Indices 1 2 3 4 5 6 
#
# 1 0.009987 -0.002497 -0.004507 0.000000 0.005288 0.000000
# 2 -0.002497 0.027624 -0.005435 0.000000 0.002309 0.000000
# 3 -0.004507 -0.005435 0.015455 0.000000 0.005880 0.000000
# 4 0.000000 0.000000 0.000000 0.629083 0.000000 6.147633
# 5 0.005288 0.002309 0.005880 0.000000 0.053658 0.000000
# 6 0.000000 0.000000 0.000000 6.147633 0.000000 87.386478
#
#
# Mechanical properties :
#
#
# Convention : Reuss Voigt Hill
#
# Bulk Modulus (GPa) = 35.47713 57.34232 46.40972
# Shear Modulus (GPa) = 0.05672 17.31171 8.68421
#
# Velocity S-wave (km/s) = 0.17494 3.05631 2.16467
# Velocity P-wave (km/s) = 4.37990 6.58752 5.59370
#
# Compressibility (1/GPa) = 0.02818718
#
# Stress axis : x y z
#
# Youngs Moduli (GPa) = 100.13476 36.20027 64.70450
#
# Poissons Ratio (x) = 0.09039 0.29165
# Poissons Ratio (y) = 0.25002 0.35167
# Poissons Ratio (z) = 0.45134 0.19675
#
# Static dielectric constant tensor:
#      x y z
#    x 3.823790 0.000000 -0.100510 
#    y 0.000000 2.864390 0.000000 
#    z -0.100510 0.000000 3.574950 
# 
# 
# High freq. dielectric constant tensor:
#      x y z
#    x 1.731590 0.000000 -0.008640 
#    y 0.000000 1.658920 0.000000 
#    z -0.008640 0.000000 1.719020 
# 
# From -- ./inp_files/49090.got.cif
#   From: 2010.06.25/outbox.cif.g09.slc.cpg/sg10_25_cif.got.tgz:49090.got - 2010.06.27 22:07:45.
