data_PCOD8058409
_publ_section_title
;
Structure prediction by ZEFSAII (Michael W. Deem and Ramdas Pophale) SiO2 
 PCOD8058409
Probable space group: P 2/M
;
_chemical_formula_sum "Si O2"
_cell_formula_units_Z 26
_cell_length_a 11.501883
_cell_length_b 9.508016
_cell_length_c 20.170812
_cell_angle_alpha 90.000000
_cell_angle_beta 39.102917
_cell_angle_gamma 90.000000
_cell_volume 1391.283416
_symmetry_space_group_name_H-M "P 2/M"
_symmetry_group_IT_number 10
_symmetry_cell_setting 'monoclinic'
loop_
_space_group_symop_operation_xyz
x,y,z
-x,y,-z
-x,-y,-z
x,-y,z
loop_
_atom_site_type_symbol
_atom_site_label
_atom_site_fract_x
_atom_site_fract_y
_atom_site_fract_z
Si Si1 0.595780 0.167585 0.389937
Si Si2 0.000000 0.259755 0.500000
Si Si3 0.476195 0.168061 0.170484
Si Si4 0.341675 0.662556 0.017579
Si Si5 0.948919 0.339806 0.254492
Si Si6 0.869195 0.654475 0.694556
Si Si7 0.604266 0.159251 0.650069
O O1 0.500000 0.219405 0.500000
O O2 0.475351 0.229442 0.381629
O O3 0.797046 0.234550 0.293628
O O4 0.615634 0.000000 0.380861
O O5 0.951577 0.355134 0.584382
O O6 0.825497 0.165295 0.556925
O O7 0.280968 0.224020 0.229425
O O8 0.490591 0.219667 0.240897
O O9 0.481893 0.000000 0.160759
O O10 0.638090 0.240381 0.056795
O O11 0.357852 0.500000 0.989640
O O12 0.143639 0.697895 0.135206
O O13 0.500000 0.703010 0.000000
O O14 0.891002 0.500000 0.264100
O O15 0.967706 0.315924 0.325351
O O16 0.781660 0.500000 0.749559
O O17 0.543318 0.000000 0.672253
#
# Coordination Sequence:
#
# PCOD8058409 Si02
#       7
#     4   2   4   4   4   4   4
#     4  10  21  38  58  80 110 148 187 225 270 323
#     4  10  18  30  56  82 103 138 189 226 265 334
#     4  10  20  33  53  81 110 141 179 224 273 328
#     4  10  19  36  58  80 111 148 179 225 284 326
#     4  10  21  36  56  80 109 145 184 223 275 327
#     4  10  19  33  50  76 112 144 176 222 278 327
#     4   9  19  35  53  78 113 145 176 226 286 326
#
# _framework density 18.687781999999999
#
# number of rings (size 3 to 8) (size 9 to 14) (size 15 to 20)
#    0.000    2.154    1.538    1.846    0.000    2.462 
#    0.000    5.385    0.000    4.615    0.000    0.000 
#    0.000    0.000    0.000    0.000    0.000    0.000 
#
# Total GULP energy -322284.228233 kJ/mol
# GULP energy per Si atom -12395.547240 kJ/mol
# Density = 1.864525 g / cm^3
# Si number density = 18.687782 Si / 1000 Ang^3
#
#
#
# Elastic Constant Matrix: (Units=GPa)
#
#
# Indices 1 2 3 4 5 6 
#
# 1 135.6761 36.5662 64.1578 0.0000 5.6174 0.0000
# 2 36.5662 58.9035 39.2670 0.0000 5.5094 0.0000
# 3 64.1578 39.2670 115.6034 0.0000 3.1938 0.0000
# 4 0.0000 0.0000 0.0000 30.9617 0.0000 -2.6385
# 5 5.6174 5.5094 3.1938 0.0000 28.6925 0.0000
# 6 0.0000 0.0000 0.0000 -2.6385 0.0000 24.2744
#
#
#
# Elastic Compliance Matrix: (Units=1/GPa)
#
#
# Indices 1 2 3 4 5 6 
#
# 1 0.010518 -0.003323 -0.004684 0.000000 -0.000900 0.000000
# 2 -0.003323 0.023331 -0.005993 0.000000 -0.003162 0.000000
# 3 -0.004684 -0.005993 0.013269 0.000000 0.000591 0.000000
# 4 0.000000 0.000000 0.000000 0.032600 0.000000 0.003543
# 5 -0.000900 -0.003162 0.000591 0.000000 0.035570 0.000000
# 6 0.000000 0.000000 0.000000 0.003543 0.000000 0.041581
#
#
# Mechanical properties :
#
#
# Convention : Reuss Voigt Hill
#
# Bulk Modulus (GPa) = 52.30653 65.57389 58.94021
# Shear Modulus (GPa) = 26.14495 28.13185 27.13840
#
# Velocity S-wave (km/s) = 3.74443 3.88411 3.81491
# Velocity P-wave (km/s) = 6.83702 7.43508 7.14231
#
# Compressibility (1/GPa) = 0.01911807
#
# Stress axis : x y z
#
# Youngs Moduli (GPa) = 95.07339 42.86182 75.36297
#
# Poissons Ratio (x) = 0.14243 0.35299
# Poissons Ratio (y) = 0.31592 0.45167
# Poissons Ratio (z) = 0.44531 0.25688
#
# Static dielectric constant tensor:
#      x y z
#    x 3.556340 0.000000 0.304410 
#    y 0.000000 3.250990 0.000000 
#    z 0.304410 0.000000 3.531520 
# 
# 
# High freq. dielectric constant tensor:
#      x y z
#    x 1.716530 0.000000 0.017480 
#    y 0.000000 1.711870 0.000000 
#    z 0.017480 0.000000 1.728750 
# 
# From -- ./inp_files/83495.got.cif
#   From: 2010.06.25/outbox.cif.g09.slc.cpg/sg10_42_cif.got.tgz:83495.got - 2010.06.27 22:07:45.
