data_PCOD8058776
_publ_section_title
;
Structure prediction by ZEFSAII (Michael W. Deem and Ramdas Pophale) SiO2 
 PCOD8058776
Probable space group: P 2/M
;
_chemical_formula_sum "Si O2"
_cell_formula_units_Z 30
_cell_length_a 18.247984
_cell_length_b 9.366000
_cell_length_c 30.955220
_cell_angle_alpha 90.000000
_cell_angle_beta 18.353171
_cell_angle_gamma 90.000000
_cell_volume 1665.861564
_symmetry_space_group_name_H-M "P 2/M"
_symmetry_group_IT_number 10
_symmetry_cell_setting 'monoclinic'
loop_
_space_group_symop_operation_xyz
x,y,z
-x,y,-z
-x,-y,-z
x,-y,z
loop_
_atom_site_type_symbol
_atom_site_label
_atom_site_fract_x
_atom_site_fract_y
_atom_site_fract_z
Si Si1 0.190556 0.668392 0.950014
Si Si2 0.322524 0.669609 0.781880
Si Si3 0.813871 0.339134 0.748894
Si Si4 0.500000 0.244734 0.000000
Si Si5 0.286377 0.170584 0.489026
Si Si6 0.389832 0.666945 0.927549
Si Si7 0.679467 0.169330 0.433698
Si Si8 0.855488 0.157866 0.866544
O O1 0.185968 0.500000 0.950701
O O2 0.306550 0.720738 0.840660
O O3 0.349755 0.722408 0.900925
O O4 0.919778 0.716847 0.105664
O O5 0.367695 0.500000 0.752089
O O6 0.538137 0.756644 0.642265
O O7 0.908839 0.500000 0.689351
O O8 0.646062 0.296346 0.802368
O O9 0.024540 0.227716 0.629224
O O10 0.671421 0.338651 0.873854
O O11 0.356860 0.144464 0.047968
O O12 0.375198 0.216745 0.486928
O O13 0.282543 0.000000 0.484833
O O14 0.341511 0.500000 0.958050
O O15 0.193057 0.741577 0.066069
O O16 0.500000 0.237377 0.500000
O O17 0.931231 0.226460 0.278970
O O18 0.675134 0.000000 0.433690
O O19 0.912330 0.000000 0.852558
#
# Coordination Sequence:
#
# PCOD8058776 Si02
#       8
#     4   4   4   2   4   4   4   4
#     4   8  16  35  60  82 106 134 170 214 265 318
#     4   9  18  35  60  83 103 136 174 213 261 317
#     4  10  20  34  53  76 103 138 178 218 260 306
#     4  10  18  32  52  74 100 134 178 222 256 294
#     4  11  22  36  54  77 108 142 175 217 260 307
#     4   9  19  34  53  78 106 133 169 219 264 305
#     4   9  19  34  48  67 101 141 175 204 248 307
#     4  10  19  31  50  74 100 138 176 210 252 305
#
# _framework density 18.008700000000001
#
# number of rings (size 3 to 8) (size 9 to 14) (size 15 to 20)
#    0.000    2.533    1.333    1.600    1.867    2.667 
#    0.000    2.667    0.000    6.000    0.000    0.000 
#    0.000    0.000    0.000    0.000    0.000    0.000 
#
# Total GULP energy -371794.572428 kJ/mol
# GULP energy per Si atom -12393.152414 kJ/mol
# Density = 1.796771 g / cm^3
# Si number density = 18.008700 Si / 1000 Ang^3
#
#
#
# Elastic Constant Matrix: (Units=GPa)
#
#
# Indices 1 2 3 4 5 6 
#
# 1 142.0413 33.5444 61.6745 0.0000 2.3422 0.0000
# 2 33.5444 56.6822 42.7802 0.0000 2.3859 0.0000
# 3 61.6745 42.7802 128.5500 0.0000 8.2696 0.0000
# 4 0.0000 0.0000 0.0000 28.2311 0.0000 2.2397
# 5 2.3422 2.3859 8.2696 0.0000 21.0944 0.0000
# 6 0.0000 0.0000 0.0000 2.2397 0.0000 17.4243
#
#
#
# Elastic Compliance Matrix: (Units=1/GPa)
#
#
# Indices 1 2 3 4 5 6 
#
# 1 0.009230 -0.002825 -0.003532 0.000000 0.000679 0.000000
# 2 -0.002825 0.024428 -0.006788 0.000000 0.000212 0.000000
# 3 -0.003532 -0.006788 0.011959 0.000000 -0.003529 0.000000
# 4 0.000000 0.000000 0.000000 0.035787 0.000000 -0.004600
# 5 0.000679 0.000212 -0.003529 0.000000 0.048690 0.000000
# 6 0.000000 0.000000 0.000000 -0.004600 0.000000 0.057982
#
#
# Mechanical properties :
#
#
# Convention : Reuss Voigt Hill
#
# Bulk Modulus (GPa) = 51.73789 67.03020 59.38404
# Shear Modulus (GPa) = 22.64415 25.96826 24.30620
#
# Velocity S-wave (km/s) = 3.54983 3.80147 3.67780
# Velocity P-wave (km/s) = 6.75230 7.52130 7.14715
#
# Compressibility (1/GPa) = 0.01932819
#
# Stress axis : x y z
#
# Youngs Moduli (GPa) = 108.34669 40.93634 83.61713
#
# Poissons Ratio (x) = 0.11565 0.29530
# Poissons Ratio (y) = 0.30611 0.56756
# Poissons Ratio (z) = 0.38264 0.27786
#
# Static dielectric constant tensor:
#      x y z
#    x 3.812550 0.000000 -0.050350 
#    y 0.000000 3.001680 0.000000 
#    z -0.050350 0.000000 3.280320 
# 
# 
# High freq. dielectric constant tensor:
#      x y z
#    x 1.702800 0.000000 -0.004820 
#    y 0.000000 1.670180 0.000000 
#    z -0.004820 0.000000 1.692670 
# 
# From -- ./inp_files/95498.got.cif
#   From: 2010.06.25/outbox.cif.g09.slc.cpg/sg10_48_cif.got.tgz:95498.got - 2010.06.27 22:07:45.
