data_PCOD8058798
_publ_section_title
;
Structure prediction by ZEFSAII (Michael W. Deem and Ramdas Pophale) SiO2 
 PCOD8058798
Probable space group: P 2/M
;
_chemical_formula_sum "Si O2"
_cell_formula_units_Z 32
_cell_length_a 24.282093
_cell_length_b 8.913418
_cell_length_c 17.855790
_cell_angle_alpha 90.000000
_cell_angle_beta 27.719413
_cell_angle_gamma 90.000000
_cell_volume 1797.608137
_symmetry_space_group_name_H-M "P 2/M"
_symmetry_group_IT_number 10
_symmetry_cell_setting 'monoclinic'
loop_
_space_group_symop_operation_xyz
x,y,z
-x,y,-z
-x,-y,-z
x,-y,z
loop_
_atom_site_type_symbol
_atom_site_label
_atom_site_fract_x
_atom_site_fract_y
_atom_site_fract_z
Si Si1 0.374977 0.174107 0.989961
Si Si2 0.810707 0.822042 0.904521
Si Si3 0.893910 0.820355 0.960214
Si Si4 0.159909 0.179439 0.655688
Si Si5 0.359694 0.174331 0.303039
Si Si6 0.035069 0.828002 0.543370
Si Si7 0.718987 0.676821 0.747730
Si Si8 0.860335 0.164106 0.159502
O O1 0.307023 0.233040 0.997174
O O2 0.329093 0.263542 0.116248
O O3 0.344649 0.000000 0.041149
O O4 0.513939 0.199586 0.809315
O O5 0.815396 0.761920 0.984602
O O6 0.926655 0.763142 0.721979
O O7 0.814230 0.000000 0.901098
O O8 0.030131 0.767221 0.784527
O O9 0.893001 0.000000 0.966898
O O10 0.838617 0.753638 0.104957
O O11 0.258667 0.240642 0.479550
O O12 0.187004 0.245139 0.707486
O O13 0.165043 0.000000 0.653829
O O14 0.361908 0.261512 0.222052
O O15 0.336905 0.000000 0.313454
O O16 0.147367 0.727972 0.427727
O O17 0.000000 0.812870 0.500000
O O18 0.064689 0.000000 0.528753
O O19 0.711267 0.500000 0.757732
O O20 0.800411 0.000000 0.227558
O O21 0.000000 0.145008 0.000000
#
# Coordination Sequence:
#
# PCOD8058798 Si02
#       8
#     4   4   4   4   4   4   4   4
#     4  10  20  35  50  65  87 122 166 201 232 273
#     4   9  16  27  45  67  91 121 157 192 225 270
#     4   8  12  19  36  63  93 120 145 179 228 283
#     4   8  13  23  40  64  90 116 150 189 230 274
#     4  10  20  33  51  68  87 120 163 204 233 271
#     4  10  18  32  53  71  92 122 155 190 227 273
#     4  12  24  35  49  69  95 120 151 197 245 287
#     4   7  10  17  32  58  92 121 141 173 226 281
#
# _framework density 17.801432999999999
#
# number of rings (size 3 to 8) (size 9 to 14) (size 15 to 20)
#    0.000    2.750    1.250    3.750    0.000    4.250 
#    0.000    0.000    0.000    0.750    0.000    5.250 
#    0.000   13.500    0.000    2.250    0.000    2.625 
#
# Total GULP energy -396499.618011 kJ/mol
# GULP energy per Si atom -12390.613063 kJ/mol
# Density = 1.776092 g / cm^3
# Si number density = 17.801433 Si / 1000 Ang^3
#
#
#
# Elastic Constant Matrix: (Units=GPa)
#
#
# Indices 1 2 3 4 5 6 
#
# 1 163.4215 28.3819 64.1578 0.0000 13.9536 0.0000
# 2 28.3819 37.3260 17.3706 0.0000 -1.7166 0.0000
# 3 64.1578 17.3706 57.1025 0.0000 -1.4495 0.0000
# 4 0.0000 0.0000 0.0000 2.8533 0.0000 -1.9354
# 5 13.9536 -1.7166 -1.4495 0.0000 27.4609 0.0000
# 6 0.0000 0.0000 0.0000 -1.9354 0.0000 0.9188
#
#
#
# Elastic Compliance Matrix: (Units=1/GPa)
#
#
# Indices 1 2 3 4 5 6 
#
# 1 0.012562 -0.003767 -0.013154 0.000000 -0.007313 0.000000
# 2 -0.003767 0.032396 -0.005531 0.000000 0.003647 0.000000
# 3 -0.013154 -0.005531 0.034180 0.000000 0.008142 0.000000
# 4 0.000000 0.000000 0.000000 -0.817209 0.000000 -1.721466
# 5 -0.007313 0.003647 0.008142 0.000000 0.040789 0.000000
# 6 0.000000 0.000000 0.000000 -1.721466 0.000000 -2.537885
#
#
# Mechanical properties :
#
#
# Convention : Reuss Voigt Hill
#
# Bulk Modulus (GPa) = 29.20813 53.07452 41.14132
# Shear Modulus (GPa) = -1.57289 16.10924 7.26817
#
# Velocity S-wave (km/s) = -0.94101 3.01149 2.02281
# Velocity P-wave (km/s) = 3.90675 6.47854 5.34950
#
# Compressibility (1/GPa) = 0.03423704
#
# Stress axis : x y z
#
# Youngs Moduli (GPa) = 79.60755 30.86756 29.25678
#
# Poissons Ratio (x) = 0.11626 0.38483
# Poissons Ratio (y) = 0.29985 0.16181
# Poissons Ratio (z) = 1.04712 0.17071
#
# Static dielectric constant tensor:
#      x y z
#    x 3.773180 0.000000 0.214270 
#    y 0.000000 2.707840 0.000000 
#    z 0.214270 0.000000 3.372030 
# 
# 
# High freq. dielectric constant tensor:
#      x y z
#    x 1.702290 0.000000 0.013470 
#    y 0.000000 1.621080 0.000000 
#    z 0.013470 0.000000 1.671710 
# 
# From -- ./inp_files/79915.got.cif
#   From: 2010.06.25/outbox.cif.g09.slc.cpg/sg10_40_cif.got.tgz:79915.got - 2010.06.27 22:07:45.
