data_PCOD8058511
_publ_section_title
;
Structure prediction by ZEFSAII (Michael W. Deem and Ramdas Pophale) SiO2 
 PCOD8058511
Probable space group: P 2/M
;
_chemical_formula_sum "Si O2"
_cell_formula_units_Z 32
_cell_length_a 23.249513
_cell_length_b 9.262951
_cell_length_c 14.183456
_cell_angle_alpha 90.000000
_cell_angle_beta 150.146146
_cell_angle_gamma 90.000000
_cell_volume 1520.515738
_symmetry_space_group_name_H-M "P 2/M"
_symmetry_group_IT_number 10
_symmetry_cell_setting 'monoclinic'
loop_
_space_group_symop_operation_xyz
x,y,z
-x,y,-z
-x,-y,-z
x,-y,z
loop_
_atom_site_type_symbol
_atom_site_label
_atom_site_fract_x
_atom_site_fract_y
_atom_site_fract_z
Si Si1 0.276546 0.166703 0.758644
Si Si2 0.063998 0.342961 0.498369
Si Si3 0.198062 0.833248 0.445334
Si Si4 0.359564 0.331700 0.048737
Si Si5 0.070234 0.168163 0.942538
Si Si6 0.540197 0.330645 0.456025
Si Si7 0.781698 0.669565 0.711299
Si Si8 0.168217 0.342126 0.925527
O O1 0.146355 0.210357 0.595956
O O2 0.283457 0.198569 0.656051
O O3 0.297142 0.000000 0.809730
O O4 0.361992 0.255383 0.949098
O O5 0.129172 0.500000 0.602118
O O6 0.000000 0.296343 0.500000
O O7 0.967540 0.361117 0.282707
O O8 0.245230 0.730474 0.430618
O O9 0.062750 0.798390 0.274720
O O10 0.209327 0.000000 0.431151
O O11 0.376776 0.500000 0.053691
O O12 0.461074 0.267209 0.258841
O O13 0.238779 0.297827 0.931842
O O14 0.167939 0.221081 0.005970
O O15 0.089734 0.000000 0.986832
O O16 0.103472 0.252082 0.085926
O O17 0.500000 0.264491 0.500000
O O18 0.516681 0.500000 0.424808
O O19 0.672983 0.294282 0.624096
O O20 0.804792 0.500000 0.737083
O O21 0.216683 0.500000 0.030140
#
# Coordination Sequence:
#
# PCOD8058511 Si02
#       8
#     4   4   4   4   4   4   4   4
#     4  11  22  36  54  81 118 158 196 233 282 344
#     4  10  18  31  50  77 113 153 194 234 282 334
#     4  10  23  41  57  79 116 160 194 228 285 347
#     4  10  20  37  60  86 117 154 193 240 292 340
#     4  11  22  37  57  83 118 159 194 230 287 350
#     4   9  19  39  66  90 115 145 182 234 294 345
#     4  11  23  39  62  90 111 142 194 245 291 340
#     4  10  19  31  53  84 116 150 192 236 280 334
#
# _framework density 21.045490000000001
#
# number of rings (size 3 to 8) (size 9 to 14) (size 15 to 20)
#    0.000    1.750    2.500    2.250    0.000    6.250 
#    0.000    1.875    0.000    6.375    0.000    0.000 
#    0.000    0.000    0.000    0.000    0.000    0.000 
#
# Total GULP energy -396490.858700 kJ/mol
# GULP energy per Si atom -12390.339334 kJ/mol
# Density = 2.099759 g / cm^3
# Si number density = 21.045490 Si / 1000 Ang^3
#
#
#
# Elastic Constant Matrix: (Units=GPa)
#
#
# Indices 1 2 3 4 5 6 
#
# 1 89.1916 53.2411 20.3410 0.0000 -21.2207 0.0000
# 2 53.2411 84.1493 35.7517 0.0000 -15.5066 0.0000
# 3 20.3410 35.7517 102.8810 0.0000 -26.2731 0.0000
# 4 0.0000 0.0000 0.0000 24.2542 0.0000 -14.1265
# 5 -21.2207 -15.5066 -26.2731 0.0000 33.1543 0.0000
# 6 0.0000 0.0000 0.0000 -14.1265 0.0000 26.4240
#
#
#
# Elastic Compliance Matrix: (Units=1/GPa)
#
#
# Indices 1 2 3 4 5 6 
#
# 1 0.020018 -0.012067 0.002590 0.000000 0.009222 0.000000
# 2 -0.012067 0.021521 -0.005635 0.000000 -0.002123 0.000000
# 3 0.002590 -0.005635 0.013686 0.000000 0.009868 0.000000
# 4 0.000000 0.000000 0.000000 0.059873 0.000000 0.032009
# 5 0.009222 -0.002123 0.009868 0.000000 0.042891 0.000000
# 6 0.000000 0.000000 0.000000 0.032009 0.000000 0.054957
#
#
# Mechanical properties :
#
#
# Convention : Reuss Voigt Hill
#
# Bulk Modulus (GPa) = 39.99622 54.98770 47.49196
# Shear Modulus (GPa) = 19.88052 27.89236 23.88644
#
# Velocity S-wave (km/s) = 3.07684 3.64447 3.37262
# Velocity P-wave (km/s) = 5.62748 6.62527 6.14666
#
# Compressibility (1/GPa) = 0.02500236
#
# Stress axis : x y z
#
# Youngs Moduli (GPa) = 49.95508 46.46625 73.06695
#
# Poissons Ratio (x) = 0.56069 -0.18927
# Poissons Ratio (y) = 0.60278 0.41174
# Poissons Ratio (z) = -0.12940 0.26185
#
# Static dielectric constant tensor:
#      x y z
#    x 3.806830 0.000000 -0.254520 
#    y 0.000000 3.583770 0.000000 
#    z -0.254520 0.000000 3.932600 
# 
# 
# High freq. dielectric constant tensor:
#      x y z
#    x 1.814010 0.000000 -0.024570 
#    y 0.000000 1.801100 0.000000 
#    z -0.024570 0.000000 1.824550 
# 
# From -- ./inp_files/71665.got.cif
#   From: 2010.06.25/outbox.cif.g09.slc.cpg/sg10_36_cif.got.tgz:71665.got - 2010.06.27 22:07:45.
