data_PCOD8058388
_publ_section_title
;
Structure prediction by ZEFSAII (Michael W. Deem and Ramdas Pophale) SiO2 
 PCOD8058388
Probable space group: P 2/M
;
_chemical_formula_sum "Si O2"
_cell_formula_units_Z 32
_cell_length_a 12.507212
_cell_length_b 8.962652
_cell_length_c 31.462024
_cell_angle_alpha 90.000000
_cell_angle_beta 28.198019
_cell_angle_gamma 90.000000
_cell_volume 1666.495589
_symmetry_space_group_name_H-M "P 2/M"
_symmetry_group_IT_number 10
_symmetry_cell_setting 'monoclinic'
loop_
_space_group_symop_operation_xyz
x,y,z
-x,y,-z
-x,-y,-z
x,-y,z
loop_
_atom_site_type_symbol
_atom_site_label
_atom_site_fract_x
_atom_site_fract_y
_atom_site_fract_z
Si Si1 0.996899 0.326342 0.238286
Si Si2 0.816282 0.835218 0.992420
Si Si3 0.107674 0.824161 0.504940
Si Si4 0.384529 0.177232 0.671701
Si Si5 0.283182 0.175586 0.295414
Si Si6 0.712388 0.822830 0.198561
Si Si7 0.363177 0.323247 0.178816
Si Si8 0.747842 0.835435 0.918231
O O1 0.956018 0.500000 0.259191
O O2 0.173028 0.264155 0.212036
O O3 0.096932 0.289164 0.157112
O O4 0.753286 0.244728 0.320543
O O5 0.071950 0.765960 0.905939
O O6 0.800779 0.855356 0.948113
O O7 0.797529 0.000000 0.020723
O O8 0.617482 0.732691 0.080114
O O9 0.360146 0.762181 0.423370
O O10 0.000000 0.753103 0.500000
O O11 0.953228 0.783961 0.599344
O O12 0.123034 0.000000 0.492851
O O13 0.290691 0.231096 0.751010
O O14 0.368938 0.000000 0.673982
O O15 0.485912 0.232475 0.254540
O O16 0.284644 0.266425 0.251648
O O17 0.304450 0.000000 0.278538
O O18 0.720592 0.000000 0.196148
O O19 0.372248 0.500000 0.174383
O O20 0.774954 0.000000 0.886692
O O21 0.500000 0.770651 0.000000
#
# Coordination Sequence:
#
# PCOD8058388 Si02
#       8
#     4   4   4   4   4   4   4   4
#     4  11  23  36  52  77 113 154 194 231 275 327
#     4  10  19  33  55  83 112 145 185 228 277 331
#     4   9  16  31  62  96 117 135 170 227 290 341
#     4  10  18  33  59  91 119 140 172 228 289 339
#     4  10  20  37  61  86 111 144 185 226 275 340
#     4   9  17  31  56  88 116 140 173 222 281 337
#     4  11  25  41  53  72 110 160 200 231 269 318
#     4  10  18  30  53  82 108 138 183 235 283 327
#
# _framework density 19.201971
#
# number of rings (size 3 to 8) (size 9 to 14) (size 15 to 20)
#    0.000    2.000    3.750    0.750    0.000    2.750 
#    0.000    5.000    0.000    4.500    0.000    0.000 
#    0.000    0.000    0.000    0.000    0.000    0.000 
#
# Total GULP energy -396472.793677 kJ/mol
# GULP energy per Si atom -12389.774802 kJ/mol
# Density = 1.915827 g / cm^3
# Si number density = 19.201971 Si / 1000 Ang^3
#
#
#
# Elastic Constant Matrix: (Units=GPa)
#
#
# Indices 1 2 3 4 5 6 
#
# 1 74.3027 25.0874 54.4505 0.0000 -10.2361 0.0000
# 2 25.0874 41.0754 31.1134 0.0000 -1.9988 0.0000
# 3 54.4505 31.1134 142.5346 0.0000 -22.3175 0.0000
# 4 0.0000 0.0000 0.0000 -1.0346 0.0000 -3.0551
# 5 -10.2361 -1.9988 -22.3175 0.0000 34.3824 0.0000
# 6 0.0000 0.0000 0.0000 -3.0551 0.0000 19.8197
#
#
#
# Elastic Compliance Matrix: (Units=1/GPa)
#
#
# Indices 1 2 3 4 5 6 
#
# 1 0.020764 -0.008156 -0.005853 0.000000 0.001908 0.000000
# 2 -0.008156 0.032601 -0.004546 0.000000 -0.003484 0.000000
# 3 -0.005853 -0.004546 0.011053 0.000000 0.005168 0.000000
# 4 0.000000 0.000000 0.000000 -0.664202 0.000000 -0.102385
# 5 0.001908 -0.003484 0.005168 0.000000 0.032805 0.000000
# 6 0.000000 0.000000 0.000000 -0.102385 0.000000 0.034673
#
#
# Mechanical properties :
#
#
# Convention : Reuss Voigt Hill
#
# Bulk Modulus (GPa) = 36.61876 53.24613 44.93244
# Shear Modulus (GPa) = -10.28609 20.45094 5.08242
#
# Velocity S-wave (km/s) = -2.31699 3.26704 1.62867
# Velocity P-wave (km/s) = 3.45743 6.48237 5.19495
#
# Compressibility (1/GPa) = 0.02730841
#
# Stress axis : x y z
#
# Youngs Moduli (GPa) = 48.15937 30.67414 90.46991
#
# Poissons Ratio (x) = 0.25017 0.52954
# Poissons Ratio (y) = 0.39277 0.41129
# Poissons Ratio (z) = 0.28189 0.13945
#
# Static dielectric constant tensor:
#      x y z
#    x 3.660700 0.000000 -0.333540 
#    y 0.000000 3.145660 0.000000 
#    z -0.333540 0.000000 3.700840 
# 
# 
# High freq. dielectric constant tensor:
#      x y z
#    x 1.747390 0.000000 -0.022810 
#    y 0.000000 1.702490 0.000000 
#    z -0.022810 0.000000 1.751830 
# 
# From -- ./inp_files/94915.got.cif
#   From: 2010.06.25/outbox.cif.g09.slc.cpg/sg10_48_cif.got.tgz:94915.got - 2010.06.27 22:07:45.
