data_PCOD8058770
_publ_section_title
;
Structure prediction by ZEFSAII (Michael W. Deem and Ramdas Pophale) SiO2 
 PCOD8058770
Probable space group: P 2/M
;
_chemical_formula_sum "Si O2"
_cell_formula_units_Z 20
_cell_length_a 14.117405
_cell_length_b 7.798009
_cell_length_c 32.112194
_cell_angle_alpha 90.000000
_cell_angle_beta 18.246160
_cell_angle_gamma 90.000000
_cell_volume 1106.857901
_symmetry_space_group_name_H-M "P 2/M"
_symmetry_group_IT_number 10
_symmetry_cell_setting 'monoclinic'
loop_
_space_group_symop_operation_xyz
x,y,z
-x,y,-z
-x,-y,-z
x,-y,z
loop_
_atom_site_type_symbol
_atom_site_label
_atom_site_fract_x
_atom_site_fract_y
_atom_site_fract_z
Si Si1 0.473230 0.000000 0.321481
Si Si2 0.838468 0.195315 0.856529
Si Si3 0.840143 0.698756 0.358055
Si Si4 0.970902 0.694281 0.397219
Si Si5 0.167817 0.000000 0.366124
Si Si6 0.348572 0.690265 0.701831
O O1 0.653142 0.170557 0.260417
O O2 0.444613 0.000000 0.283319
O O3 0.144270 0.000000 0.478900
O O4 0.957869 0.202146 0.759562
O O5 0.044576 0.303294 0.801837
O O6 0.841408 0.000000 0.870805
O O7 0.500000 0.271517 0.000000
O O8 0.500000 0.773852 0.500000
O O9 0.829354 0.500000 0.349860
O O10 0.994421 0.727454 0.338314
O O11 0.071870 0.500000 0.366311
O O12 0.624870 0.726562 0.555082
O O13 0.191212 0.828390 0.328343
O O14 0.375601 0.500000 0.710353
#
# Coordination Sequence:
#
# PCOD8058770 Si02
#       6
#     2   4   4   4   2   4
#     4   9  18  32  46  73 102 131 177 213 254 323
#     4  11  23  35  49  76 111 142 178 216 252 309
#     4  10  19  32  51  76 104 139 178 212 254 312
#     4   9  18  30  48  77 104 131 175 213 251 314
#     4   9  18  30  48  70 104 138 163 215 274 296
#     4  10  18  32  52  72 101 139 172 211 260 305
#
# _framework density 18.069168000000001
#
# number of rings (size 3 to 8) (size 9 to 14) (size 15 to 20)
#    0.000    2.200    3.000    0.600    1.400    2.800 
#    0.000    4.000    0.000    0.000    0.000    2.800 
#    0.000    4.800    0.000    0.000    0.000    0.000 
#
# Total GULP energy -248013.297816 kJ/mol
# GULP energy per Si atom -12400.664891 kJ/mol
# Density = 1.802804 g / cm^3
# Si number density = 18.069168 Si / 1000 Ang^3
#
#
#
# Elastic Constant Matrix: (Units=GPa)
#
#
# Indices 1 2 3 4 5 6 
#
# 1 118.2471 59.2386 39.1039 -0.0001 -18.7094 0.0002
# 2 59.2386 113.2276 23.9977 -0.0005 -13.2923 -0.0001
# 3 39.1039 23.9977 68.8010 0.0020 0.3462 -0.0020
# 4 -0.0001 -0.0005 0.0020 14.5238 -0.0001 0.9281
# 5 -18.7094 -13.2923 0.3462 -0.0001 17.8857 0.0002
# 6 0.0002 -0.0001 -0.0020 0.9281 0.0002 22.1612
#
#
#
# Elastic Compliance Matrix: (Units=1/GPa)
#
#
# Indices 1 2 3 4 5 6 
#
# 1 0.015239 -0.005051 -0.006962 0.000001 0.012322 -0.000001
# 2 -0.005051 0.012223 -0.001412 0.000001 0.003828 0.000000
# 3 -0.006962 -0.001412 0.019028 -0.000003 -0.008700 0.000002
# 4 0.000001 0.000001 -0.000003 0.069037 0.000002 -0.002891
# 5 0.012322 0.003828 -0.008700 0.000002 0.071813 -0.000002
# 6 -0.000001 0.000000 0.000002 -0.002891 -0.000002 0.045245
#
#
# Mechanical properties :
#
#
# Convention : Reuss Voigt Hill
#
# Bulk Modulus (GPa) = 50.91407 60.55070 55.73238
# Shear Modulus (GPa) = 18.79842 22.77650 20.78746
#
# Velocity S-wave (km/s) = 3.22896 3.55423 3.39549
# Velocity P-wave (km/s) = 6.49154 7.10117 6.80319
#
# Compressibility (1/GPa) = 0.01964094
#
# Stress axis : x y z
#
# Youngs Moduli (GPa) = 65.62153 81.81410 52.55530
#
# Poissons Ratio (x) = 0.41322 0.36586
# Poissons Ratio (y) = 0.33144 0.07420
# Poissons Ratio (z) = 0.45683 0.11551
#
# Static dielectric constant tensor:
#      x y z
#    x 3.332010 0.000000 -0.090080 
#    y 0.000000 3.440270 0.000000 
#    z -0.090080 0.000000 2.974020 
# 
# 
# High freq. dielectric constant tensor:
#      x y z
#    x 1.690260 0.000000 -0.009440 
#    y 0.000000 1.712610 0.000000 
#    z -0.009440 0.000000 1.648520 
# 
# From -- ./inp_files/22406.got.cif
#   From: 2010.06.25/outbox.cif.g09.slc.cpg/sg10_12_cif.got.tgz:22406.got - 2010.06.27 22:07:45.
