data_PCOD8058502
_publ_section_title
;
Structure prediction by ZEFSAII (Michael W. Deem and Ramdas Pophale) SiO2 
 PCOD8058502
Probable space group: P 2/M
;
_chemical_formula_sum "Si O2"
_cell_formula_units_Z 32
_cell_length_a 24.388248
_cell_length_b 9.287270
_cell_length_c 9.869943
_cell_angle_alpha 90.000000
_cell_angle_beta 50.879311
_cell_angle_gamma 90.000000
_cell_volume 1734.377058
_symmetry_space_group_name_H-M "P 2/M"
_symmetry_group_IT_number 10
_symmetry_cell_setting 'monoclinic'
loop_
_space_group_symop_operation_xyz
x,y,z
-x,y,-z
-x,-y,-z
x,-y,z
loop_
_atom_site_type_symbol
_atom_site_label
_atom_site_fract_x
_atom_site_fract_y
_atom_site_fract_z
Si Si1 0.669562 0.670396 0.018219
Si Si2 0.372888 0.668963 0.431639
Si Si3 0.741207 0.670261 0.180542
Si Si4 0.007059 0.170974 0.643370
Si Si5 0.484049 0.671575 0.675943
Si Si6 0.132414 0.167091 0.637436
Si Si7 0.882305 0.167157 0.032791
Si Si8 0.726815 0.330376 0.648730
O O1 0.662325 0.500000 0.017877
O O2 0.708237 0.731461 0.825172
O O3 0.719580 0.715029 0.063386
O O4 0.590716 0.736356 0.156962
O O5 0.377020 0.500000 0.450099
O O6 0.319982 0.731955 0.626934
O O7 0.452537 0.729741 0.326092
O O8 0.342267 0.707338 0.332596
O O9 0.750823 0.500000 0.182753
O O10 0.813577 0.744255 0.104623
O O11 0.079515 0.223517 0.602195
O O12 0.000000 0.232485 0.500000
O O13 0.006264 0.000000 0.640476
O O14 0.943676 0.226081 0.838089
O O15 0.500000 0.726647 0.500000
O O16 0.479320 0.500000 0.684531
O O17 0.097414 0.190686 0.840579
O O18 0.204675 0.254451 0.517750
O O19 0.149920 0.000000 0.587691
O O20 0.867650 0.000000 0.026875
O O21 0.742288 0.500000 0.623464
#
# Coordination Sequence:
#
# PCOD8058502 Si02
#       8
#     4   4   4   4   4   4   4   4
#     4   9  18  29  45  71 103 134 165 206 253 293
#     4   9  16  27  46  69  98 132 165 202 245 292
#     4  10  18  31  50  74 102 133 165 201 249 298
#     4   9  19  35  54  76 101 128 162 204 246 287
#     4   9  14  24  43  68  97 130 168 207 246 290
#     4  10  20  35  55  76  99 131 167 202 242 292
#     4  10  20  34  54  78 100 128 166 205 242 289
#     4  10  20  33  48  74 107 133 161 205 254 293
#
# _framework density 18.450429
#
# number of rings (size 3 to 8) (size 9 to 14) (size 15 to 20)
#    0.000    2.500    2.500    0.375    1.750    2.000 
#    0.000    3.125    0.000    2.250    0.000    5.250 
#    0.000    0.000    0.000    0.000    0.000    0.000 
#
# Total GULP energy -396653.545000 kJ/mol
# GULP energy per Si atom -12395.423281 kJ/mol
# Density = 1.840844 g / cm^3
# Si number density = 18.450429 Si / 1000 Ang^3
#
#
#
# Elastic Constant Matrix: (Units=GPa)
#
#
# Indices 1 2 3 4 5 6 
#
# 1 128.7565 26.2671 42.8274 0.0000 2.1506 0.0000
# 2 26.2671 19.9946 16.5069 0.0000 0.5753 0.0000
# 3 42.8274 16.5069 101.6666 0.0000 13.7995 0.0000
# 4 0.0000 0.0000 0.0000 35.4138 0.0000 -32.0853
# 5 2.1506 0.5753 13.7995 0.0000 33.2550 0.0000
# 6 0.0000 0.0000 0.0000 -32.0853 0.0000 62.3924
#
#
#
# Elastic Compliance Matrix: (Units=1/GPa)
#
#
# Indices 1 2 3 4 5 6 
#
# 1 0.011227 -0.012461 -0.002794 0.000000 0.000649 0.000000
# 2 -0.012461 0.071882 -0.006742 0.000000 0.002360 0.000000
# 3 -0.002794 -0.006742 0.012788 0.000000 -0.005009 0.000000
# 4 0.000000 0.000000 0.000000 0.052871 0.000000 0.027189
# 5 0.000649 0.002360 -0.005009 0.000000 0.032066 0.000000
# 6 0.000000 0.000000 0.000000 0.027189 0.000000 0.030010
#
#
# Mechanical properties :
#
#
# Convention : Reuss Voigt Hill
#
# Bulk Modulus (GPa) = 19.26709 46.84671 33.05690
# Shear Modulus (GPa) = 18.37287 37.19999 27.78643
#
# Velocity S-wave (km/s) = 3.15905 4.49510 3.88494
# Velocity P-wave (km/s) = 4.87559 7.23788 6.17083
#
# Compressibility (1/GPa) = 0.05190198
#
# Stress axis : x y z
#
# Youngs Moduli (GPa) = 89.06758 13.91167 78.19968
#
# Poissons Ratio (x) = 0.17336 0.21852
# Poissons Ratio (y) = 1.10990 0.52722
# Poissons Ratio (z) = 0.24889 0.09379
#
# Static dielectric constant tensor:
#      x y z
#    x 3.651980 0.000000 0.098530 
#    y 0.000000 2.805110 0.000000 
#    z 0.098530 0.000000 3.651270 
# 
# 
# High freq. dielectric constant tensor:
#      x y z
#    x 1.733910 0.000000 0.002290 
#    y 0.000000 1.647760 0.000000 
#    z 0.002290 0.000000 1.724010 
# 
# From -- ./inp_files/34607.got.cif
#   From: 2010.06.25/outbox.cif.g09.slc.cpg/sg10_18_cif.got.tgz:34607.got - 2010.06.27 22:07:45.
