data_PCOD8058272
_publ_section_title
;
Structure prediction by ZEFSAII (Michael W. Deem and Ramdas Pophale) SiO2 
 PCOD8058272
Probable space group: P 2/M
;
_chemical_formula_sum "Si O2"
_cell_formula_units_Z 28
_cell_length_a 22.897515
_cell_length_b 8.911222
_cell_length_c 17.561948
_cell_angle_alpha 90.000000
_cell_angle_beta 25.684294
_cell_angle_gamma 90.000000
_cell_volume 1553.099564
_symmetry_space_group_name_H-M "P 2/M"
_symmetry_group_IT_number 10
_symmetry_cell_setting 'monoclinic'
loop_
_space_group_symop_operation_xyz
x,y,z
-x,y,-z
-x,-y,-z
x,-y,z
loop_
_atom_site_type_symbol
_atom_site_label
_atom_site_fract_x
_atom_site_fract_y
_atom_site_fract_z
Si Si1 0.270767 0.823323 0.389732
Si Si2 0.709202 0.321785 0.372367
Si Si3 0.583839 0.321737 0.232947
Si Si4 0.201456 0.321861 0.895637
Si Si5 0.099384 0.321736 0.717420
Si Si6 0.431238 0.176677 0.908276
Si Si7 0.652932 0.330742 0.847061
O O1 0.151321 0.754232 0.579624
O O2 0.413123 0.778941 0.260653
O O3 0.257642 0.754639 0.320719
O O4 0.253537 0.000000 0.403703
O O5 0.711169 0.500000 0.366458
O O6 0.560066 0.264134 0.567419
O O7 0.753822 0.254620 0.238488
O O8 0.812444 0.264137 0.315025
O O9 0.584924 0.500000 0.221042
O O10 0.695697 0.265468 0.160961
O O11 0.617768 0.245759 0.113162
O O12 0.204068 0.500000 0.887804
O O13 0.052349 0.265464 0.090976
O O14 0.109115 0.500000 0.696872
O O15 0.410747 0.000000 0.932032
O O16 0.335983 0.245372 0.085670
O O17 0.706717 0.500000 0.793273
O O18 0.500000 0.328804 0.000000
#
# Coordination Sequence:
#
# PCOD8058272 Si02
#       7
#     4   4   4   4   4   4   4
#     4  10  19  31  48  72 103 134 165 202 248 296
#     4   9  16  28  49  74  99 128 167 213 256 295
#     4  10  18  30  50  74 100 131 169 209 250 296
#     4   9  18  30  47  74 103 130 165 213 258 293
#     4  10  18  30  50  74 100 131 169 209 250 296
#     4  10  19  31  48  72 103 134 165 202 248 296
#     4   9  17  29  49  76 103 128 161 204 248 294
#
# _framework density 18.028464
#
# number of rings (size 3 to 8) (size 9 to 14) (size 15 to 20)
#    0.000    2.429    1.429    2.143    0.000    6.286 
#    0.000    0.714    0.000    6.000    0.000    6.000 
#    0.000    0.000    0.000    0.000    0.000    0.000 
#
# Total GULP energy -347240.349559 kJ/mol
# GULP energy per Si atom -12401.441056 kJ/mol
# Density = 1.798743 g / cm^3
# Si number density = 18.028464 Si / 1000 Ang^3
#
#
#
# Elastic Constant Matrix: (Units=GPa)
#
#
# Indices 1 2 3 4 5 6 
#
# 1 123.4970 35.2540 102.8045 0.0000 16.2070 0.0000
# 2 35.2540 52.6413 38.2948 0.0000 11.1267 0.0000
# 3 102.8045 38.2948 134.4297 0.0000 23.9918 0.0000
# 4 0.0000 0.0000 0.0000 6.0470 0.0000 -3.8165
# 5 16.2070 11.1267 23.9918 0.0000 40.9735 0.0000
# 6 0.0000 0.0000 0.0000 -3.8165 0.0000 7.0920
#
#
#
# Elastic Compliance Matrix: (Units=1/GPa)
#
#
# Indices 1 2 3 4 5 6 
#
# 1 0.022823 -0.003442 -0.016783 0.000000 0.001734 0.000000
# 2 -0.003442 0.024773 -0.003872 0.000000 -0.003099 0.000000
# 3 -0.016783 -0.003872 0.022338 0.000000 -0.005390 0.000000
# 4 0.000000 0.000000 0.000000 0.250426 0.000000 0.134765
# 5 0.001734 -0.003099 -0.005390 0.000000 0.027718 0.000000
# 6 0.000000 0.000000 0.000000 0.134765 0.000000 0.213526
#
#
# Mechanical properties :
#
#
# Convention : Reuss Voigt Hill
#
# Bulk Modulus (GPa) = 45.99538 73.69719 59.84629
# Shear Modulus (GPa) = 8.10313 19.77015 13.93664
#
# Velocity S-wave (km/s) = 2.12236 3.31510 2.78337
# Velocity P-wave (km/s) = 5.61906 7.45789 6.60280
#
# Compressibility (1/GPa) = 0.02174131
#
# Stress axis : x y z
#
# Youngs Moduli (GPa) = 43.81496 40.36611 44.76615
#
# Poissons Ratio (x) = 0.13896 0.75130
# Poissons Ratio (y) = 0.15083 0.17331
# Poissons Ratio (z) = 0.73534 0.15628
#
# Static dielectric constant tensor:
#      x y z
#    x 3.323370 0.000000 0.182220 
#    y 0.000000 3.011250 0.000000 
#    z 0.182220 0.000000 3.373190 
# 
# 
# High freq. dielectric constant tensor:
#      x y z
#    x 1.688850 0.000000 0.025200 
#    y 0.000000 1.669880 0.000000 
#    z 0.025200 0.000000 1.695750 
# 
# From -- ./inp_files/63489.got.cif
#   From: 2010.06.25/outbox.cif.g09.slc.cpg/sg10_32_cif.got.tgz:63489.got - 2010.06.27 22:07:45.
