data_PCOD8058861
_publ_section_title
;
Structure prediction by ZEFSAII (Michael W. Deem and Ramdas Pophale) SiO2 
 PCOD8058861
Probable space group: P 2/M
;
_chemical_formula_sum "Si O2"
_cell_formula_units_Z 32
_cell_length_a 21.770651
_cell_length_b 8.972336
_cell_length_c 28.237463
_cell_angle_alpha 90.000000
_cell_angle_beta 161.099073
_cell_angle_gamma 90.000000
_cell_volume 1786.723889
_symmetry_space_group_name_H-M "P 2/M"
_symmetry_group_IT_number 10
_symmetry_cell_setting 'monoclinic'
loop_
_space_group_symop_operation_xyz
x,y,z
-x,y,-z
-x,-y,-z
x,-y,z
loop_
_atom_site_type_symbol
_atom_site_label
_atom_site_fract_x
_atom_site_fract_y
_atom_site_fract_z
Si Si1 0.887779 0.671952 0.056924
Si Si2 0.194002 0.675784 0.661597
Si Si3 0.166061 0.675480 0.343830
Si Si4 0.947504 0.175974 0.909807
Si Si5 0.717793 0.325442 0.169125
Si Si6 0.592901 0.326093 0.918042
Si Si7 0.871816 0.176476 0.192701
Si Si8 0.470220 0.174310 0.423733
O O1 0.904664 0.500000 0.055885
O O2 0.055471 0.719332 0.215048
O O3 0.903240 0.763265 0.019729
O O4 0.685192 0.707747 0.934024
O O5 0.170655 0.500000 0.646933
O O6 0.233718 0.734899 0.743228
O O7 0.370531 0.716873 0.755794
O O8 0.000000 0.748593 0.500000
O O9 0.160758 0.500000 0.348617
O O10 0.380399 0.732901 0.497970
O O11 0.067319 0.756020 0.315828
O O12 0.736570 0.229562 0.742964
O O13 0.962996 0.000000 0.919709
O O14 0.000000 0.238055 0.000000
O O15 0.761563 0.500000 0.195008
O O16 0.849690 0.232357 0.230084
O O17 0.500000 0.290217 0.000000
O O18 0.623564 0.500000 0.953545
O O19 0.694202 0.231967 0.032501
O O20 0.882282 0.000000 0.198505
O O21 0.500000 0.214032 0.500000
O O22 0.500281 0.000000 0.435850
#
# Coordination Sequence:
#
# PCOD8058861 Si02
#       8
#     4   4   4   4   4   4   4   4
#     4   9  18  31  51  76 103 134 171 221 264 310
#     4   9  17  31  54  80 105 138 179 219 259 313
#     4  10  20  34  54  80 108 137 175 222 271 314
#     4  10  21  36  53  75 107 144 177 212 258 317
#     4  10  18  32  54  77 105 141 175 214 264 311
#     4   9  17  33  53  77 106 136 175 218 267 316
#     4  11  21  32  51  79 110 140 176 221 268 315
#     4  10  19  33  54  79 106 138 175 214 258 311
#
# _framework density 17.909873999999999
#
# number of rings (size 3 to 8) (size 9 to 14) (size 15 to 20)
#    0.000    2.250    2.500    2.250    0.000    3.250 
#    0.000    1.250    0.000    3.000    0.000    0.000 
#    0.000    0.000    0.000    0.000    0.000    0.000 
#
# Total GULP energy -396818.062677 kJ/mol
# GULP energy per Si atom -12400.564459 kJ/mol
# Density = 1.786911 g / cm^3
# Si number density = 17.909874 Si / 1000 Ang^3
#
#
#
# Elastic Constant Matrix: (Units=GPa)
#
#
# Indices 1 2 3 4 5 6 
#
# 1 153.2495 48.8229 75.4945 0.0000 12.1298 0.0000
# 2 48.8229 57.1263 31.1756 0.0000 8.0975 0.0000
# 3 75.4945 31.1756 119.0377 0.0000 7.4348 0.0000
# 4 0.0000 0.0000 0.0000 13.8932 0.0000 2.6490
# 5 12.1298 8.0975 7.4348 0.0000 30.9457 0.0000
# 6 0.0000 0.0000 0.0000 2.6490 0.0000 18.7210
#
#
#
# Elastic Compliance Matrix: (Units=1/GPa)
#
#
# Indices 1 2 3 4 5 6 
#
# 1 0.011408 -0.006587 -0.005420 0.000000 -0.001446 0.000000
# 2 -0.006587 0.024759 -0.002095 0.000000 -0.003393 0.000000
# 3 -0.005420 -0.002095 0.012406 0.000000 -0.000308 0.000000
# 4 0.000000 0.000000 0.000000 0.073973 0.000000 -0.010467
# 5 -0.001446 -0.003393 -0.000308 0.000000 0.033843 0.000000
# 6 0.000000 0.000000 0.000000 -0.010467 0.000000 0.054897
#
#
# Mechanical properties :
#
#
# Convention : Reuss Voigt Hill
#
# Bulk Modulus (GPa) = 49.09258 71.15551 60.12405
# Shear Modulus (GPa) = 20.30209 24.30669 22.30439
#
# Velocity S-wave (km/s) = 3.37050 3.68797 3.53281
# Velocity P-wave (km/s) = 6.52821 7.61255 7.09113
#
# Compressibility (1/GPa) = 0.02036968
#
# Stress axis : x y z
#
# Youngs Moduli (GPa) = 87.65587 40.38921 80.60816
#
# Poissons Ratio (x) = 0.26606 0.43687
# Poissons Ratio (y) = 0.57743 0.16884
# Poissons Ratio (z) = 0.47506 0.08460
#
# Static dielectric constant tensor:
#      x y z
#    x 3.426910 0.000000 0.118860 
#    y 0.000000 3.069800 0.000000 
#    z 0.118860 0.000000 3.359290 
# 
# 
# High freq. dielectric constant tensor:
#      x y z
#    x 1.699850 0.000000 0.018820 
#    y 0.000000 1.674330 0.000000 
#    z 0.018820 0.000000 1.674680 
# 
# From -- ./inp_files/86834.got.cif
#   From: 2010.06.25/outbox.cif.g09.slc.cpg/sg10_44_cif.got.tgz:86834.got - 2010.06.27 22:07:45.
