data_PCOD8058522
_publ_section_title
;
Structure prediction by ZEFSAII (Michael W. Deem and Ramdas Pophale) SiO2 
 PCOD8058522
Probable space group: P 2/M
;
_chemical_formula_sum "Si O2"
_cell_formula_units_Z 32
_cell_length_a 21.848191
_cell_length_b 9.076638
_cell_length_c 30.497358
_cell_angle_alpha 90.000000
_cell_angle_beta 162.341585
_cell_angle_gamma 90.000000
_cell_volume 1834.571360
_symmetry_space_group_name_H-M "P 2/M"
_symmetry_group_IT_number 10
_symmetry_cell_setting 'monoclinic'
loop_
_space_group_symop_operation_xyz
x,y,z
-x,y,-z
-x,-y,-z
x,-y,z
loop_
_atom_site_type_symbol
_atom_site_label
_atom_site_fract_x
_atom_site_fract_y
_atom_site_fract_z
Si Si1 0.852753 0.823450 0.437879
Si Si2 0.562499 0.330481 0.836671
Si Si3 0.900847 0.823322 0.658648
Si Si4 0.047245 0.669629 0.841097
Si Si5 0.553550 0.174389 0.650603
Si Si6 0.416272 0.837016 0.234303
Si Si7 0.895179 0.838827 0.560388
Si Si8 0.711093 0.827958 0.666801
O O1 0.632324 0.757187 0.279330
O O2 0.944895 0.761813 0.547402
O O3 0.000000 0.769998 0.500000
O O4 0.831590 0.000000 0.425112
O O5 0.504477 0.500000 0.789902
O O6 0.650870 0.268935 0.850976
O O7 0.729898 0.309766 0.987927
O O8 0.673388 0.767083 0.513184
O O9 0.968404 0.763515 0.655984
O O10 0.046424 0.752790 0.794028
O O11 0.915678 0.000000 0.670798
O O12 0.993151 0.500000 0.796791
O O13 0.887971 0.735742 0.766183
O O14 0.647067 0.229873 0.761064
O O15 0.697355 0.220334 0.708538
O O16 0.535832 0.000000 0.641750
O O17 0.655486 0.852391 0.399110
O O18 0.320761 0.000000 0.161466
O O19 0.994924 0.000000 0.627283
O O20 0.500000 0.790385 0.500000
O O21 0.761634 0.000000 0.695843
#
# Coordination Sequence:
#
# PCOD8058522 Si02
#       8
#     4   4   4   4   4   4   4   4
#     4   9  17  32  57  84 103 120 149 193 240 284
#     4  10  21  35  48  67 100 135 164 193 231 285
#     4   9  15  28  49  69  92 125 162 198 238 283
#     4  11  23  34  44  65  99 134 166 203 241 278
#     4   8  14  27  48  73  94 114 153 210 256 286
#     4   8  14  28  50  70  91 120 157 203 245 282
#     4   7  12  24  46  75 100 118 144 191 240 277
#     4  10  18  31  51  71  92 123 164 206 250 296
#
# _framework density 17.442765999999999
#
# number of rings (size 3 to 8) (size 9 to 14) (size 15 to 20)
#    0.000    3.000    1.250    3.000    0.000    2.500 
#    0.000    6.875    0.000    4.500    0.000    5.250 
#    0.000    0.000    0.000    0.000    0.000    0.000 
#
# Total GULP energy -396441.340773 kJ/mol
# GULP energy per Si atom -12388.791899 kJ/mol
# Density = 1.740307 g / cm^3
# Si number density = 17.442766 Si / 1000 Ang^3
#
#
#
# Elastic Constant Matrix: (Units=GPa)
#
#
# Indices 1 2 3 4 5 6 
#
# 1 166.0845 40.0299 49.3109 0.0000 -14.4462 0.0000
# 2 40.0299 53.2591 30.9348 0.0000 -5.4185 0.0000
# 3 49.3109 30.9348 53.7561 0.0000 -9.2919 0.0000
# 4 0.0000 0.0000 0.0000 19.6731 0.0000 -0.6945
# 5 -14.4462 -5.4185 -9.2919 0.0000 21.6716 0.0000
# 6 0.0000 0.0000 0.0000 -0.6945 0.0000 2.2352
#
#
#
# Elastic Compliance Matrix: (Units=1/GPa)
#
#
# Indices 1 2 3 4 5 6 
#
# 1 0.008674 -0.002846 -0.005878 0.000000 0.002550 0.000000
# 2 -0.002846 0.029137 -0.014284 0.000000 -0.000736 0.000000
# 3 -0.005878 -0.014284 0.033395 0.000000 0.006829 0.000000
# 4 0.000000 0.000000 0.000000 0.051394 0.000000 0.015968
# 5 0.002550 -0.000736 0.006829 0.000000 0.050587 0.000000
# 6 0.000000 0.000000 0.000000 0.015968 0.000000 0.452355
#
#
# Mechanical properties :
#
#
# Convention : Reuss Voigt Hill
#
# Bulk Modulus (GPa) = 39.69884 57.07232 48.38558
# Shear Modulus (GPa) = 7.35343 18.90425 13.12884
#
# Velocity S-wave (km/s) = 2.05546 3.29566 2.74648
# Velocity P-wave (km/s) = 5.33311 6.87551 6.15284
#
# Compressibility (1/GPa) = 0.02518965
#
# Stress axis : x y z
#
# Youngs Moduli (GPa) = 115.28707 34.32088 29.94440
#
# Poissons Ratio (x) = 0.09766 0.17602
# Poissons Ratio (y) = 0.32806 0.42773
# Poissons Ratio (z) = 0.67770 0.49025
#
# Static dielectric constant tensor:
#      x y z
#    x 3.937850 0.000000 -0.282160 
#    y 0.000000 2.988460 0.000000 
#    z -0.282160 0.000000 2.891890 
# 
# 
# High freq. dielectric constant tensor:
#      x y z
#    x 1.691230 0.000000 -0.024030 
#    y 0.000000 1.641360 0.000000 
#    z -0.024030 0.000000 1.633260 
# 
# From -- ./inp_files/95671.got.cif
#   From: 2010.06.25/outbox.cif.g09.slc.cpg/sg10_48_cif.got.tgz:95671.got - 2010.06.27 22:07:45.
