data_PCOD8058377
_publ_section_title
;
Structure prediction by ZEFSAII (Michael W. Deem and Ramdas Pophale) SiO2 
 PCOD8058377
Probable space group: P 2/M
;
_chemical_formula_sum "Si O2"
_cell_formula_units_Z 24
_cell_length_a 12.571273
_cell_length_b 8.831918
_cell_length_c 24.107165
_cell_angle_alpha 90.000000
_cell_angle_beta 29.684658
_cell_angle_gamma 90.000000
_cell_volume 1325.512768
_symmetry_space_group_name_H-M "P 2/M"
_symmetry_group_IT_number 10
_symmetry_cell_setting 'monoclinic'
loop_
_space_group_symop_operation_xyz
x,y,z
-x,y,-z
-x,-y,-z
x,-y,z
loop_
_atom_site_type_symbol
_atom_site_label
_atom_site_fract_x
_atom_site_fract_y
_atom_site_fract_z
Si Si1 0.405432 0.820018 0.738101
Si Si2 0.027870 0.821468 0.119763
Si Si3 0.122835 0.179908 0.498336
Si Si4 0.742904 0.678898 0.881268
Si Si5 0.188737 0.820271 0.264732
Si Si6 0.380620 0.178715 0.872889
O O1 0.632348 0.759502 0.611649
O O2 0.367169 0.752391 0.817109
O O3 0.214981 0.768810 0.783370
O O4 0.405849 0.000000 0.741904
O O5 0.106388 0.731211 0.137272
O O6 0.046161 0.000000 0.123375
O O7 0.169539 0.774878 0.002374
O O8 0.000000 0.245512 0.500000
O O9 0.005179 0.233490 0.607633
O O10 0.120014 0.000000 0.495939
O O11 0.743487 0.500000 0.877229
O O12 0.845963 0.746044 0.779086
O O13 0.500000 0.740571 0.000000
O O14 0.410142 0.757779 0.190465
O O15 0.193101 0.000000 0.255724
O O16 0.403753 0.000000 0.857837
#
# Coordination Sequence:
#
# PCOD8058377 Si02
#       6
#     4   4   4   4   4   4
#     4   9  16  27  46  78 112 135 158 197 252 302
#     4  10  19  31  51  77 105 134 166 205 247 297
#     4   9  15  26  47  78 110 133 158 199 248 294
#     4  11  23  37  52  70  98 134 171 212 254 296
#     4  10  18  30  53  80 102 128 166 207 245 292
#     4   9  15  25  46  78 108 129 155 200 252 297
#
# _framework density 18.106199
#
# number of rings (size 3 to 8) (size 9 to 14) (size 15 to 20)
#    0.000    2.333    3.333    1.000    0.000    2.667 
#    0.000    0.833    0.000    9.500    0.000    0.000 
#    0.000    0.000    0.000    0.000    0.000    0.000 
#
# Total GULP energy -297567.410856 kJ/mol
# GULP energy per Si atom -12398.642119 kJ/mol
# Density = 1.806499 g / cm^3
# Si number density = 18.106199 Si / 1000 Ang^3
#
#
#
# Elastic Constant Matrix: (Units=GPa)
#
#
# Indices 1 2 3 4 5 6 
#
# 1 121.6889 21.8898 69.9780 0.0000 -1.8846 0.0000
# 2 21.8898 22.2105 21.9456 0.0000 4.1575 0.0000
# 3 69.9780 21.9456 150.4144 0.0000 -5.2076 0.0000
# 4 0.0000 0.0000 0.0000 7.7938 0.0000 -5.7061
# 5 -1.8846 4.1575 -5.2076 0.0000 37.3078 0.0000
# 6 0.0000 0.0000 0.0000 -5.7061 0.0000 -1.9645
#
#
#
# Elastic Compliance Matrix: (Units=1/GPa)
#
#
# Indices 1 2 3 4 5 6 
#
# 1 0.012227 -0.007732 -0.004531 0.000000 0.000847 0.000000
# 2 -0.007732 0.059364 -0.005332 0.000000 -0.007750 0.000000
# 3 -0.004531 -0.005332 0.009593 0.000000 0.001704 0.000000
# 4 0.000000 0.000000 0.000000 0.041038 0.000000 -0.119198
# 5 0.000847 -0.007750 0.001704 0.000000 0.027948 0.000000
# 6 0.000000 0.000000 0.000000 -0.119198 0.000000 -0.162809
#
#
# Mechanical properties :
#
#
# Convention : Reuss Voigt Hill
#
# Bulk Modulus (GPa) = 21.74234 57.99339 39.86786
# Shear Modulus (GPa) = 131.98060 20.66078 76.32069
#
# Velocity S-wave (km/s) = 8.54697 3.38167 6.49948
# Velocity P-wave (km/s) = 10.46113 6.88089 8.85387
#
# Compressibility (1/GPa) = 0.04599322
#
# Stress axis : x y z
#
# Youngs Moduli (GPa) = 81.78397 16.84529 104.23910
#
# Poissons Ratio (x) = 0.13025 0.47232
# Poissons Ratio (y) = 0.63237 0.55583
# Poissons Ratio (z) = 0.37057 0.08982
#
# Static dielectric constant tensor:
#      x y z
#    x 3.382260 0.000000 -0.041130 
#    y 0.000000 2.750190 0.000000 
#    z -0.041130 0.000000 3.614640 
# 
# 
# High freq. dielectric constant tensor:
#      x y z
#    x 1.705240 0.000000 0.001390 
#    y 0.000000 1.640880 0.000000 
#    z 0.001390 0.000000 1.708320 
# 
# From -- ./inp_files/44994.got.cif
#   From: 2010.06.25/outbox.cif.g09.slc.cpg/sg10_23_cif.got.tgz:44994.got - 2010.06.27 22:07:45.
