data_PCOD8058403
_publ_section_title
;
Structure prediction by ZEFSAII (Michael W. Deem and Ramdas Pophale) SiO2 
 PCOD8058403
Probable space group: P 2/M
;
_chemical_formula_sum "Si O2"
_cell_formula_units_Z 28
_cell_length_a 30.228842
_cell_length_b 8.755108
_cell_length_c 10.353914
_cell_angle_alpha 90.000000
_cell_angle_beta 33.542543
_cell_angle_gamma 90.000000
_cell_volume 1514.132480
_symmetry_space_group_name_H-M "P 2/M"
_symmetry_group_IT_number 10
_symmetry_cell_setting 'monoclinic'
loop_
_space_group_symop_operation_xyz
x,y,z
-x,y,-z
-x,-y,-z
x,-y,z
loop_
_atom_site_type_symbol
_atom_site_label
_atom_site_fract_x
_atom_site_fract_y
_atom_site_fract_z
Si Si1 0.738021 0.178186 0.912955
Si Si2 0.340151 0.318721 0.649707
Si Si3 0.678277 0.318520 0.795529
Si Si4 0.494153 0.681140 0.869643
Si Si5 0.090863 0.177968 0.397669
Si Si6 0.234460 0.680268 0.670926
Si Si7 0.067926 0.320747 0.179414
O O1 0.714973 0.249167 0.833756
O O2 0.831343 0.216053 0.707902
O O3 0.721719 0.000000 0.949699
O O4 0.683341 0.248442 0.157006
O O5 0.333797 0.500000 0.675788
O O6 0.430367 0.264779 0.398541
O O7 0.282220 0.253337 0.678249
O O8 0.683238 0.500000 0.791866
O O9 0.729301 0.254748 0.549924
O O10 0.586922 0.261743 0.001600
O O11 0.493231 0.500000 0.883040
O O12 0.500000 0.749994 0.000000
O O13 0.094084 0.277173 0.260241
O O14 0.011597 0.228708 0.670355
O O15 0.085667 0.000000 0.374227
O O16 0.246586 0.500000 0.644359
O O17 0.140807 0.724899 0.907222
O O18 0.050028 0.500000 0.217298
#
# Coordination Sequence:
#
# PCOD8058403 Si02
#       7
#     4   4   4   4   4   4   4
#     4  11  24  39  52  75 112 151 186 219 263 320
#     4  10  18  33  59  84 108 138 178 225 271 319
#     4  10  20  36  58  82 110 143 178 221 273 323
#     4   9  16  30  57  88 110 133 174 227 273 317
#     4  10  20  34  51  74 107 144 181 219 261 313
#     4   9  17  31  55  86 110 133 173 224 271 319
#     4  10  18  30  54  85 109 131 171 223 274 319
#
# _framework density 18.492436999999999
#
# number of rings (size 3 to 8) (size 9 to 14) (size 15 to 20)
#    0.000    2.143    2.857    2.143    0.000    2.286 
#    0.000    6.429    0.000    5.143    0.000    0.000 
#    0.000    0.000    0.000    0.000    0.000    0.000 
#
# Total GULP energy -347169.336815 kJ/mol
# GULP energy per Si atom -12398.904886 kJ/mol
# Density = 1.845035 g / cm^3
# Si number density = 18.492437 Si / 1000 Ang^3
#
#
#
# Elastic Constant Matrix: (Units=GPa)
#
#
# Indices 1 2 3 4 5 6 
#
# 1 116.6026 23.9761 71.4341 0.0000 -7.0135 0.0000
# 2 23.9761 33.4653 30.7924 0.0000 -5.8421 0.0000
# 3 71.4341 30.7924 160.9794 0.0000 -11.8540 0.0000
# 4 0.0000 0.0000 0.0000 -1.5636 0.0000 -14.0266
# 5 -7.0135 -5.8421 -11.8540 0.0000 33.6536 0.0000
# 6 0.0000 0.0000 0.0000 -14.0266 0.0000 12.4034
#
#
#
# Elastic Compliance Matrix: (Units=1/GPa)
#
#
# Indices 1 2 3 4 5 6 
#
# 1 0.012339 -0.004594 -0.004585 0.000000 0.000159 0.000000
# 2 -0.004594 0.038495 -0.005034 0.000000 0.003952 0.000000
# 3 -0.004585 -0.005034 0.009316 0.000000 0.001452 0.000000
# 4 0.000000 0.000000 0.000000 -0.057386 0.000000 -0.064896
# 5 0.000159 0.003952 0.001452 0.000000 0.030945 0.000000
# 6 0.000000 0.000000 0.000000 -0.064896 0.000000 0.007234
#
#
# Mechanical properties :
#
#
# Convention : Reuss Voigt Hill
#
# Bulk Modulus (GPa) = 31.52102 62.60584 47.06343
# Shear Modulus (GPa) = 62.54387 21.22165 41.88276
#
# Velocity S-wave (km/s) = 5.82192 3.39128 4.76422
# Velocity P-wave (km/s) = 7.89147 7.01874 7.46787
#
# Compressibility (1/GPa) = 0.03172486
#
# Stress axis : x y z
#
# Youngs Moduli (GPa) = 81.04224 25.97772 107.33754
#
# Poissons Ratio (x) = 0.11934 0.49215
# Poissons Ratio (y) = 0.37229 0.54032
# Poissons Ratio (z) = 0.37159 0.13077
#
# Static dielectric constant tensor:
#      x y z
#    x 3.422080 0.000000 -0.212350 
#    y 0.000000 3.113960 0.000000 
#    z -0.212350 0.000000 3.791170 
# 
# 
# High freq. dielectric constant tensor:
#      x y z
#    x 1.706700 0.000000 -0.015980 
#    y 0.000000 1.689120 0.000000 
#    z -0.015980 0.000000 1.732060 
# 
# From -- ./inp_files/37061.got.cif
#   From: 2010.06.25/outbox.cif.g09.slc.cpg/sg10_19_cif.got.tgz:37061.got - 2010.06.27 22:07:45.
