data_PCOD8058240
_publ_section_title
;
Structure prediction by ZEFSAII (Michael W. Deem and Ramdas Pophale) SiO2 
 PCOD8058240
Probable space group: P 2/M
;
_chemical_formula_sum "Si O2"
_cell_formula_units_Z 32
_cell_length_a 11.925598
_cell_length_b 13.305328
_cell_length_c 23.328824
_cell_angle_alpha 90.000000
_cell_angle_beta 29.104618
_cell_angle_gamma 90.000000
_cell_volume 1800.517497
_symmetry_space_group_name_H-M "P 2/M"
_symmetry_group_IT_number 10
_symmetry_cell_setting 'monoclinic'
loop_
_space_group_symop_operation_xyz
x,y,z
-x,y,-z
-x,-y,-z
x,-y,z
loop_
_atom_site_type_symbol
_atom_site_label
_atom_site_fract_x
_atom_site_fract_y
_atom_site_fract_z
Si Si1 0.566825 0.614361 0.253240
Si Si2 0.439461 0.384617 0.875575
Si Si3 0.784035 0.885315 0.253548
Si Si4 0.250506 0.888493 0.498193
Si Si5 0.068843 0.613716 0.299446
Si Si6 0.999534 0.744117 0.934672
Si Si7 0.239400 0.224003 0.618197
Si Si8 0.130623 0.306581 0.498885
O O1 0.557973 0.500000 0.276536
O O2 0.486508 0.628359 0.223605
O O3 0.823548 0.652430 0.148636
O O4 0.401766 0.676464 0.368916
O O5 0.356217 0.500000 0.923016
O O6 0.659967 0.359018 0.816633
O O7 0.242437 0.303453 0.977958
O O8 0.513858 0.882800 0.359549
O O9 0.931578 0.836623 0.136434
O O10 0.832400 0.824381 0.289880
O O11 0.868129 0.000000 0.223404
O O12 0.228215 0.862669 0.575232
O O13 0.095884 0.810552 0.530919
O O14 0.150425 0.000000 0.532962
O O15 0.039334 0.500000 0.290442
O O16 0.942594 0.686972 0.311363
O O17 0.954643 0.621378 0.412884
O O18 0.000000 0.784369 0.000000
O O19 0.500000 0.268582 0.500000
O O20 0.000000 0.336451 0.500000
#
# Coordination Sequence:
#
# PCOD8058240 Si02
#       8
#     4   4   4   4   4   4   4   4
#     4  10  18  30  49  76 107 140 175 210 251 310
#     4   9  18  33  52  73 103 144 180 208 247 304
#     4  10  19  35  58  78  99 130 175 223 267 311
#     4   9  18  33  53  77 104 136 176 218 262 312
#     4  10  20  33  51  77 110 144 173 211 262 315
#     4  10  20  34  54  79 108 136 174 216 257 301
#     4   9  19  35  55  78 104 135 174 217 265 313
#     4  11  19  29  49  78 114 142 171 209 262 317
#
# _framework density 17.772669
#
# number of rings (size 3 to 8) (size 9 to 14) (size 15 to 20)
#    0.000    2.250    2.500    1.125    0.000    4.250 
#    0.000    1.875    0.000    6.000    0.000    0.000 
#    0.000    0.000    0.000    0.000    0.000    0.000 
#
# Total GULP energy -396769.288019 kJ/mol
# GULP energy per Si atom -12399.040251 kJ/mol
# Density = 1.773222 g / cm^3
# Si number density = 17.772669 Si / 1000 Ang^3
#
#
#
# Elastic Constant Matrix: (Units=GPa)
#
#
# Indices 1 2 3 4 5 6 
#
# 1 67.9925 42.4744 31.5736 0.0000 -0.2687 0.0000
# 2 42.4744 112.8141 41.1359 0.0000 -3.3704 0.0000
# 3 31.5736 41.1359 82.9029 0.0000 3.1964 0.0000
# 4 0.0000 0.0000 0.0000 23.6067 0.0000 2.0047
# 5 -0.2687 -3.3704 3.1964 0.0000 25.2174 0.0000
# 6 0.0000 0.0000 0.0000 2.0047 0.0000 20.6537
#
#
#
# Elastic Compliance Matrix: (Units=1/GPa)
#
#
# Indices 1 2 3 4 5 6 
#
# 1 0.020751 -0.006018 -0.004918 0.000000 0.000040 0.000000
# 2 -0.006018 0.012683 -0.004084 0.000000 0.002149 0.000000
# 3 -0.004918 -0.004084 0.016064 0.000000 -0.002634 0.000000
# 4 0.000000 0.000000 0.000000 0.042713 0.000000 -0.004146
# 5 0.000040 0.002149 -0.002634 0.000000 0.040277 0.000000
# 6 0.000000 0.000000 0.000000 -0.004146 0.000000 0.048820
#
#
# Mechanical properties :
#
#
# Convention : Reuss Voigt Hill
#
# Bulk Modulus (GPa) = 51.39676 54.89747 53.14712
# Shear Modulus (GPa) = 22.95316 23.79727 23.37521
#
# Velocity S-wave (km/s) = 3.59762 3.66318 3.63055
# Velocity P-wave (km/s) = 6.79992 6.98911 6.89516
#
# Compressibility (1/GPa) = 0.01945648
#
# Stress axis : x y z
#
# Youngs Moduli (GPa) = 48.19016 78.84305 62.25226
#
# Poissons Ratio (x) = 0.47449 0.30619
# Poissons Ratio (y) = 0.29001 0.25426
# Poissons Ratio (z) = 0.23702 0.32202
#
# Static dielectric constant tensor:
#      x y z
#    x 3.154400 0.000000 -0.004310 
#    y 0.000000 3.227400 0.000000 
#    z -0.004310 0.000000 3.201180 
# 
# 
# High freq. dielectric constant tensor:
#      x y z
#    x 1.672620 0.000000 -0.000790 
#    y 0.000000 1.685320 0.000000 
#    z -0.000790 0.000000 1.678070 
# 
# From -- ./inp_files/46964.got.cif
#   From: 2010.06.25/outbox.cif.g09.slc.cpg/sg10_24_cif.got.tgz:46964.got - 2010.06.27 22:07:45.
