data_PCOD8058666
_publ_section_title
;
Structure prediction by ZEFSAII (Michael W. Deem and Ramdas Pophale) SiO2 
 PCOD8058666
Probable space group: P 2/M
;
_chemical_formula_sum "Si O2"
_cell_formula_units_Z 32
_cell_length_a 21.754437
_cell_length_b 12.991481
_cell_length_c 18.267863
_cell_angle_alpha 90.000000
_cell_angle_beta 18.500887
_cell_angle_gamma 90.000000
_cell_volume 1638.290057
_symmetry_space_group_name_H-M "P 2/M"
_symmetry_group_IT_number 10
_symmetry_cell_setting 'monoclinic'
loop_
_space_group_symop_operation_xyz
x,y,z
-x,y,-z
-x,-y,-z
x,-y,z
loop_
_atom_site_type_symbol
_atom_site_label
_atom_site_fract_x
_atom_site_fract_y
_atom_site_fract_z
Si Si1 0.461843 0.618868 0.838046
Si Si2 0.003146 0.611306 0.143562
Si Si3 0.562045 0.613302 0.308073
Si Si4 0.909563 0.885543 0.891174
Si Si5 0.890074 0.818731 0.199228
Si Si6 0.148078 0.295847 0.551292
Si Si7 0.500195 0.174499 0.416505
Si Si8 0.042078 0.620565 0.370609
O O1 0.517984 0.500000 0.791925
O O2 0.431124 0.634475 0.786292
O O3 0.621752 0.698636 0.690047
O O4 0.261917 0.649151 0.102742
O O5 0.937916 0.500000 0.185306
O O6 0.887327 0.700952 0.232741
O O7 0.946960 0.614432 0.292628
O O8 0.231974 0.623522 0.883914
O O9 0.473992 0.500000 0.423121
O O10 0.443627 0.703409 0.481858
O O11 0.003399 0.893341 0.865079
O O12 0.043014 0.812960 0.689797
O O13 0.900435 0.000000 0.866890
O O14 0.691980 0.844032 0.151767
O O15 0.680441 0.871473 0.424042
O O16 0.000000 0.816855 0.000000
O O17 0.108513 0.318787 0.511166
O O18 0.500000 0.131290 0.500000
O O19 0.001985 0.500000 0.407146
O O20 0.000000 0.658525 0.500000
#
# Coordination Sequence:
#
# PCOD8058666 Si02
#       8
#     4   4   4   4   4   4   4   4
#     4  10  19  32  56  86 117 156 195 225 266 329
#     4  10  18  31  54  79 109 149 185 222 269 329
#     4  10  18  32  54  80 111 151 193 226 269 334
#     4  11  25  43  61  83 104 140 196 252 301 347
#     4  11  22  39  56  78 109 142 179 231 293 347
#     4  11  20  36  58  81 113 152 193 239 282 336
#     4  12  22  39  58  78 112 145 185 237 297 357
#     4  10  20  34  56  91 132 162 185 220 267 330
#
# _framework density 19.532561000000001
#
# number of rings (size 3 to 8) (size 9 to 14) (size 15 to 20)
#    0.000    1.375    5.000    2.625    0.000    3.500 
#    0.000    1.875    0.000    0.375    0.000    0.875 
#    0.000    0.000    0.000    0.000    0.000    0.000 
#
# Total GULP energy -396490.334678 kJ/mol
# GULP energy per Si atom -12390.322959 kJ/mol
# Density = 1.948810 g / cm^3
# Si number density = 19.532561 Si / 1000 Ang^3
#
#
#
# Elastic Constant Matrix: (Units=GPa)
#
#
# Indices 1 2 3 4 5 6 
#
# 1 101.0011 18.6139 31.9227 0.0000 -11.2056 0.0000
# 2 18.6139 79.8424 22.3395 0.0000 -7.3691 0.0000
# 3 31.9227 22.3395 69.9405 0.0000 -20.0580 0.0000
# 4 0.0000 0.0000 0.0000 -11.6825 0.0000 52.2475
# 5 -11.2056 -7.3691 -20.0580 0.0000 32.9844 0.0000
# 6 0.0000 0.0000 0.0000 52.2475 0.0000 -107.3568
#
#
#
# Elastic Compliance Matrix: (Units=1/GPa)
#
#
# Indices 1 2 3 4 5 6 
#
# 1 0.011721 -0.001346 -0.004680 0.000000 0.000835 0.000000
# 2 -0.001346 0.013915 -0.003718 0.000000 0.000390 0.000000
# 3 -0.004680 -0.003718 0.020503 0.000000 0.010047 0.000000
# 4 0.000000 0.000000 0.000000 0.072755 0.000000 0.035408
# 5 0.000835 0.000390 0.010047 0.000000 0.036798 0.000000
# 6 0.000000 0.000000 0.000000 0.035408 0.000000 0.007917
#
#
# Mechanical properties :
#
#
# Convention : Reuss Voigt Hill
#
# Bulk Modulus (GPa) = 37.52357 44.05959 40.79158
# Shear Modulus (GPa) = 26.04424 -5.35045 10.34689
#
# Velocity S-wave (km/s) = 3.65550 -1.65686 2.30407
# Velocity P-wave (km/s) = 6.08847 4.35267 5.29222
#
# Compressibility (1/GPa) = 0.02664992
#
# Stress axis : x y z
#
# Youngs Moduli (GPa) = 85.31802 71.86584 48.77290
#
# Poissons Ratio (x) = 0.09672 0.22827
# Poissons Ratio (y) = 0.11483 0.18135
# Poissons Ratio (z) = 0.39932 0.26721
#
# Static dielectric constant tensor:
#      x y z
#    x 3.654130 0.000000 -0.289950 
#    y 0.000000 3.475390 0.000000 
#    z -0.289950 0.000000 3.640390 
# 
# 
# High freq. dielectric constant tensor:
#      x y z
#    x 1.747540 0.000000 -0.026820 
#    y 0.000000 1.735260 0.000000 
#    z -0.026820 0.000000 1.758260 
# 
# From -- ./inp_files/79689.got.cif
#   From: 2010.06.25/outbox.cif.g09.slc.cpg/sg10_40_cif.got.tgz:79689.got - 2010.06.27 22:07:45.
