data_PCOD8058048
_publ_section_title
;
Structure prediction by ZEFSAII (Michael W. Deem and Ramdas Pophale) SiO2 
 PCOD8058048
Probable space group: P 2/M
;
_chemical_formula_sum "Si O2"
_cell_formula_units_Z 28
_cell_length_a 15.189840
_cell_length_b 9.225851
_cell_length_c 12.339892
_cell_angle_alpha 90.000000
_cell_angle_beta 74.259698
_cell_angle_gamma 90.000000
_cell_volume 1664.455771
_symmetry_space_group_name_H-M "P 2/M"
_symmetry_group_IT_number 10
_symmetry_cell_setting 'monoclinic'
loop_
_space_group_symop_operation_xyz
x,y,z
-x,y,-z
-x,-y,-z
x,-y,z
loop_
_atom_site_type_symbol
_atom_site_label
_atom_site_fract_x
_atom_site_fract_y
_atom_site_fract_z
Si Si1 0.399258 0.827999 0.654628
Si Si2 0.099379 0.167151 0.639429
Si Si3 0.786723 0.171076 0.187658
Si Si4 0.904493 0.330494 0.982463
Si Si5 0.213239 0.168326 0.385856
Si Si6 0.400817 0.171709 0.411729
Si Si7 0.916004 0.329651 0.728063
O O1 0.316808 0.771305 0.757572
O O2 0.499216 0.781437 0.668313
O O3 0.388260 0.764143 0.536977
O O4 0.391775 0.000000 0.650456
O O5 0.151152 0.216272 0.730822
O O6 0.165232 0.195182 0.516674
O O7 0.009199 0.261625 0.652056
O O8 0.069628 0.000000 0.656073
O O9 0.821730 0.248215 0.068036
O O10 0.789518 0.000000 0.168394
O O11 0.891983 0.500000 0.007502
O O12 0.902039 0.289569 0.857743
O O13 0.000000 0.274998 0.000000
O O14 0.318476 0.223255 0.361584
O O15 0.169448 0.264860 0.307326
O O16 0.206883 0.000000 0.354538
O O17 0.395167 0.000000 0.423410
O O18 0.920902 0.500000 0.707295
#
# Coordination Sequence:
#
# PCOD8058048 Si02
#       7
#     4   4   4   4   4   4   4
#     4   8  13  24  45  76 104 125 153 190 235 287
#     4  10  19  31  48  74 104 129 154 193 241 289
#     4  10  18  29  51  79 102 122 156 201 241 283
#     4  10  21  37  51  65  91 129 169 207 245 283
#     4  10  19  32  50  74 103 132 159 191 238 290
#     4   8  13  24  46  73 103 131 152 184 236 291
#     4  11  23  36  49  66  93 132 173 204 236 284
#
# _framework density 16.822317000000002
#
# number of rings (size 3 to 8) (size 9 to 14) (size 15 to 20)
#    0.000    2.429    2.857    1.714    0.000    3.714 
#    0.000    0.000    0.000    1.714    0.000    8.000 
#    0.000    0.000    0.000    0.000    0.000    0.000 
#
# Total GULP energy -347122.342218 kJ/mol
# GULP energy per Si atom -12397.226508 kJ/mol
# Density = 1.678403 g / cm^3
# Si number density = 16.822317 Si / 1000 Ang^3
#
#
#
# Elastic Constant Matrix: (Units=GPa)
#
#
# Indices 1 2 3 4 5 6 
#
# 1 149.9409 38.7429 48.5044 0.0000 -9.4685 0.0000
# 2 38.7429 36.0104 28.7342 0.0000 1.6310 0.0000
# 3 48.5044 28.7342 62.7109 0.0000 -4.9245 0.0000
# 4 0.0000 0.0000 0.0000 17.0660 0.0000 9.7936
# 5 -9.4685 1.6310 -4.9245 0.0000 29.4828 0.0000
# 6 0.0000 0.0000 0.0000 9.7936 0.0000 6.1070
#
#
#
# Elastic Compliance Matrix: (Units=1/GPa)
#
#
# Indices 1 2 3 4 5 6 
#
# 1 0.010208 -0.007899 -0.004038 0.000000 0.003041 0.000000
# 2 -0.007899 0.050905 -0.017870 0.000000 -0.008338 0.000000
# 3 -0.004038 -0.017870 0.027595 0.000000 0.004301 0.000000
# 4 0.000000 0.000000 0.000000 0.734970 0.000000 -1.178632
# 5 0.003041 -0.008338 0.004301 0.000000 0.036074 0.000000
# 6 0.000000 0.000000 0.000000 -1.178632 0.000000 2.053856
#
#
# Mechanical properties :
#
#
# Convention : Reuss Voigt Hill
#
# Bulk Modulus (GPa) = 34.36996 53.40280 43.88638
# Shear Modulus (GPa) = 1.67621 19.37655 10.52638
#
# Velocity S-wave (km/s) = 0.99929 3.39755 2.50419
# Velocity P-wave (km/s) = 4.66979 6.87061 5.87419
#
# Compressibility (1/GPa) = 0.02909517
#
# Stress axis : x y z
#
# Youngs Moduli (GPa) = 97.95764 19.64444 36.23851
#
# Poissons Ratio (x) = 0.15517 0.14632
# Poissons Ratio (y) = 0.77377 0.64758
# Poissons Ratio (z) = 0.39553 0.35104
#
# Static dielectric constant tensor:
#      x y z
#    x 3.480970 0.000000 -0.105700 
#    y 0.000000 2.840650 0.000000 
#    z -0.105700 0.000000 3.052400 
# 
# 
# High freq. dielectric constant tensor:
#      x y z
#    x 1.656440 0.000000 -0.008720 
#    y 0.000000 1.615550 0.000000 
#    z -0.008720 0.000000 1.632300 
# 
# From -- ./inp_files/48832.got.cif
#   From: 2010.06.25/outbox.cif.g09.slc.cpg/sg10_25_cif.got.tgz:48832.got - 2010.06.27 22:07:45.
