data_PCOD8058777
_publ_section_title
;
Structure prediction by ZEFSAII (Michael W. Deem and Ramdas Pophale) SiO2 
 PCOD8058777
Probable space group: P 2/M
;
_chemical_formula_sum "Si O2"
_cell_formula_units_Z 32
_cell_length_a 26.223787
_cell_length_b 8.838081
_cell_length_c 20.383873
_cell_angle_alpha 90.000000
_cell_angle_beta 158.554673
_cell_angle_gamma 90.000000
_cell_volume 1727.277030
_symmetry_space_group_name_H-M "P 2/M"
_symmetry_group_IT_number 10
_symmetry_cell_setting 'monoclinic'
loop_
_space_group_symop_operation_xyz
x,y,z
-x,y,-z
-x,-y,-z
x,-y,z
loop_
_atom_site_type_symbol
_atom_site_label
_atom_site_fract_x
_atom_site_fract_y
_atom_site_fract_z
Si Si1 0.075176 0.179957 0.352940
Si Si2 0.155496 0.179478 0.197720
Si Si3 0.908855 0.179348 0.483512
Si Si4 0.224358 0.323261 0.026485
Si Si5 0.589214 0.819849 0.860933
Si Si6 0.797968 0.179602 0.218116
Si Si7 0.274498 0.820053 0.477295
Si Si8 0.659448 0.675641 0.691350
O O1 0.133841 0.232411 0.494606
O O2 0.182129 0.242522 0.426808
O O3 0.925109 0.249455 0.161419
O O4 0.059879 0.000000 0.330843
O O5 0.210848 0.243274 0.333403
O O6 0.257343 0.230894 0.262664
O O7 0.153045 0.000000 0.195765
O O8 0.000000 0.244196 0.000000
O O9 0.800592 0.237427 0.297426
O O10 0.063770 0.240965 0.652946
O O11 0.912967 0.000000 0.485804
O O12 0.215159 0.500000 0.000656
O O13 0.335893 0.249492 0.111975
O O14 0.274286 0.288686 0.159376
O O15 0.431362 0.759279 0.673757
O O16 0.596024 0.000000 0.862756
O O17 0.663176 0.762238 0.016813
O O18 0.798628 0.000000 0.218153
O O19 0.273481 0.000000 0.476489
O O20 0.500000 0.731259 0.500000
O O21 0.668943 0.500000 0.684201
#
# Coordination Sequence:
#
# PCOD8058777 Si02
#       8
#     4   4   4   4   4   4   4   4
#     4  10  18  33  54  75 100 135 167 200 246 292
#     4  10  20  35  53  74 100 131 166 207 248 293
#     4   8  13  23  44  73 100 127 163 202 239 283
#     4  11  22  34  51  76 101 125 164 213 249 291
#     4  10  18  32  52  74 101 135 166 201 250 297
#     4   8  13  23  43  73 101 126 162 203 240 285
#     4   9  19  32  50  77 104 127 165 210 246 294
#     4  10  22  38  53  72  99 129 163 206 253 299
#
# _framework density 18.526271000000001
#
# number of rings (size 3 to 8) (size 9 to 14) (size 15 to 20)
#    0.000    2.500    1.250    2.625    0.000    2.500 
#    0.000    1.875    0.000    5.250    0.000    0.000 
#    0.000    2.000    0.000    0.000    0.000    0.000 
#
# Total GULP energy -396672.089257 kJ/mol
# GULP energy per Si atom -12396.002789 kJ/mol
# Density = 1.848410 g / cm^3
# Si number density = 18.526271 Si / 1000 Ang^3
#
#
#
# Elastic Constant Matrix: (Units=GPa)
#
#
# Indices 1 2 3 4 5 6 
#
# 1 153.6323 24.6182 95.2308 0.0000 -3.9231 0.0000
# 2 24.6182 18.6867 17.1073 0.0000 -1.9314 0.0000
# 3 95.2308 17.1073 133.9542 0.0000 -7.9912 0.0000
# 4 0.0000 0.0000 0.0000 -0.3903 0.0000 6.5547
# 5 -3.9231 -1.9314 -7.9912 0.0000 36.2891 0.0000
# 6 0.0000 0.0000 0.0000 6.5547 0.0000 -6.3896
#
#
#
# Elastic Compliance Matrix: (Units=1/GPa)
#
#
# Indices 1 2 3 4 5 6 
#
# 1 0.013096 -0.009935 -0.008095 0.000000 -0.000896 0.000000
# 2 -0.009935 0.068221 -0.001517 0.000000 0.002223 0.000000
# 3 -0.008095 -0.001517 0.013534 0.000000 0.002025 0.000000
# 4 0.000000 0.000000 0.000000 0.157886 0.000000 0.161965
# 5 -0.000896 0.002223 0.002025 0.000000 0.028024 0.000000
# 6 0.000000 0.000000 0.000000 0.161965 0.000000 0.009645
#
#
# Mechanical properties :
#
#
# Convention : Reuss Voigt Hill
#
# Bulk Modulus (GPa) = 17.93463 64.46508 41.19986
# Shear Modulus (GPa) = 14.36434 17.18963 15.77699
#
# Velocity S-wave (km/s) = 2.78753 3.04937 2.92139
# Velocity P-wave (km/s) = 4.47907 6.87534 5.80226
#
# Compressibility (1/GPa) = 0.05575804
#
# Stress axis : x y z
#
# Youngs Moduli (GPa) = 76.36123 14.65829 73.88561
#
# Poissons Ratio (x) = 0.14562 0.59808
# Poissons Ratio (y) = 0.75861 0.11210
# Poissons Ratio (z) = 0.61812 0.02224
#
# Static dielectric constant tensor:
#      x y z
#    x 4.315990 0.000000 -1.121770 
#    y 0.000000 2.963710 0.000000 
#    z -1.121770 0.000000 5.154700 
# 
# 
# High freq. dielectric constant tensor:
#      x y z
#    x 1.729070 0.000000 -0.015840 
#    y 0.000000 1.670970 0.000000 
#    z -0.015840 0.000000 1.727310 
# 
# From -- ./inp_files/87005.got.cif
#   From: 2010.06.25/outbox.cif.g09.slc.cpg/sg10_44_cif.got.tgz:87005.got - 2010.06.27 22:07:45.
