data_PCOD8058535
_publ_section_title
;
Structure prediction by ZEFSAII (Michael W. Deem and Ramdas Pophale) SiO2 
 PCOD8058535
Probable space group: P 2/M
;
_chemical_formula_sum "Si O2"
_cell_formula_units_Z 28
_cell_length_a 12.016246
_cell_length_b 9.076984
_cell_length_c 14.830873
_cell_angle_alpha 90.000000
_cell_angle_beta 108.620260
_cell_angle_gamma 90.000000
_cell_volume 1532.948674
_symmetry_space_group_name_H-M "P 2/M"
_symmetry_group_IT_number 10
_symmetry_cell_setting 'monoclinic'
loop_
_space_group_symop_operation_xyz
x,y,z
-x,y,-z
-x,-y,-z
x,-y,z
loop_
_atom_site_type_symbol
_atom_site_label
_atom_site_fract_x
_atom_site_fract_y
_atom_site_fract_z
Si Si1 0.226001 0.825738 0.543598
Si Si2 0.511859 0.835409 0.397200
Si Si3 0.876057 0.173520 0.669976
Si Si4 0.303390 0.674082 0.252349
Si Si5 0.398124 0.674208 0.089071
Si Si6 0.657233 0.674543 0.122548
Si Si7 0.857733 0.172506 0.287360
O O1 0.359479 0.773077 0.593555
O O2 0.172001 0.760104 0.437245
O O3 0.151524 0.773623 0.611010
O O4 0.221962 0.000000 0.532195
O O5 0.500000 0.845637 0.500000
O O6 0.418581 0.720260 0.336438
O O7 0.491712 0.000000 0.351213
O O8 0.811850 0.249770 0.737237
O O9 0.013016 0.211053 0.714504
O O10 0.851917 0.000000 0.669183
O O11 0.288073 0.500000 0.255035
O O12 0.320249 0.728182 0.153354
O O13 0.405797 0.500000 0.089237
O O14 0.533169 0.730391 0.132307
O O15 0.338426 0.727707 0.980768
O O16 0.670294 0.500000 0.133738
O O17 0.764677 0.746850 0.201379
O O18 0.831397 0.000000 0.275577
#
# Coordination Sequence:
#
# PCOD8058535 Si02
#       7
#     4   4   4   4   4   4   4
#     4   9  17  32  53  74  98 135 175 205 243 301
#     4  10  18  31  51  74 103 135 167 199 245 309
#     4  10  20  36  52  69 101 143 177 203 245 304
#     4  11  21  33  51  77 106 132 169 213 253 293
#     4   8  17  34  56  79 101 133 166 200 253 315
#     4   9  17  35  59  77 100 131 166 205 254 310
#     4  10  20  33  53  78 101 129 172 219 253 288
#
# _framework density 18.265450999999999
#
# number of rings (size 3 to 8) (size 9 to 14) (size 15 to 20)
#    0.000    2.429    1.429    2.571    0.000    2.571 
#    0.000    5.000    0.000    6.000    0.000    0.000 
#    0.000    0.000    0.000    0.000    0.000    0.000 
#
# Total GULP energy -347120.265688 kJ/mol
# GULP energy per Si atom -12397.152346 kJ/mol
# Density = 1.822388 g / cm^3
# Si number density = 18.265451 Si / 1000 Ang^3
#
#
#
# Elastic Constant Matrix: (Units=GPa)
#
#
# Indices 1 2 3 4 5 6 
#
# 1 148.7541 46.0385 79.6062 0.0000 -16.6178 0.0000
# 2 46.0385 37.5583 33.5114 0.0000 -3.9243 0.0000
# 3 79.6062 33.5114 115.1711 0.0000 -12.0533 0.0000
# 4 0.0000 0.0000 0.0000 36.9653 0.0000 0.9180
# 5 -16.6178 -3.9243 -12.0533 0.0000 29.5005 0.0000
# 6 0.0000 0.0000 0.0000 0.9180 0.0000 25.3100
#
#
#
# Elastic Compliance Matrix: (Units=1/GPa)
#
#
# Indices 1 2 3 4 5 6 
#
# 1 0.013759 -0.011261 -0.005829 0.000000 0.003871 0.000000
# 2 -0.011261 0.045186 -0.005640 0.000000 -0.002637 0.000000
# 3 -0.005829 -0.005640 0.014553 0.000000 0.001912 0.000000
# 4 0.000000 0.000000 0.000000 0.027077 0.000000 -0.000982
# 5 0.003871 -0.002637 0.001912 0.000000 0.036509 0.000000
# 6 0.000000 0.000000 0.000000 -0.000982 0.000000 0.039546
#
#
# Mechanical properties :
#
#
# Convention : Reuss Voigt Hill
#
# Bulk Modulus (GPa) = 35.66554 68.86620 52.26587
# Shear Modulus (GPa) = 21.60432 27.84367 24.72400
#
# Velocity S-wave (km/s) = 3.44291 3.90858 3.68311
# Velocity P-wave (km/s) = 5.94756 7.62589 6.83841
#
# Compressibility (1/GPa) = 0.02803827
#
# Stress axis : x y z
#
# Youngs Moduli (GPa) = 72.67717 22.13091 68.71522
#
# Poissons Ratio (x) = 0.24922 0.40053
# Poissons Ratio (y) = 0.81842 0.38756
# Poissons Ratio (z) = 0.42362 0.12482
#
# Static dielectric constant tensor:
#      x y z
#    x 3.578730 0.000000 -0.229360 
#    y 0.000000 3.064370 0.000000 
#    z -0.229360 0.000000 3.581220 
# 
# 
# High freq. dielectric constant tensor:
#      x y z
#    x 1.716080 0.000000 -0.009200 
#    y 0.000000 1.673460 0.000000 
#    z -0.009200 0.000000 1.706370 
# 
# From -- ./inp_files/49108.got.cif
#   From: 2010.06.25/outbox.cif.g09.slc.cpg/sg10_25_cif.got.tgz:49108.got - 2010.06.27 22:07:45.
