data_PCOD8058904
_publ_section_title
;
Structure prediction by ZEFSAII (Michael W. Deem and Ramdas Pophale) SiO2 
 PCOD8058904
Probable space group: P 2/M
;
_chemical_formula_sum "Si O2"
_cell_formula_units_Z 18
_cell_length_a 5.565709
_cell_length_b 18.648761
_cell_length_c 6.913812
_cell_angle_alpha 90.000000
_cell_angle_beta 100.968214
_cell_angle_gamma 90.000000
_cell_volume 704.500628
_symmetry_space_group_name_H-M "P 2/M"
_symmetry_group_IT_number 10
_symmetry_cell_setting 'monoclinic'
loop_
_space_group_symop_operation_xyz
x,y,z
-x,y,-z
-x,-y,-z
x,-y,z
loop_
_atom_site_type_symbol
_atom_site_label
_atom_site_fract_x
_atom_site_fract_y
_atom_site_fract_z
Si Si1 0.820200 0.917424 0.231113
Si Si2 0.682680 0.136582 0.793739
Si Si3 0.430228 0.421120 0.712703
Si Si4 0.000000 0.346531 0.500000
Si Si5 0.229230 0.703223 0.171694
O O1 0.587654 0.887967 0.323382
O O2 0.084495 0.878164 0.315736
O O3 0.858868 0.000000 0.287853
O O4 0.748611 0.907368 0.996594
O O5 0.648323 0.219990 0.844092
O O6 0.500000 0.424102 0.500000
O O7 0.460517 0.500000 0.812393
O O8 0.148412 0.396259 0.674279
O O9 0.591464 0.362904 0.853189
O O10 0.169568 0.297165 0.392006
O O11 0.000000 0.694620 0.000000
#
# Coordination Sequence:
#
# PCOD8058904 Si02
#       5
#     4   4   4   2   4
#     4  10  18  32  54  88 126 166 215 263 320 386
#     4  10  19  31  54  88 128 162 209 269 316 386
#     4   9  20  40  64  90 124 167 219 268 322 390
#     4  10  23  40  64  88 125 170 218 266 333 382
#     4  11  23  39  61  93 131 166 214 269 331 390
#
# _framework density 25.550014000000001
#
# number of rings (size 3 to 8) (size 9 to 14) (size 15 to 20)
#    0.000    2.000    2.222    3.667    3.111    2.222 
#    0.000    1.111    0.000    0.000    0.000    8.556 
#    0.000    0.000    0.000    0.000    0.000    0.000 
#
# Total GULP energy -223075.681182 kJ/mol
# GULP energy per Si atom -12393.093399 kJ/mol
# Density = 2.549186 g / cm^3
# Si number density = 25.550014 Si / 1000 Ang^3
#
#
#
# Elastic Constant Matrix: (Units=GPa)
#
#
# Indices 1 2 3 4 5 6 
#
# 1 202.6604 70.9278 26.5483 0.0000 19.3128 0.0000
# 2 70.9278 212.7550 21.2657 0.0000 33.7376 0.0000
# 3 26.5483 21.2657 32.9704 0.0000 7.6237 0.0000
# 4 0.0000 0.0000 0.0000 -5.8571 0.0000 5.9530
# 5 19.3128 33.7376 7.6237 0.0000 41.2403 0.0000
# 6 0.0000 0.0000 0.0000 5.9530 0.0000 44.0169
#
#
#
# Elastic Compliance Matrix: (Units=1/GPa)
#
#
# Indices 1 2 3 4 5 6 
#
# 1 0.006027 -0.001496 -0.003676 0.000000 -0.000919 0.000000
# 2 -0.001496 0.005989 -0.001763 0.000000 -0.003873 0.000000
# 3 -0.003676 -0.001763 0.035200 0.000000 -0.003344 0.000000
# 4 0.000000 0.000000 0.000000 -0.150101 0.000000 0.020300
# 5 -0.000919 -0.003873 -0.003344 0.000000 0.028465 0.000000
# 6 0.000000 0.000000 0.000000 0.020300 0.000000 0.019973
#
#
# Mechanical properties :
#
#
# Convention : Reuss Voigt Hill
#
# Bulk Modulus (GPa) = 29.98731 76.20773 53.09752
# Shear Modulus (GPa) = -169.71344 37.85630 -65.92857
#
# Velocity S-wave (km/s) = -8.15893 3.85340 -5.08525
# Velocity P-wave (km/s) = 8.77470 7.04911 3.69496
#
# Compressibility (1/GPa) = 0.03334744
#
# Stress axis : x y z
#
# Youngs Moduli (GPa) = 165.91803 166.96077 28.40910
#
# Poissons Ratio (x) = 0.24980 0.10442
# Poissons Ratio (y) = 0.24824 0.05008
# Poissons Ratio (z) = 0.60984 0.29432
#
# Static dielectric constant tensor:
#      x y z
#    x 5.815500 0.000000 0.054670 
#    y 0.000000 4.613000 0.000000 
#    z 0.054670 0.000000 4.081520 
# 
# 
# High freq. dielectric constant tensor:
#      x y z
#    x 2.038930 0.000000 0.002080 
#    y 0.000000 2.016080 0.000000 
#    z 0.002080 0.000000 1.997480 
# 
# From -- ./inp_files/14805.got.cif
#   From: 2010.06.25/outbox.cif.g09.slc.cpg/sg10_8_cif.got.tgz:14805.got - 2010.06.27 22:07:45.
