data_PCOD8058672
_publ_section_title
;
Structure prediction by ZEFSAII (Michael W. Deem and Ramdas Pophale) SiO2 
 PCOD8058672
Probable space group: P 2/M
;
_chemical_formula_sum "Si O2"
_cell_formula_units_Z 28
_cell_length_a 29.137461
_cell_length_b 8.834484
_cell_length_c 9.049591
_cell_angle_alpha 90.000000
_cell_angle_beta 38.288116
_cell_angle_gamma 90.000000
_cell_volume 1443.393151
_symmetry_space_group_name_H-M "P 2/M"
_symmetry_group_IT_number 10
_symmetry_cell_setting 'monoclinic'
loop_
_space_group_symop_operation_xyz
x,y,z
-x,y,-z
-x,-y,-z
x,-y,z
loop_
_atom_site_type_symbol
_atom_site_label
_atom_site_fract_x
_atom_site_fract_y
_atom_site_fract_z
Si Si1 0.209442 0.679726 0.396680
Si Si2 0.071805 0.325821 0.218970
Si Si3 0.493522 0.833369 0.191174
Si Si4 0.652137 0.677131 0.468578
Si Si5 0.072592 0.177429 0.906164
Si Si6 0.207085 0.321283 0.071041
Si Si7 0.343728 0.820768 0.224624
O O1 0.212077 0.500000 0.393874
O O2 0.142835 0.734907 0.666166
O O3 0.199001 0.743698 0.257002
O O4 0.286756 0.741557 0.260425
O O5 0.085227 0.500000 0.137182
O O6 0.141280 0.258700 0.134454
O O7 0.000000 0.311005 0.500000
O O8 0.060205 0.222780 0.106079
O O9 0.427595 0.719327 0.401386
O O10 0.474959 0.000000 0.302521
O O11 0.500000 0.844363 0.000000
O O12 0.574038 0.777288 0.044319
O O13 0.654734 0.500000 0.495732
O O14 0.668366 0.764432 0.578365
O O15 0.714160 0.727682 0.194885
O O16 0.087652 0.000000 0.855030
O O17 0.000000 0.227044 0.000000
O O18 0.199510 0.500000 0.097591
O O19 0.332109 0.000000 0.253685
#
# Coordination Sequence:
#
# PCOD8058672 Si02
#       7
#     4   4   4   4   4   4   4
#     4  11  22  38  59  80 107 144 185 227 271 321
#     4  10  20  37  62  87 111 144 186 227 269 321
#     4   8  16  31  50  74 107 143 179 224 274 325
#     4  10  18  31  54  81 108 141 184 230 275 327
#     4  11  24  40  58  84 117 148 180 221 270 324
#     4   9  20  36  53  79 111 140 177 228 278 322
#     4  10  20  35  54  79 111 143 179 225 277 331
#
# _framework density 19.398734999999999
#
# number of rings (size 3 to 8) (size 9 to 14) (size 15 to 20)
#    0.000    2.143    0.000    4.286    0.000    6.857 
#    0.000    5.714    0.000    4.286    0.000    0.000 
#    0.000    0.000    0.000    0.000    0.000    0.000 
#
# Total GULP energy -347207.643863 kJ/mol
# GULP energy per Si atom -12400.272995 kJ/mol
# Density = 1.935458 g / cm^3
# Si number density = 19.398735 Si / 1000 Ang^3
#
#
#
# Elastic Constant Matrix: (Units=GPa)
#
#
# Indices 1 2 3 4 5 6 
#
# 1 138.8241 39.7163 56.6282 0.0000 -15.1732 0.0000
# 2 39.7163 64.4921 32.6963 0.0000 -8.0692 0.0000
# 3 56.6282 32.6963 99.7829 0.0000 -14.5852 0.0000
# 4 0.0000 0.0000 0.0000 10.8051 0.0000 -15.3358
# 5 -15.1732 -8.0692 -14.5852 0.0000 37.1070 0.0000
# 6 0.0000 0.0000 0.0000 -15.3358 0.0000 19.2876
#
#
#
# Elastic Compliance Matrix: (Units=1/GPa)
#
#
# Indices 1 2 3 4 5 6 
#
# 1 0.010261 -0.003936 -0.004292 0.000000 0.001653 0.000000
# 2 -0.003936 0.020213 -0.004225 0.000000 0.001125 0.000000
# 3 -0.004292 -0.004225 0.014271 0.000000 0.002936 0.000000
# 4 0.000000 0.000000 0.000000 -0.720176 0.000000 -0.572620
# 5 0.001653 0.001125 0.002936 0.000000 0.029023 0.000000
# 6 0.000000 0.000000 0.000000 -0.572620 0.000000 -0.403450
#
#
# Mechanical properties :
#
#
# Convention : Reuss Voigt Hill
#
# Bulk Modulus (GPa) = 50.40685 62.35344 56.38015
# Shear Modulus (GPa) = -4.90995 25.04383 10.06694
#
# Velocity S-wave (km/s) = -1.59266 3.59695 2.28052
# Velocity P-wave (km/s) = 4.76014 7.03303 6.00510
#
# Compressibility (1/GPa) = 0.01983857
#
# Stress axis : x y z
#
# Youngs Moduli (GPa) = 97.45821 49.47427 70.07301
#
# Poissons Ratio (x) = 0.19475 0.30074
# Poissons Ratio (y) = 0.38363 0.29604
# Poissons Ratio (z) = 0.41827 0.20902
#
# Static dielectric constant tensor:
#      x y z
#    x 3.791870 0.000000 -0.280300 
#    y 0.000000 3.455950 0.000000 
#    z -0.280300 0.000000 3.657150 
# 
# 
# High freq. dielectric constant tensor:
#      x y z
#    x 1.757150 0.000000 -0.018170 
#    y 0.000000 1.744750 0.000000 
#    z -0.018170 0.000000 1.760270 
# 
# From -- ./inp_files/37046.got.cif
#   From: 2010.06.25/outbox.cif.g09.slc.cpg/sg10_19_cif.got.tgz:37046.got - 2010.06.27 22:07:45.
