data_PCOD8058565
_publ_section_title
;
Structure prediction by ZEFSAII (Michael W. Deem and Ramdas Pophale) SiO2 
 PCOD8058565
Probable space group: P 2/M
;
_chemical_formula_sum "Si O2"
_cell_formula_units_Z 32
_cell_length_a 23.807542
_cell_length_b 9.238081
_cell_length_c 11.899403
_cell_angle_alpha 90.000000
_cell_angle_beta 135.537466
_cell_angle_gamma 90.000000
_cell_volume 1833.133617
_symmetry_space_group_name_H-M "P 2/M"
_symmetry_group_IT_number 10
_symmetry_cell_setting 'monoclinic'
loop_
_space_group_symop_operation_xyz
x,y,z
-x,y,-z
-x,-y,-z
x,-y,z
loop_
_atom_site_type_symbol
_atom_site_label
_atom_site_fract_x
_atom_site_fract_y
_atom_site_fract_z
Si Si1 0.640074 0.169866 0.016826
Si Si2 0.538352 0.168962 0.276918
Si Si3 0.290896 0.166433 0.119141
Si Si4 0.171179 0.170845 0.337281
Si Si5 0.135700 0.833951 0.033644
Si Si6 0.581950 0.669446 0.555578
Si Si7 0.323029 0.168841 0.689290
Si Si8 0.983392 0.662948 0.844879
O O1 0.551144 0.233149 0.865962
O O2 0.699915 0.205206 0.999633
O O3 0.628908 0.000000 0.019489
O O4 0.676478 0.236890 0.183983
O O5 0.584505 0.252343 0.440358
O O6 0.589344 0.198054 0.237449
O O7 0.536701 0.000000 0.306401
O O8 0.199597 0.191560 0.025870
O O9 0.345568 0.273635 0.266892
O O10 0.317166 0.000000 0.178864
O O11 0.174017 0.210676 0.208821
O O12 0.251892 0.233891 0.510525
O O13 0.097366 0.248261 0.294867
O O14 0.161133 0.000000 0.339309
O O15 0.107665 0.000000 0.999103
O O16 0.058681 0.738345 0.891330
O O17 0.500000 0.709792 0.500000
O O18 0.592464 0.500000 0.551998
O O19 0.305390 0.000000 0.671087
O O20 0.974182 0.500000 0.785674
O O21 0.000000 0.664616 0.000000
#
# Coordination Sequence:
#
# PCOD8058565 Si02
#       8
#     4   4   4   4   4   4   4   4
#     4   9  17  29  48  73  98 126 163 207 244 279
#     4  10  18  31  52  73  95 126 166 207 246 287
#     4  10  19  32  51  74  98 128 165 201 239 288
#     4   9  16  28  46  68  97 127 153 189 238 288
#     4   9  17  29  47  73 100 123 152 189 236 291
#     4  11  22  33  46  67  98 131 162 200 245 289
#     4   9  17  29  48  75 100 124 161 206 247 285
#     4   9  17  29  47  71  97 122 151 189 236 288
#
# _framework density 17.456447000000001
#
# number of rings (size 3 to 8) (size 9 to 14) (size 15 to 20)
#    0.000    2.500    1.250    1.875    0.000    6.000 
#    0.000    3.125    0.000    4.500    0.000    5.250 
#    0.000    0.000    0.000    0.000    0.000    0.000 
#
# Total GULP energy -396750.887569 kJ/mol
# GULP energy per Si atom -12398.465237 kJ/mol
# Density = 1.741672 g / cm^3
# Si number density = 17.456447 Si / 1000 Ang^3
#
#
#
# Elastic Constant Matrix: (Units=GPa)
#
#
# Indices 1 2 3 4 5 6 
#
# 1 123.5684 34.7119 53.9667 0.0000 4.8355 0.0000
# 2 34.7119 43.3230 20.4593 0.0000 4.0566 0.0000
# 3 53.9667 20.4593 68.4853 0.0000 -0.0551 0.0000
# 4 0.0000 0.0000 0.0000 7.9372 0.0000 4.2614
# 5 4.8355 4.0566 -0.0551 0.0000 30.2024 0.0000
# 6 0.0000 0.0000 0.0000 4.2614 0.0000 11.8877
#
#
#
# Elastic Compliance Matrix: (Units=1/GPa)
#
#
# Indices 1 2 3 4 5 6 
#
# 1 0.013989 -0.006842 -0.008981 0.000000 -0.001337 0.000000
# 2 -0.006842 0.030623 -0.003759 0.000000 -0.003025 0.000000
# 3 -0.008981 -0.003759 0.022803 0.000000 0.001984 0.000000
# 4 0.000000 0.000000 0.000000 0.156016 0.000000 -0.055928
# 5 -0.001337 -0.003025 0.001984 0.000000 0.033734 0.000000
# 6 0.000000 0.000000 0.000000 -0.055928 0.000000 0.104169
#
#
# Mechanical properties :
#
#
# Convention : Reuss Voigt Hill
#
# Bulk Modulus (GPa) = 35.39630 50.40581 42.90106
# Shear Modulus (GPa) = 12.19763 18.42137 15.30950
#
# Velocity S-wave (km/s) = 2.64625 3.25203 2.96465
# Velocity P-wave (km/s) = 5.44590 6.56039 6.02895
#
# Compressibility (1/GPa) = 0.02825154
#
# Stress axis : x y z
#
# Youngs Moduli (GPa) = 71.48343 32.65498 43.85400
#
# Poissons Ratio (x) = 0.22344 0.39383
# Poissons Ratio (y) = 0.48912 0.16484
# Poissons Ratio (z) = 0.64196 0.12275
#
# Static dielectric constant tensor:
#      x y z
#    x 3.330350 0.000000 0.024250 
#    y 0.000000 3.023450 0.000000 
#    z 0.024250 0.000000 3.252790 
# 
# 
# High freq. dielectric constant tensor:
#      x y z
#    x 1.675480 0.000000 0.009590 
#    y 0.000000 1.644460 0.000000 
#    z 0.009590 0.000000 1.656770 
# 
# From -- ./inp_files/54886.got.cif
#   From: 2010.06.25/outbox.cif.g09.slc.cpg/sg10_28_cif.got.tgz:54886.got - 2010.06.27 22:07:45.
