data_PCOD8058698
_publ_section_title
;
Structure prediction by ZEFSAII (Michael W. Deem and Ramdas Pophale) SiO2 
 PCOD8058698
Probable space group: P 2/M
;
_chemical_formula_sum "Si O2"
_cell_formula_units_Z 32
_cell_length_a 28.177204
_cell_length_b 13.531778
_cell_length_c 7.437430
_cell_angle_alpha 90.000000
_cell_angle_beta 147.743213
_cell_angle_gamma 90.000000
_cell_volume 1513.508314
_symmetry_space_group_name_H-M "P 2/M"
_symmetry_group_IT_number 10
_symmetry_cell_setting 'monoclinic'
loop_
_space_group_symop_operation_xyz
x,y,z
-x,y,-z
-x,-y,-z
x,-y,z
loop_
_atom_site_type_symbol
_atom_site_label
_atom_site_fract_x
_atom_site_fract_y
_atom_site_fract_z
Si Si1 0.805572 0.392282 0.226606
Si Si2 0.979689 0.304319 0.734339
Si Si3 0.156770 0.611533 0.229934
Si Si4 0.074621 0.890747 0.585692
Si Si5 0.322692 0.731497 0.723997
Si Si6 0.504442 0.386369 0.802189
Si Si7 0.657050 0.750920 0.801868
Si Si8 0.282836 0.114801 0.305322
O O1 0.773149 0.500000 0.064429
O O2 0.893099 0.364828 0.391509
O O3 0.825933 0.386928 0.502555
O O4 0.726850 0.319411 0.923932
O O5 0.955913 0.188300 0.659764
O O6 0.000000 0.338390 0.000000
O O7 0.063966 0.333653 0.882124
O O8 0.154492 0.500000 0.148784
O O9 0.234106 0.672850 0.382029
O O10 0.000000 0.882852 0.500000
O O11 0.071822 0.000000 0.489689
O O12 0.175903 0.868517 0.972027
O O13 0.331326 0.825220 0.620765
O O14 0.400160 0.650947 0.956669
O O15 0.318538 0.773741 0.913703
O O16 0.488420 0.500000 0.681819
O O17 0.436323 0.306390 0.502715
O O18 0.500000 0.383810 0.000000
O O19 0.668077 0.852037 0.723530
O O20 0.305198 0.000000 0.403910
#
# Coordination Sequence:
#
# PCOD8058698 Si02
#       8
#     4   4   4   4   4   4   4   4
#     4   9  17  31  54  84 120 161 200 243 300 365
#     4  10  18  31  55  84 118 156 201 248 300 371
#     4   9  18  32  54  87 124 161 200 247 302 366
#     4  10  21  38  58  80 115 164 210 262 321 364
#     4  11  23  41  67  93 125 166 212 261 315 375
#     4  11  23  41  68 100 134 171 210 253 309 376
#     4  11  22  41  66  94 125 166 209 257 318 374
#     4  11  24  44  66  91 127 164 210 271 323 374
#
# _framework density 21.14293
#
# number of rings (size 3 to 8) (size 9 to 14) (size 15 to 20)
#    0.000    1.750    2.500    2.250    0.000    4.250 
#    0.000    1.250    0.000    3.000    0.000    0.000 
#    0.000    0.000    0.000    0.000    0.000    0.000 
#
# Total GULP energy -396660.844704 kJ/mol
# GULP energy per Si atom -12395.651397 kJ/mol
# Density = 2.109481 g / cm^3
# Si number density = 21.142930 Si / 1000 Ang^3
#
#
#
# Elastic Constant Matrix: (Units=GPa)
#
#
# Indices 1 2 3 4 5 6 
#
# 1 77.7605 29.0421 19.3621 0.0000 12.4049 0.0000
# 2 29.0421 136.2587 34.0371 0.0000 3.4960 0.0000
# 3 19.3621 34.0371 70.4665 0.0000 22.6361 0.0000
# 4 0.0000 0.0000 0.0000 22.5826 0.0000 10.0366
# 5 12.4049 3.4960 22.6361 0.0000 33.1221 0.0000
# 6 0.0000 0.0000 0.0000 10.0366 0.0000 22.1685
#
#
#
# Elastic Compliance Matrix: (Units=1/GPa)
#
#
# Indices 1 2 3 4 5 6 
#
# 1 0.014916 -0.002721 -0.001386 0.000000 -0.004352 0.000000
# 2 -0.002721 0.008994 -0.004637 0.000000 0.003239 0.000000
# 3 -0.001386 -0.004637 0.021126 0.000000 -0.013429 0.000000
# 4 0.000000 0.000000 0.000000 0.055437 0.000000 -0.025098
# 5 -0.004352 0.003239 -0.013429 0.000000 0.040657 0.000000
# 6 0.000000 0.000000 0.000000 -0.025098 0.000000 0.056472
#
#
# Mechanical properties :
#
#
# Convention : Reuss Voigt Hill
#
# Bulk Modulus (GPa) = 36.30202 49.92981 43.11592
# Shear Modulus (GPa) = 22.29432 29.04427 25.66929
#
# Velocity S-wave (km/s) = 3.25076 3.71038 3.48815
# Velocity P-wave (km/s) = 5.59438 6.48248 6.05473
#
# Compressibility (1/GPa) = 0.02754668
#
# Stress axis : x y z
#
# Youngs Moduli (GPa) = 67.04354 111.18228 47.33578
#
# Poissons Ratio (x) = 0.30255 0.06561
# Poissons Ratio (y) = 0.18244 0.21950
# Poissons Ratio (z) = 0.09293 0.51557
#
# Static dielectric constant tensor:
#      x y z
#    x 3.685660 0.000000 0.264490 
#    y 0.000000 3.903130 0.000000 
#    z 0.264490 0.000000 3.855840 
# 
# 
# High freq. dielectric constant tensor:
#      x y z
#    x 1.823670 0.000000 0.014990 
#    y 0.000000 1.826320 0.000000 
#    z 0.014990 0.000000 1.826660 
# 
# From -- ./inp_files/38250.got.cif
#   From: 2010.06.25/outbox.cif.g09.slc.cpg/sg10_20_cif.got.tgz:38250.got - 2010.06.27 22:07:45.
