data_PCOD8058734
_publ_section_title
;
Structure prediction by ZEFSAII (Michael W. Deem and Ramdas Pophale) SiO2 
 PCOD8058734
Probable space group: P 2/M
;
_chemical_formula_sum "Si O2"
_cell_formula_units_Z 32
_cell_length_a 12.649603
_cell_length_b 8.706734
_cell_length_c 21.186039
_cell_angle_alpha 90.000000
_cell_angle_beta 52.948185
_cell_angle_gamma 90.000000
_cell_volume 1862.234287
_symmetry_space_group_name_H-M "P 2/M"
_symmetry_group_IT_number 10
_symmetry_cell_setting 'monoclinic'
loop_
_space_group_symop_operation_xyz
x,y,z
-x,y,-z
-x,-y,-z
x,-y,z
loop_
_atom_site_type_symbol
_atom_site_label
_atom_site_fract_x
_atom_site_fract_y
_atom_site_fract_z
Si Si1 0.976480 0.680668 0.915081
Si Si2 0.285351 0.820444 0.334892
Si Si3 0.130776 0.327206 0.494651
Si Si4 0.109732 0.821597 0.179584
Si Si5 0.589350 0.822545 0.907145
Si Si6 0.030998 0.177620 0.347122
Si Si7 0.480979 0.679307 0.821189
Si Si8 0.198131 0.818514 0.917686
O O1 0.976557 0.500000 0.925828
O O2 0.962214 0.719665 0.846800
O O3 0.114298 0.749135 0.890261
O O4 0.853394 0.753173 0.997143
O O5 0.243858 0.776215 0.421234
O O6 0.170447 0.770851 0.327339
O O7 0.414657 0.724910 0.270105
O O8 0.316816 0.000000 0.319378
O O9 0.184075 0.500000 0.480795
O O10 0.000000 0.315839 0.500000
O O11 0.093673 0.266674 0.577715
O O12 0.262229 0.771313 0.130015
O O13 0.034068 0.786904 0.271950
O O14 0.099861 0.000000 0.164600
O O15 0.535754 0.718382 0.870444
O O16 0.586192 0.000000 0.886200
O O17 0.500000 0.794098 0.000000
O O18 0.009022 0.000000 0.369870
O O19 0.449421 0.500000 0.828669
O O20 0.349600 0.774578 0.853933
O O21 0.181185 0.000000 0.924309
#
# Coordination Sequence:
#
# PCOD8058734 Si02
#       8
#     4   4   4   4   4   4   4   4
#     4  11  22  37  56  80 105 129 168 222 271 305
#     4  10  18  32  50  71 100 138 176 208 249 306
#     4   9  17  28  44  69 100 133 169 211 258 301
#     4  10  19  33  51  75 105 140 178 211 251 307
#     4  10  20  34  51  71 100 140 178 208 246 307
#     4   9  17  30  48  70 100 138 177 211 245 300
#     4  12  23  34  51  77 107 134 168 216 265 305
#     4  11  22  39  59  75  97 135 178 216 259 310
#
# _framework density 17.183661000000001
#
# number of rings (size 3 to 8) (size 9 to 14) (size 15 to 20)
#    0.000    1.750    1.250    5.625    0.000    4.250 
#    0.000    0.000    0.000    0.000    0.000    0.875 
#    0.000    7.000    0.000    0.000    0.000    0.000 
#
# Total GULP energy -396916.991237 kJ/mol
# GULP energy per Si atom -12403.655976 kJ/mol
# Density = 1.714455 g / cm^3
# Si number density = 17.183661 Si / 1000 Ang^3
#
#
#
# Elastic Constant Matrix: (Units=GPa)
#
#
# Indices 1 2 3 4 5 6 
#
# 1 74.6790 35.7711 47.3104 0.0000 3.0884 0.0000
# 2 35.7711 104.9188 40.2732 0.0000 1.8474 0.0000
# 3 47.3104 40.2732 104.3854 0.0000 3.3132 0.0000
# 4 0.0000 0.0000 0.0000 29.3504 0.0000 0.4773
# 5 3.0884 1.8474 3.3132 0.0000 11.7639 0.0000
# 6 0.0000 0.0000 0.0000 0.4773 0.0000 22.5850
#
#
#
# Elastic Compliance Matrix: (Units=1/GPa)
#
#
# Indices 1 2 3 4 5 6 
#
# 1 0.020155 -0.003934 -0.007536 0.000000 -0.002551 0.000000
# 2 -0.003934 0.011959 -0.002830 0.000000 -0.000048 0.000000
# 3 -0.007536 -0.002830 0.014137 0.000000 -0.001559 0.000000
# 4 0.000000 0.000000 0.000000 0.034083 0.000000 -0.000720
# 5 -0.002551 -0.000048 -0.001559 0.000000 0.086122 0.000000
# 6 0.000000 0.000000 0.000000 -0.000720 0.000000 0.044292
#
#
# Mechanical properties :
#
#
# Convention : Reuss Voigt Hill
#
# Bulk Modulus (GPa) = 56.65177 58.96582 57.80879
# Shear Modulus (GPa) = 20.38896 23.44842 21.91869
#
# Velocity S-wave (km/s) = 3.44834 3.69802 3.57536
# Velocity P-wave (km/s) = 6.99248 7.25420 7.12454
#
# Compressibility (1/GPa) = 0.01765170
#
# Stress axis : x y z
#
# Youngs Moduli (GPa) = 49.61644 83.61615 70.73873
#
# Poissons Ratio (x) = 0.32894 0.53308
# Poissons Ratio (y) = 0.19519 0.20016
# Poissons Ratio (z) = 0.37390 0.23660
#
# Static dielectric constant tensor:
#      x y z
#    x 2.962380 0.000000 -0.009990 
#    y 0.000000 3.255900 0.000000 
#    z -0.009990 0.000000 3.329670 
# 
# 
# High freq. dielectric constant tensor:
#      x y z
#    x 1.626130 0.000000 0.001530 
#    y 0.000000 1.672390 0.000000 
#    z 0.001530 0.000000 1.670320 
# 
# From -- ./inp_files/83528.got.cif
#   From: 2010.06.25/outbox.cif.g09.slc.cpg/sg10_42_cif.got.tgz:83528.got - 2010.06.27 22:07:45.
