data_PCOD8058261
_publ_section_title
;
Structure prediction by ZEFSAII (Michael W. Deem and Ramdas Pophale) SiO2 
 PCOD8058261
Probable space group: P 2/M
;
_chemical_formula_sum "Si O2"
_cell_formula_units_Z 24
_cell_length_a 10.228216
_cell_length_b 8.572179
_cell_length_c 22.952466
_cell_angle_alpha 90.000000
_cell_angle_beta 41.204849
_cell_angle_gamma 90.000000
_cell_volume 1325.693632
_symmetry_space_group_name_H-M "P 2/M"
_symmetry_group_IT_number 10
_symmetry_cell_setting 'monoclinic'
loop_
_space_group_symop_operation_xyz
x,y,z
-x,y,-z
-x,-y,-z
x,-y,z
loop_
_atom_site_type_symbol
_atom_site_label
_atom_site_fract_x
_atom_site_fract_y
_atom_site_fract_z
Si Si1 0.538550 0.818356 0.553881
Si Si2 0.861432 0.685365 0.275075
Si Si3 0.527255 0.323232 0.896134
Si Si4 0.948416 0.681785 0.452261
Si Si5 0.864201 0.180515 0.719301
Si Si6 0.195650 0.324717 0.084751
O O1 0.500000 0.773333 0.500000
O O2 0.346611 0.774250 0.656277
O O3 0.719618 0.717598 0.516551
O O4 0.588231 0.000000 0.544087
O O5 0.829342 0.500000 0.282850
O O6 0.981816 0.721497 0.293614
O O7 0.985131 0.748229 0.176394
O O8 0.497883 0.500000 0.882946
O O9 0.633271 0.221185 0.810623
O O10 0.668747 0.324172 0.904033
O O11 0.315273 0.247766 0.989640
O O12 0.989544 0.500000 0.428831
O O13 0.000000 0.734837 0.500000
O O14 0.094066 0.779105 0.361618
O O15 0.903868 0.000000 0.718174
O O16 0.155448 0.500000 0.077980
#
# Coordination Sequence:
#
# PCOD8058261 Si02
#       6
#     4   4   4   4   4   4
#     4  11  22  35  53  79 107 136 169 208 259 315
#     4  10  18  30  50  73 100 135 174 212 249 294
#     4   8  13  25  43  63  93 131 168 204 246 297
#     4  11  24  40  57  76  98 132 178 219 255 302
#     4  11  20  30  46  72 103 134 168 207 258 309
#     4   7  12  23  41  66  94 127 166 207 248 289
#
# _framework density 18.103731
#
# number of rings (size 3 to 8) (size 9 to 14) (size 15 to 20)
#    0.000    2.333    1.667    5.000    0.000    2.000 
#    0.000    7.500    0.000    0.000    0.000    1.167 
#    0.000    9.333    0.000    0.000    0.000    0.000 
#
# Total GULP energy -297354.688576 kJ/mol
# GULP energy per Si atom -12389.778691 kJ/mol
# Density = 1.806253 g / cm^3
# Si number density = 18.103731 Si / 1000 Ang^3
#
#
#
# Elastic Constant Matrix: (Units=GPa)
#
#
# Indices 1 2 3 4 5 6 
#
# 1 45.6604 9.9644 34.4579 0.0000 1.6073 0.0000
# 2 9.9644 39.9947 21.9469 0.0000 -0.3607 0.0000
# 3 34.4579 21.9469 177.6780 0.0000 -14.6109 0.0000
# 4 0.0000 0.0000 0.0000 10.8526 0.0000 -0.7387
# 5 1.6073 -0.3607 -14.6109 0.0000 14.4459 0.0000
# 6 0.0000 0.0000 0.0000 -0.7387 0.0000 13.2298
#
#
#
# Elastic Compliance Matrix: (Units=1/GPa)
#
#
# Indices 1 2 3 4 5 6 
#
# 1 0.027208 -0.003828 -0.005520 0.000000 -0.008706 0.000000
# 2 -0.003828 0.027474 -0.002792 0.000000 -0.001712 0.000000
# 3 -0.005520 -0.002792 0.007731 0.000000 0.008364 0.000000
# 4 0.000000 0.000000 0.000000 0.092495 0.000000 0.005165
# 5 -0.008706 -0.001712 0.008364 0.000000 0.078609 0.000000
# 6 0.000000 0.000000 0.000000 0.005165 0.000000 0.075875
#
#
# Mechanical properties :
#
#
# Convention : Reuss Voigt Hill
#
# Bulk Modulus (GPa) = 26.22376 44.00796 35.11586
# Shear Modulus (GPa) = 14.43485 20.83658 17.63571
#
# Velocity S-wave (km/s) = 2.82679 3.39625 3.12452
# Velocity P-wave (km/s) = 5.01707 6.30404 5.69701
#
# Compressibility (1/GPa) = 0.03813336
#
# Stress axis : x y z
#
# Youngs Moduli (GPa) = 36.75376 36.39840 129.34520
#
# Poissons Ratio (x) = 0.13935 0.71393
# Poissons Ratio (y) = 0.14071 0.36112
# Poissons Ratio (z) = 0.20287 0.10162
#
# Static dielectric constant tensor:
#      x y z
#    x 2.793910 0.000000 -0.213050 
#    y 0.000000 3.181210 0.000000 
#    z -0.213050 0.000000 4.251400 
# 
# 
# High freq. dielectric constant tensor:
#      x y z
#    x 1.627200 0.000000 -0.015790 
#    y 0.000000 1.687400 0.000000 
#    z -0.015790 0.000000 1.734610 
# 
# From -- ./inp_files/80128.got.cif
#   From: 2010.06.25/outbox.cif.g09.slc.cpg/sg10_41_cif.got.tgz:80128.got - 2010.06.27 22:07:45.
