data_PCOD8058560
_publ_section_title
;
Structure prediction by ZEFSAII (Michael W. Deem and Ramdas Pophale) SiO2 
 PCOD8058560
Probable space group: P 2/M
;
_chemical_formula_sum "Si O2"
_cell_formula_units_Z 24
_cell_length_a 11.259809
_cell_length_b 12.636404
_cell_length_c 16.430831
_cell_angle_alpha 90.000000
_cell_angle_beta 32.920282
_cell_angle_gamma 90.000000
_cell_volume 1270.547581
_symmetry_space_group_name_H-M "P 2/M"
_symmetry_group_IT_number 10
_symmetry_cell_setting 'monoclinic'
loop_
_space_group_symop_operation_xyz
x,y,z
-x,y,-z
-x,-y,-z
x,-y,z
loop_
_atom_site_type_symbol
_atom_site_label
_atom_site_fract_x
_atom_site_fract_y
_atom_site_fract_z
Si Si1 0.564424 0.500000 0.329732
Si Si2 0.425409 0.289071 0.342560
Si Si3 0.635492 0.623495 0.790378
Si Si4 0.009579 0.691728 0.685170
Si Si5 0.236615 0.877965 0.902575
Si Si6 0.158465 0.500000 0.684775
Si Si7 0.661823 0.802431 0.973928
O O1 0.568950 0.393997 0.274532
O O2 0.356267 0.500000 0.507524
O O3 0.784033 0.500000 0.254336
O O4 0.314410 0.311908 0.320417
O O5 0.583941 0.188243 0.250318
O O6 0.240389 0.268646 0.516643
O O7 0.569164 0.500000 0.817387
O O8 0.868255 0.630728 0.699513
O O9 0.443211 0.686185 0.948285
O O10 0.029459 0.607943 0.746422
O O11 0.888489 0.791746 0.794297
O O12 0.275728 0.861359 0.977710
O O13 0.281327 0.000000 0.858261
O O14 0.000000 0.846350 0.000000
O O15 0.500000 0.860878 0.000000
#
# Coordination Sequence:
#
# PCOD8058560 Si02
#       7
#     2   4   4   4   4   2   4
#     4   9  18  31  45  78 114 147 176 214 273 334
#     4  10  20  35  56  82 114 145 187 230 277 330
#     4  10  18  31  51  81 120 155 186 218 265 332
#     4  10  19  31  53  82 116 150 185 224 271 330
#     4  10  23  44  63  79 106 147 190 235 290 338
#     4   9  18  27  43  75 116 154 174 210 273 316
#     4   9  21  36  56  84 112 147 189 230 278 326
#
# _framework density 18.889492000000001
#
# number of rings (size 3 to 8) (size 9 to 14) (size 15 to 20)
#    0.000    2.333    1.667    0.500    3.500    2.000 
#    0.000    1.250    0.000   15.000    0.000    0.000 
#    0.000    0.000    0.000    0.000    0.000    0.000 
#
# Total GULP energy -297324.182638 kJ/mol
# GULP energy per Si atom -12388.507610 kJ/mol
# Density = 1.884650 g / cm^3
# Si number density = 18.889492 Si / 1000 Ang^3
#
#
#
# Elastic Constant Matrix: (Units=GPa)
#
#
# Indices 1 2 3 4 5 6 
#
# 1 116.9694 24.4414 35.5312 0.0000 -15.4726 0.0000
# 2 24.4414 87.2359 45.6886 0.0000 -10.8148 0.0000
# 3 35.5312 45.6886 95.6215 0.0000 -4.2308 0.0000
# 4 0.0000 0.0000 0.0000 4.5744 0.0000 -7.3537
# 5 -15.4726 -10.8148 -4.2308 0.0000 24.1611 0.0000
# 6 0.0000 0.0000 0.0000 -7.3537 0.0000 22.2918
#
#
#
# Elastic Compliance Matrix: (Units=1/GPa)
#
#
# Indices 1 2 3 4 5 6 
#
# 1 0.010458 -0.000398 -0.003434 0.000000 0.005918 0.000000
# 2 -0.000398 0.016097 -0.007293 0.000000 0.005674 0.000000
# 3 -0.003434 -0.007293 0.015094 0.000000 -0.002820 0.000000
# 4 0.000000 0.000000 0.000000 0.465425 0.000000 0.153536
# 5 0.005918 0.005674 -0.002820 0.000000 0.047224 0.000000
# 6 0.000000 0.000000 0.000000 0.153536 0.000000 0.095509
#
#
# Mechanical properties :
#
#
# Convention : Reuss Voigt Hill
#
# Bulk Modulus (GPa) = 51.54611 56.79436 54.17024
# Shear Modulus (GPa) = 7.36895 23.14986 15.25941
#
# Velocity S-wave (km/s) = 1.97726 3.50457 2.84531
# Velocity P-wave (km/s) = 5.70616 6.81967 6.28761
#
# Compressibility (1/GPa) = 0.01940011
#
# Stress axis : x y z
#
# Youngs Moduli (GPa) = 95.61689 62.12189 66.25323
#
# Poissons Ratio (x) = 0.02472 0.22753
# Poissons Ratio (y) = 0.03805 0.48315
# Poissons Ratio (z) = 0.32837 0.45303
#
# Static dielectric constant tensor:
#      x y z
#    x 3.824740 0.000000 -0.038920 
#    y 0.000000 3.156260 0.000000 
#    z -0.038920 0.000000 3.258640 
# 
# 
# High freq. dielectric constant tensor:
#      x y z
#    x 1.753510 0.000000 -0.001300 
#    y 0.000000 1.703300 0.000000 
#    z -0.001300 0.000000 1.722260 
# 
# From -- ./inp_files/46814.got.cif
#   From: 2010.06.25/outbox.cif.g09.slc.cpg/sg10_24_cif.got.tgz:46814.got - 2010.06.27 22:07:45.
