data_PCOD8058233
_publ_section_title
;
Structure prediction by ZEFSAII (Michael W. Deem and Ramdas Pophale) SiO2 
 PCOD8058233
Probable space group: P 2/M
;
_chemical_formula_sum "Si O2"
_cell_formula_units_Z 32
_cell_length_a 12.343258
_cell_length_b 9.092684
_cell_length_c 18.939840
_cell_angle_alpha 90.000000
_cell_angle_beta 63.440751
_cell_angle_gamma 90.000000
_cell_volume 1901.363670
_symmetry_space_group_name_H-M "P 2/M"
_symmetry_group_IT_number 10
_symmetry_cell_setting 'monoclinic'
loop_
_space_group_symop_operation_xyz
x,y,z
-x,y,-z
-x,-y,-z
x,-y,z
loop_
_atom_site_type_symbol
_atom_site_label
_atom_site_fract_x
_atom_site_fract_y
_atom_site_fract_z
Si Si1 0.997709 0.668849 0.808677
Si Si2 0.211716 0.330779 0.342258
Si Si3 0.866069 0.837616 0.507866
Si Si4 0.725448 0.671817 0.917564
Si Si5 0.990294 0.173862 0.335320
Si Si6 0.884523 0.669224 0.078616
Si Si7 0.576206 0.331844 0.822247
Si Si8 0.661137 0.826037 0.077370
O O1 0.990544 0.500000 0.786000
O O2 0.048145 0.765828 0.729722
O O3 0.089839 0.689880 0.846185
O O4 0.864579 0.722318 0.870658
O O5 0.171810 0.500000 0.353957
O O6 0.215311 0.272656 0.422047
O O7 0.344846 0.309984 0.271266
O O8 0.117196 0.244002 0.321455
O O9 0.881899 0.785164 0.421906
O O10 0.000000 0.843349 0.500000
O O11 0.806917 0.000000 0.528645
O O12 0.716870 0.500000 0.938410
O O13 0.657099 0.711855 0.865829
O O14 0.662835 0.761292 0.998260
O O15 0.009212 0.000000 0.327287
O O16 0.854081 0.500000 0.068873
O O17 0.772514 0.770550 0.091579
O O18 0.000000 0.721046 0.000000
O O19 0.531749 0.500000 0.842031
O O20 0.461764 0.225583 0.849009
O O21 0.664897 0.000000 0.072357
#
# Coordination Sequence:
#
# PCOD8058233 Si02
#       8
#     4   4   4   4   4   4   4   4
#     4  10  19  33  55  78  97 128 175 212 246 296
#     4  10  18  30  49  73  98 131 174 212 243 288
#     4   8  16  29  43  66 101 139 166 191 244 307
#     4  10  19  36  55  72  99 135 172 208 250 301
#     4  10  19  30  46  71 107 139 162 198 252 307
#     4  10  20  38  59  73  94 131 171 211 256 302
#     4  10  21  36  53  72 100 137 173 208 250 300
#     4  12  25  36  50  75 103 131 171 215 252 299
#
# _framework density 16.830026
#
# number of rings (size 3 to 8) (size 9 to 14) (size 15 to 20)
#    0.000    2.000    2.500    3.000    0.000    7.000 
#    0.000    0.000    0.000    0.000    0.000    0.875 
#    0.000    7.000    0.000    0.000    0.000    0.000 
#
# Total GULP energy -396841.192254 kJ/mol
# GULP energy per Si atom -12401.287258 kJ/mol
# Density = 1.679172 g / cm^3
# Si number density = 16.830026 Si / 1000 Ang^3
#
#
#
# Elastic Constant Matrix: (Units=GPa)
#
#
# Indices 1 2 3 4 5 6 
#
# 1 61.4931 38.5911 34.8597 0.0000 -6.9852 0.0000
# 2 38.5911 93.7154 60.4601 0.0000 -1.8748 0.0000
# 3 34.8597 60.4601 120.0690 0.0000 3.5268 0.0000
# 4 0.0000 0.0000 0.0000 20.2968 0.0000 6.4028
# 5 -6.9852 -1.8748 3.5268 0.0000 16.1072 0.0000
# 6 0.0000 0.0000 0.0000 6.4028 0.0000 15.3821
#
#
#
# Elastic Compliance Matrix: (Units=1/GPa)
#
#
# Indices 1 2 3 4 5 6 
#
# 1 0.024123 -0.007422 -0.003571 0.000000 0.010380 0.000000
# 2 -0.007422 0.018299 -0.007073 0.000000 0.000460 0.000000
# 3 -0.003571 -0.007073 0.013081 0.000000 -0.005236 0.000000
# 4 0.000000 0.000000 0.000000 0.056716 0.000000 -0.023608
# 5 0.010380 0.000460 -0.005236 0.000000 0.067785 0.000000
# 6 0.000000 0.000000 0.000000 -0.023608 0.000000 0.074838
#
#
# Mechanical properties :
#
#
# Convention : Reuss Voigt Hill
#
# Bulk Modulus (GPa) = 51.62498 60.34438 55.98468
# Shear Modulus (GPa) = 16.81052 19.78167 18.29610
#
# Velocity S-wave (km/s) = 3.16387 3.43210 3.30071
# Velocity P-wave (km/s) = 6.63986 7.18601 6.91833
#
# Compressibility (1/GPa) = 0.01937047
#
# Stress axis : x y z
#
# Youngs Moduli (GPa) = 41.45347 54.64639 76.44754
#
# Poissons Ratio (x) = 0.40560 0.27301
# Poissons Ratio (y) = 0.30768 0.54073
# Poissons Ratio (z) = 0.14804 0.38653
#
# Static dielectric constant tensor:
#      x y z
#    x 2.874720 0.000000 0.090810 
#    y 0.000000 3.156210 0.000000 
#    z 0.090810 0.000000 3.443540 
# 
# 
# High freq. dielectric constant tensor:
#      x y z
#    x 1.610640 0.000000 0.007340 
#    y 0.000000 1.648750 0.000000 
#    z 0.007340 0.000000 1.655960 
# 
# From -- ./inp_files/54925.got.cif
#   From: 2010.06.25/outbox.cif.g09.slc.cpg/sg10_28_cif.got.tgz:54925.got - 2010.06.27 22:07:45.
