data_PCOD8058704
_publ_section_title
;
Structure prediction by ZEFSAII (Michael W. Deem and Ramdas Pophale) SiO2 
 PCOD8058704
Probable space group: P 2/M
;
_chemical_formula_sum "Si O2"
_cell_formula_units_Z 24
_cell_length_a 15.003325
_cell_length_b 8.749233
_cell_length_c 15.026346
_cell_angle_alpha 90.000000
_cell_angle_beta 40.385879
_cell_angle_gamma 90.000000
_cell_volume 1278.028220
_symmetry_space_group_name_H-M "P 2/M"
_symmetry_group_IT_number 10
_symmetry_cell_setting 'monoclinic'
loop_
_space_group_symop_operation_xyz
x,y,z
-x,y,-z
-x,-y,-z
x,-y,z
loop_
_atom_site_type_symbol
_atom_site_label
_atom_site_fract_x
_atom_site_fract_y
_atom_site_fract_z
Si Si1 0.919693 0.680695 0.875067
Si Si2 0.776081 0.681263 0.319707
Si Si3 0.404772 0.177845 0.389844
Si Si4 0.902142 0.320660 0.689669
Si Si5 0.819123 0.177498 0.582578
Si Si6 0.304099 0.681306 0.816381
O O1 0.930631 0.500000 0.876666
O O2 0.865139 0.726450 0.818680
O O3 0.072194 0.748712 0.775526
O O4 0.814195 0.745832 0.028191
O O5 0.774017 0.500000 0.329578
O O6 0.666390 0.746565 0.471454
O O7 0.732219 0.735204 0.255135
O O8 0.320311 0.211511 0.364100
O O9 0.553363 0.248086 0.260461
O O10 0.417393 0.000000 0.399940
O O11 0.883122 0.500000 0.688402
O O12 0.801651 0.229337 0.698819
O O13 0.060471 0.277591 0.552284
O O14 0.860122 0.000000 0.546665
O O15 0.314726 0.500000 0.814729
#
# Coordination Sequence:
#
# PCOD8058704 Si02
#       6
#     4   4   4   4   4   4
#     4   9  18  34  56  84 111 135 173 222 271 320
#     4  10  19  35  59  82 105 139 182 224 266 315
#     4  11  23  37  53  77 111 147 181 220 264 312
#     4  10  18  31  56  84 106 131 170 223 271 310
#     4  10  20  34  52  76 107 141 177 216 262 315
#     4  10  21  36  56  80 109 144 178 218 269 320
#
# _framework density 18.778928000000001
#
# number of rings (size 3 to 8) (size 9 to 14) (size 15 to 20)
#    0.000    2.000    1.667    3.500    0.000    6.667 
#    0.000    3.333    0.000    7.000    0.000    0.000 
#    0.000    0.000    0.000    0.000    0.000    0.000 
#
# Total GULP energy -297623.876826 kJ/mol
# GULP energy per Si atom -12400.994868 kJ/mol
# Density = 1.873619 g / cm^3
# Si number density = 18.778928 Si / 1000 Ang^3
#
#
#
# Elastic Constant Matrix: (Units=GPa)
#
#
# Indices 1 2 3 4 5 6 
#
# 1 123.5695 30.1949 46.3071 0.0000 10.0263 0.0000
# 2 30.1949 28.7626 9.8746 0.0000 5.7042 0.0000
# 3 46.3071 9.8746 80.8825 0.0000 -5.7890 0.0000
# 4 0.0000 0.0000 0.0000 -3.9363 0.0000 -3.4038
# 5 10.0263 5.7042 -5.7890 0.0000 24.3278 0.0000
# 6 0.0000 0.0000 0.0000 -3.4038 0.0000 27.9663
#
#
#
# Elastic Compliance Matrix: (Units=1/GPa)
#
#
# Indices 1 2 3 4 5 6 
#
# 1 0.013773 -0.011175 -0.006857 0.000000 -0.004688 0.000000
# 2 -0.011175 0.047770 0.000096 0.000000 -0.006572 0.000000
# 3 -0.006857 0.000096 0.016764 0.000000 0.006792 0.000000
# 4 0.000000 0.000000 0.000000 -0.229856 0.000000 -0.027976
# 5 -0.004688 -0.006572 0.006792 0.000000 0.046194 0.000000
# 6 0.000000 0.000000 0.000000 -0.027976 0.000000 0.032352
#
#
# Mechanical properties :
#
#
# Convention : Reuss Voigt Hill
#
# Bulk Modulus (GPa) = 23.56592 45.10753 34.33673
# Shear Modulus (GPa) = -217.53169 19.46077 -99.03546
#
# Velocity S-wave (km/s) = -10.77449 3.22267 -7.26994
# Velocity P-wave (km/s) = 11.92518 6.15791 7.22115
#
# Compressibility (1/GPa) = 0.04243415
#
# Stress axis : x y z
#
# Youngs Moduli (GPa) = 72.60440 20.93370 59.65280
#
# Poissons Ratio (x) = 0.23394 0.40902
# Poissons Ratio (y) = 0.81139 -0.00572
# Poissons Ratio (z) = 0.49782 -0.00201
#
# Static dielectric constant tensor:
#      x y z
#    x 3.736270 0.000000 0.168480 
#    y 0.000000 3.278700 0.000000 
#    z 0.168480 0.000000 3.426150 
# 
# 
# High freq. dielectric constant tensor:
#      x y z
#    x 1.745450 0.000000 0.010930 
#    y 0.000000 1.713640 0.000000 
#    z 0.010930 0.000000 1.716650 
# 
# From -- ./inp_files/33784.got.cif
#   From: 2010.06.25/outbox.cif.g09.slc.cpg/sg10_17_cif.got.tgz:33784.got - 2010.06.27 22:07:45.
