data_PCOD8058891
_publ_section_title
;
Structure prediction by ZEFSAII (Michael W. Deem and Ramdas Pophale) SiO2 
 PCOD8058891
Probable space group: P 2/M
;
_chemical_formula_sum "Si O2"
_cell_formula_units_Z 30
_cell_length_a 13.118025
_cell_length_b 25.195491
_cell_length_c 15.216309
_cell_angle_alpha 90.000000
_cell_angle_beta 18.703472
_cell_angle_gamma 90.000000
_cell_volume 1612.721805
_symmetry_space_group_name_H-M "P 2/M"
_symmetry_group_IT_number 10
_symmetry_cell_setting 'monoclinic'
loop_
_space_group_symop_operation_xyz
x,y,z
-x,y,-z
-x,-y,-z
x,-y,z
loop_
_atom_site_type_symbol
_atom_site_label
_atom_site_fract_x
_atom_site_fract_y
_atom_site_fract_z
Si Si1 0.781199 0.059585 0.092986
Si Si2 0.672055 0.587103 0.943268
Si Si3 0.426607 0.707737 0.786374
Si Si4 0.374518 0.297236 0.190754
Si Si5 0.777337 0.241506 0.343817
Si Si6 0.719611 0.121858 0.405677
Si Si7 0.626975 0.500000 0.297825
Si Si8 0.424881 0.585953 0.326339
O O1 0.481115 0.098654 0.349331
O O2 0.666016 0.000000 0.165045
O O3 0.000000 0.058936 0.000000
O O4 0.980830 0.082968 0.849291
O O5 0.549574 0.646769 0.047815
O O6 0.576684 0.559551 0.113953
O O7 0.500000 0.558669 0.000000
O O8 0.047642 0.587163 0.622088
O O9 0.522868 0.731711 0.803285
O O10 0.687070 0.725639 0.503543
O O11 0.422861 0.644056 0.785815
O O12 0.081208 0.732238 0.047955
O O13 0.000000 0.305586 0.500000
O O14 0.500000 0.266586 0.000000
O O15 0.500000 0.243915 0.500000
O O16 0.843246 0.181342 0.321061
O O17 0.500000 0.121044 0.500000
O O18 0.500000 0.500000 0.500000
O O19 0.509704 0.552151 0.342679
O O20 0.000000 0.500000 0.000000
#
# Coordination Sequence:
#
# PCOD8058891 Si02
#       8
#     4   4   4   4   4   4   2   4
#     4   9  15  24  40  60  82 117 169 217 250 289
#     4  10  18  35  61  88 112 131 149 194 261 319
#     4  11  21  35  55  78 100 131 174 213 250 307
#     4  10  18  32  54  81 107 132 161 201 253 312
#     4  11  22  34  48  71 104 140 177 217 255 291
#     4   9  17  28  40  58  90 127 164 210 256 290
#     4  12  28  48  63  76 103 144 180 220 268 296
#     4  11  23  40  59  82 105 131 173 214 251 315
#
# _framework density 18.602094000000001
#
# number of rings (size 3 to 8) (size 9 to 14) (size 15 to 20)
#    0.000    1.733    0.000    8.400    0.000    5.333 
#    0.000    2.000    0.000    0.000    0.000    0.000 
#    0.000    0.000    0.000    0.000    0.000  168.000 
#
# Total GULP energy -371877.097148 kJ/mol
# GULP energy per Si atom -12395.903238 kJ/mol
# Density = 1.855975 g / cm^3
# Si number density = 18.602094 Si / 1000 Ang^3
#
#
#
# Elastic Constant Matrix: (Units=GPa)
#
#
# Indices 1 2 3 4 5 6 
#
# 1 86.9194 28.2129 18.3317 0.0000 12.6451 0.0000
# 2 28.2129 100.9992 39.6586 0.0000 0.0976 0.0000
# 3 18.3317 39.6586 123.8044 0.0000 5.0010 0.0000
# 4 0.0000 0.0000 0.0000 14.7497 0.0000 6.1309
# 5 12.6451 0.0976 5.0010 0.0000 36.5770 0.0000
# 6 0.0000 0.0000 0.0000 6.1309 0.0000 0.1777
#
#
#
# Elastic Compliance Matrix: (Units=1/GPa)
#
#
# Indices 1 2 3 4 5 6 
#
# 1 0.013441 -0.003478 -0.000692 0.000000 -0.004543 0.000000
# 2 -0.003478 0.012234 -0.003470 0.000000 0.001644 0.000000
# 3 -0.000692 -0.003470 0.009333 0.000000 -0.001027 0.000000
# 4 0.000000 0.000000 0.000000 -0.005082 0.000000 0.175335
# 5 -0.004543 0.001644 -0.001027 0.000000 0.029046 0.000000
# 6 0.000000 0.000000 0.000000 0.175335 0.000000 -0.421818
#
#
# Mechanical properties :
#
#
# Convention : Reuss Voigt Hill
#
# Bulk Modulus (GPa) = 50.69576 53.79217 52.24397
# Shear Modulus (GPa) = -14.66321 25.33553 5.33616
#
# Velocity S-wave (km/s) = -2.81064 3.69449 1.69553
# Velocity P-wave (km/s) = 4.09622 6.86870 5.65500
#
# Compressibility (1/GPa) = 0.01972551
#
# Stress axis : x y z
#
# Youngs Moduli (GPa) = 74.40027 81.74132 107.14742
#
# Poissons Ratio (x) = 0.28431 0.07420
# Poissons Ratio (y) = 0.25878 0.37183
# Poissons Ratio (z) = 0.05152 0.28366
#
# Static dielectric constant tensor:
#      x y z
#    x 3.939520 0.000000 0.409190 
#    y 0.000000 3.394360 0.000000 
#    z 0.409190 0.000000 3.669770 
# 
# 
# High freq. dielectric constant tensor:
#      x y z
#    x 1.699580 0.000000 0.024250 
#    y 0.000000 1.697950 0.000000 
#    z 0.024250 0.000000 1.740170 
# 
# From -- ./inp_files/65540.got.cif
#   From: 2010.06.25/outbox.cif.g09.slc.cpg/sg10_33_cif.got.tgz:65540.got - 2010.06.27 22:07:45.
