data_PCOD8058495
_publ_section_title
;
Structure prediction by ZEFSAII (Michael W. Deem and Ramdas Pophale) SiO2 
 PCOD8058495
Probable space group: P 2/M
;
_chemical_formula_sum "Si O2"
_cell_formula_units_Z 32
_cell_length_a 16.651463
_cell_length_b 8.732055
_cell_length_c 23.141932
_cell_angle_alpha 90.000000
_cell_angle_beta 149.326860
_cell_angle_gamma 90.000000
_cell_volume 1716.554718
_symmetry_space_group_name_H-M "P 2/M"
_symmetry_group_IT_number 10
_symmetry_cell_setting 'monoclinic'
loop_
_space_group_symop_operation_xyz
x,y,z
-x,y,-z
-x,-y,-z
x,-y,z
loop_
_atom_site_type_symbol
_atom_site_label
_atom_site_fract_x
_atom_site_fract_y
_atom_site_fract_z
Si Si1 0.020543 0.681670 0.099748
Si Si2 0.062401 0.818032 0.834842
Si Si3 0.762728 0.183861 0.857262
Si Si4 0.950452 0.821371 0.300654
Si Si5 0.414623 0.829700 0.074684
Si Si6 0.457019 0.829723 0.722300
Si Si7 0.633536 0.670398 0.129778
Si Si8 0.891115 0.816452 0.485698
O O1 0.012214 0.500000 0.089009
O O2 0.033944 0.731100 0.175066
O O3 0.176812 0.744695 0.165139
O O4 0.867204 0.754646 0.975174
O O5 0.996688 0.765016 0.730896
O O6 0.048214 0.000000 0.835174
O O7 0.244329 0.765109 0.951580
O O8 0.578931 0.238909 0.750175
O O9 0.775560 0.000000 0.864406
O O10 0.767747 0.787705 0.195716
O O11 0.045882 0.750655 0.413808
O O12 0.975792 0.000000 0.318496
O O13 0.430722 0.833726 0.152944
O O14 0.554354 0.719804 0.140522
O O15 0.437015 0.000000 0.062235
O O16 0.287938 0.748046 0.628642
O O17 0.410619 0.000000 0.673684
O O18 0.703897 0.500000 0.179256
O O19 0.500000 0.680186 0.000000
O O20 0.000000 0.753563 0.500000
O O21 0.894661 0.000000 0.484624
#
# Coordination Sequence:
#
# PCOD8058495 Si02
#       8
#     4   4   4   4   4   4   4   4
#     4  11  21  32  49  77 111 141 171 209 264 319
#     4  10  19  32  50  74 102 133 171 209 257 312
#     4  10  18  32  53  77 108 142 176 213 256 307
#     4  10  20  34  54  75  98 134 175 216 257 310
#     4  10  18  31  50  72  99 131 170 210 252 306
#     4   9  17  30  52  79 102 131 170 214 259 302
#     4  11  22  32  44  68 102 135 166 207 258 307
#     4   9  17  31  53  80 106 131 170 219 262 300
#
# _framework density 18.641991000000001
#
# number of rings (size 3 to 8) (size 9 to 14) (size 15 to 20)
#    0.000    2.000    2.500    3.375    0.000    3.500 
#    0.000    0.000    0.000    5.625    0.000    5.250 
#    0.000    0.000    0.000    0.000    0.000    0.000 
#
# Total GULP energy -396515.471198 kJ/mol
# GULP energy per Si atom -12391.108475 kJ/mol
# Density = 1.859956 g / cm^3
# Si number density = 18.641991 Si / 1000 Ang^3
#
#
#
# Elastic Constant Matrix: (Units=GPa)
#
#
# Indices 1 2 3 4 5 6 
#
# 1 159.4782 29.4608 65.3988 0.0000 3.9497 0.0000
# 2 29.4608 31.7412 22.9017 0.0000 -3.7770 0.0000
# 3 65.3988 22.9017 84.4274 0.0000 -0.0463 0.0000
# 4 0.0000 0.0000 0.0000 8.0911 0.0000 -7.5777
# 5 3.9497 -3.7770 -0.0463 0.0000 34.7966 0.0000
# 6 0.0000 0.0000 0.0000 -7.5777 0.0000 29.7966
#
#
#
# Elastic Compliance Matrix: (Units=1/GPa)
#
#
# Indices 1 2 3 4 5 6 
#
# 1 0.009758 -0.004720 -0.006279 0.000000 -0.001628 0.000000
# 2 -0.004720 0.042089 -0.007758 0.000000 0.005094 0.000000
# 3 -0.006279 -0.007758 0.018813 0.000000 -0.000104 0.000000
# 4 0.000000 0.000000 0.000000 0.162233 0.000000 0.041258
# 5 -0.001628 0.005094 -0.000104 0.000000 0.029476 0.000000
# 6 0.000000 0.000000 0.000000 0.041258 0.000000 0.044053
#
#
# Mechanical properties :
#
#
# Convention : Reuss Voigt Hill
#
# Bulk Modulus (GPa) = 30.16999 56.79658 43.48328
# Shear Modulus (GPa) = 14.08510 25.06255 19.57383
#
# Velocity S-wave (km/s) = 2.75172 3.67060 3.24386
# Velocity P-wave (km/s) = 5.12981 6.96402 6.11607
#
# Compressibility (1/GPa) = 0.03314552
#
# Stress axis : x y z
#
# Youngs Moduli (GPa) = 102.48451 23.75896 53.15564
#
# Poissons Ratio (x) = 0.11214 0.33376
# Poissons Ratio (y) = 0.48372 0.41239
# Poissons Ratio (z) = 0.64349 0.18433
#
# Static dielectric constant tensor:
#      x y z
#    x 3.774950 0.000000 -0.020050 
#    y 0.000000 3.197300 0.000000 
#    z -0.020050 0.000000 3.393420 
# 
# 
# High freq. dielectric constant tensor:
#      x y z
#    x 1.735750 0.000000 -0.001880 
#    y 0.000000 1.691170 0.000000 
#    z -0.001880 0.000000 1.694480 
# 
# From -- ./inp_files/89960.got.cif
#   From: 2010.06.25/outbox.cif.g09.slc.cpg/sg10_45_cif.got.tgz:89960.got - 2010.06.27 22:07:45.
