data_PCOD8058373
_publ_section_title
;
Structure prediction by ZEFSAII (Michael W. Deem and Ramdas Pophale) SiO2 
 PCOD8058373
Probable space group: P 2/M
;
_chemical_formula_sum "Si O2"
_cell_formula_units_Z 32
_cell_length_a 9.604304
_cell_length_b 13.880273
_cell_length_c 20.045620
_cell_angle_alpha 90.000000
_cell_angle_beta 38.697020
_cell_angle_gamma 90.000000
_cell_volume 1670.720506
_symmetry_space_group_name_H-M "P 2/M"
_symmetry_group_IT_number 10
_symmetry_cell_setting 'monoclinic'
loop_
_space_group_symop_operation_xyz
x,y,z
-x,y,-z
-x,-y,-z
x,-y,z
loop_
_atom_site_type_symbol
_atom_site_label
_atom_site_fract_x
_atom_site_fract_y
_atom_site_fract_z
Si Si1 0.021971 0.107466 0.721985
Si Si2 0.364598 0.285740 0.792101
Si Si3 0.838653 0.694110 0.769671
Si Si4 0.831134 0.891804 0.476781
Si Si5 0.115532 0.712586 0.394107
Si Si6 0.642923 0.614068 0.069597
Si Si7 0.036954 0.388459 0.822911
Si Si8 0.359331 0.110024 0.714400
O O1 0.831514 0.189750 0.785000
O O2 0.186696 0.112190 0.596935
O O3 0.164791 0.128965 0.734174
O O4 0.912256 0.000000 0.767326
O O5 0.625870 0.299060 0.691393
O O6 0.276355 0.326585 0.895459
O O7 0.310018 0.172904 0.799457
O O8 0.257638 0.342641 0.770801
O O9 0.938383 0.669110 0.658874
O O10 0.592867 0.650832 0.869591
O O11 0.005832 0.646125 0.759095
O O12 0.594320 0.857447 0.594427
O O13 0.030993 0.823557 0.427506
O O14 0.889084 0.000000 0.478660
O O15 0.000000 0.657196 0.500000
O O16 0.633054 0.500000 0.089706
O O17 0.819332 0.638984 0.946813
O O18 0.079564 0.500000 0.806954
O O19 0.365515 0.000000 0.735166
#
# Coordination Sequence:
#
# PCOD8058373 Si02
#       8
#     4   4   4   4   4   4   4   4
#     4   9  17  31  51  84 122 156 189 229 277 325
#     4  11  21  35  56  87 116 153 183 230 290 349
#     4  10  20  35  61  89 113 148 187 237 283 342
#     4   9  17  29  51  81 112 152 202 240 266 308
#     4  10  20  34  51  81 121 158 181 216 277 335
#     4  10  22  40  63  87 111 136 181 253 314 340
#     4  11  22  40  65  87 104 133 191 258 301 337
#     4  10  18  30  52  83 120 156 193 232 273 322
#
# _framework density 19.153413
#
# number of rings (size 3 to 8) (size 9 to 14) (size 15 to 20)
#    0.000    2.000    2.500    1.875    0.000    4.250 
#    0.000    2.500    0.000   18.750    0.000    0.000 
#    0.000    0.000    0.000    0.000    0.000    0.000 
#
# Total GULP energy -396618.190010 kJ/mol
# GULP energy per Si atom -12394.318438 kJ/mol
# Density = 1.910982 g / cm^3
# Si number density = 19.153413 Si / 1000 Ang^3
#
#
#
# Elastic Constant Matrix: (Units=GPa)
#
#
# Indices 1 2 3 4 5 6 
#
# 1 127.2222 39.3703 45.0608 0.0000 8.6931 0.0000
# 2 39.3703 83.7179 52.2371 0.0000 2.0931 0.0000
# 3 45.0608 52.2371 51.1540 0.0000 17.2112 0.0000
# 4 0.0000 0.0000 0.0000 26.1277 0.0000 1.0652
# 5 8.6931 2.0931 17.2112 0.0000 19.9158 0.0000
# 6 0.0000 0.0000 0.0000 1.0652 0.0000 28.4091
#
#
#
# Elastic Compliance Matrix: (Units=1/GPa)
#
#
# Indices 1 2 3 4 5 6 
#
# 1 0.014185 0.014535 -0.034884 0.000000 0.022428 0.000000
# 2 0.014535 0.089496 -0.139440 0.000000 0.104754 0.000000
# 3 -0.034884 -0.139440 0.257485 0.000000 -0.192637 0.000000
# 4 0.000000 0.000000 0.000000 0.038332 0.000000 -0.001437
# 5 0.022428 0.104754 -0.192637 0.000000 0.195889 0.000000
# 6 0.000000 0.000000 0.000000 -0.001437 0.000000 0.035254
#
#
# Mechanical properties :
#
#
# Convention : Reuss Voigt Hill
#
# Bulk Modulus (GPa) = 24.04583 59.49227 41.76905
# Shear Modulus (GPa) = 5.18627 23.25223 14.21925
#
# Velocity S-wave (km/s) = 1.64731 3.48803 2.72763
# Velocity P-wave (km/s) = 4.02489 6.88114 5.63693
#
# Compressibility (1/GPa) = 0.04158726
#
# Stress axis : x y z
#
# Youngs Moduli (GPa) = 70.49456 11.17364 3.88373
#
# Poissons Ratio (x) = -0.16241 0.13548
# Poissons Ratio (y) = -1.02463 0.54155
# Poissons Ratio (z) = 2.45915 1.55805
#
# Static dielectric constant tensor:
#      x y z
#    x 3.756110 0.000000 0.237920 
#    y 0.000000 3.635010 0.000000 
#    z 0.237920 0.000000 3.438180 
# 
# 
# High freq. dielectric constant tensor:
#      x y z
#    x 1.764760 0.000000 0.008660 
#    y 0.000000 1.740000 0.000000 
#    z 0.008660 0.000000 1.717840 
# 
# From -- ./inp_files/82792.got.cif
#   From: 2010.06.25/outbox.cif.g09.slc.cpg/sg10_42_cif.got.tgz:82792.got - 2010.06.27 22:07:45.
