data_PCOD8058007
_publ_section_title
;
Structure prediction by ZEFSAII (Michael W. Deem and Ramdas Pophale) SiO2 
 PCOD8058007
Probable space group: P 2/M
;
_chemical_formula_sum "Si O2"
_cell_formula_units_Z 32
_cell_length_a 19.647437
_cell_length_b 9.163806
_cell_length_c 11.846392
_cell_angle_alpha 90.000000
_cell_angle_beta 59.015445
_cell_angle_gamma 90.000000
_cell_volume 1828.537233
_symmetry_space_group_name_H-M "P 2/M"
_symmetry_group_IT_number 10
_symmetry_cell_setting 'monoclinic'
loop_
_space_group_symop_operation_xyz
x,y,z
-x,y,-z
-x,-y,-z
x,-y,z
loop_
_atom_site_type_symbol
_atom_site_label
_atom_site_fract_x
_atom_site_fract_y
_atom_site_fract_z
Si Si1 0.718040 0.330582 0.031756
Si Si2 0.139213 0.668662 0.933805
Si Si3 0.033197 0.169542 0.197971
Si Si4 0.235070 0.830382 0.423153
Si Si5 0.598568 0.827674 0.809147
Si Si6 0.425768 0.172000 0.916444
Si Si7 0.822337 0.165827 0.771040
Si Si8 0.126819 0.671397 0.683371
O O1 0.702365 0.500000 0.029789
O O2 0.760201 0.272064 0.883292
O O3 0.773298 0.296800 0.092517
O O4 0.633052 0.251687 0.121325
O O5 0.116384 0.500000 0.973816
O O6 0.139577 0.709889 0.803019
O O7 0.073051 0.765594 0.051474
O O8 0.089226 0.194989 0.258676
O O9 0.952059 0.251577 0.295262
O O10 0.015804 0.000000 0.191707
O O11 0.323935 0.770050 0.322442
O O12 0.179396 0.806525 0.361160
O O13 0.202148 0.734171 0.552958
O O14 0.236068 0.000000 0.457798
O O15 0.517465 0.783200 0.813022
O O16 0.603868 0.000000 0.814071
O O17 0.596444 0.770276 0.939359
O O18 0.414192 0.000000 0.913742
O O19 0.795657 0.000000 0.821271
O O20 0.119934 0.500000 0.668213
#
# Coordination Sequence:
#
# PCOD8058007 Si02
#       8
#     4   4   4   4   4   4   4   4
#     4  10  18  29  49  76 102 128 161 205 247 288
#     4   9  20  37  53  70  98 133 167 204 250 295
#     4  10  20  34  55  80  99 120 161 214 254 290
#     4  10  19  34  53  72  99 133 168 202 237 288
#     4   8  15  28  50  74 100 133 163 193 237 296
#     4   9  15  28  50  76 102 130 162 194 242 298
#     4   9  18  33  52  73 100 132 161 196 249 300
#     4  11  23  37  51  69  97 136 171 202 247 297
#
# _framework density 17.500328
#
# number of rings (size 3 to 8) (size 9 to 14) (size 15 to 20)
#    0.000    2.500    1.250    2.250    0.000    4.500 
#    0.000    4.375    0.000    0.750    0.000    5.250 
#    0.000    0.000    0.000    0.000    0.000    0.000 
#
# Total GULP energy -396767.782645 kJ/mol
# GULP energy per Si atom -12398.993208 kJ/mol
# Density = 1.746050 g / cm^3
# Si number density = 17.500328 Si / 1000 Ang^3
#
#
#
# Elastic Constant Matrix: (Units=GPa)
#
#
# Indices 1 2 3 4 5 6 
#
# 1 89.8647 37.8351 39.6696 0.0000 -27.0560 0.0000
# 2 37.8351 67.6066 36.7563 0.0000 -11.8706 0.0000
# 3 39.6696 36.7563 88.0621 0.0000 -20.2792 0.0000
# 4 0.0000 0.0000 0.0000 22.7827 0.0000 1.7589
# 5 -27.0560 -11.8706 -20.2792 0.0000 24.8063 0.0000
# 6 0.0000 0.0000 0.0000 1.7589 0.0000 23.6947
#
#
#
# Elastic Compliance Matrix: (Units=1/GPa)
#
#
# Indices 1 2 3 4 5 6 
#
# 1 0.020159 -0.007116 -0.002257 0.000000 0.016738 0.000000
# 2 -0.007116 0.021859 -0.006525 0.000000 -0.002636 0.000000
# 3 -0.002257 -0.006525 0.017013 0.000000 0.008324 0.000000
# 4 0.000000 0.000000 0.000000 0.044146 0.000000 -0.003277
# 5 0.016738 -0.002636 0.008324 0.000000 0.064112 0.000000
# 6 0.000000 0.000000 0.000000 -0.003277 0.000000 0.042447
#
#
# Mechanical properties :
#
#
# Convention : Reuss Voigt Hill
#
# Bulk Modulus (GPa) = 36.71738 52.67284 44.69511
# Shear Modulus (GPa) = 19.95143 23.00822 21.47983
#
# Velocity S-wave (km/s) = 3.38014 3.62986 3.50722
# Velocity P-wave (km/s) = 6.02165 6.90879 6.48042
#
# Compressibility (1/GPa) = 0.02723506
#
# Stress axis : x y z
#
# Youngs Moduli (GPa) = 49.60482 45.74856 58.78030
#
# Poissons Ratio (x) = 0.32556 0.13265
# Poissons Ratio (y) = 0.35300 0.38353
# Poissons Ratio (z) = 0.11194 0.29850
#
# Static dielectric constant tensor:
#      x y z
#    x 3.538880 0.000000 -0.193720 
#    y 0.000000 3.157370 0.000000 
#    z -0.193720 0.000000 3.058240 
# 
# 
# High freq. dielectric constant tensor:
#      x y z
#    x 1.687530 0.000000 -0.013190 
#    y 0.000000 1.667090 0.000000 
#    z -0.013190 0.000000 1.644570 
# 
# From -- ./inp_files/52788.got.cif
#   From: 2010.06.25/outbox.cif.g09.slc.cpg/sg10_27_cif.got.tgz:52788.got - 2010.06.27 22:07:45.
