data_PCOD8058354
_publ_section_title
;
Structure prediction by ZEFSAII (Michael W. Deem and Ramdas Pophale) SiO2 
 PCOD8058354
Probable space group: P 2/M
;
_chemical_formula_sum "Si O2"
_cell_formula_units_Z 28
_cell_length_a 13.617395
_cell_length_b 8.777640
_cell_length_c 14.550138
_cell_angle_alpha 90.000000
_cell_angle_beta 57.707678
_cell_angle_gamma 90.000000
_cell_volume 1470.167974
_symmetry_space_group_name_H-M "P 2/M"
_symmetry_group_IT_number 10
_symmetry_cell_setting 'monoclinic'
loop_
_space_group_symop_operation_xyz
x,y,z
-x,y,-z
-x,-y,-z
x,-y,z
loop_
_atom_site_type_symbol
_atom_site_label
_atom_site_fract_x
_atom_site_fract_y
_atom_site_fract_z
Si Si1 0.193448 0.680797 0.254088
Si Si2 0.806556 0.319202 0.947534
Si Si3 0.715461 0.319215 0.182174
Si Si4 0.936429 0.322372 0.385693
Si Si5 0.284539 0.319215 0.397639
Si Si6 0.063579 0.677628 0.822111
Si Si7 0.500000 0.180050 0.394947
O O1 0.181555 0.500000 0.255995
O O2 0.236161 0.740153 0.131919
O O3 0.283617 0.726413 0.289530
O O4 0.064449 0.747972 0.340670
O O5 0.818437 0.500000 0.937563
O O6 0.935559 0.252035 0.905113
O O7 0.716393 0.273569 0.073141
O O8 0.701971 0.500000 0.202797
O O9 0.836715 0.254675 0.162260
O O10 0.611693 0.237959 0.285355
O O11 0.943388 0.500000 0.402563
O O12 0.836728 0.254692 0.501033
O O13 0.897870 0.288327 0.301069
O O14 0.298055 0.500000 0.404769
O O15 0.388277 0.237903 0.397076
O O16 0.056626 0.500000 0.845940
O O17 0.500000 0.241797 0.500000
O O18 0.500037 0.000000 0.394567
#
# Coordination Sequence:
#
# PCOD8058354 Si02
#       7
#     4   4   4   4   4   4   4
#     4   8  14  25  44  75 110 133 151 187 241 290
#     4   8  14  25  44  75 110 133 151 187 241 290
#     4  10  18  30  52  77  98 126 166 204 233 273
#     4   8  13  22  41  73 107 130 151 189 240 286
#     4  10  18  30  52  77  98 126 166 204 233 273
#     4   8  13  22  41  73 107 130 151 189 240 286
#     4  11  25  41  52  65  92 128 161 199 250 297
#
# _framework density 19.045444
#
# number of rings (size 3 to 8) (size 9 to 14) (size 15 to 20)
#    0.000    3.000    0.000    3.857    0.000    5.714 
#    0.000    0.714    0.000    8.571    0.000    4.000 
#    0.000    0.000    0.000    0.000    0.000    0.000 
#
# Total GULP energy -346878.323967 kJ/mol
# GULP energy per Si atom -12388.511570 kJ/mol
# Density = 1.900210 g / cm^3
# Si number density = 19.045444 Si / 1000 Ang^3
#
#
#
# Elastic Constant Matrix: (Units=GPa)
#
#
# Indices 1 2 3 4 5 6 
#
# 1 128.7676 22.8918 77.4760 0.0000 18.4067 0.0000
# 2 22.8918 22.1418 24.0234 0.0000 1.4607 0.0000
# 3 77.4760 24.0234 146.5767 0.0000 5.2794 0.0000
# 4 0.0000 0.0000 0.0000 2.2324 0.0000 13.7572
# 5 18.4067 1.4607 5.2794 0.0000 14.9706 0.0000
# 6 0.0000 0.0000 0.0000 13.7572 0.0000 -8.0168
#
#
#
# Elastic Compliance Matrix: (Units=1/GPa)
#
#
# Indices 1 2 3 4 5 6 
#
# 1 0.015086 -0.007937 -0.006111 0.000000 -0.015620 0.000000
# 2 -0.007937 0.059180 -0.005720 0.000000 0.006002 0.000000
# 3 -0.006111 -0.005720 0.010837 0.000000 0.004250 0.000000
# 4 0.000000 0.000000 0.000000 0.038699 0.000000 0.066410
# 5 -0.015620 0.006002 0.004250 0.000000 0.083918 0.000000
# 6 0.000000 0.000000 0.000000 0.066410 0.000000 -0.010776
#
#
# Mechanical properties :
#
#
# Convention : Reuss Voigt Hill
#
# Bulk Modulus (GPa) = 21.94579 60.69652 41.32116
# Shear Modulus (GPa) = 19.86736 13.37689 16.62213
#
# Velocity S-wave (km/s) = 3.23330 2.65310 2.95746
# Velocity P-wave (km/s) = 5.04845 6.42835 5.77973
#
# Compressibility (1/GPa) = 0.04556682
#
# Stress axis : x y z
#
# Youngs Moduli (GPa) = 66.28494 16.89770 92.27817
#
# Poissons Ratio (x) = 0.13412 0.56389
# Poissons Ratio (y) = 0.52610 0.52786
# Poissons Ratio (z) = 0.40505 0.09666
#
# Static dielectric constant tensor:
#      x y z
#    x 3.454280 0.000000 0.376710 
#    y 0.000000 2.806850 0.000000 
#    z 0.376710 0.000000 3.735780 
# 
# 
# High freq. dielectric constant tensor:
#      x y z
#    x 1.739250 0.000000 0.017160 
#    y 0.000000 1.662850 0.000000 
#    z 0.017160 0.000000 1.752070 
# 
# From -- ./inp_files/66417.got.cif
#   From: 2010.06.25/outbox.cif.g09.slc.cpg/sg10_34_cif.got.tgz:66417.got - 2010.06.27 22:07:45.
