data_PCOD8058946
_publ_section_title
;
Structure prediction by ZEFSAII (Michael W. Deem and Ramdas Pophale) SiO2 
 PCOD8058946
Probable space group: P 2/M
;
_chemical_formula_sum "Si O2"
_cell_formula_units_Z 24
_cell_length_a 15.199058
_cell_length_b 8.933704
_cell_length_c 14.898519
_cell_angle_alpha 90.000000
_cell_angle_beta 140.039851
_cell_angle_gamma 90.000000
_cell_volume 1299.267530
_symmetry_space_group_name_H-M "P 2/M"
_symmetry_group_IT_number 10
_symmetry_cell_setting 'monoclinic'
loop_
_space_group_symop_operation_xyz
x,y,z
-x,y,-z
-x,-y,-z
x,-y,z
loop_
_atom_site_type_symbol
_atom_site_label
_atom_site_fract_x
_atom_site_fract_y
_atom_site_fract_z
Si Si1 0.917199 0.322317 0.850647
Si Si2 0.119809 0.175624 0.661914
Si Si3 0.890335 0.677711 0.157173
Si Si4 0.403150 0.675782 0.841997
Si Si5 0.383289 0.321312 0.343480
Si Si6 0.390630 0.676843 0.148086
O O1 0.918952 0.500000 0.858958
O O2 0.761942 0.262566 0.732600
O O3 0.987859 0.270775 0.813674
O O4 0.000000 0.255392 0.000000
O O5 0.080072 0.249478 0.724608
O O6 0.261912 0.236548 0.734437
O O7 0.000000 0.219157 0.500000
O O8 0.133354 0.000000 0.686008
O O9 0.885128 0.500000 0.165053
O O10 0.747077 0.739773 0.005679
O O11 0.371479 0.500000 0.822261
O O12 0.477782 0.721841 0.807863
O O13 0.500000 0.723637 0.000000
O O14 0.500000 0.255934 0.500000
O O15 0.387564 0.500000 0.346001
O O16 0.407473 0.258445 0.261722
O O17 0.374737 0.500000 0.140753
#
# Coordination Sequence:
#
# PCOD8058946 Si02
#       6
#     4   4   4   4   4   4
#     4   9  15  25  46  75 104 136 171 209 260 316
#     4  11  25  41  54  75 110 146 181 227 278 324
#     4  10  18  32  56  81 105 138 181 224 265 315
#     4  10  19  34  58  84 107 136 177 224 272 321
#     4   9  16  25  39  68 109 140 164 204 258 313
#     4   9  16  28  48  76 109 137 166 215 267 311
#
# _framework density 18.471947
#
# number of rings (size 3 to 8) (size 9 to 14) (size 15 to 20)
#    0.000    2.333    3.333    0.500    0.000    3.000 
#    0.000    3.333    0.000    0.500    0.000    0.000 
#    0.000    4.667    0.000    0.000    0.000    0.000 
#
# Total GULP energy -297579.521871 kJ/mol
# GULP energy per Si atom -12399.146745 kJ/mol
# Density = 1.842990 g / cm^3
# Si number density = 18.471947 Si / 1000 Ang^3
#
#
#
# Elastic Constant Matrix: (Units=GPa)
#
#
# Indices 1 2 3 4 5 6 
#
# 1 189.3665 33.0062 102.4451 0.0000 -4.5032 0.0000
# 2 33.0062 26.9679 36.9575 0.0000 -1.7083 0.0000
# 3 102.4451 36.9575 166.6148 0.0000 -1.9801 0.0000
# 4 0.0000 0.0000 0.0000 15.3858 0.0000 2.4936
# 5 -4.5032 -1.7083 -1.9801 0.0000 35.7224 0.0000
# 6 0.0000 0.0000 0.0000 2.4936 0.0000 -2.1922
#
#
#
# Elastic Compliance Matrix: (Units=1/GPa)
#
#
# Indices 1 2 3 4 5 6 
#
# 1 0.008295 -0.004503 -0.004094 0.000000 0.000603 0.000000
# 2 -0.004503 0.055849 -0.009601 0.000000 0.001571 0.000000
# 3 -0.004094 -0.009601 0.010644 0.000000 -0.000385 0.000000
# 4 0.000000 0.000000 0.000000 0.054878 0.000000 0.062423
# 5 0.000603 0.001571 -0.000385 0.000000 0.028123 0.000000
# 6 0.000000 0.000000 0.000000 0.062423 0.000000 -0.385164
#
#
# Mechanical properties :
#
#
# Convention : Reuss Voigt Hill
#
# Bulk Modulus (GPa) = 26.04692 80.86297 53.45494
# Shear Modulus (GPa) = -28.06129 23.81925 -2.12102
#
# Velocity S-wave (km/s) = -3.90183 3.59483 -1.07272
# Velocity P-wave (km/s) = 2.48347 7.81675 5.24089
#
# Compressibility (1/GPa) = 0.03839226
#
# Stress axis : x y z
#
# Youngs Moduli (GPa) = 120.55574 17.90538 93.94793
#
# Poissons Ratio (x) = 0.08063 0.38464
# Poissons Ratio (y) = 0.54289 0.90196
# Poissons Ratio (z) = 0.49358 0.17190
#
# Static dielectric constant tensor:
#      x y z
#    x 3.719690 0.000000 -0.008710 
#    y 0.000000 2.800110 0.000000 
#    z -0.008710 0.000000 3.533750 
# 
# 
# High freq. dielectric constant tensor:
#      x y z
#    x 1.738200 0.000000 -0.000450 
#    y 0.000000 1.652740 0.000000 
#    z -0.000450 0.000000 1.719730 
# 
# From -- ./inp_files/33956.got.cif
#   From: 2010.06.25/outbox.cif.g09.slc.cpg/sg10_17_cif.got.tgz:33956.got - 2010.06.27 22:07:45.
