data_PCOD8058050
_publ_section_title
;
Structure prediction by ZEFSAII (Michael W. Deem and Ramdas Pophale) SiO2 
 PCOD8058050
Probable space group: P 2/M
;
_chemical_formula_sum "Si O2"
_cell_formula_units_Z 32
_cell_length_a 12.004013
_cell_length_b 9.132970
_cell_length_c 19.677280
_cell_angle_alpha 90.000000
_cell_angle_beta 57.663208
_cell_angle_gamma 90.000000
_cell_volume 1822.713407
_symmetry_space_group_name_H-M "P 2/M"
_symmetry_group_IT_number 10
_symmetry_cell_setting 'monoclinic'
loop_
_space_group_symop_operation_xyz
x,y,z
-x,y,-z
-x,-y,-z
x,-y,z
loop_
_atom_site_type_symbol
_atom_site_label
_atom_site_fract_x
_atom_site_fract_y
_atom_site_fract_z
Si Si1 0.198134 0.830772 0.393386
Si Si2 0.309474 0.331383 0.875788
Si Si3 0.920496 0.330505 0.148305
Si Si4 0.911044 0.168591 0.429362
Si Si5 0.966275 0.329385 0.285396
Si Si6 0.765043 0.828565 0.824905
Si Si7 0.186223 0.829434 0.037727
Si Si8 0.390121 0.670079 0.233871
O O1 0.189771 0.795607 0.476536
O O2 0.310586 0.730703 0.324241
O O3 0.058693 0.794468 0.404894
O O4 0.234586 0.000000 0.369581
O O5 0.286827 0.500000 0.902822
O O6 0.211159 0.282353 0.847790
O O7 0.456279 0.303709 0.800979
O O8 0.285155 0.236404 0.950633
O O9 0.954146 0.500000 0.125889
O O10 0.897649 0.296917 0.235460
O O11 0.042279 0.241249 0.078017
O O12 0.874010 0.268944 0.376353
O O13 0.898495 0.000000 0.412143
O O14 0.994518 0.500000 0.286268
O O15 0.102202 0.242016 0.246890
O O16 0.749366 0.797247 0.909930
O O17 0.644276 0.755023 0.824503
O O18 0.769018 0.000000 0.807235
O O19 0.168910 0.000000 0.030232
O O20 0.356949 0.500000 0.234770
#
# Coordination Sequence:
#
# PCOD8058050 Si02
#       8
#     4   4   4   4   4   4   4   4
#     4   9  18  32  50  73 104 139 165 195 246 303
#     4  10  22  38  53  71 100 138 171 205 254 302
#     4   9  19  36  55  74 101 135 167 205 257 303
#     4   9  17  30  50  76 105 135 164 196 247 304
#     4  10  18  29  51  80 103 127 166 210 247 292
#     4  10  20  34  50  71 104 138 162 198 258 307
#     4  10  21  35  54  79 101 125 167 218 255 293
#     4  11  22  34  51  75 102 133 173 211 241 292
#
# _framework density 17.556242999999998
#
# number of rings (size 3 to 8) (size 9 to 14) (size 15 to 20)
#    0.000    2.250    1.250    2.625    0.000    6.000 
#    0.000    3.750    0.000    0.750    0.000    5.250 
#    0.000    0.000    0.000    0.000    0.000    0.000 
#
# Total GULP energy -396839.523190 kJ/mol
# GULP energy per Si atom -12401.235100 kJ/mol
# Density = 1.751628 g / cm^3
# Si number density = 17.556243 Si / 1000 Ang^3
#
#
#
# Elastic Constant Matrix: (Units=GPa)
#
#
# Indices 1 2 3 4 5 6 
#
# 1 69.1840 39.0827 47.7073 0.0000 -3.0705 0.0000
# 2 39.0827 86.2184 56.4071 0.0000 0.2184 0.0000
# 3 47.7073 56.4071 115.2911 0.0000 7.2815 0.0000
# 4 0.0000 0.0000 0.0000 33.7274 0.0000 7.5836
# 5 -3.0705 0.2184 7.2815 0.0000 21.9358 0.0000
# 6 0.0000 0.0000 0.0000 7.5836 0.0000 10.0753
#
#
#
# Elastic Compliance Matrix: (Units=1/GPa)
#
#
# Indices 1 2 3 4 5 6 
#
# 1 0.022752 -0.005793 -0.006930 0.000000 0.005543 0.000000
# 2 -0.005793 0.018687 -0.006826 0.000000 0.001269 0.000000
# 3 -0.006930 -0.006826 0.015258 0.000000 -0.005967 0.000000
# 4 0.000000 0.000000 0.000000 0.035690 0.000000 -0.026864
# 5 0.005543 0.001269 -0.005967 0.000000 0.048332 0.000000
# 6 0.000000 0.000000 0.000000 -0.026864 0.000000 0.119473
#
#
# Mechanical properties :
#
#
# Convention : Reuss Voigt Hill
#
# Bulk Modulus (GPa) = 56.82447 61.89860 59.36153
# Shear Modulus (GPa) = 16.38509 21.64745 19.01627
#
# Velocity S-wave (km/s) = 3.05830 3.51527 3.29471
# Velocity P-wave (km/s) = 6.70136 7.19792 6.95407
#
# Compressibility (1/GPa) = 0.01759805
#
# Stress axis : x y z
#
# Youngs Moduli (GPa) = 43.95235 53.51346 65.54044
#
# Poissons Ratio (x) = 0.31002 0.45422
# Poissons Ratio (y) = 0.25463 0.44735
# Poissons Ratio (z) = 0.30460 0.36526
#
# Static dielectric constant tensor:
#      x y z
#    x 3.167360 0.000000 0.241270 
#    y 0.000000 3.303500 0.000000 
#    z 0.241270 0.000000 3.317390 
# 
# 
# High freq. dielectric constant tensor:
#      x y z
#    x 1.655480 0.000000 0.020780 
#    y 0.000000 1.685500 0.000000 
#    z 0.020780 0.000000 1.678200 
# 
# From -- ./inp_files/55234.got.cif
#   From: 2010.06.25/outbox.cif.g09.slc.cpg/sg10_28_cif.got.tgz:55234.got - 2010.06.27 22:07:45.
