data_PCOD8058033
_publ_section_title
;
Structure prediction by ZEFSAII (Michael W. Deem and Ramdas Pophale) SiO2 
 PCOD8058033
Probable space group: P 2/M
;
_chemical_formula_sum "Si O2"
_cell_formula_units_Z 32
_cell_length_a 13.917117
_cell_length_b 9.727805
_cell_length_c 14.251057
_cell_angle_alpha 90.000000
_cell_angle_beta 118.901137
_cell_angle_gamma 90.000000
_cell_volume 1689.059730
_symmetry_space_group_name_H-M "P 2/M"
_symmetry_group_IT_number 10
_symmetry_cell_setting 'monoclinic'
loop_
_space_group_symop_operation_xyz
x,y,z
-x,y,-z
-x,-y,-z
x,-y,z
loop_
_atom_site_type_symbol
_atom_site_label
_atom_site_fract_x
_atom_site_fract_y
_atom_site_fract_z
Si Si1 0.118035 0.843042 0.101715
Si Si2 0.319577 0.336685 0.687015
Si Si3 0.271611 0.653030 0.050842
Si Si4 0.452383 0.651885 0.276830
Si Si5 0.148581 0.841948 0.330653
Si Si6 0.898005 0.661410 0.518963
Si Si7 0.610280 0.843252 0.600799
Si Si8 0.379905 0.663698 0.918225
O O1 0.197980 0.753339 0.076616
O O2 0.116160 0.794502 0.209753
O O3 0.160360 0.000000 0.119396
O O4 0.000000 0.828117 0.000000
O O5 0.316436 0.500000 0.692008
O O6 0.424149 0.289856 0.674531
O O7 0.209204 0.282401 0.586086
O O8 0.333981 0.275568 0.798466
O O9 0.218428 0.500000 0.027982
O O10 0.395998 0.644275 0.148724
O O11 0.288506 0.706783 0.952651
O O12 0.454444 0.500000 0.324222
O O13 0.375414 0.752181 0.300259
O O14 0.087743 0.744608 0.376992
O O15 0.280018 0.825693 0.408910
O O16 0.112713 0.000000 0.330413
O O17 0.889390 0.500000 0.539293
O O18 0.000000 0.692269 0.500000
O O19 0.500000 0.786994 0.500000
O O20 0.593885 0.000000 0.624156
O O21 0.388676 0.500000 0.917835
O O22 0.500000 0.725578 0.000000
#
# Coordination Sequence:
#
# PCOD8058033 Si02
#       8
#     4   4   4   4   4   4   4   4
#     4  10  22  40  59  78 106 146 183 215 263 325
#     4   9  17  31  51  77 111 146 179 218 266 321
#     4  10  19  31  53  84 109 136 178 224 267 312
#     4  10  18  29  50  79 108 138 175 217 266 320
#     4  10  21  38  58  79 104 140 181 218 263 318
#     4  10  22  38  56  80 109 142 180 223 269 312
#     4  10  20  33  51  77 107 140 178 218 265 319
#     4   9  15  27  49  77 109 142 176 217 266 321
#
# _framework density 18.945452
#
# number of rings (size 3 to 8) (size 9 to 14) (size 15 to 20)
#    0.000    2.250    2.500    0.750    0.000    2.750 
#    0.000    1.250    0.000    1.875    0.000    0.000 
#    0.000    0.000    0.000    0.000    0.000    0.000 
#
# Total GULP energy -396667.667217 kJ/mol
# GULP energy per Si atom -12395.864601 kJ/mol
# Density = 1.890233 g / cm^3
# Si number density = 18.945452 Si / 1000 Ang^3
#
#
#
# Elastic Constant Matrix: (Units=GPa)
#
#
# Indices 1 2 3 4 5 6 
#
# 1 96.9081 45.2727 40.8398 0.0000 -15.8460 0.0000
# 2 45.2727 58.2400 34.0261 0.0000 -19.0616 0.0000
# 3 40.8398 34.0261 91.7356 0.0000 -15.0827 0.0000
# 4 0.0000 0.0000 0.0000 14.2142 0.0000 6.2473
# 5 -15.8460 -19.0616 -15.0827 0.0000 34.1366 0.0000
# 6 0.0000 0.0000 0.0000 6.2473 0.0000 9.9529
#
#
#
# Elastic Compliance Matrix: (Units=1/GPa)
#
#
# Indices 1 2 3 4 5 6 
#
# 1 0.016998 -0.011181 -0.003396 0.000000 0.000146 0.000000
# 2 -0.011181 0.032424 -0.005311 0.000000 0.010568 0.000000
# 3 -0.003396 -0.005311 0.014704 0.000000 0.001955 0.000000
# 4 0.000000 0.000000 0.000000 0.097155 0.000000 -0.060984
# 5 0.000146 0.010568 0.001955 0.000000 0.036127 0.000000
# 6 0.000000 0.000000 0.000000 -0.060984 0.000000 0.138752
#
#
# Mechanical properties :
#
#
# Convention : Reuss Voigt Hill
#
# Bulk Modulus (GPa) = 41.06909 54.12899 47.59904
# Shear Modulus (GPa) = 13.01904 20.11040 16.56472
#
# Velocity S-wave (km/s) = 2.62427 3.26159 2.96013
# Velocity P-wave (km/s) = 5.55940 6.54346 6.07140
#
# Compressibility (1/GPa) = 0.02434921
#
# Stress axis : x y z
#
# Youngs Moduli (GPa) = 58.83174 30.84137 68.00841
#
# Poissons Ratio (x) = 0.34484 0.23095
# Poissons Ratio (y) = 0.65781 0.36121
# Poissons Ratio (z) = 0.19978 0.16380
#
# Static dielectric constant tensor:
#      x y z
#    x 3.359650 0.000000 0.102630 
#    y 0.000000 3.147440 0.000000 
#    z 0.102630 0.000000 3.705830 
# 
# 
# High freq. dielectric constant tensor:
#      x y z
#    x 1.732600 0.000000 -0.000830 
#    y 0.000000 1.701040 0.000000 
#    z -0.000830 0.000000 1.743000 
# 
# From -- ./inp_files/47044.got.cif
#   From: 2010.06.25/outbox.cif.g09.slc.cpg/sg10_24_cif.got.tgz:47044.got - 2010.06.27 22:07:45.
