data_PCOD8058508
_publ_section_title
;
Structure prediction by ZEFSAII (Michael W. Deem and Ramdas Pophale) SiO2 
 PCOD8058508
Probable space group: P 2/M
;
_chemical_formula_sum "Si O2"
_cell_formula_units_Z 28
_cell_length_a 17.056437
_cell_length_b 7.858497
_cell_length_c 11.899733
_cell_angle_alpha 90.000000
_cell_angle_beta 120.955374
_cell_angle_gamma 90.000000
_cell_volume 1367.834917
_symmetry_space_group_name_H-M "P 2/M"
_symmetry_group_IT_number 10
_symmetry_cell_setting 'monoclinic'
loop_
_space_group_symop_operation_xyz
x,y,z
-x,y,-z
-x,-y,-z
x,-y,z
loop_
_atom_site_type_symbol
_atom_site_label
_atom_site_fract_x
_atom_site_fract_y
_atom_site_fract_z
Si Si1 0.451702 0.191622 0.345703
Si Si2 0.880909 0.500000 0.299255
Si Si3 0.401792 0.805784 0.905459
Si Si4 0.095132 0.500000 0.424229
Si Si5 0.804195 0.803820 0.615493
Si Si6 0.248305 0.687426 0.944518
Si Si7 0.748889 0.692426 0.808347
Si Si8 0.372617 0.201905 0.644045
O O1 0.500000 0.192082 0.500000
O O2 0.360934 0.303549 0.278767
O O3 0.527081 0.270203 0.316590
O O4 0.423082 0.000000 0.290341
O O5 0.861417 0.500000 0.418380
O O6 0.835620 0.668701 0.206650
O O7 0.986817 0.500000 0.351917
O O8 0.331432 0.796149 0.956210
O O9 0.355434 0.729994 0.758231
O O10 0.423181 0.000000 0.893455
O O11 0.500000 0.715584 0.000000
O O12 0.120501 0.673093 0.376406
O O13 0.796936 0.801540 0.745681
O O14 0.708676 0.731802 0.495157
O O15 0.826304 0.000000 0.595415
O O16 0.289631 0.500000 0.999723
O O17 0.218274 0.762823 0.044157
O O18 0.782302 0.500000 0.815229
O O19 0.372526 0.000000 0.630338
#
# Coordination Sequence:
#
# PCOD8058508 Si02
#       8
#     4   2   4   2   4   4   4   4
#     4  10  18  31  50  75 115 164 207 252 299 344
#     4   9  22  45  68  91 118 154 194 245 315 381
#     4  10  19  32  53  82 115 156 205 249 291 345
#     4  11  22  43  73  96 119 152 190 254 327 374
#     4  11  22  38  62  94 124 156 202 251 307 370
#     4   9  21  39  57  80 116 160 199 240 298 357
#     4  11  21  36  54  83 119 163 205 245 297 357
#     4   9  18  32  50  78 116 155 198 253 305 348
#
# _framework density 20.470306000000001
#
# number of rings (size 3 to 8) (size 9 to 14) (size 15 to 20)
#    0.429    1.571    2.143    2.143    0.000    2.857 
#    1.286    3.571    0.000    0.857    0.000    0.000 
#    0.000    0.000    0.000    0.000    0.000    0.000 
#
# Total GULP energy -346939.435643 kJ/mol
# GULP energy per Si atom -12390.694130 kJ/mol
# Density = 2.042371 g / cm^3
# Si number density = 20.470306 Si / 1000 Ang^3
#
#
#
# Elastic Constant Matrix: (Units=GPa)
#
#
# Indices 1 2 3 4 5 6 
#
# 1 96.7992 24.3970 47.1345 0.0000 -13.8336 0.0000
# 2 24.3970 53.2470 16.2102 0.0000 -4.4831 0.0000
# 3 47.1345 16.2102 126.5330 0.0000 -20.9740 0.0000
# 4 0.0000 0.0000 0.0000 52.2510 0.0000 43.1220
# 5 -13.8336 -4.4831 -20.9740 0.0000 36.3069 0.0000
# 6 0.0000 0.0000 0.0000 43.1220 0.0000 84.9793
#
#
#
# Elastic Compliance Matrix: (Units=1/GPa)
#
#
# Indices 1 2 3 4 5 6 
#
# 1 0.013933 -0.004919 -0.004181 0.000000 0.002286 0.000000
# 2 -0.004919 0.021317 -0.000855 0.000000 0.000264 0.000000
# 3 -0.004181 -0.000855 0.010272 0.000000 0.004235 0.000000
# 4 0.000000 0.000000 0.000000 0.032928 0.000000 -0.016709
# 5 0.002286 0.000264 0.004235 0.000000 0.030893 0.000000
# 6 0.000000 0.000000 0.000000 -0.016709 0.000000 0.020247
#
#
# Mechanical properties :
#
#
# Convention : Reuss Voigt Hill
#
# Bulk Modulus (GPa) = 39.04331 50.22918 44.63625
# Shear Modulus (GPa) = 31.63833 47.29660 39.46746
#
# Velocity S-wave (km/s) = 3.93564 4.81198 4.39570
# Velocity P-wave (km/s) = 6.30610 7.44744 6.90041
#
# Compressibility (1/GPa) = 0.02561258
#
# Stress axis : x y z
#
# Youngs Moduli (GPa) = 71.77252 46.91196 97.35067
#
# Poissons Ratio (x) = 0.23074 0.40703
# Poissons Ratio (y) = 0.35302 0.08322
# Poissons Ratio (z) = 0.30009 0.04010
#
# Static dielectric constant tensor:
#      x y z
#    x 3.507630 0.000000 -0.244270 
#    y 0.000000 3.389310 0.000000 
#    z -0.244270 0.000000 3.973280 
# 
# 
# High freq. dielectric constant tensor:
#      x y z
#    x 1.778010 0.000000 -0.024280 
#    y 0.000000 1.770010 0.000000 
#    z -0.024280 0.000000 1.809370 
# 
# From -- ./inp_files/49427.got.cif
#   From: 2010.06.25/outbox.cif.g09.slc.cpg/sg10_25_cif.got.tgz:49427.got - 2010.06.27 22:07:45.
