data_PCOD8058523
_publ_section_title
;
Structure prediction by ZEFSAII (Michael W. Deem and Ramdas Pophale) SiO2 
 PCOD8058523
Probable space group: P 2/M
;
_chemical_formula_sum "Si O2"
_cell_formula_units_Z 24
_cell_length_a 18.947908
_cell_length_b 7.947619
_cell_length_c 24.423518
_cell_angle_alpha 90.000000
_cell_angle_beta 20.004150
_cell_angle_gamma 90.000000
_cell_volume 1258.185362
_symmetry_space_group_name_H-M "P 2/M"
_symmetry_group_IT_number 10
_symmetry_cell_setting 'monoclinic'
loop_
_space_group_symop_operation_xyz
x,y,z
-x,y,-z
-x,-y,-z
x,-y,z
loop_
_atom_site_type_symbol
_atom_site_label
_atom_site_fract_x
_atom_site_fract_y
_atom_site_fract_z
Si Si1 0.633824 0.307911 0.016038
Si Si2 0.836545 0.000000 0.241600
Si Si3 0.077897 0.808078 0.284506
Si Si4 0.267635 0.316154 0.537995
Si Si5 0.961624 0.312582 0.862271
Si Si6 0.815826 0.800960 0.673043
Si Si7 0.468135 0.000000 0.433412
O O1 0.684451 0.500000 0.964587
O O2 0.392182 0.278541 0.198986
O O3 0.726610 0.198914 0.898770
O O4 0.742679 0.262315 0.994471
O O5 0.978180 0.168569 0.137754
O O6 0.701386 0.000000 0.285176
O O7 0.693005 0.000000 0.399522
O O8 0.142772 0.733078 0.295932
O O9 0.880898 0.707473 0.405833
O O10 0.008129 0.000000 0.341733
O O11 0.376331 0.500000 0.453124
O O12 0.131498 0.313938 0.691377
O O13 0.436123 0.167132 0.419634
O O14 0.951800 0.500000 0.896753
O O15 0.000000 0.739384 0.500000
O O16 0.791394 0.000000 0.690361
#
# Coordination Sequence:
#
# PCOD8058523 Si02
#       7
#     4   2   4   4   4   4   2
#     4  10  20  32  49  72  96 128 171 210 243 291
#     4   9  16  24  42  61  91 130 156 191 243 295
#     4  10  18  31  51  71  95 130 172 211 244 290
#     4   9  16  27  43  64  93 125 161 204 240 284
#     4   8  16  27  40  64  92 121 161 201 236 283
#     4  10  22  36  49  70 100 131 164 206 254 298
#     4   9  16  26  38  65  93 124 162 191 241 299
#
# _framework density 19.075088999999998
#
# number of rings (size 3 to 8) (size 9 to 14) (size 15 to 20)
#    0.000    2.667    0.833    2.500    4.667    4.333 
#    0.000    3.333    0.000    0.000    0.000    0.000 
#    0.000    2.667    0.000    5.167    0.000    4.333 
#
# Total GULP energy -297523.847327 kJ/mol
# GULP energy per Si atom -12396.826972 kJ/mol
# Density = 1.903167 g / cm^3
# Si number density = 19.075089 Si / 1000 Ang^3
#
#
#
# Elastic Constant Matrix: (Units=GPa)
#
#
# Indices 1 2 3 4 5 6 
#
# 1 77.1393 53.1620 58.7748 0.0000 -38.7191 0.0000
# 2 53.1620 124.9574 37.3277 0.0000 -30.4074 0.0000
# 3 58.7748 37.3277 66.4525 0.0000 -24.5044 0.0000
# 4 0.0000 0.0000 0.0000 15.2693 0.0000 -9.9592
# 5 -38.7191 -30.4074 -24.5044 0.0000 27.7769 0.0000
# 6 0.0000 0.0000 0.0000 -9.9592 0.0000 14.2950
#
#
#
# Elastic Compliance Matrix: (Units=1/GPa)
#
#
# Indices 1 2 3 4 5 6 
#
# 1 0.106727 -0.005993 -0.057196 0.000000 0.091752 0.000000
# 2 -0.005993 0.011546 0.000586 0.000000 0.004802 0.000000
# 3 -0.057196 0.000586 0.053571 0.000000 -0.031827 0.000000
# 4 0.000000 0.000000 0.000000 0.120036 0.000000 0.083628
# 5 0.091752 0.004802 -0.031827 0.000000 0.141077 0.000000
# 6 0.000000 0.000000 0.000000 0.083628 0.000000 0.128217
#
#
# Mechanical properties :
#
#
# Convention : Reuss Voigt Hill
#
# Bulk Modulus (GPa) = 21.44198 63.00870 42.22534
# Shear Modulus (GPa) = 7.12324 19.42056 13.27190
#
# Velocity S-wave (km/s) = 1.93453 3.19425 2.64061
# Velocity P-wave (km/s) = 4.03176 6.83432 5.61084
#
# Compressibility (1/GPa) = 0.04663749
#
# Stress axis : x y z
#
# Youngs Moduli (GPa) = 9.36969 86.60988 18.66672
#
# Poissons Ratio (x) = 0.51906 1.06767
# Poissons Ratio (y) = 0.05615 -0.01094
# Poissons Ratio (z) = 0.53591 -0.05074
#
# Static dielectric constant tensor:
#      x y z
#    x 3.411890 0.000000 -0.353610 
#    y 0.000000 3.760780 0.000000 
#    z -0.353610 0.000000 3.072870 
# 
# 
# High freq. dielectric constant tensor:
#      x y z
#    x 1.719420 0.000000 -0.037810 
#    y 0.000000 1.756090 0.000000 
#    z -0.037810 0.000000 1.690030 
# 
# From -- ./inp_files/33817.got.cif
#   From: 2010.06.25/outbox.cif.g09.slc.cpg/sg10_17_cif.got.tgz:33817.got - 2010.06.27 22:07:45.
