data_PCOD8058944
_publ_section_title
;
Structure prediction by ZEFSAII (Michael W. Deem and Ramdas Pophale) SiO2 
 PCOD8058944
Probable space group: P 2/M
;
_chemical_formula_sum "Si O2"
_cell_formula_units_Z 28
_cell_length_a 17.562600
_cell_length_b 8.854314
_cell_length_c 14.282583
_cell_angle_alpha 90.000000
_cell_angle_beta 136.596022
_cell_angle_gamma 90.000000
_cell_volume 1526.140170
_symmetry_space_group_name_H-M "P 2/M"
_symmetry_group_IT_number 10
_symmetry_cell_setting 'monoclinic'
loop_
_space_group_symop_operation_xyz
x,y,z
-x,y,-z
-x,-y,-z
x,-y,z
loop_
_atom_site_type_symbol
_atom_site_label
_atom_site_fract_x
_atom_site_fract_y
_atom_site_fract_z
Si Si1 0.921190 0.822817 0.719989
Si Si2 0.419279 0.822190 0.622419
Si Si3 0.236696 0.676456 0.569954
Si Si4 0.144665 0.320756 0.877592
Si Si5 0.725898 0.823916 0.677034
Si Si6 0.325410 0.821632 0.164625
Si Si7 0.886495 0.676525 0.358503
O O1 0.859426 0.757267 0.574601
O O2 0.849048 0.789754 0.748795
O O3 0.039157 0.743429 0.839597
O O4 0.938185 0.000000 0.720494
O O5 0.357737 0.741711 0.654172
O O6 0.365289 0.760085 0.477505
O O7 0.547270 0.779822 0.739700
O O8 0.398076 0.000000 0.612576
O O9 0.231318 0.500000 0.541994
O O10 0.213894 0.708418 0.659234
O O11 0.142796 0.500000 0.880382
O O12 0.142634 0.256547 0.769417
O O13 0.256480 0.261020 0.023490
O O14 0.710013 0.753473 0.765805
O O15 0.702859 0.000000 0.666483
O O16 0.304424 0.000000 0.139898
O O17 0.907119 0.500000 0.363429
O O18 0.000000 0.749760 0.500000
#
# Coordination Sequence:
#
# PCOD8058944 Si02
#       7
#     4   4   4   4   4   4   4
#     4  10  19  33  53  80 108 134 171 215 260 308
#     4   9  18  34  56  80 105 135 175 218 256 301
#     4  10  18  32  56  81 104 133 171 217 262 304
#     4  11  22  36  53  75 107 140 174 215 260 312
#     4   8  16  32  56  79 100 135 179 213 247 305
#     4  10  20  36  55  75 104 142 179 214 254 303
#     4   9  17  33  55  76 100 136 176 207 250 315
#
# _framework density 18.346938999999999
#
# number of rings (size 3 to 8) (size 9 to 14) (size 15 to 20)
#    0.000    2.429    1.429    2.571    0.000    2.857 
#    0.000   10.714    0.000    8.571    0.000    0.000 
#    0.000    0.000    0.000    0.000    0.000    0.000 
#
# Total GULP energy -347165.482364 kJ/mol
# GULP energy per Si atom -12398.767227 kJ/mol
# Density = 1.830518 g / cm^3
# Si number density = 18.346939 Si / 1000 Ang^3
#
#
#
# Elastic Constant Matrix: (Units=GPa)
#
#
# Indices 1 2 3 4 5 6 
#
# 1 138.6187 43.2514 80.4552 0.0000 -1.3535 0.0000
# 2 43.2514 50.2110 39.1597 0.0000 2.6560 0.0000
# 3 80.4552 39.1597 125.5029 0.0000 -0.0908 0.0000
# 4 0.0000 0.0000 0.0000 26.7739 0.0000 1.7333
# 5 -1.3535 2.6560 -0.0908 0.0000 22.2219 0.0000
# 6 0.0000 0.0000 0.0000 1.7333 0.0000 24.4302
#
#
#
# Elastic Compliance Matrix: (Units=1/GPa)
#
#
# Indices 1 2 3 4 5 6 
#
# 1 0.012809 -0.006224 -0.006268 0.000000 0.001498 0.000000
# 2 -0.006224 0.029572 -0.005240 0.000000 -0.003935 0.000000
# 3 -0.006268 -0.005240 0.013621 0.000000 0.000300 0.000000
# 4 0.000000 0.000000 0.000000 0.037522 0.000000 -0.002662
# 5 0.001498 -0.003935 0.000300 0.000000 0.045563 0.000000
# 6 0.000000 0.000000 0.000000 -0.002662 0.000000 0.041122
#
#
# Mechanical properties :
#
#
# Convention : Reuss Voigt Hill
#
# Bulk Modulus (GPa) = 48.69027 71.11835 59.90431
# Shear Modulus (GPa) = 22.46990 24.78296 23.62643
#
# Velocity S-wave (km/s) = 3.50340 3.67930 3.59243
# Velocity P-wave (km/s) = 6.55449 7.54300 7.06605
#
# Compressibility (1/GPa) = 0.02053798
#
# Stress axis : x y z
#
# Youngs Moduli (GPa) = 78.07197 33.81555 73.41428
#
# Poissons Ratio (x) = 0.21047 0.46016
# Poissons Ratio (y) = 0.48593 0.38469
# Poissons Ratio (z) = 0.48936 0.17719
#
# Static dielectric constant tensor:
#      x y z
#    x 3.606790 0.000000 -0.064010 
#    y 0.000000 3.154740 0.000000 
#    z -0.064010 0.000000 3.302700 
# 
# 
# High freq. dielectric constant tensor:
#      x y z
#    x 1.723910 0.000000 0.002230 
#    y 0.000000 1.688050 0.000000 
#    z 0.002230 0.000000 1.695580 
# 
# From -- ./inp_files/68697.got.cif
#   From: 2010.06.25/outbox.cif.g09.slc.cpg/sg10_35_cif.got.tgz:68697.got - 2010.06.27 22:07:45.
