data_PCOD8058738
_publ_section_title
;
Structure prediction by ZEFSAII (Michael W. Deem and Ramdas Pophale) SiO2 
 PCOD8058738
Probable space group: P 2/M
;
_chemical_formula_sum "Si O2"
_cell_formula_units_Z 26
_cell_length_a 12.644444
_cell_length_b 9.360161
_cell_length_c 14.290677
_cell_angle_alpha 90.000000
_cell_angle_beta 55.640438
_cell_angle_gamma 90.000000
_cell_volume 1396.237402
_symmetry_space_group_name_H-M "P 2/M"
_symmetry_group_IT_number 10
_symmetry_cell_setting 'monoclinic'
loop_
_space_group_symop_operation_xyz
x,y,z
-x,y,-z
-x,-y,-z
x,-y,z
loop_
_atom_site_type_symbol
_atom_site_label
_atom_site_fract_x
_atom_site_fract_y
_atom_site_fract_z
Si Si1 0.600226 0.329409 0.182814
Si Si2 0.000000 0.240443 0.000000
Si Si3 0.207702 0.661502 0.761051
Si Si4 0.308192 0.669418 0.336137
Si Si5 0.211461 0.160318 0.031576
Si Si6 0.151041 0.332185 0.588067
Si Si7 0.138449 0.332894 0.248914
O O1 0.613629 0.500000 0.162237
O O2 0.672318 0.274791 0.240926
O O3 0.454267 0.278047 0.262071
O O4 0.665607 0.251376 0.062457
O O5 0.922478 0.336261 0.113055
O O6 0.102399 0.146729 0.006073
O O7 0.241661 0.500000 0.721795
O O8 0.189424 0.739026 0.669474
O O9 0.300185 0.500000 0.345575
O O10 0.237042 0.735981 0.462449
O O11 0.239298 0.720781 0.275975
O O12 0.154676 0.238868 0.149292
O O13 0.255201 0.000000 0.035333
O O14 0.176386 0.500000 0.580309
O O15 0.002576 0.303595 0.639584
O O16 0.156784 0.500000 0.214524
#
# Coordination Sequence:
#
# PCOD8058738 Si02
#       7
#     4   2   4   4   4   4   4
#     4   9  19  34  51  76 106 139 170 207 253 304
#     4  10  18  32  50  74 101 138 163 206 257 314
#     4   9  16  26  48  80 109 131 163 210 257 298
#     4   9  18  32  51  75 106 139 174 208 247 300
#     4  11  22  35  53  77 103 133 170 214 259 308
#     4   9  16  28  50  81 106 132 169 213 255 295
#     4  10  19  33  54  79 104 135 170 212 255 300
#
# _framework density 18.621473999999999
#
# number of rings (size 3 to 8) (size 9 to 14) (size 15 to 20)
#    0.000    2.462    1.538    1.385    0.000    4.308 
#    0.000    6.923    0.000    2.769    0.000    2.154 
#    0.000    0.000    0.000    0.000    0.000    0.000 
#
# Total GULP energy -322254.175970 kJ/mol
# GULP energy per Si atom -12394.391383 kJ/mol
# Density = 1.857909 g / cm^3
# Si number density = 18.621474 Si / 1000 Ang^3
#
#
#
# Elastic Constant Matrix: (Units=GPa)
#
#
# Indices 1 2 3 4 5 6 
#
# 1 118.3040 24.1244 63.9671 0.0000 -10.4261 0.0000
# 2 24.1244 46.3959 33.2310 0.0000 -2.5817 0.0000
# 3 63.9671 33.2310 133.2220 0.0000 -5.3790 0.0000
# 4 0.0000 0.0000 0.0000 0.8561 0.0000 1.8990
# 5 -10.4261 -2.5817 -5.3790 0.0000 31.6238 0.0000
# 6 0.0000 0.0000 0.0000 1.8990 0.0000 9.5817
#
#
#
# Elastic Compliance Matrix: (Units=1/GPa)
#
#
# Indices 1 2 3 4 5 6 
#
# 1 0.011904 -0.002458 -0.004986 0.000000 0.002876 0.000000
# 2 -0.002458 0.026783 -0.005483 0.000000 0.000444 0.000000
# 3 -0.004986 -0.005483 0.011261 0.000000 -0.000176 0.000000
# 4 0.000000 0.000000 0.000000 2.084362 0.000000 -0.413102
# 5 0.002876 0.000444 -0.000176 0.000000 0.032576 0.000000
# 6 0.000000 0.000000 0.000000 -0.413102 0.000000 0.186239
#
#
# Mechanical properties :
#
#
# Convention : Reuss Voigt Hill
#
# Bulk Modulus (GPa) = 41.50445 60.06301 50.78373
# Shear Modulus (GPa) = 2.09467 20.18561 11.14014
#
# Velocity S-wave (km/s) = 1.06175 3.29598 2.44855
# Velocity P-wave (km/s) = 4.88262 6.84174 5.94346
#
# Compressibility (1/GPa) = 0.02409380
#
# Stress axis : x y z
#
# Youngs Moduli (GPa) = 84.00834 37.33656 88.80224
#
# Poissons Ratio (x) = 0.09177 0.44280
# Poissons Ratio (y) = 0.20650 0.48688
# Poissons Ratio (z) = 0.41889 0.20471
#
# Static dielectric constant tensor:
#      x y z
#    x 3.652360 0.000000 0.127560 
#    y 0.000000 2.838820 0.000000 
#    z 0.127560 0.000000 3.636610 
# 
# 
# High freq. dielectric constant tensor:
#      x y z
#    x 1.732200 0.000000 0.004380 
#    y 0.000000 1.659690 0.000000 
#    z 0.004380 0.000000 1.728540 
# 
# From -- ./inp_files/49012.got.cif
#   From: 2010.06.25/outbox.cif.g09.slc.cpg/sg10_25_cif.got.tgz:49012.got - 2010.06.27 22:07:45.
