data_PCOD8058822
_publ_section_title
;
Structure prediction by ZEFSAII (Michael W. Deem and Ramdas Pophale) SiO2 
 PCOD8058822
Probable space group: P 2/M
;
_chemical_formula_sum "Si O2"
_cell_formula_units_Z 32
_cell_length_a 23.450539
_cell_length_b 8.397968
_cell_length_c 14.729439
_cell_angle_alpha 90.000000
_cell_angle_beta 144.252743
_cell_angle_gamma 90.000000
_cell_volume 1694.661022
_symmetry_space_group_name_H-M "P 2/M"
_symmetry_group_IT_number 10
_symmetry_cell_setting 'monoclinic'
loop_
_space_group_symop_operation_xyz
x,y,z
-x,y,-z
-x,-y,-z
x,-y,z
loop_
_atom_site_type_symbol
_atom_site_label
_atom_site_fract_x
_atom_site_fract_y
_atom_site_fract_z
Si Si1 0.288391 0.315716 0.091845
Si Si2 0.987777 0.681319 0.879630
Si Si3 0.185995 0.183648 0.123832
Si Si4 0.688714 0.189983 0.548384
Si Si5 0.185562 0.182993 0.447426
Si Si6 0.090442 0.810933 0.502161
Si Si7 0.127792 0.188691 0.752898
Si Si8 0.490704 0.189097 0.382484
O O1 0.278439 0.500000 0.103890
O O2 0.265966 0.205304 0.149257
O O3 0.400278 0.272137 0.214220
O O4 0.216791 0.276717 0.916187
O O5 0.955200 0.500000 0.820062
O O6 0.909939 0.801360 0.737821
O O7 0.093118 0.714042 0.971396
O O8 0.000000 0.724174 0.000000
O O9 0.230007 0.250091 0.274923
O O10 0.156488 0.000000 0.093884
O O11 0.721908 0.254209 0.490565
O O12 0.583391 0.252428 0.443955
O O13 0.688541 0.000000 0.549781
O O14 0.160294 0.263208 0.512798
O O15 0.208511 0.000000 0.494654
O O16 0.133365 0.759585 0.654519
O O17 0.977719 0.754002 0.344601
O O18 0.088875 0.000000 0.492904
O O19 0.139867 0.000000 0.780345
O O20 0.500000 0.242754 0.500000
O O21 0.480874 0.000000 0.363660
#
# Coordination Sequence:
#
# PCOD8058822 Si02
#       8
#     4   4   4   4   4   4   4   4
#     4  12  24  35  51  80 109 136 171 220 272 321
#     4  11  22  32  43  70 110 146 176 211 251 303
#     4  11  20  34  52  72  99 140 181 216 254 306
#     4   9  18  31  51  75  98 129 177 221 255 303
#     4  10  18  32  53  77 102 137 179 220 262 311
#     4   8  16  31  56  83 106 131 173 222 261 306
#     4   9  17  34  56  80 106 139 174 211 262 319
#     4  10  19  36  56  74  99 137 182 223 264 314
#
# _framework density 18.882832000000001
#
# number of rings (size 3 to 8) (size 9 to 14) (size 15 to 20)
#    0.000    2.000    2.500    3.375    0.000    1.750 
#    0.000    2.500    0.000    0.750    0.000    5.250 
#    0.000    0.000    0.000    0.000    0.000    0.000 
#
# Total GULP energy -396600.209775 kJ/mol
# GULP energy per Si atom -12393.756555 kJ/mol
# Density = 1.883985 g / cm^3
# Si number density = 18.882832 Si / 1000 Ang^3
#
#
#
# Elastic Constant Matrix: (Units=GPa)
#
#
# Indices 1 2 3 4 5 6 
#
# 1 165.5613 10.9987 56.0692 0.0000 5.8557 0.0000
# 2 10.9987 27.4572 13.7361 0.0000 -1.2503 0.0000
# 3 56.0692 13.7361 92.8817 0.0000 6.0881 0.0000
# 4 0.0000 0.0000 0.0000 10.8539 0.0000 -0.3361
# 5 5.8557 -1.2503 6.0881 0.0000 29.5449 0.0000
# 6 0.0000 0.0000 0.0000 -0.3361 0.0000 12.1532
#
#
#
# Elastic Compliance Matrix: (Units=1/GPa)
#
#
# Indices 1 2 3 4 5 6 
#
# 1 0.007620 -0.000865 -0.004431 0.000000 -0.000634 0.000000
# 2 -0.000865 0.039675 -0.005542 0.000000 0.002992 0.000000
# 3 -0.004431 -0.005542 0.014413 0.000000 -0.002326 0.000000
# 4 0.000000 0.000000 0.000000 0.092212 0.000000 0.002550
# 5 -0.000634 0.002992 -0.002326 0.000000 0.034578 0.000000
# 6 0.000000 0.000000 0.000000 0.002550 0.000000 0.082353
#
#
# Mechanical properties :
#
#
# Convention : Reuss Voigt Hill
#
# Bulk Modulus (GPa) = 24.97841 49.72312 37.35077
# Shear Modulus (GPa) = 16.34673 24.18348 20.26510
#
# Velocity S-wave (km/s) = 2.94546 3.58259 3.27953
# Velocity P-wave (km/s) = 4.98241 6.59567 5.84497
#
# Compressibility (1/GPa) = 0.04003458
#
# Stress axis : x y z
#
# Youngs Moduli (GPa) = 131.22583 25.20455 69.38149
#
# Poissons Ratio (x) = 0.02180 0.30741
# Poissons Ratio (y) = 0.11349 0.38448
# Poissons Ratio (z) = 0.58143 0.13967
#
# Static dielectric constant tensor:
#      x y z
#    x 3.998770 0.000000 0.076840 
#    y 0.000000 3.033750 0.000000 
#    z 0.076840 0.000000 3.326840 
# 
# 
# High freq. dielectric constant tensor:
#      x y z
#    x 1.741540 0.000000 0.007210 
#    y 0.000000 1.701800 0.000000 
#    z 0.007210 0.000000 1.709000 
# 
# From -- ./inp_files/71662.got.cif
#   From: 2010.06.25/outbox.cif.g09.slc.cpg/sg10_36_cif.got.tgz:71662.got - 2010.06.27 22:07:45.
