data_PCOD8058628
_publ_section_title
;
Structure prediction by ZEFSAII (Michael W. Deem and Ramdas Pophale) SiO2 
 PCOD8058628
Probable space group: P 2/M
;
_chemical_formula_sum "Si O2"
_cell_formula_units_Z 32
_cell_length_a 21.566160
_cell_length_b 9.108009
_cell_length_c 27.996992
_cell_angle_alpha 90.000000
_cell_angle_beta 160.945051
_cell_angle_gamma 90.000000
_cell_volume 1795.383816
_symmetry_space_group_name_H-M "P 2/M"
_symmetry_group_IT_number 10
_symmetry_cell_setting 'monoclinic'
loop_
_space_group_symop_operation_xyz
x,y,z
-x,y,-z
-x,-y,-z
x,-y,z
loop_
_atom_site_type_symbol
_atom_site_label
_atom_site_fract_x
_atom_site_fract_y
_atom_site_fract_z
Si Si1 0.525333 0.328586 0.574038
Si Si2 0.709846 0.326801 0.167484
Si Si3 0.838215 0.169231 0.666137
Si Si4 0.196580 0.170503 0.666787
Si Si5 0.142459 0.833120 0.811357
Si Si6 0.412741 0.830140 0.093332
Si Si7 0.873802 0.673331 0.054712
Si Si8 0.936919 0.673482 0.903422
O O1 0.500000 0.296374 0.500000
O O2 0.500813 0.500000 0.567709
O O3 0.369521 0.238574 0.490337
O O4 0.729594 0.266211 0.738549
O O5 0.722544 0.500000 0.179605
O O6 0.768875 0.263888 0.261168
O O7 0.855690 0.269401 0.233687
O O8 0.500000 0.272619 0.000000
O O9 0.937850 0.183586 0.687146
O O10 0.956217 0.257141 0.791433
O O11 0.826562 0.000000 0.673613
O O12 0.363606 0.200270 0.749883
O O13 0.000000 0.221141 0.500000
O O14 0.191995 0.000000 0.677985
O O15 0.180191 0.000000 0.822636
O O16 0.306585 0.781582 0.967530
O O17 0.367460 0.000000 0.070894
O O18 0.330623 0.736690 0.077884
O O19 0.878083 0.500000 0.066217
O O20 0.908533 0.714532 0.024572
O O21 0.921212 0.500000 0.896345
O O22 0.000000 0.742973 0.000000
#
# Coordination Sequence:
#
# PCOD8058628 Si02
#       8
#     4   4   4   4   4   4   4   4
#     4  10  18  32  53  78 103 133 175 218 260 311
#     4  11  22  34  53  83 112 138 175 226 276 316
#     4  10  20  33  51  79 109 138 175 221 271 313
#     4  10  21  38  59  80 107 149 189 219 266 329
#     4   9  18  33  53  76 105 141 177 219 267 322
#     4   9  18  33  53  79 107 136 176 222 266 316
#     4  10  18  31  53  78 104 137 177 217 263 317
#     4   9  18  33  52  75 105 139 175 213 258 317
#
# _framework density 17.823488000000001
#
# number of rings (size 3 to 8) (size 9 to 14) (size 15 to 20)
#    0.000    2.250    2.500    1.875    0.000    4.000 
#    0.000    1.250    0.000    6.375    0.000    0.000 
#    0.000    0.000    0.000    0.000    0.000    0.000 
#
# Total GULP energy -396828.041448 kJ/mol
# GULP energy per Si atom -12400.876295 kJ/mol
# Density = 1.778292 g / cm^3
# Si number density = 17.823488 Si / 1000 Ang^3
#
#
#
# Elastic Constant Matrix: (Units=GPa)
#
#
# Indices 1 2 3 4 5 6 
#
# 1 128.4589 57.6464 66.6104 0.0000 5.1586 0.0000
# 2 57.6464 72.5323 41.6545 0.0000 3.0942 0.0000
# 3 66.6104 41.6545 116.6614 0.0000 8.4600 0.0000
# 4 0.0000 0.0000 0.0000 16.9458 0.0000 9.6302
# 5 5.1586 3.0942 8.4600 0.0000 28.8350 0.0000
# 6 0.0000 0.0000 0.0000 9.6302 0.0000 30.1251
#
#
#
# Elastic Compliance Matrix: (Units=1/GPa)
#
#
# Indices 1 2 3 4 5 6 
#
# 1 0.014177 -0.008326 -0.005112 0.000000 -0.000143 0.000000
# 2 -0.008326 0.022233 -0.003187 0.000000 0.000039 0.000000
# 3 -0.005112 -0.003187 0.012810 0.000000 -0.002502 0.000000
# 4 0.000000 0.000000 0.000000 0.072112 0.000000 -0.023052
# 5 -0.000143 0.000039 -0.002502 0.000000 0.035436 0.000000
# 6 0.000000 0.000000 0.000000 -0.023052 0.000000 0.040564
#
#
# Mechanical properties :
#
#
# Convention : Reuss Voigt Hill
#
# Bulk Modulus (GPa) = 62.61622 72.16391 67.39007
# Shear Modulus (GPa) = 21.19497 25.29727 23.24612
#
# Velocity S-wave (km/s) = 3.45216 3.77148 3.61535
# Velocity P-wave (km/s) = 7.14825 7.71631 7.43770
#
# Compressibility (1/GPa) = 0.01597030
#
# Stress axis : x y z
#
# Youngs Moduli (GPa) = 70.53601 44.97836 78.06493
#
# Poissons Ratio (x) = 0.37449 0.39903
# Poissons Ratio (y) = 0.58728 0.24882
# Poissons Ratio (z) = 0.36055 0.14336
#
# Static dielectric constant tensor:
#      x y z
#    x 3.382270 0.000000 0.191020 
#    y 0.000000 3.186760 0.000000 
#    z 0.191020 0.000000 3.313780 
# 
# 
# High freq. dielectric constant tensor:
#      x y z
#    x 1.691830 0.000000 0.019510 
#    y 0.000000 1.680190 0.000000 
#    z 0.019510 0.000000 1.671490 
# 
# From -- ./inp_files/93791.got.cif
#   From: 2010.06.25/outbox.cif.g09.slc.cpg/sg10_47_cif.got.tgz:93791.got - 2010.06.27 22:07:45.
