data_PCOD8058632
_publ_section_title
;
Structure prediction by ZEFSAII (Michael W. Deem and Ramdas Pophale) SiO2 
 PCOD8058632
Probable space group: P 2/M
;
_chemical_formula_sum "Si O2"
_cell_formula_units_Z 32
_cell_length_a 21.969344
_cell_length_b 8.548492
_cell_length_c 28.479682
_cell_angle_alpha 90.000000
_cell_angle_beta 161.253965
_cell_angle_gamma 90.000000
_cell_volume 1718.907018
_symmetry_space_group_name_H-M "P 2/M"
_symmetry_group_IT_number 10
_symmetry_cell_setting 'monoclinic'
loop_
_space_group_symop_operation_xyz
x,y,z
-x,y,-z
-x,-y,-z
x,-y,z
loop_
_atom_site_type_symbol
_atom_site_label
_atom_site_fract_x
_atom_site_fract_y
_atom_site_fract_z
Si Si1 0.882589 0.684780 0.057728
Si Si2 0.203124 0.814083 0.665975
Si Si3 0.177399 0.683174 0.350111
Si Si4 0.941449 0.315197 0.907009
Si Si5 0.701023 0.183738 0.161508
Si Si6 0.580380 0.315048 0.908818
Si Si7 0.880065 0.182447 0.197128
Si Si8 0.450923 0.182431 0.411614
O O1 0.896803 0.500000 0.066652
O O2 0.051343 0.745690 0.214537
O O3 0.917219 0.752044 0.030501
O O4 0.680624 0.735196 0.932584
O O5 0.229441 0.747847 0.737993
O O6 0.363917 0.741324 0.749681
O O7 0.000000 0.754353 0.500000
O O8 0.217635 0.000000 0.673760
O O9 0.220579 0.500000 0.378595
O O10 0.373193 0.777486 0.493589
O O11 0.062430 0.720286 0.313615
O O12 0.962324 0.500000 0.924900
O O13 0.727267 0.275297 0.738112
O O14 0.000000 0.240551 0.000000
O O15 0.855642 0.220241 0.234412
O O16 0.672188 0.000000 0.146608
O O17 0.500000 0.259981 0.000000
O O18 0.595771 0.500000 0.927181
O O19 0.688126 0.232357 0.030446
O O20 0.914751 0.000000 0.213412
O O21 0.500000 0.240177 0.500000
O O22 0.404811 0.000000 0.376686
#
# Coordination Sequence:
#
# PCOD8058632 Si02
#       8
#     4   4   4   4   4   4   4   4
#     4   8  16  31  51  76 104 135 170 215 264 317
#     4  10  20  35  54  76 102 136 179 218 259 316
#     4  10  19  33  54  79 110 141 176 222 274 318
#     4  10  20  36  58  81 107 145 186 221 272 331
#     4   9  16  30  52  76 102 133 167 210 264 309
#     4  10  19  32  51  76 106 138 175 216 265 314
#     4  10  18  31  53  78 108 138 173 217 266 317
#     4  11  22  35  54  82 111 141 182 226 270 319
#
# _framework density 18.616481
#
# number of rings (size 3 to 8) (size 9 to 14) (size 15 to 20)
#    0.000    2.250    2.500    2.250    0.000    1.000 
#    0.000    3.750    0.000    3.000    0.000    0.000 
#    0.000    0.000    0.000    0.000    0.000    0.000 
#
# Total GULP energy -396728.998058 kJ/mol
# GULP energy per Si atom -12397.781189 kJ/mol
# Density = 1.857411 g / cm^3
# Si number density = 18.616481 Si / 1000 Ang^3
#
#
#
# Elastic Constant Matrix: (Units=GPa)
#
#
# Indices 1 2 3 4 5 6 
#
# 1 147.7480 17.8332 77.1121 0.0000 6.4728 0.0000
# 2 17.8332 23.5876 3.0669 0.0000 -0.4372 0.0000
# 3 77.1121 3.0669 105.1451 0.0000 7.2766 0.0000
# 4 0.0000 0.0000 0.0000 20.3545 0.0000 6.3703
# 5 6.4728 -0.4372 7.2766 0.0000 31.5719 0.0000
# 6 0.0000 0.0000 0.0000 6.3703 0.0000 21.8690
#
#
#
# Elastic Compliance Matrix: (Units=1/GPa)
#
#
# Indices 1 2 3 4 5 6 
#
# 1 0.012379 -0.008227 -0.008796 0.000000 -0.000625 0.000000
# 2 -0.008227 0.048049 0.004542 0.000000 0.001305 0.000000
# 3 -0.008796 0.004542 0.015954 0.000000 -0.001811 0.000000
# 4 0.000000 0.000000 0.000000 0.054057 0.000000 -0.015746
# 5 -0.000625 0.001305 -0.001811 0.000000 0.032237 0.000000
# 6 0.000000 0.000000 0.000000 -0.015746 0.000000 0.050314
#
#
# Mechanical properties :
#
#
# Convention : Reuss Voigt Hill
#
# Bulk Modulus (GPa) = 19.44756 52.50057 35.97406
# Shear Modulus (GPa) = 19.60078 26.65699 23.12888
#
# Velocity S-wave (km/s) = 3.24832 3.78815 3.52858
# Velocity P-wave (km/s) = 4.95357 6.88446 5.99724
#
# Compressibility (1/GPa) = 0.05142035
#
# Stress axis : x y z
#
# Youngs Moduli (GPa) = 80.78064 20.81219 62.67996
#
# Poissons Ratio (x) = 0.17122 0.55130
# Poissons Ratio (y) = 0.66459 -0.28468
# Poissons Ratio (z) = 0.71051 -0.09453
#
# Static dielectric constant tensor:
#      x y z
#    x 3.830120 0.000000 0.079260 
#    y 0.000000 3.140630 0.000000 
#    z 0.079260 0.000000 3.282860 
# 
# 
# High freq. dielectric constant tensor:
#      x y z
#    x 1.732600 0.000000 0.020110 
#    y 0.000000 1.701060 0.000000 
#    z 0.020110 0.000000 1.699530 
# 
# From -- ./inp_files/93737.got.cif
#   From: 2010.06.25/outbox.cif.g09.slc.cpg/sg10_47_cif.got.tgz:93737.got - 2010.06.27 22:07:45.
