data_PCOD8058347
_publ_section_title
;
Structure prediction by ZEFSAII (Michael W. Deem and Ramdas Pophale) SiO2 
 PCOD8058347
Probable space group: P 2/M
;
_chemical_formula_sum "Si O2"
_cell_formula_units_Z 32
_cell_length_a 23.883802
_cell_length_b 9.278930
_cell_length_c 18.412675
_cell_angle_alpha 90.000000
_cell_angle_beta 155.521484
_cell_angle_gamma 90.000000
_cell_volume 1690.782314
_symmetry_space_group_name_H-M "P 2/M"
_symmetry_group_IT_number 10
_symmetry_cell_setting 'monoclinic'
loop_
_space_group_symop_operation_xyz
x,y,z
-x,y,-z
-x,-y,-z
x,-y,z
loop_
_atom_site_type_symbol
_atom_site_label
_atom_site_fract_x
_atom_site_fract_y
_atom_site_fract_z
Si Si1 0.411507 0.665580 0.824081
Si Si2 0.640143 0.671425 0.638223
Si Si3 0.130704 0.158931 0.321758
Si Si4 0.875228 0.669482 0.188660
Si Si5 0.862698 0.838776 0.500672
Si Si6 0.877358 0.332316 0.021414
Si Si7 0.359310 0.333716 0.524278
Si Si8 0.411159 0.666423 0.099194
O O1 0.370740 0.500000 0.758238
O O2 0.275521 0.754663 0.678542
O O3 0.500404 0.733718 0.862604
O O4 0.500000 0.675585 0.000000
O O5 0.500000 0.738160 0.500000
O O6 0.632683 0.500000 0.629635
O O7 0.754296 0.726915 0.827742
O O8 0.661587 0.726239 0.581486
O O9 0.113208 0.147495 0.386254
O O10 0.268391 0.241842 0.470496
O O11 0.133835 0.000000 0.290133
O O12 0.006450 0.248470 0.142477
O O13 0.897731 0.500000 0.228605
O O14 0.006309 0.752489 0.375319
O O15 0.850525 0.699095 0.074188
O O16 0.741076 0.729160 0.072133
O O17 0.855786 0.000000 0.458115
O O18 0.902655 0.500000 0.037167
O O19 0.315979 0.500000 0.478755
O O20 0.512668 0.313058 0.733648
O O21 0.394180 0.500000 0.060010
#
# Coordination Sequence:
#
# PCOD8058347 Si02
#       8
#     4   4   4   4   4   4   4   4
#     4  10  20  35  57  83 109 136 167 208 257 309
#     4   9  17  29  47  73 100 126 163 213 264 306
#     4  10  20  33  49  71  99 133 172 212 252 297
#     4   9  17  31  54  78 102 136 174 215 257 301
#     4  10  20  35  54  77 106 139 175 212 253 305
#     4   9  17  30  49  72  99 130 168 210 256 305
#     4  10  18  30  52  75  99 131 168 213 258 304
#     4   9  17  31  53  81 105 129 171 216 256 305
#
# _framework density 18.92615
#
# number of rings (size 3 to 8) (size 9 to 14) (size 15 to 20)
#    0.000    2.500    1.250    1.500    0.000    4.750 
#    0.000    5.000    0.000    6.750    0.000    0.000 
#    0.000    0.000    0.000    0.000    0.000    0.000 
#
# Total GULP energy -396649.522644 kJ/mol
# GULP energy per Si atom -12395.297583 kJ/mol
# Density = 1.888307 g / cm^3
# Si number density = 18.926150 Si / 1000 Ang^3
#
#
#
# Elastic Constant Matrix: (Units=GPa)
#
#
# Indices 1 2 3 4 5 6 
#
# 1 52.5530 23.7446 36.7694 0.0000 12.4386 0.0000
# 2 23.7446 71.9161 51.4347 0.0000 14.1053 0.0000
# 3 36.7694 51.4347 130.6697 0.0000 25.5211 0.0000
# 4 0.0000 0.0000 0.0000 4.0139 0.0000 -4.0998
# 5 12.4386 14.1053 25.5211 0.0000 35.4488 0.0000
# 6 0.0000 0.0000 0.0000 -4.0998 0.0000 8.3602
#
#
#
# Elastic Compliance Matrix: (Units=1/GPa)
#
#
# Indices 1 2 3 4 5 6 
#
# 1 0.025086 -0.004205 -0.004668 0.000000 -0.003769 0.000000
# 2 -0.004205 0.020263 -0.006407 0.000000 -0.001975 0.000000
# 3 -0.004668 -0.006407 0.012416 0.000000 -0.004752 0.000000
# 4 0.000000 0.000000 0.000000 0.499180 0.000000 0.244799
# 5 -0.003769 -0.001975 -0.004752 0.000000 0.033739 0.000000
# 6 0.000000 0.000000 0.000000 0.244799 0.000000 0.239665
#
#
# Mechanical properties :
#
#
# Convention : Reuss Voigt Hill
#
# Bulk Modulus (GPa) = 36.75692 53.22626 44.99159
# Shear Modulus (GPa) = 5.74727 19.11056 12.42892
#
# Velocity S-wave (km/s) = 1.74450 3.18109 2.56541
# Velocity P-wave (km/s) = 4.84985 6.45575 5.70954
#
# Compressibility (1/GPa) = 0.02720576
#
# Stress axis : x y z
#
# Youngs Moduli (GPa) = 39.86247 49.35056 80.53841
#
# Poissons Ratio (x) = 0.20753 0.37593
# Poissons Ratio (y) = 0.16763 0.51602
# Poissons Ratio (z) = 0.18607 0.31620
#
# Static dielectric constant tensor:
#      x y z
#    x 3.423160 0.000000 0.161130 
#    y 0.000000 3.352370 0.000000 
#    z 0.161130 0.000000 3.550790 
# 
# 
# High freq. dielectric constant tensor:
#      x y z
#    x 1.720210 0.000000 0.011470 
#    y 0.000000 1.699620 0.000000 
#    z 0.011470 0.000000 1.744330 
# 
# From -- ./inp_files/86772.got.cif
#   From: 2010.06.25/outbox.cif.g09.slc.cpg/sg10_44_cif.got.tgz:86772.got - 2010.06.27 22:07:45.
