data_PCOD8058066
_publ_section_title
;
Structure prediction by ZEFSAII (Michael W. Deem and Ramdas Pophale) SiO2 
 PCOD8058066
Probable space group: P 2/M
;
_chemical_formula_sum "Si O2"
_cell_formula_units_Z 30
_cell_length_a 24.462380
_cell_length_b 9.619143
_cell_length_c 14.573693
_cell_angle_alpha 90.000000
_cell_angle_beta 28.960509
_cell_angle_gamma 90.000000
_cell_volume 1660.486994
_symmetry_space_group_name_H-M "P 2/M"
_symmetry_group_IT_number 10
_symmetry_cell_setting 'monoclinic'
loop_
_space_group_symop_operation_xyz
x,y,z
-x,y,-z
-x,-y,-z
x,-y,z
loop_
_atom_site_type_symbol
_atom_site_label
_atom_site_fract_x
_atom_site_fract_y
_atom_site_fract_z
Si Si1 0.080695 0.845049 0.569388
Si Si2 0.219438 0.659581 0.092280
Si Si3 0.894195 0.662456 0.922053
Si Si4 0.424351 0.661445 0.904584
Si Si5 0.708847 0.659880 0.721936
Si Si6 0.000000 0.232003 0.500000
Si Si7 0.667886 0.664656 0.574486
Si Si8 0.122519 0.337753 0.846067
O O1 0.196233 0.765135 0.384009
O O2 0.021568 0.862313 0.557192
O O3 0.098353 0.000000 0.583940
O O4 0.007232 0.753152 0.747374
O O5 0.249938 0.500000 0.041509
O O6 0.109525 0.673986 0.318060
O O7 0.195779 0.713666 0.023022
O O8 0.329775 0.733359 0.976664
O O9 0.925610 0.500000 0.860947
O O10 0.845329 0.688310 0.094983
O O11 0.429528 0.500000 0.872914
O O12 0.550124 0.725546 0.705621
O O13 0.393716 0.679827 0.056808
O O14 0.752697 0.500000 0.659272
O O15 0.670823 0.704699 0.676705
O O16 0.668513 0.500000 0.560872
O O17 0.776570 0.730038 0.362476
O O18 0.116118 0.500000 0.832251
O O19 0.000000 0.271838 0.000000
#
# Coordination Sequence:
#
# PCOD8058066 Si02
#       8
#     4   4   4   4   4   2   4   4
#     4  11  21  31  46  71 100 127 158 196 239 284
#     4   9  16  26  44  70  99 126 157 196 237 280
#     4   9  18  31  48  69  96 128 162 198 238 285
#     4   9  16  27  44  71 101 126 157 197 238 280
#     4  10  18  30  49  72  96 128 161 194 234 285
#     4  10  18  30  44  64  95 132 161 188 229 290
#     4   9  17  28  47  73  98 124 160 203 238 276
#     4   9  16  28  46  69  95 123 159 201 242 280
#
# _framework density 18.066989
#
# number of rings (size 3 to 8) (size 9 to 14) (size 15 to 20)
#    0.000    2.533    1.333    2.000    0.000    4.800 
#    0.000    0.667    0.000    9.200    0.000    0.000 
#    0.000    2.400    0.000    0.000    0.000    0.000 
#
# Total GULP energy -371711.533444 kJ/mol
# GULP energy per Si atom -12390.384448 kJ/mol
# Density = 1.802587 g / cm^3
# Si number density = 18.066989 Si / 1000 Ang^3
#
#
#
# Elastic Constant Matrix: (Units=GPa)
#
#
# Indices 1 2 3 4 5 6 
#
# 1 111.5171 11.6315 68.3327 0.0000 -6.8556 0.0000
# 2 11.6315 37.0848 15.4113 0.0000 -0.5914 0.0000
# 3 68.3327 15.4113 128.1202 0.0000 -16.0290 0.0000
# 4 0.0000 0.0000 0.0000 1.3542 0.0000 0.7689
# 5 -6.8556 -0.5914 -16.0290 0.0000 29.7230 0.0000
# 6 0.0000 0.0000 0.0000 0.7689 0.0000 8.2689
#
#
#
# Elastic Compliance Matrix: (Units=1/GPa)
#
#
# Indices 1 2 3 4 5 6 
#
# 1 0.013395 -0.001269 -0.007087 0.000000 -0.000757 0.000000
# 2 -0.001269 0.028556 -0.002921 0.000000 -0.001300 0.000000
# 3 -0.007087 -0.002921 0.012573 0.000000 0.005088 0.000000
# 4 0.000000 0.000000 0.000000 0.779605 0.000000 -0.072490
# 5 -0.000757 -0.001300 0.005088 0.000000 0.036187 0.000000
# 6 0.000000 0.000000 0.000000 -0.072490 0.000000 0.127675
#
#
# Mechanical properties :
#
#
# Convention : Reuss Voigt Hill
#
# Bulk Modulus (GPa) = 31.27728 51.94147 41.60937
# Shear Modulus (GPa) = 4.84872 19.95899 12.40385
#
# Velocity S-wave (km/s) = 1.63999 3.32734 2.62305
# Velocity P-wave (km/s) = 4.57553 6.60101 5.67930
#
# Compressibility (1/GPa) = 0.03197209
#
# Stress axis : x y z
#
# Youngs Moduli (GPa) = 74.65314 35.01857 79.53801
#
# Poissons Ratio (x) = 0.04442 0.56365
# Poissons Ratio (y) = 0.09470 0.23233
# Poissons Ratio (z) = 0.52903 0.10229
#
# Static dielectric constant tensor:
#      x y z
#    x 3.713570 0.000000 -0.221290 
#    y 0.000000 2.729210 0.000000 
#    z -0.221290 0.000000 3.496530 
# 
# 
# High freq. dielectric constant tensor:
#      x y z
#    x 1.712020 0.000000 -0.005100 
#    y 0.000000 1.628770 0.000000 
#    z -0.005100 0.000000 1.690820 
# 
# From -- ./inp_files/71305.got.cif
#   From: 2010.06.25/outbox.cif.g09.slc.cpg/sg10_36_cif.got.tgz:71305.got - 2010.06.27 22:07:45.
