data_PCOD8058442
_publ_section_title
;
Structure prediction by ZEFSAII (Michael W. Deem and Ramdas Pophale) SiO2 
 PCOD8058442
Probable space group: P 2/M
;
_chemical_formula_sum "Si O2"
_cell_formula_units_Z 28
_cell_length_a 14.855376
_cell_length_b 12.617459
_cell_length_c 14.497508
_cell_angle_alpha 90.000000
_cell_angle_beta 40.818354
_cell_angle_gamma 90.000000
_cell_volume 1776.244939
_symmetry_space_group_name_H-M "P 2/M"
_symmetry_group_IT_number 10
_symmetry_cell_setting 'monoclinic'
loop_
_space_group_symop_operation_xyz
x,y,z
-x,y,-z
-x,-y,-z
x,-y,z
loop_
_atom_site_type_symbol
_atom_site_label
_atom_site_fract_x
_atom_site_fract_y
_atom_site_fract_z
Si Si1 0.112287 0.624447 0.663907
Si Si2 0.080358 0.373900 0.349517
Si Si3 0.618643 0.626161 0.842059
Si Si4 0.881068 0.000000 0.165537
Si Si5 0.426049 0.230221 0.655127
Si Si6 0.883622 0.229392 0.167326
Si Si7 0.424908 0.000000 0.654841
Si Si8 0.595633 0.624529 0.650514
O O1 0.101690 0.500000 0.690849
O O2 0.090002 0.682262 0.777284
O O3 0.258696 0.654622 0.506945
O O4 0.993193 0.664059 0.686937
O O5 0.076954 0.500000 0.357641
O O6 0.236268 0.330811 0.231393
O O7 0.000000 0.327108 0.500000
O O8 0.619076 0.500000 0.843319
O O9 0.594528 0.665207 0.756554
O O10 0.500000 0.672647 0.000000
O O11 0.890754 0.112434 0.212395
O O12 0.738209 0.000000 0.223335
O O13 0.000000 0.000000 0.000000
O O14 0.500000 0.247691 0.500000
O O15 0.263463 0.245178 0.767303
O O16 0.464684 0.113619 0.669472
O O17 0.474137 0.317878 0.690118
O O18 0.000000 0.241549 0.000000
O O19 0.500000 0.000000 0.500000
O O20 0.566938 0.500000 0.666957
#
# Coordination Sequence:
#
# PCOD8058442 Si02
#       8
#     4   4   4   2   4   4   2   4
#     4  10  19  30  46  69  95 125 158 186 224 280
#     4   9  15  27  46  63  84 117 154 190 224 262
#     4   9  17  29  45  66  90 115 150 196 232 261
#     4   8  16  32  50  64  86 119 153 192 232 263
#     4  10  18  31  48  68  93 124 153 189 226 268
#     4  10  20  33  48  69  95 123 155 190 227 269
#     4   8  16  28  46  68  88 110 155 200 223 251
#     4  10  19  30  46  69  95 125 157 184 228 284
#
# _framework density 15.763591999999999
#
# number of rings (size 3 to 8) (size 9 to 14) (size 15 to 20)
#    0.000    2.571    2.857    0.000    0.000    2.286 
#    0.000    1.429    0.000    0.000    0.000    2.000 
#    0.000    0.000    0.000    0.000    0.000    0.000 
#
# Total GULP energy -346930.728793 kJ/mol
# GULP energy per Si atom -12390.383171 kJ/mol
# Density = 1.572771 g / cm^3
# Si number density = 15.763592 Si / 1000 Ang^3
#
#
#
# Elastic Constant Matrix: (Units=GPa)
#
#
# Indices 1 2 3 4 5 6 
#
# 1 116.6097 46.5802 58.2954 0.0000 -4.1899 0.0000
# 2 46.5802 52.2335 33.2653 0.0000 4.7833 0.0000
# 3 58.2954 33.2653 113.3829 0.0000 -9.1418 0.0000
# 4 0.0000 0.0000 0.0000 13.7701 0.0000 -6.3406
# 5 -4.1899 4.7833 -9.1418 0.0000 27.4210 0.0000
# 6 0.0000 0.0000 0.0000 -6.3406 0.0000 3.1490
#
#
#
# Elastic Compliance Matrix: (Units=1/GPa)
#
#
# Indices 1 2 3 4 5 6 
#
# 1 0.015309 -0.011120 -0.004381 0.000000 0.002818 0.000000
# 2 -0.011120 0.032839 -0.004641 0.000000 -0.008975 0.000000
# 3 -0.004381 -0.004641 0.012789 0.000000 0.004404 0.000000
# 4 0.000000 0.000000 0.000000 0.996748 0.000000 2.006973
# 5 0.002818 -0.008975 0.004404 0.000000 0.039933 0.000000
# 6 0.000000 0.000000 0.000000 2.006973 0.000000 4.358644
#
#
# Mechanical properties :
#
#
# Convention : Reuss Voigt Hill
#
# Bulk Modulus (GPa) = 48.42062 62.05642 55.23852
# Shear Modulus (GPa) = 0.90852 18.47372 9.69112
#
# Velocity S-wave (km/s) = 0.76000 3.42705 2.48216
# Velocity P-wave (km/s) = 5.61725 7.42374 6.58276
#
# Compressibility (1/GPa) = 0.02065236
#
# Stress axis : x y z
#
# Youngs Moduli (GPa) = 65.32040 30.45197 78.19227
#
# Poissons Ratio (x) = 0.33862 0.34259
# Poissons Ratio (y) = 0.72636 0.36287
# Poissons Ratio (z) = 0.28620 0.14132
#
# Static dielectric constant tensor:
#      x y z
#    x 2.958080 0.000000 -0.185330 
#    y 0.000000 3.040690 0.000000 
#    z -0.185330 0.000000 3.139710 
# 
# 
# High freq. dielectric constant tensor:
#      x y z
#    x 1.590580 0.000000 -0.017340 
#    y 0.000000 1.577150 0.000000 
#    z -0.017340 0.000000 1.614460 
# 
# From -- ./inp_files/67130.got.cif
#   From: 2010.06.25/outbox.cif.g09.slc.cpg/sg10_34_cif.got.tgz:67130.got - 2010.06.27 22:07:45.
