data_PCOD8058465
_publ_section_title
;
Structure prediction by ZEFSAII (Michael W. Deem and Ramdas Pophale) SiO2 
 PCOD8058465
Probable space group: P 2/M
;
_chemical_formula_sum "Si O2"
_cell_formula_units_Z 32
_cell_length_a 12.400723
_cell_length_b 8.869776
_cell_length_c 33.288903
_cell_angle_alpha 90.000000
_cell_angle_beta 149.371413
_cell_angle_gamma 90.000000
_cell_volume 1865.427812
_symmetry_space_group_name_H-M "P 2/M"
_symmetry_group_IT_number 10
_symmetry_cell_setting 'monoclinic'
loop_
_space_group_symop_operation_xyz
x,y,z
-x,y,-z
-x,-y,-z
x,-y,z
loop_
_atom_site_type_symbol
_atom_site_label
_atom_site_fract_x
_atom_site_fract_y
_atom_site_fract_z
Si Si1 0.646563 0.322191 0.083438
Si Si2 0.060552 0.173869 0.096416
Si Si3 0.438425 0.675099 0.172523
Si Si4 0.503389 0.677376 0.343477
Si Si5 0.124453 0.170017 0.498387
Si Si6 0.932246 0.177752 0.808839
Si Si7 0.586401 0.825932 0.918731
Si Si8 0.748856 0.325829 0.343009
O O1 0.676591 0.500000 0.091355
O O2 0.540732 0.276193 0.091106
O O3 0.873894 0.245220 0.153725
O O4 0.500000 0.263977 0.000000
O O5 0.223306 0.279531 0.125613
O O6 0.048242 0.226809 0.138515
O O7 0.133191 0.000000 0.116297
O O8 0.835520 0.199643 0.003662
O O9 0.422333 0.500000 0.155653
O O10 0.478743 0.775533 0.146514
O O11 0.637215 0.706535 0.265083
O O12 0.471405 0.500000 0.336431
O O13 0.662054 0.732125 0.429431
O O14 0.280542 0.757948 0.278845
O O15 0.592415 0.727587 0.328497
O O16 0.000000 0.179196 0.500000
O O17 0.970620 0.236211 0.414712
O O18 0.186231 0.000000 0.506808
O O19 0.935198 0.000000 0.805078
O O20 0.526029 0.000000 0.906138
O O21 0.803327 0.500000 0.366945
#
# Coordination Sequence:
#
# PCOD8058465 Si02
#       8
#     4   4   4   4   4   4   4   4
#     4  11  23  38  57  78 101 132 175 223 269 314
#     4  10  21  35  52  74 104 140 176 215 262 314
#     4  11  22  35  52  77 107 140 179 219 260 309
#     4  10  18  31  49  73 105 138 173 212 259 310
#     4   9  17  28  45  71 101 135 172 209 253 308
#     4  11  21  34  54  78 105 138 176 217 263 312
#     4  11  23  39  55  74 102 139 180 220 266 313
#     4   9  18  31  47  70 103 140 172 208 257 309
#
# _framework density 17.154243000000001
#
# number of rings (size 3 to 8) (size 9 to 14) (size 15 to 20)
#    0.000    1.750    2.500    2.625    0.000    6.500 
#    0.000    0.000    0.000    0.000    0.000    0.875 
#    0.000    7.000    0.000    0.000    0.000    0.000 
#
# Total GULP energy -396947.433687 kJ/mol
# GULP energy per Si atom -12404.607303 kJ/mol
# Density = 1.711520 g / cm^3
# Si number density = 17.154243 Si / 1000 Ang^3
#
#
#
# Elastic Constant Matrix: (Units=GPa)
#
#
# Indices 1 2 3 4 5 6 
#
# 1 45.8378 25.2836 31.7806 0.0000 -1.1917 0.0000
# 2 25.2836 71.1725 43.2211 0.0000 6.4675 0.0000
# 3 31.7806 43.2211 108.1208 0.0000 7.1228 0.0000
# 4 0.0000 0.0000 0.0000 33.4933 0.0000 2.8804
# 5 -1.1917 6.4675 7.1228 0.0000 16.8913 0.0000
# 6 0.0000 0.0000 0.0000 2.8804 0.0000 28.2204
#
#
#
# Elastic Compliance Matrix: (Units=1/GPa)
#
#
# Indices 1 2 3 4 5 6 
#
# 1 0.030764 -0.007708 -0.006479 0.000000 0.007854 0.000000
# 2 -0.007708 0.020765 -0.005632 0.000000 -0.006120 0.000000
# 3 -0.006479 -0.005632 0.013672 0.000000 -0.004066 0.000000
# 4 0.000000 0.000000 0.000000 0.030121 0.000000 -0.003074
# 5 0.007854 -0.006120 -0.004066 0.000000 0.063814 0.000000
# 6 0.000000 0.000000 0.000000 -0.003074 0.000000 0.035749
#
#
# Mechanical properties :
#
#
# Convention : Reuss Voigt Hill
#
# Bulk Modulus (GPa) = 39.11781 47.30019 43.20900
# Shear Modulus (GPa) = 20.57242 24.04405 22.30824
#
# Velocity S-wave (km/s) = 3.46679 3.74791 3.61009
# Velocity P-wave (km/s) = 6.23522 6.80899 6.52841
#
# Compressibility (1/GPa) = 0.02556381
#
# Stress axis : x y z
#
# Youngs Moduli (GPa) = 32.50579 48.15848 73.13987
#
# Poissons Ratio (x) = 0.37121 0.47385
# Poissons Ratio (y) = 0.25056 0.41191
# Poissons Ratio (z) = 0.21060 0.27122
#
# Static dielectric constant tensor:
#      x y z
#    x 2.922790 0.000000 -0.005940 
#    y 0.000000 3.266760 0.000000 
#    z -0.005940 0.000000 3.327320 
# 
# 
# High freq. dielectric constant tensor:
#      x y z
#    x 1.623360 0.000000 0.005880 
#    y 0.000000 1.675760 0.000000 
#    z 0.005880 0.000000 1.668390 
# 
# From -- ./inp_files/55264.got.cif
#   From: 2010.06.25/outbox.cif.g09.slc.cpg/sg10_28_cif.got.tgz:55264.got - 2010.06.27 22:07:45.
