data_PCOD8058316
_publ_section_title
;
Structure prediction by ZEFSAII (Michael W. Deem and Ramdas Pophale) SiO2 
 PCOD8058316
Probable space group: P 2/M
;
_chemical_formula_sum "Si O2"
_cell_formula_units_Z 32
_cell_length_a 15.022396
_cell_length_b 8.524839
_cell_length_c 15.102483
_cell_angle_alpha 90.000000
_cell_angle_beta 78.697160
_cell_angle_gamma 90.000000
_cell_volume 1896.565413
_symmetry_space_group_name_H-M "P 2/M"
_symmetry_group_IT_number 10
_symmetry_cell_setting 'monoclinic'
loop_
_space_group_symop_operation_xyz
x,y,z
-x,y,-z
-x,-y,-z
x,-y,z
loop_
_atom_site_type_symbol
_atom_site_label
_atom_site_fract_x
_atom_site_fract_y
_atom_site_fract_z
Si Si1 0.696503 0.815658 0.917360
Si Si2 0.259483 0.315988 0.758745
Si Si3 0.440906 0.818285 0.394183
Si Si4 0.894886 0.183120 0.933409
Si Si5 0.385187 0.314920 0.891769
Si Si6 0.583437 0.682385 0.785182
Si Si7 0.374770 0.316324 0.577210
Si Si8 0.921103 0.682692 0.119180
O O1 0.800003 0.759175 0.911539
O O2 0.662128 0.724626 0.838230
O O3 0.690489 0.000000 0.901934
O O4 0.635445 0.772703 0.013260
O O5 0.277954 0.500000 0.755256
O O6 0.317323 0.248003 0.829788
O O7 0.295108 0.251208 0.657537
O O8 0.153070 0.274738 0.791124
O O9 0.397589 0.778368 0.308152
O O10 0.530085 0.713222 0.391680
O O11 0.368835 0.777150 0.485831
O O12 0.467198 0.000000 0.394754
O O13 0.978186 0.271034 0.867327
O O14 0.908372 0.000000 0.916705
O O15 0.896143 0.220492 0.036944
O O16 0.373550 0.500000 0.909498
O O17 0.486806 0.269470 0.844754
O O18 0.586447 0.500000 0.761662
O O19 0.364476 0.500000 0.559647
O O20 0.916766 0.500000 0.095836
#
# Coordination Sequence:
#
# PCOD8058316 Si02
#       8
#     4   4   4   4   4   4   4   4
#     4  11  23  35  48  70 100 134 168 207 248 288
#     4   9  17  30  50  75 100 127 164 204 241 285
#     4  11  21  33  48  73 102 128 163 208 248 288
#     4  10  20  33  46  67  99 131 161 198 248 295
#     4  10  19  34  50  69  98 133 172 205 237 284
#     4  11  22  36  53  70  93 134 175 207 243 289
#     4  10  18  33  53  72  98 132 166 200 244 297
#     4  10  18  30  51  73  94 124 164 206 243 282
#
# _framework density 16.872606000000001
#
# number of rings (size 3 to 8) (size 9 to 14) (size 15 to 20)
#    0.000    1.750    2.500    4.875    0.000    4.000 
#    0.000    2.500    0.000    0.000    0.000    0.875 
#    0.000    7.000    0.000    0.000    0.000    0.000 
#
# Total GULP energy -396818.758443 kJ/mol
# GULP energy per Si atom -12400.586201 kJ/mol
# Density = 1.683420 g / cm^3
# Si number density = 16.872606 Si / 1000 Ang^3
#
#
#
# Elastic Constant Matrix: (Units=GPa)
#
#
# Indices 1 2 3 4 5 6 
#
# 1 97.7790 17.4966 53.8156 0.0000 -8.0451 0.0000
# 2 17.4966 38.8860 18.5072 0.0000 -0.7226 0.0000
# 3 53.8156 18.5072 113.9576 0.0000 -9.5163 0.0000
# 4 0.0000 0.0000 0.0000 13.0940 0.0000 7.5802
# 5 -8.0451 -0.7226 -9.5163 0.0000 25.1922 0.0000
# 6 0.0000 0.0000 0.0000 7.5802 0.0000 17.9245
#
#
#
# Elastic Compliance Matrix: (Units=1/GPa)
#
#
# Indices 1 2 3 4 5 6 
#
# 1 0.014357 -0.003555 -0.006018 0.000000 0.002210 0.000000
# 2 -0.003555 0.028772 -0.003118 0.000000 -0.001488 0.000000
# 3 -0.006018 -0.003118 0.012345 0.000000 0.002652 0.000000
# 4 0.000000 0.000000 0.000000 0.101129 0.000000 -0.042767
# 5 0.002210 -0.001488 0.002652 0.000000 0.041360 0.000000
# 6 0.000000 0.000000 0.000000 -0.042767 0.000000 0.073876
#
#
# Mechanical properties :
#
#
# Convention : Reuss Voigt Hill
#
# Bulk Modulus (GPa) = 33.23134 47.80682 40.51908
# Shear Modulus (GPa) = 16.27330 21.96235 19.11782
#
# Velocity S-wave (km/s) = 3.10898 3.61176 3.36976
# Velocity P-wave (km/s) = 5.71190 6.76673 6.26157
#
# Compressibility (1/GPa) = 0.03009207
#
# Stress axis : x y z
#
# Youngs Moduli (GPa) = 69.65044 34.75596 81.00315
#
# Poissons Ratio (x) = 0.12355 0.48751
# Poissons Ratio (y) = 0.24758 0.25259
# Poissons Ratio (z) = 0.41918 0.10838
#
# Static dielectric constant tensor:
#      x y z
#    x 3.262430 0.000000 -0.178890 
#    y 0.000000 3.085200 0.000000 
#    z -0.178890 0.000000 3.205160 
# 
# 
# High freq. dielectric constant tensor:
#      x y z
#    x 1.633670 0.000000 -0.013620 
#    y 0.000000 1.651980 0.000000 
#    z -0.013620 0.000000 1.636190 
# 
# From -- ./inp_files/66132.got.cif
#   From: 2010.06.25/outbox.cif.g09.slc.cpg/sg10_34_cif.got.tgz:66132.got - 2010.06.27 22:07:45.
