data_PCOD8058339
_publ_section_title
;
Structure prediction by ZEFSAII (Michael W. Deem and Ramdas Pophale) SiO2 
 PCOD8058339
Probable space group: P 2/M
;
_chemical_formula_sum "Si O2"
_cell_formula_units_Z 20
_cell_length_a 11.167543
_cell_length_b 10.324634
_cell_length_c 9.531089
_cell_angle_alpha 90.000000
_cell_angle_beta 113.426437
_cell_angle_gamma 90.000000
_cell_volume 1008.357736
_symmetry_space_group_name_H-M "P 2/M"
_symmetry_group_IT_number 10
_symmetry_cell_setting 'monoclinic'
loop_
_space_group_symop_operation_xyz
x,y,z
-x,y,-z
-x,-y,-z
x,-y,z
loop_
_atom_site_type_symbol
_atom_site_label
_atom_site_fract_x
_atom_site_fract_y
_atom_site_fract_z
Si Si1 0.436739 0.000000 0.742121
Si Si2 0.635227 0.500000 0.976888
Si Si3 0.303781 0.000000 0.984696
Si Si4 0.061441 0.646319 0.374208
Si Si5 0.191997 0.742080 0.857195
Si Si6 0.696671 0.751735 0.392643
Si Si7 0.530479 0.500000 0.351769
O O1 0.395270 0.876467 0.627889
O O2 0.591932 0.000000 0.839762
O O3 0.372639 0.000000 0.865643
O O4 0.604381 0.500000 0.796958
O O5 0.500000 0.500000 0.000000
O O6 0.718521 0.626655 0.046480
O O7 0.215167 0.128825 0.960233
O O8 0.098805 0.500000 0.348054
O O9 0.193616 0.733275 0.434903
O O10 0.000000 0.644156 0.500000
O O11 0.960845 0.703160 0.212246
O O12 0.227853 0.774616 0.715617
O O13 0.610126 0.624659 0.341608
O O14 0.500000 0.500000 0.500000
#
# Coordination Sequence:
#
# PCOD8058339 Si02
#       7
#     2   2   2   4   4   4   2
#     4   9  18  29  48  73 102 144 173 206 261 316
#     4  12  20  31  55  77 101 132 182 214 255 318
#     4   9  18  27  41  75 118 131 163 219 266 300
#     4   9  16  27  47  75 105 133 172 216 257 304
#     4  10  18  30  51  79 103 137 173 216 259 309
#     4  10  18  33  51  73 105 138 173 215 261 307
#     4  12  24  35  51  77 107 138 174 221 265 304
#
# _framework density 19.834230999999999
#
# number of rings (size 3 to 8) (size 9 to 14) (size 15 to 20)
#    0.000    2.000    4.000    1.200    2.800    0.800 
#    0.000    4.500    0.000    2.400    0.000    0.000 
#    0.000    4.800    0.000    0.000    0.000    0.000 
#
# Total GULP energy -247902.128312 kJ/mol
# GULP energy per Si atom -12395.106416 kJ/mol
# Density = 1.978909 g / cm^3
# Si number density = 19.834231 Si / 1000 Ang^3
#
#
#
# Elastic Constant Matrix: (Units=GPa)
#
#
# Indices 1 2 3 4 5 6 
#
# 1 33.3722 40.8876 47.7690 0.0000 37.9410 0.0000
# 2 40.8876 194.5322 67.3038 0.0000 52.6661 0.0000
# 3 47.7690 67.3038 114.9578 0.0000 58.4676 0.0000
# 4 0.0000 0.0000 0.0000 -62.2772 0.0000 -176.0382
# 5 37.9410 52.6661 58.4676 0.0000 50.7389 0.0000
# 6 0.0000 0.0000 0.0000 -176.0382 0.0000 -398.4798
#
#
#
# Elastic Compliance Matrix: (Units=1/GPa)
#
#
# Indices 1 2 3 4 5 6 
#
# 1 0.215046 -0.001459 -0.018094 0.000000 -0.138440 0.000000
# 2 -0.001459 0.007207 -0.000878 0.000000 -0.005378 0.000000
# 3 -0.018094 -0.000878 0.022677 0.000000 -0.011690 0.000000
# 4 0.000000 0.000000 0.000000 0.064549 0.000000 -0.028516
# 5 -0.138440 -0.005378 -0.011690 0.000000 0.142283 0.000000
# 6 0.000000 0.000000 0.000000 -0.028516 0.000000 0.010088
#
#
# Mechanical properties :
#
#
# Convention : Reuss Voigt Hill
#
# Bulk Modulus (GPa) = 4.90032 72.75367 38.82700
# Shear Modulus (GPa) = 8.76064 -69.54350 -30.39143
#
# Velocity S-wave (km/s) = 2.10393 -5.92777 -3.91867
# Velocity P-wave (km/s) = 2.89448 3.17660 0.92542
#
# Compressibility (1/GPa) = 0.20406815
#
# Stress axis : x y z
#
# Youngs Moduli (GPa) = 4.65017 138.75515 44.09769
#
# Poissons Ratio (x) = 0.20241 0.79791
# Poissons Ratio (y) = 0.00678 0.03871
# Poissons Ratio (z) = 0.08414 0.12180
#
# Static dielectric constant tensor:
#      x y z
#    x 3.360450 0.000000 1.062080 
#    y 0.000000 3.847480 0.000000 
#    z 1.062080 0.000000 5.914280 
# 
# 
# High freq. dielectric constant tensor:
#      x y z
#    x 1.725160 0.000000 0.053290 
#    y 0.000000 1.783740 0.000000 
#    z 0.053290 0.000000 1.759220 
# 
# From -- ./inp_files/23705.got.cif
#   From: 2010.06.25/outbox.cif.g09.slc.cpg/sg10_12_cif.got.tgz:23705.got - 2010.06.27 22:07:45.
