data_PCOD8058470
_publ_section_title
;
Structure prediction by ZEFSAII (Michael W. Deem and Ramdas Pophale) SiO2 
 PCOD8058470
Probable space group: P 2/M
;
_chemical_formula_sum "Si O2"
_cell_formula_units_Z 32
_cell_length_a 14.098953
_cell_length_b 17.921150
_cell_length_c 13.667896
_cell_angle_alpha 90.000000
_cell_angle_beta 149.351385
_cell_angle_gamma 90.000000
_cell_volume 1760.475600
_symmetry_space_group_name_H-M "P 2/M"
_symmetry_group_IT_number 10
_symmetry_cell_setting 'monoclinic'
loop_
_space_group_symop_operation_xyz
x,y,z
-x,y,-z
-x,-y,-z
x,-y,z
loop_
_atom_site_type_symbol
_atom_site_label
_atom_site_fract_x
_atom_site_fract_y
_atom_site_fract_z
Si Si1 0.802600 0.217423 0.291816
Si Si2 0.682603 0.297859 0.368110
Si Si3 0.725105 0.844661 0.503759
Si Si4 0.326605 0.912989 0.134815
Si Si5 0.081630 0.912060 0.729823
Si Si6 0.634409 0.343818 0.029566
Si Si7 0.279107 0.082408 0.302768
Si Si8 0.993218 0.416430 0.609389
O O1 0.674849 0.236613 0.271530
O O2 0.819920 0.130223 0.274801
O O3 0.729583 0.263624 0.134203
O O4 0.000000 0.250822 0.500000
O O5 0.706332 0.245579 0.484113
O O6 0.844237 0.358479 0.518952
O O7 0.484713 0.340025 0.177480
O O8 0.526655 0.876784 0.297157
O O9 0.790517 0.864568 0.671824
O O10 0.876482 0.876961 0.561077
O O11 0.224181 0.886915 0.145593
O O12 0.365609 0.000000 0.179682
O O13 0.195828 0.893748 0.928571
O O14 0.073137 0.000000 0.698635
O O15 0.800628 0.402944 0.163691
O O16 0.500000 0.369077 0.000000
O O17 0.500000 0.077468 0.500000
O O18 0.192703 0.000000 0.245293
O O19 0.931700 0.500000 0.584122
O O20 0.000000 0.406346 0.500000
#
# Coordination Sequence:
#
# PCOD8058470 Si02
#       8
#     4   4   4   4   4   4   4   4
#     4  11  18  35  46  61  96 132 169 206 243 273
#     4  11  21  34  50  70 100 132 164 194 237 290
#     4  11  19  31  52  70  92 129 165 198 245 299
#     4   9  19  35  49  69  98 125 163 216 261 294
#     4  11  22  32  46  67  92 129 176 211 245 287
#     4  10  18  31  50  66  88 126 164 192 236 285
#     4   8  15  30  50  70  96 125 159 207 259 296
#     4  11  20  33  51  73  99 126 161 200 235 281
#
# _framework density 18.176907
#
# number of rings (size 3 to 8) (size 9 to 14) (size 15 to 20)
#    0.000    1.750    5.000    2.625    0.000    1.500 
#    0.000    1.875    0.000    4.875    0.000    0.000 
#    0.000    4.500    0.000   24.125    0.000    0.500 
#
# Total GULP energy -396528.174350 kJ/mol
# GULP energy per Si atom -12391.505448 kJ/mol
# Density = 1.813554 g / cm^3
# Si number density = 18.176907 Si / 1000 Ang^3
#
#
#
# Elastic Constant Matrix: (Units=GPa)
#
#
# Indices 1 2 3 4 5 6 
#
# 1 45.0874 35.5414 17.7242 0.0000 -2.6592 0.0000
# 2 35.5414 96.7469 40.0667 0.0000 1.3526 0.0000
# 3 17.7242 40.0667 95.3468 0.0000 7.8728 0.0000
# 4 0.0000 0.0000 0.0000 9.2818 0.0000 6.6964
# 5 -2.6592 1.3526 7.8728 0.0000 16.4533 0.0000
# 6 0.0000 0.0000 0.0000 6.6964 0.0000 17.9486
#
#
#
# Elastic Compliance Matrix: (Units=1/GPa)
#
#
# Indices 1 2 3 4 5 6 
#
# 1 0.032085 -0.011109 -0.001874 0.000000 0.006995 0.000000
# 2 -0.011109 0.016398 -0.004754 0.000000 -0.000869 0.000000
# 3 -0.001874 -0.004754 0.013355 0.000000 -0.006302 0.000000
# 4 0.000000 0.000000 0.000000 0.147418 0.000000 -0.055000
# 5 0.006995 -0.000869 -0.006302 0.000000 0.064996 0.000000
# 6 0.000000 0.000000 0.000000 -0.055000 0.000000 0.076235
#
#
# Mechanical properties :
#
#
# Convention : Reuss Voigt Hill
#
# Bulk Modulus (GPa) = 37.92991 47.09399 42.51195
# Shear Modulus (GPa) = 12.66632 18.32666 15.49649
#
# Velocity S-wave (km/s) = 2.64263 3.17872 2.92299
# Velocity P-wave (km/s) = 5.49761 6.27991 5.90174
#
# Compressibility (1/GPa) = 0.02636441
#
# Stress axis : x y z
#
# Youngs Moduli (GPa) = 31.16716 60.98231 74.88109
#
# Poissons Ratio (x) = 0.67743 0.14032
# Poissons Ratio (y) = 0.34623 0.35599
# Poissons Ratio (z) = 0.05840 0.28992
#
# Static dielectric constant tensor:
#      x y z
#    x 3.227270 0.000000 -0.089740 
#    y 0.000000 3.277500 0.000000 
#    z -0.089740 0.000000 3.688850 
# 
# 
# High freq. dielectric constant tensor:
#      x y z
#    x 1.657330 0.000000 0.010040 
#    y 0.000000 1.680620 0.000000 
#    z 0.010040 0.000000 1.722370 
# 
# From -- ./inp_files/67750.got.cif
#   From: 2010.06.25/outbox.cif.g09.slc.cpg/sg10_34_cif.got.tgz:67750.got - 2010.06.27 22:07:45.
