data_PCOD8058897
_publ_section_title
;
Structure prediction by ZEFSAII (Michael W. Deem and Ramdas Pophale) SiO2 
 PCOD8058897
Probable space group: P 2/M
;
_chemical_formula_sum "Si O2"
_cell_formula_units_Z 30
_cell_length_a 14.638506
_cell_length_b 9.597096
_cell_length_c 12.322097
_cell_angle_alpha 90.000000
_cell_angle_beta 107.051200
_cell_angle_gamma 90.000000
_cell_volume 1655.002647
_symmetry_space_group_name_H-M "P 2/M"
_symmetry_group_IT_number 10
_symmetry_cell_setting 'monoclinic'
loop_
_space_group_symop_operation_xyz
x,y,z
-x,y,-z
-x,-y,-z
x,-y,z
loop_
_atom_site_type_symbol
_atom_site_label
_atom_site_fract_x
_atom_site_fract_y
_atom_site_fract_z
Si Si1 0.680063 0.340729 0.296888
Si Si2 0.215000 0.660848 0.882394
Si Si3 0.496934 0.843524 0.736270
Si Si4 0.828175 0.163106 0.750660
Si Si5 0.500000 0.251227 0.500000
Si Si6 0.292450 0.655215 0.451192
Si Si7 0.304186 0.160988 0.094390
Si Si8 0.996555 0.337986 0.125646
O O1 0.645730 0.500000 0.280496
O O2 0.759300 0.308876 0.233586
O O3 0.586033 0.250368 0.242537
O O4 0.727191 0.307679 0.429690
O O5 0.229452 0.500000 0.919103
O O6 0.105888 0.705027 0.862648
O O7 0.285963 0.749307 0.981427
O O8 0.500126 0.844231 0.606843
O O9 0.597277 0.788051 0.817580
O O10 0.477737 0.000000 0.768830
O O11 0.760450 0.226986 0.635275
O O12 0.781032 0.187194 0.850970
O O13 0.928787 0.242349 0.783998
O O14 0.842640 0.000000 0.730466
O O15 0.594166 0.346799 0.532351
O O16 0.253886 0.500000 0.409622
O O17 0.309450 0.000000 0.062715
O O18 0.020449 0.500000 0.155256
O O19 0.000000 0.303199 0.000000
#
# Coordination Sequence:
#
# PCOD8058897 Si02
#       8
#     4   4   4   4   2   4   4   4
#     4   9  21  39  56  79 110 147 188 226 270 323
#     4  10  21  39  60  80 108 144 183 229 277 328
#     4  10  20  34  53  79 112 150 187 223 267 323
#     4  11  22  36  55  84 117 145 176 224 279 330
#     4  10  18  32  54  82 110 144 186 228 274 314
#     4  10  20  35  56  81 111 145 184 228 270 320
#     4  10  21  35  52  81 115 145 179 221 274 329
#     4  10  20  36  59  86 108 137 183 231 279 330
#
# _framework density 18.126859
#
# number of rings (size 3 to 8) (size 9 to 14) (size 15 to 20)
#    0.000    2.000    2.667    0.800    0.000    5.600 
#    0.000    3.333    0.000    4.000    0.000    0.000 
#    0.000    0.000    0.000    0.000    0.000    0.000 
#
# Total GULP energy -372066.662894 kJ/mol
# GULP energy per Si atom -12402.222096 kJ/mol
# Density = 1.808560 g / cm^3
# Si number density = 18.126859 Si / 1000 Ang^3
#
#
#
# Elastic Constant Matrix: (Units=GPa)
#
#
# Indices 1 2 3 4 5 6 
#
# 1 111.1721 43.5890 53.4531 0.0000 -3.7116 0.0000
# 2 43.5890 82.6977 48.5470 0.0000 6.6945 0.0000
# 3 53.4531 48.5470 93.2760 0.0000 1.9931 0.0000
# 4 0.0000 0.0000 0.0000 28.2284 0.0000 6.0433
# 5 -3.7116 6.6945 1.9931 0.0000 30.7019 0.0000
# 6 0.0000 0.0000 0.0000 6.0433 0.0000 27.8967
#
#
#
# Elastic Compliance Matrix: (Units=1/GPa)
#
#
# Indices 1 2 3 4 5 6 
#
# 1 0.013361 -0.003948 -0.005662 0.000000 0.002844 0.000000
# 2 -0.003948 0.018902 -0.007487 0.000000 -0.004113 0.000000
# 3 -0.005662 -0.007487 0.017867 0.000000 -0.000212 0.000000
# 4 0.000000 0.000000 0.000000 0.037148 0.000000 -0.008047
# 5 0.002844 -0.004113 -0.000212 0.000000 0.033826 0.000000
# 6 0.000000 0.000000 0.000000 -0.008047 0.000000 0.037590
#
#
# Mechanical properties :
#
#
# Convention : Reuss Voigt Hill
#
# Bulk Modulus (GPa) = 62.75995 64.25822 63.50908
# Shear Modulus (GPa) = 25.22714 26.80252 26.01483
#
# Velocity S-wave (km/s) = 3.73460 3.84944 3.79245
# Velocity P-wave (km/s) = 7.30028 7.43530 7.36810
#
# Compressibility (1/GPa) = 0.01593373
#
# Stress axis : x y z
#
# Youngs Moduli (GPa) = 74.84697 52.90575 55.96936
#
# Poissons Ratio (x) = 0.20890 0.31691
# Poissons Ratio (y) = 0.29553 0.41904
# Poissons Ratio (z) = 0.42380 0.39611
#
# Static dielectric constant tensor:
#      x y z
#    x 3.348610 0.000000 -0.043260 
#    y 0.000000 3.274550 0.000000 
#    z -0.043260 0.000000 3.302630 
# 
# 
# High freq. dielectric constant tensor:
#      x y z
#    x 1.696940 0.000000 0.001530 
#    y 0.000000 1.703360 0.000000 
#    z 0.001530 0.000000 1.697460 
# 
# From -- ./inp_files/49757.got.cif
#   From: 2010.06.25/outbox.cif.g09.slc.cpg/sg10_25_cif.got.tgz:49757.got - 2010.06.27 22:07:45.
