data_PCOD8058772
_publ_section_title
;
Structure prediction by ZEFSAII (Michael W. Deem and Ramdas Pophale) SiO2 
 PCOD8058772
Probable space group: P 2/M
;
_chemical_formula_sum "Si O2"
_cell_formula_units_Z 32
_cell_length_a 12.444113
_cell_length_b 9.117277
_cell_length_c 19.089392
_cell_angle_alpha 90.000000
_cell_angle_beta 63.780678
_cell_angle_gamma 90.000000
_cell_volume 1942.972318
_symmetry_space_group_name_H-M "P 2/M"
_symmetry_group_IT_number 10
_symmetry_cell_setting 'monoclinic'
loop_
_space_group_symop_operation_xyz
x,y,z
-x,y,-z
-x,-y,-z
x,-y,z
loop_
_atom_site_type_symbol
_atom_site_label
_atom_site_fract_x
_atom_site_fract_y
_atom_site_fract_z
Si Si1 0.523260 0.829874 0.651153
Si Si2 0.276453 0.168259 0.650384
Si Si3 0.371981 0.334168 0.500229
Si Si4 0.894594 0.168410 0.178939
Si Si5 0.515400 0.828105 0.181355
Si Si6 0.838788 0.829081 0.933893
Si Si7 0.393169 0.827699 0.077470
Si Si8 0.234278 0.674376 0.908140
O O1 0.388890 0.787990 0.666783
O O2 0.621809 0.743690 0.577114
O O3 0.537433 0.783407 0.728029
O O4 0.549268 0.000000 0.632358
O O5 0.273812 0.260593 0.579322
O O6 0.156640 0.201562 0.728859
O O7 0.285830 0.000000 0.625020
O O8 0.500000 0.318788 0.500000
O O9 0.332884 0.500000 0.498991
O O10 0.832818 0.276934 0.142496
O O11 0.036041 0.196775 0.141454
O O12 0.864762 0.000000 0.166252
O O13 0.413936 0.789548 0.153128
O O14 0.632050 0.736215 0.128714
O O15 0.550435 0.000000 0.169945
O O16 0.734936 0.767938 0.912148
O O17 0.820405 0.000000 0.958024
O O18 0.839411 0.737252 0.005084
O O19 0.393803 0.000000 0.065747
O O20 0.500000 0.757820 0.000000
O O21 0.237712 0.500000 0.910757
#
# Coordination Sequence:
#
# PCOD8058772 Si02
#       8
#     4   4   4   4   4   4   4   4
#     4   9  16  27  45  66  91 121 154 190 228 277
#     4   9  16  28  45  66  91 121 155 187 227 278
#     4   9  17  27  41  64  95 125 150 181 227 279
#     4  10  20  34  51  70  94 127 164 198 234 285
#     4  10  18  32  52  72  95 126 163 197 239 286
#     4  10  20  35  53  70  91 125 166 202 239 283
#     4   9  16  29  53  75  91 117 159 207 243 278
#     4  12  23  32  46  69  99 129 161 199 240 281
#
# _framework density 16.469612999999999
#
# number of rings (size 3 to 8) (size 9 to 14) (size 15 to 20)
#    0.000    2.250    2.500    1.875    0.000    4.500 
#    0.000    1.250    0.000    0.000    0.000    0.875 
#    0.000    7.000    0.000    0.000    0.000    0.000 
#
# Total GULP energy -396782.594082 kJ/mol
# GULP energy per Si atom -12399.456065 kJ/mol
# Density = 1.643213 g / cm^3
# Si number density = 16.469613 Si / 1000 Ang^3
#
#
#
# Elastic Constant Matrix: (Units=GPa)
#
#
# Indices 1 2 3 4 5 6 
#
# 1 44.8748 19.4538 34.9001 0.0000 -5.3519 0.0000
# 2 19.4538 69.6939 52.1378 0.0000 0.4021 0.0000
# 3 34.9001 52.1378 142.2524 0.0000 7.7492 0.0000
# 4 0.0000 0.0000 0.0000 9.2028 0.0000 -0.7122
# 5 -5.3519 0.4021 7.7492 0.0000 20.5352 0.0000
# 6 0.0000 0.0000 0.0000 -0.7122 0.0000 6.5785
#
#
#
# Elastic Compliance Matrix: (Units=1/GPa)
#
#
# Indices 1 2 3 4 5 6 
#
# 1 0.030274 -0.003481 -0.006723 0.000000 0.010495 0.000000
# 2 -0.003481 0.020285 -0.006646 0.000000 0.001204 0.000000
# 3 -0.006723 -0.006646 0.011439 0.000000 -0.005939 0.000000
# 4 0.000000 0.000000 0.000000 0.109581 0.000000 0.011864
# 5 0.010495 0.001204 -0.005939 0.000000 0.053649 0.000000
# 6 0.000000 0.000000 0.000000 0.011864 0.000000 0.153296
#
#
# Mechanical properties :
#
#
# Convention : Reuss Voigt Hill
#
# Bulk Modulus (GPa) = 35.34045 52.20050 43.77047
# Shear Modulus (GPa) = 11.85797 17.28526 14.57162
#
# Velocity S-wave (km/s) = 2.68618 3.24315 2.97771
# Velocity P-wave (km/s) = 5.57900 6.76667 6.20134
#
# Compressibility (1/GPa) = 0.02829619
#
# Stress axis : x y z
#
# Youngs Moduli (GPa) = 33.03189 49.29650 87.42245
#
# Poissons Ratio (x) = 0.17162 0.58775
# Poissons Ratio (y) = 0.11500 0.58104
# Poissons Ratio (z) = 0.22208 0.32764
#
# Static dielectric constant tensor:
#      x y z
#    x 2.959190 0.000000 0.071510 
#    y 0.000000 2.965200 0.000000 
#    z 0.071510 0.000000 3.229430 
# 
# 
# High freq. dielectric constant tensor:
#      x y z
#    x 1.596610 0.000000 0.009520 
#    y 0.000000 1.617550 0.000000 
#    z 0.009520 0.000000 1.640030 
# 
# From -- ./inp_files/54859.got.cif
#   From: 2010.06.25/outbox.cif.g09.slc.cpg/sg10_28_cif.got.tgz:54859.got - 2010.06.27 22:07:45.
