data_PCOD8058059
_publ_section_title
;
Structure prediction by ZEFSAII (Michael W. Deem and Ramdas Pophale) SiO2 
 PCOD8058059
Probable space group: P 2/M
;
_chemical_formula_sum "Si O2"
_cell_formula_units_Z 32
_cell_length_a 30.454557
_cell_length_b 13.299130
_cell_length_c 9.450770
_cell_angle_alpha 90.000000
_cell_angle_beta 151.446048
_cell_angle_gamma 90.000000
_cell_volume 1829.607615
_symmetry_space_group_name_H-M "P 2/M"
_symmetry_group_IT_number 10
_symmetry_cell_setting 'monoclinic'
loop_
_space_group_symop_operation_xyz
x,y,z
-x,y,-z
-x,-y,-z
x,-y,z
loop_
_atom_site_type_symbol
_atom_site_label
_atom_site_fract_x
_atom_site_fract_y
_atom_site_fract_z
Si Si1 0.453268 0.614396 0.716310
Si Si2 0.857747 0.884551 0.166584
Si Si3 0.234730 0.384694 0.768766
Si Si4 0.202779 0.616997 0.261780
Si Si5 0.954385 0.884560 0.148712
Si Si6 0.259528 0.701969 0.138897
Si Si7 0.087791 0.293645 0.163870
Si Si8 0.630925 0.616067 0.080529
O O1 0.420731 0.500000 0.586399
O O2 0.367480 0.690179 0.474715
O O3 0.500000 0.615156 0.000000
O O4 0.528655 0.659493 0.818510
O O5 0.882116 0.866307 0.070835
O O6 0.944273 0.854992 0.509556
O O7 0.830395 0.000000 0.113851
O O8 0.769694 0.818180 0.964208
O O9 0.202364 0.500000 0.646747
O O10 0.170346 0.303802 0.508970
O O11 0.337328 0.369871 0.992816
O O12 0.234869 0.364658 0.934034
O O13 0.214505 0.500000 0.277776
O O14 0.196668 0.663058 0.089067
O O15 0.109684 0.640428 0.085759
O O16 0.290880 0.663078 0.594985
O O17 0.952004 0.000000 0.093895
O O18 0.927539 0.820281 0.934051
O O19 0.000000 0.335078 0.000000
O O20 0.622444 0.500000 0.099113
#
# Coordination Sequence:
#
# PCOD8058059 Si02
#       8
#     4   4   4   4   4   4   4   4
#     4  10  18  29  52  83 108 136 181 228 261 305
#     4   9  19  36  58  82 106 129 168 233 289 315
#     4  10  22  35  49  75 116 153 178 215 260 311
#     4  10  19  32  51  73 104 144 183 219 252 307
#     4   9  18  36  60  81 100 129 176 234 280 315
#     4  12  20  33  55  81 104 138 183 224 267 322
#     4  11  21  35  52  75 106 146 180 213 266 325
#     4   8  16  32  48  70 106 142 175 215 263 298
#
# _framework density 17.490089000000001
#
# number of rings (size 3 to 8) (size 9 to 14) (size 15 to 20)
#    0.000    2.125    2.500    3.750    0.000    1.750 
#    0.000    2.500    0.000    2.625    0.000    2.625 
#    0.000    0.000    0.000    0.000    0.000    0.000 
#
# Total GULP energy -396591.515699 kJ/mol
# GULP energy per Si atom -12393.484866 kJ/mol
# Density = 1.745028 g / cm^3
# Si number density = 17.490089 Si / 1000 Ang^3
#
#
#
# Elastic Constant Matrix: (Units=GPa)
#
#
# Indices 1 2 3 4 5 6 
#
# 1 119.1289 32.5011 44.1975 0.0000 6.4850 0.0000
# 2 32.5011 72.9378 46.0784 0.0000 9.1296 0.0000
# 3 44.1975 46.0784 73.8821 0.0000 7.0544 0.0000
# 4 0.0000 0.0000 0.0000 24.4207 0.0000 -0.5048
# 5 6.4850 9.1296 7.0544 0.0000 34.6417 0.0000
# 6 0.0000 0.0000 0.0000 -0.5048 0.0000 26.1787
#
#
#
# Elastic Compliance Matrix: (Units=1/GPa)
#
#
# Indices 1 2 3 4 5 6 
#
# 1 0.010864 -0.001153 -0.005726 0.000000 -0.000564 0.000000
# 2 -0.001153 0.023089 -0.013411 0.000000 -0.003138 0.000000
# 3 -0.005726 -0.013411 0.025378 0.000000 -0.000562 0.000000
# 4 0.000000 0.000000 0.000000 0.040965 0.000000 0.000790
# 5 -0.000564 -0.003138 -0.000562 0.000000 0.029914 0.000000
# 6 0.000000 0.000000 0.000000 0.000790 0.000000 0.038214
#
#
# Mechanical properties :
#
#
# Convention : Reuss Voigt Hill
#
# Bulk Modulus (GPa) = 53.32883 56.83366 55.08124
# Shear Modulus (GPa) = 23.22833 26.59301 24.91067
#
# Velocity S-wave (km/s) = 3.64824 3.90354 3.77805
# Velocity P-wave (km/s) = 6.95006 7.27201 7.11286
#
# Compressibility (1/GPa) = 0.01875158
#
# Stress axis : x y z
#
# Youngs Moduli (GPa) = 92.04778 43.31054 39.40411
#
# Poissons Ratio (x) = 0.04993 0.22563
# Poissons Ratio (y) = 0.10613 0.52844
# Poissons Ratio (z) = 0.52707 0.58082
#
# Static dielectric constant tensor:
#      x y z
#    x 3.538070 0.000000 0.120700 
#    y 0.000000 3.013800 0.000000 
#    z 0.120700 0.000000 3.203490 
# 
# 
# High freq. dielectric constant tensor:
#      x y z
#    x 1.693060 0.000000 -0.001790 
#    y 0.000000 1.638990 0.000000 
#    z -0.001790 0.000000 1.658670 
# 
# From -- ./inp_files/38312.got.cif
#   From: 2010.06.25/outbox.cif.g09.slc.cpg/sg10_20_cif.got.tgz:38312.got - 2010.06.27 22:07:45.
