data_PCOD8058275
_publ_section_title
;
Structure prediction by ZEFSAII (Michael W. Deem and Ramdas Pophale) SiO2 
 PCOD8058275
Probable space group: P 2/M
;
_chemical_formula_sum "Si O2"
_cell_formula_units_Z 24
_cell_length_a 18.457599
_cell_length_b 8.390211
_cell_length_c 9.257060
_cell_angle_alpha 90.000000
_cell_angle_beta 62.803179
_cell_angle_gamma 90.000000
_cell_volume 1275.083633
_symmetry_space_group_name_H-M "P 2/M"
_symmetry_group_IT_number 10
_symmetry_cell_setting 'monoclinic'
loop_
_space_group_symop_operation_xyz
x,y,z
-x,y,-z
-x,-y,-z
x,-y,z
loop_
_atom_site_type_symbol
_atom_site_label
_atom_site_fract_x
_atom_site_fract_y
_atom_site_fract_z
Si Si1 0.083860 0.313752 0.990427
Si Si2 0.255474 0.688918 0.337175
Si Si3 0.819436 0.185423 0.858729
Si Si4 0.768318 0.184127 0.323480
Si Si5 0.585192 0.310602 0.977136
Si Si6 0.674451 0.683007 0.166990
O O1 0.077572 0.500000 0.027749
O O2 0.156576 0.281300 0.811466
O O3 0.096598 0.222988 0.132873
O O4 0.000000 0.248191 0.000000
O O5 0.248130 0.500000 0.348923
O O6 0.181105 0.761954 0.308882
O O7 0.249321 0.759059 0.500798
O O8 0.341262 0.749306 0.191809
O O9 0.797196 0.000000 0.895351
O O10 0.754099 0.299173 0.995578
O O11 0.686361 0.214485 0.302082
O O12 0.791081 0.000000 0.299752
O O13 0.582473 0.500000 0.971126
O O14 0.500000 0.235677 0.000000
O O15 0.599518 0.259443 0.132458
O O16 0.663369 0.500000 0.222946
#
# Coordination Sequence:
#
# PCOD8058275 Si02
#       6
#     4   4   4   4   4   4
#     4  10  20  35  55  77 101 130 165 203 244 293
#     4  10  19  33  53  74 100 132 168 208 248 295
#     4  10  18  30  50  74 101 131 165 202 242 294
#     4  11  21  33  51  74 102 132 166 207 248 294
#     4   8  15  29  51  77  99 124 165 212 250 288
#     4   9  16  29  50  72  97 131 169 204 242 294
#
# _framework density 18.822296000000001
#
# number of rings (size 3 to 8) (size 9 to 14) (size 15 to 20)
#    0.000    2.333    0.000    7.500    0.000    1.333 
#    0.000    1.667    0.000   28.000    0.000    0.000 
#    0.000    0.000    0.000    0.000    0.000    0.000 
#
# Total GULP energy -297434.536645 kJ/mol
# GULP energy per Si atom -12393.105694 kJ/mol
# Density = 1.877946 g / cm^3
# Si number density = 18.822296 Si / 1000 Ang^3
#
#
#
# Elastic Constant Matrix: (Units=GPa)
#
#
# Indices 1 2 3 4 5 6 
#
# 1 151.1372 18.4420 54.0512 0.0000 39.5151 0.0000
# 2 18.4420 51.2061 11.4419 0.0000 13.8940 0.0000
# 3 54.0512 11.4419 94.8315 0.0000 39.6274 0.0000
# 4 0.0000 0.0000 0.0000 16.5105 0.0000 6.9571
# 5 39.5151 13.8940 39.6274 0.0000 33.2071 0.0000
# 6 0.0000 0.0000 0.0000 6.9571 0.0000 9.8148
#
#
#
# Elastic Compliance Matrix: (Units=1/GPa)
#
#
# Indices 1 2 3 4 5 6 
#
# 1 0.009713 -0.000575 -0.001471 0.000000 -0.009562 0.000000
# 2 -0.000575 0.022337 0.002498 0.000000 -0.011642 0.000000
# 3 -0.001471 0.002498 0.021517 0.000000 -0.024972 0.000000
# 4 0.000000 0.000000 0.000000 0.086363 0.000000 -0.061216
# 5 -0.009562 -0.011642 -0.024972 0.000000 0.076163 0.000000
# 6 0.000000 0.000000 0.000000 -0.061216 0.000000 0.145279
#
#
# Mechanical properties :
#
#
# Convention : Reuss Voigt Hill
#
# Bulk Modulus (GPa) = 18.35874 51.67166 35.01520
# Shear Modulus (GPa) = 13.20570 26.12246 19.66408
#
# Velocity S-wave (km/s) = 2.65164 3.72942 3.23572
# Velocity P-wave (km/s) = 4.37605 6.78651 5.70993
#
# Compressibility (1/GPa) = 0.05446998
#
# Stress axis : x y z
#
# Youngs Moduli (GPa) = 102.95842 44.76911 46.47462
#
# Poissons Ratio (x) = 0.02574 0.06836
# Poissons Ratio (y) = 0.05919 -0.11607
# Poissons Ratio (z) = 0.15145 -0.11181
#
# Static dielectric constant tensor:
#      x y z
#    x 4.181820 0.000000 0.411640 
#    y 0.000000 3.307820 0.000000 
#    z 0.411640 0.000000 3.335060 
# 
# 
# High freq. dielectric constant tensor:
#      x y z
#    x 1.735940 0.000000 0.041210 
#    y 0.000000 1.727100 0.000000 
#    z 0.041210 0.000000 1.698660 
# 
# From -- ./inp_files/31222.got.cif
#   From: 2010.06.25/outbox.cif.g09.slc.cpg/sg10_16_cif.got.tgz:31222.got - 2010.06.27 22:07:45.
