data_PCOD8058071
_publ_section_title
;
Structure prediction by ZEFSAII (Michael W. Deem and Ramdas Pophale) SiO2 
 PCOD8058071
Probable space group: P 2/M
;
_chemical_formula_sum "Si O2"
_cell_formula_units_Z 26
_cell_length_a 19.972490
_cell_length_b 10.689654
_cell_length_c 20.278951
_cell_angle_alpha 90.000000
_cell_angle_beta 158.970892
_cell_angle_gamma 90.000000
_cell_volume 1553.620151
_symmetry_space_group_name_H-M "P 2/M"
_symmetry_group_IT_number 10
_symmetry_cell_setting 'monoclinic'
loop_
_space_group_symop_operation_xyz
x,y,z
-x,y,-z
-x,-y,-z
x,-y,z
loop_
_atom_site_type_symbol
_atom_site_label
_atom_site_fract_x
_atom_site_fract_y
_atom_site_fract_z
Si Si1 0.101518 0.363792 0.661401
Si Si2 0.303198 0.856193 0.556774
Si Si3 0.205389 0.851381 0.204600
Si Si4 0.501763 0.143251 0.867065
Si Si5 0.433977 0.149003 0.538823
Si Si6 0.500000 0.716454 0.000000
Si Si7 0.923803 0.859208 0.265687
O O1 0.049165 0.500000 0.644716
O O2 0.034271 0.246650 0.642156
O O3 0.000000 0.346038 0.500000
O O4 0.323446 0.367873 0.854700
O O5 0.388050 0.794012 0.701600
O O6 0.381982 0.792410 0.562476
O O7 0.078088 0.843843 0.350209
O O8 0.367443 0.000000 0.615310
O O9 0.355915 0.809094 0.287452
O O10 0.282227 0.802456 0.345790
O O11 0.191905 0.000000 0.193233
O O12 0.000000 0.794106 0.000000
O O13 0.442833 0.000000 0.819634
O O14 0.450019 0.201280 0.889895
O O15 0.719008 0.160372 0.047656
O O16 0.421349 0.000000 0.528844
O O17 0.939421 0.000000 0.311265
#
# Coordination Sequence:
#
# PCOD8058071 Si02
#       7
#     4   4   4   4   4   2   4
#     4  10  20  32  46  64  84 107 138 176 218 261
#     4   9  16  26  39  56  81 109 138 176 215 250
#     4   8  13  21  32  47  70 102 138 171 201 237
#     4   9  17  27  40  59  80 104 137 176 217 257
#     4   8  14  22  32  49  72 101 138 172 202 241
#     4  10  18  30  46  60  79 106 137 174 215 258
#     4   9  18  30  43  61  83 108 140 174 211 256
#
# _framework density 16.735106999999999
#
# number of rings (size 3 to 8) (size 9 to 14) (size 15 to 20)
#    0.000    3.077    0.000    2.308    0.000    2.154 
#    0.000    6.154    0.000    0.000    0.000    0.000 
#    0.000    0.000    0.000    2.769    0.000   36.308 
#
# Total GULP energy -322115.937720 kJ/mol
# GULP energy per Si atom -12389.074528 kJ/mol
# Density = 1.669702 g / cm^3
# Si number density = 16.735107 Si / 1000 Ang^3
#
#
#
# Elastic Constant Matrix: (Units=GPa)
#
#
# Indices 1 2 3 4 5 6 
#
# 1 117.9689 20.4639 42.3586 0.0000 -0.8836 0.0000
# 2 20.4639 46.0126 10.0133 0.0000 1.4500 0.0000
# 3 42.3586 10.0133 87.6165 0.0000 4.8095 0.0000
# 4 0.0000 0.0000 0.0000 8.4078 0.0000 -0.0234
# 5 -0.8836 1.4500 4.8095 0.0000 23.3349 0.0000
# 6 0.0000 0.0000 0.0000 -0.0234 0.0000 2.6184
#
#
#
# Elastic Compliance Matrix: (Units=1/GPa)
#
#
# Indices 1 2 3 4 5 6 
#
# 1 0.010927 -0.003838 -0.004936 0.000000 0.001670 0.000000
# 2 -0.003838 0.023653 -0.000768 0.000000 -0.001457 0.000000
# 3 -0.004936 -0.000768 0.014054 0.000000 -0.003036 0.000000
# 4 0.000000 0.000000 0.000000 0.118940 0.000000 0.001063
# 5 0.001670 -0.001457 -0.003036 0.000000 0.043634 0.000000
# 6 0.000000 0.000000 0.000000 0.001063 0.000000 0.381924
#
#
# Mechanical properties :
#
#
# Convention : Reuss Voigt Hill
#
# Bulk Modulus (GPa) = 33.83983 44.14109 38.99046
# Shear Modulus (GPa) = 8.03771 18.78969 13.41370
#
# Velocity S-wave (km/s) = 2.19393 3.35441 2.83420
# Velocity P-wave (km/s) = 5.16551 6.43711 5.83605
#
# Compressibility (1/GPa) = 0.02955097
#
# Stress axis : x y z
#
# Youngs Moduli (GPa) = 91.51237 42.27752 71.15398
#
# Poissons Ratio (x) = 0.16228 0.35121
# Poissons Ratio (y) = 0.35126 0.05461
# Poissons Ratio (z) = 0.45170 0.03245
#
# Static dielectric constant tensor:
#      x y z
#    x 3.326120 0.000000 -0.193720 
#    y 0.000000 2.695930 0.000000 
#    z -0.193720 0.000000 4.194380 
# 
# 
# High freq. dielectric constant tensor:
#      x y z
#    x 1.636300 0.000000 0.008510 
#    y 0.000000 1.578310 0.000000 
#    z 0.008510 0.000000 1.659740 
# 
# From -- ./inp_files/86232.got.cif
#   From: 2010.06.25/outbox.cif.g09.slc.cpg/sg10_44_cif.got.tgz:86232.got - 2010.06.27 22:07:45.
