data_PCOD8058287
_publ_section_title
;
Structure prediction by ZEFSAII (Michael W. Deem and Ramdas Pophale) SiO2 
 PCOD8058287
Probable space group: P 2/M
;
_chemical_formula_sum "Si O2"
_cell_formula_units_Z 32
_cell_length_a 23.817970
_cell_length_b 9.422284
_cell_length_c 15.082858
_cell_angle_alpha 90.000000
_cell_angle_beta 149.905187
_cell_angle_gamma 90.000000
_cell_volume 1697.293625
_symmetry_space_group_name_H-M "P 2/M"
_symmetry_group_IT_number 10
_symmetry_cell_setting 'monoclinic'
loop_
_space_group_symop_operation_xyz
x,y,z
-x,y,-z
-x,-y,-z
x,-y,z
loop_
_atom_site_type_symbol
_atom_site_label
_atom_site_fract_x
_atom_site_fract_y
_atom_site_fract_z
Si Si1 0.884345 0.658655 0.317982
Si Si2 0.075505 0.334317 0.274444
Si Si3 0.262507 0.668847 0.394641
Si Si4 0.512616 0.331565 0.780155
Si Si5 0.281242 0.668445 0.052607
Si Si6 0.782986 0.343525 0.369089
Si Si7 0.405518 0.844616 0.940954
Si Si8 0.825128 0.669323 0.912657
O O1 0.916366 0.500000 0.328274
O O2 0.811134 0.651385 0.305053
O O3 0.000000 0.741265 0.500000
O O4 0.811117 0.734589 0.141603
O O5 0.066434 0.500000 0.241995
O O6 0.169702 0.270280 0.336551
O O7 0.111770 0.302024 0.425165
O O8 0.951866 0.268115 0.091286
O O9 0.262525 0.500000 0.396305
O O10 0.387029 0.723530 0.588750
O O11 0.231342 0.725602 0.254416
O O12 0.515583 0.500000 0.801034
O O13 0.593251 0.289354 0.807137
O O14 0.558454 0.256673 0.930127
O O15 0.270583 0.500000 0.033982
O O16 0.251643 0.725164 0.110438
O O17 0.739551 0.500000 0.340385
O O18 0.688575 0.226251 0.249595
O O19 0.367290 0.000000 0.925411
O O20 0.500000 0.870314 0.000000
O O21 0.829142 0.500000 0.920348
#
# Coordination Sequence:
#
# PCOD8058287 Si02
#       8
#     4   4   4   4   4   4   4   4
#     4   9  15  24  41  68  98 125 158 200 241 284
#     4   9  16  26  42  68  99 132 168 200 241 297
#     4   9  17  27  42  66  99 135 165 202 250 295
#     4  10  19  33  51  73 101 129 165 207 248 298
#     4   9  16  26  41  65  96 128 161 199 243 290
#     4  10  18  30  50  75 100 131 166 201 243 290
#     4  11  23  36  50  71 100 133 167 205 251 301
#     4   9  16  26  41  67 103 134 160 201 253 295
#
# _framework density 18.853542999999998
#
# number of rings (size 3 to 8) (size 9 to 14) (size 15 to 20)
#    0.000    2.500    1.250    2.250    0.000    7.000 
#    0.000    2.500    0.000    0.375    0.000    2.625 
#    0.000    4.000    0.000    0.000    0.000    0.000 
#
# Total GULP energy -396521.089658 kJ/mol
# GULP energy per Si atom -12391.284052 kJ/mol
# Density = 1.881063 g / cm^3
# Si number density = 18.853543 Si / 1000 Ang^3
#
#
#
# Elastic Constant Matrix: (Units=GPa)
#
#
# Indices 1 2 3 4 5 6 
#
# 1 98.3627 10.8584 33.3031 0.0000 0.2803 0.0000
# 2 10.8584 34.6013 24.2929 0.0000 2.4515 0.0000
# 3 33.3031 24.2929 114.1158 0.0000 2.9445 0.0000
# 4 0.0000 0.0000 0.0000 -19.7854 0.0000 -1.1076
# 5 0.2803 2.4515 2.9445 0.0000 39.4592 0.0000
# 6 0.0000 0.0000 0.0000 -1.1076 0.0000 5.3482
#
#
#
# Elastic Compliance Matrix: (Units=1/GPa)
#
#
# Indices 1 2 3 4 5 6 
#
# 1 0.011345 -0.001467 -0.003005 0.000000 0.000235 0.000000
# 2 -0.001467 0.034267 -0.006825 0.000000 -0.001609 0.000000
# 3 -0.003005 -0.006825 0.011103 0.000000 -0.000383 0.000000
# 4 0.000000 0.000000 0.000000 -0.049963 0.000000 -0.010347
# 5 0.000235 -0.001609 -0.000383 0.000000 0.025470 0.000000
# 6 0.000000 0.000000 0.000000 -0.010347 0.000000 0.184835
#
#
# Mechanical properties :
#
#
# Convention : Reuss Voigt Hill
#
# Bulk Modulus (GPa) = 29.30779 42.66541 35.98660
# Shear Modulus (GPa) = 19.91845 16.91276 18.41560
#
# Velocity S-wave (km/s) = 3.25388 2.99835 3.12873
# Velocity P-wave (km/s) = 5.44938 5.88777 5.67281
#
# Compressibility (1/GPa) = 0.03412063
#
# Stress axis : x y z
#
# Youngs Moduli (GPa) = 88.14415 29.18279 90.06855
#
# Poissons Ratio (x) = 0.04282 0.27062
# Poissons Ratio (y) = 0.12934 0.61471
# Poissons Ratio (z) = 0.26484 0.19917
#
# Static dielectric constant tensor:
#      x y z
#    x 3.667590 0.000000 0.048500 
#    y 0.000000 2.929680 0.000000 
#    z 0.048500 0.000000 3.861810 
# 
# 
# High freq. dielectric constant tensor:
#      x y z
#    x 1.742730 0.000000 0.002550 
#    y 0.000000 1.641670 0.000000 
#    z 0.002550 0.000000 1.746530 
# 
# From -- ./inp_files/64395.got.cif
#   From: 2010.06.25/outbox.cif.g09.slc.cpg/sg10_33_cif.got.tgz:64395.got - 2010.06.27 22:07:45.
