data_PCOD8058060
_publ_section_title
;
Structure prediction by ZEFSAII (Michael W. Deem and Ramdas Pophale) SiO2 
 PCOD8058060
Probable space group: P 2/M
;
_chemical_formula_sum "Si O2"
_cell_formula_units_Z 20
_cell_length_a 8.598144
_cell_length_b 11.878323
_cell_length_c 15.938546
_cell_angle_alpha 90.000000
_cell_angle_beta 37.791713
_cell_angle_gamma 90.000000
_cell_volume 997.521288
_symmetry_space_group_name_H-M "P 2/M"
_symmetry_group_IT_number 10
_symmetry_cell_setting 'monoclinic'
loop_
_space_group_symop_operation_xyz
x,y,z
-x,y,-z
-x,-y,-z
x,-y,z
loop_
_atom_site_type_symbol
_atom_site_label
_atom_site_fract_x
_atom_site_fract_y
_atom_site_fract_z
Si Si1 0.928895 0.701479 0.164180
Si Si2 0.684706 0.500000 0.341360
Si Si3 0.053231 0.721020 0.379875
Si Si4 0.790775 0.132536 0.359049
Si Si5 0.822895 0.500000 0.495607
Si Si6 0.619447 0.635716 0.134458
O O1 0.861794 0.608324 0.262843
O O2 0.885964 0.820455 0.228456
O O3 0.742410 0.686565 0.165534
O O4 0.218975 0.683195 0.012932
O O5 0.500000 0.500000 0.500000
O O6 0.477062 0.500000 0.352140
O O7 0.343912 0.688499 0.242346
O O8 0.000000 0.750071 0.500000
O O9 0.971302 0.825554 0.357711
O O10 0.887063 0.613999 0.418200
O O11 0.500000 0.168491 0.500000
O O12 0.820449 0.000000 0.341411
O O13 0.000000 0.500000 0.500000
O O14 0.624557 0.500000 0.130918
#
# Coordination Sequence:
#
# PCOD8058060 Si02
#       6
#     4   2   4   4   2   4
#     4  11  21  39  62  92 127 165 206 251 311 374
#     4  12  20  30  56  88 119 153 198 242 303 370
#     4  11  22  38  64  95 128 162 205 255 316 373
#     4  11  25  45  64  87 122 167 218 265 302 356
#     4  10  18  29  52  84 120 146 183 242 302 356
#     4  11  21  40  63  95 133 164 195 254 321 384
#
# _framework density 20.049696000000001
#
# number of rings (size 3 to 8) (size 9 to 14) (size 15 to 20)
#    0.000    1.000    3.000    7.200    0.000    1.200 
#    0.000    6.000    0.000    0.000    0.000    0.000 
#    0.000    0.000    0.000    0.000    0.000    0.000 
#
# Total GULP energy -247912.303590 kJ/mol
# GULP energy per Si atom -12395.615180 kJ/mol
# Density = 2.000406 g / cm^3
# Si number density = 20.049696 Si / 1000 Ang^3
#
#
#
# Elastic Constant Matrix: (Units=GPa)
#
#
# Indices 1 2 3 4 5 6 
#
# 1 88.4318 52.6848 56.3647 0.0000 0.2960 0.0000
# 2 52.6848 115.5540 68.0250 0.0000 3.4241 0.0000
# 3 56.3647 68.0250 173.6615 0.0000 0.0647 0.0000
# 4 0.0000 0.0000 0.0000 25.3099 0.0000 1.6634
# 5 0.2960 3.4241 0.0647 0.0000 38.4087 0.0000
# 6 0.0000 0.0000 0.0000 1.6634 0.0000 31.9091
#
#
#
# Elastic Compliance Matrix: (Units=1/GPa)
#
#
# Indices 1 2 3 4 5 6 
#
# 1 0.016784 -0.005793 -0.003179 0.000000 0.000392 0.000000
# 2 -0.005793 0.013285 -0.003323 0.000000 -0.001134 0.000000
# 3 -0.003179 -0.003323 0.008092 0.000000 0.000307 0.000000
# 4 0.000000 0.000000 0.000000 0.039646 0.000000 -0.002067
# 5 0.000392 -0.001134 0.000307 0.000000 0.026133 0.000000
# 6 0.000000 0.000000 0.000000 -0.002067 0.000000 0.031447
#
#
# Mechanical properties :
#
#
# Convention : Reuss Voigt Hill
#
# Bulk Modulus (GPa) = 73.68488 81.31070 77.49779
# Shear Modulus (GPa) = 30.39514 32.49707 31.44611
#
# Velocity S-wave (km/s) = 3.89780 4.03032 3.96461
# Velocity P-wave (km/s) = 7.55566 7.89307 7.72621
#
# Compressibility (1/GPa) = 0.01357131
#
# Stress axis : x y z
#
# Youngs Moduli (GPa) = 59.58074 75.27232 123.58422
#
# Poissons Ratio (x) = 0.43604 0.39282
# Poissons Ratio (y) = 0.34514 0.41071
# Poissons Ratio (z) = 0.18938 0.25016
#
# Static dielectric constant tensor:
#      x y z
#    x 3.963480 0.000000 -0.167030 
#    y 0.000000 3.628320 0.000000 
#    z -0.167030 0.000000 4.027990 
# 
# 
# High freq. dielectric constant tensor:
#      x y z
#    x 1.791390 0.000000 -0.000340 
#    y 0.000000 1.758270 0.000000 
#    z -0.000340 0.000000 1.799800 
# 
# From -- ./inp_files/74699.got.cif
#   From: 2010.06.25/outbox.cif.g09.slc.cpg/sg10_38_cif.got.tgz:74699.got - 2010.06.27 22:07:45.
