data_PCOD8058938
_publ_section_title
;
Structure prediction by ZEFSAII (Michael W. Deem and Ramdas Pophale) SiO2 
 PCOD8058938
Probable space group: P 2/M
;
_chemical_formula_sum "Si O2"
_cell_formula_units_Z 32
_cell_length_a 20.345182
_cell_length_b 8.591287
_cell_length_c 26.182297
_cell_angle_alpha 90.000000
_cell_angle_beta 158.595943
_cell_angle_gamma 90.000000
_cell_volume 1670.137563
_symmetry_space_group_name_H-M "P 2/M"
_symmetry_group_IT_number 10
_symmetry_cell_setting 'monoclinic'
loop_
_space_group_symop_operation_xyz
x,y,z
-x,y,-z
-x,-y,-z
x,-y,z
loop_
_atom_site_type_symbol
_atom_site_label
_atom_site_fract_x
_atom_site_fract_y
_atom_site_fract_z
Si Si1 0.126378 0.318536 0.403861
Si Si2 0.198730 0.185726 0.156108
Si Si3 0.495104 0.815463 0.291386
Si Si4 0.305394 0.185175 0.343984
Si Si5 0.208676 0.815650 0.790712
Si Si6 0.616417 0.815549 0.898763
Si Si7 0.984095 0.815919 0.783244
Si Si8 0.487982 0.815533 0.912060
O O1 0.163440 0.500000 0.433413
O O2 0.311846 0.231095 0.547998
O O3 0.982230 0.270152 0.342869
O O4 0.048520 0.271344 0.292984
O O5 0.340001 0.250060 0.216625
O O6 0.254305 0.251715 0.251600
O O7 0.199184 0.000000 0.156542
O O8 0.000000 0.249612 0.000000
O O9 0.461694 0.745363 0.210437
O O10 0.482611 0.000000 0.280849
O O11 0.500000 0.251988 0.500000
O O12 0.162310 0.242778 0.282064
O O13 0.307817 0.000000 0.344111
O O14 0.301031 0.764864 0.803727
O O15 0.176630 0.000000 0.770063
O O16 0.339623 0.757603 0.930931
O O17 0.500987 0.750305 0.863581
O O18 0.601156 0.000000 0.886083
O O19 0.823486 0.766370 0.055059
O O20 0.972673 0.000000 0.764816
O O21 0.498635 0.000000 0.919832
#
# Coordination Sequence:
#
# PCOD8058938 Si02
#       8
#     4   4   4   4   4   4   4   4
#     4  12  24  36  50  74 109 145 180 218 257 307
#     4   9  16  28  48  78 108 130 163 213 266 314
#     4  10  20  34  55  79 108 144 175 211 263 319
#     4   9  16  25  42  72 104 130 160 203 254 305
#     4   9  16  31  56  80 104 136 170 212 265 313
#     4   9  16  29  53  84 105 126 171 221 261 306
#     4  10  18  32  56  79 102 133 172 220 268 314
#     4   8  14  27  53  85 108 127 164 219 265 308
#
# _framework density 19.160098000000001
#
# number of rings (size 3 to 8) (size 9 to 14) (size 15 to 20)
#    0.000    2.500    1.250    3.375    0.000    5.000 
#    0.000    2.500    0.000    7.500    0.000    0.000 
#    0.000    0.000    0.000    0.000    0.000    0.000 
#
# Total GULP energy -396713.748485 kJ/mol
# GULP energy per Si atom -12397.304640 kJ/mol
# Density = 1.911649 g / cm^3
# Si number density = 19.160098 Si / 1000 Ang^3
#
#
#
# Elastic Constant Matrix: (Units=GPa)
#
#
# Indices 1 2 3 4 5 6 
#
# 1 148.6404 12.8749 52.5431 0.0000 18.4938 0.0000
# 2 12.8749 8.7336 3.2830 0.0000 1.8792 0.0000
# 3 52.5431 3.2830 101.8204 0.0000 10.2785 0.0000
# 4 0.0000 0.0000 0.0000 0.7949 0.0000 -1.8805
# 5 18.4938 1.8792 10.2785 0.0000 35.8873 0.0000
# 6 0.0000 0.0000 0.0000 -1.8805 0.0000 2.8336
#
#
#
# Elastic Compliance Matrix: (Units=1/GPa)
#
#
# Indices 1 2 3 4 5 6 
#
# 1 0.009669 -0.011969 -0.004288 0.000000 -0.003128 0.000000
# 2 -0.011969 0.131652 0.002065 0.000000 -0.001317 0.000000
# 3 -0.004288 0.002065 0.012105 0.000000 -0.001365 0.000000
# 4 0.000000 0.000000 0.000000 -2.207537 0.000000 -1.464976
# 5 -0.003128 -0.001317 -0.001365 0.000000 0.029937 0.000000
# 6 0.000000 0.000000 0.000000 -1.464976 0.000000 -0.619289
#
#
# Mechanical properties :
#
#
# Convention : Reuss Voigt Hill
#
# Bulk Modulus (GPa) = 7.99738 44.06628 26.03183
# Shear Modulus (GPa) = -1.94296 20.60274 9.32989
#
# Velocity S-wave (km/s) = -1.00810 3.28272 2.20907
# Velocity P-wave (km/s) = 1.68167 6.11697 4.48583
#
# Compressibility (1/GPa) = 0.12504090
#
# Stress axis : x y z
#
# Youngs Moduli (GPa) = 103.41918 7.59580 82.60861
#
# Poissons Ratio (x) = 0.09092 0.35423
# Poissons Ratio (y) = 1.23786 -0.17056
# Poissons Ratio (z) = 0.44347 -0.01568
#
# Static dielectric constant tensor:
#      x y z
#    x 4.048850 0.000000 0.048690 
#    y 0.000000 2.848610 0.000000 
#    z 0.048690 0.000000 3.530950 
# 
# 
# High freq. dielectric constant tensor:
#      x y z
#    x 1.765350 0.000000 0.009600 
#    y 0.000000 1.678450 0.000000 
#    z 0.009600 0.000000 1.742730 
# 
# From -- ./inp_files/93813.got.cif
#   From: 2010.06.25/outbox.cif.g09.slc.cpg/sg10_47_cif.got.tgz:93813.got - 2010.06.27 22:07:45.
