data_PCOD8058583
_publ_section_title
;
Structure prediction by ZEFSAII (Michael W. Deem and Ramdas Pophale) SiO2 
 PCOD8058583
Probable space group: P 2/M
;
_chemical_formula_sum "Si O2"
_cell_formula_units_Z 32
_cell_length_a 15.684893
_cell_length_b 8.860964
_cell_length_c 14.527165
_cell_angle_alpha 90.000000
_cell_angle_beta 62.394555
_cell_angle_gamma 90.000000
_cell_volume 1789.185304
_symmetry_space_group_name_H-M "P 2/M"
_symmetry_group_IT_number 10
_symmetry_cell_setting 'monoclinic'
loop_
_space_group_symop_operation_xyz
x,y,z
-x,y,-z
-x,-y,-z
x,-y,z
loop_
_atom_site_type_symbol
_atom_site_label
_atom_site_fract_x
_atom_site_fract_y
_atom_site_fract_z
Si Si1 0.845049 0.176639 0.728258
Si Si2 0.048595 0.827166 0.829414
Si Si3 0.848616 0.677584 0.919402
Si Si4 0.774064 0.821923 0.131673
Si Si5 0.066788 0.828519 0.611085
Si Si6 0.389713 0.821875 0.449840
Si Si7 0.607062 0.177605 0.344890
Si Si8 0.774300 0.676942 0.585687
O O1 0.816815 0.252003 0.838601
O O2 0.777757 0.244034 0.683118
O O3 0.955867 0.211162 0.647632
O O4 0.826960 0.000000 0.747074
O O5 0.129599 0.780975 0.860977
O O6 0.091618 0.806210 0.705910
O O7 0.957083 0.722344 0.892192
O O8 0.014324 0.000000 0.859878
O O9 0.840262 0.500000 0.916666
O O10 0.775755 0.738676 0.033174
O O11 0.683157 0.755945 0.233910
O O12 0.764942 0.000000 0.120431
O O13 0.131707 0.716187 0.520510
O O14 0.089656 0.000000 0.568748
O O15 0.371503 0.762254 0.562876
O O16 0.499228 0.782319 0.366897
O O17 0.321631 0.731796 0.415874
O O18 0.369055 0.000000 0.451945
O O19 0.619962 0.000000 0.343908
O O20 0.770067 0.500000 0.602845
#
# Coordination Sequence:
#
# PCOD8058583 Si02
#       8
#     4   4   4   4   4   4   4   4
#     4  10  21  38  56  71  93 132 177 216 251 290
#     4   9  18  32  51  74 102 137 174 210 246 290
#     4  11  22  34  48  71 104 137 169 209 255 300
#     4  10  18  31  52  76 101 133 174 212 248 294
#     4   9  18  33  52  74 100 133 173 211 247 290
#     4   9  17  34  57  79 103 132 168 208 249 292
#     4   8  16  32  57  82 101 128 170 214 247 286
#     4  12  23  32  48  77 108 136 165 201 251 306
#
# _framework density 17.885234000000001
#
# number of rings (size 3 to 8) (size 9 to 14) (size 15 to 20)
#    0.000    2.250    0.000    5.625    0.000    8.000 
#    0.000    3.750    0.000    0.750    0.000    5.250 
#    0.000    0.000    0.000    0.000    0.000    0.000 
#
# Total GULP energy -396854.053502 kJ/mol
# GULP energy per Si atom -12401.689172 kJ/mol
# Density = 1.784453 g / cm^3
# Si number density = 17.885234 Si / 1000 Ang^3
#
#
#
# Elastic Constant Matrix: (Units=GPa)
#
#
# Indices 1 2 3 4 5 6 
#
# 1 98.7342 45.4241 63.4813 0.0000 14.9222 0.0000
# 2 45.4241 83.2646 49.2367 0.0000 5.0869 0.0000
# 3 63.4813 49.2367 131.6793 0.0000 4.1123 0.0000
# 4 0.0000 0.0000 0.0000 9.7307 0.0000 2.9581
# 5 14.9222 5.0869 4.1123 0.0000 20.0202 0.0000
# 6 0.0000 0.0000 0.0000 2.9581 0.0000 14.7878
#
#
#
# Elastic Compliance Matrix: (Units=1/GPa)
#
#
# Indices 1 2 3 4 5 6 
#
# 1 0.018565 -0.005602 -0.006509 0.000000 -0.011077 0.000000
# 2 -0.005602 0.017262 -0.003771 0.000000 0.000564 0.000000
# 3 -0.006509 -0.003771 0.012038 0.000000 0.003337 0.000000
# 4 0.000000 0.000000 0.000000 0.109422 0.000000 -0.021889
# 5 -0.011077 0.000564 0.003337 0.000000 0.057377 0.000000
# 6 0.000000 0.000000 0.000000 -0.021889 0.000000 0.072002
#
#
# Mechanical properties :
#
#
# Convention : Reuss Voigt Hill
#
# Bulk Modulus (GPa) = 62.11407 69.99580 66.05493
# Shear Modulus (GPa) = 15.44180 19.27681 17.35931
#
# Velocity S-wave (km/s) = 2.94152 3.28656 3.11882
# Velocity P-wave (km/s) = 6.80745 7.32277 7.06981
#
# Compressibility (1/GPa) = 0.01609941
#
# Stress axis : x y z
#
# Youngs Moduli (GPa) = 53.86560 57.93201 83.06882
#
# Poissons Ratio (x) = 0.32453 0.54072
# Poissons Ratio (y) = 0.30175 0.31328
# Poissons Ratio (z) = 0.35063 0.21848
#
# Static dielectric constant tensor:
#      x y z
#    x 3.285690 0.000000 0.037730 
#    y 0.000000 3.082310 0.000000 
#    z 0.037730 0.000000 3.508900 
# 
# 
# High freq. dielectric constant tensor:
#      x y z
#    x 1.679570 0.000000 0.011920 
#    y 0.000000 1.674130 0.000000 
#    z 0.011920 0.000000 1.692740 
# 
# From -- ./inp_files/66478.got.cif
#   From: 2010.06.25/outbox.cif.g09.slc.cpg/sg10_34_cif.got.tgz:66478.got - 2010.06.27 22:07:45.
