data_PCOD8058447
_publ_section_title
;
Structure prediction by ZEFSAII (Michael W. Deem and Ramdas Pophale) SiO2 
 PCOD8058447
Probable space group: P 2/M
;
_chemical_formula_sum "Si O2"
_cell_formula_units_Z 32
_cell_length_a 17.526811
_cell_length_b 8.922282
_cell_length_c 23.742482
_cell_angle_alpha 90.000000
_cell_angle_beta 30.702962
_cell_angle_gamma 90.000000
_cell_volume 1895.723672
_symmetry_space_group_name_H-M "P 2/M"
_symmetry_group_IT_number 10
_symmetry_cell_setting 'monoclinic'
loop_
_space_group_symop_operation_xyz
x,y,z
-x,y,-z
-x,-y,-z
x,-y,z
loop_
_atom_site_type_symbol
_atom_site_label
_atom_site_fract_x
_atom_site_fract_y
_atom_site_fract_z
Si Si1 0.418074 0.673056 0.429413
Si Si2 0.694631 0.177384 0.731129
Si Si3 0.836254 0.323829 0.322264
Si Si4 0.886404 0.823432 0.800966
Si Si5 0.942058 0.323220 0.646303
Si Si6 0.721974 0.326749 0.598864
Si Si7 0.370075 0.831016 0.628147
Si Si8 0.447670 0.176249 0.973823
O O1 0.450779 0.500000 0.420880
O O2 0.272017 0.721886 0.557514
O O3 0.389047 0.705533 0.382513
O O4 0.565091 0.764288 0.354885
O O5 0.842809 0.260637 0.658460
O O6 0.666132 0.222841 0.684860
O O7 0.552564 0.236314 0.857070
O O8 0.717378 0.000000 0.721716
O O9 0.860571 0.500000 0.303165
O O10 0.770160 0.265037 0.305016
O O11 0.994659 0.246420 0.231935
O O12 0.895352 0.755488 0.733357
O O13 0.911977 0.000000 0.779965
O O14 0.724222 0.783023 0.929480
O O15 0.919871 0.500000 0.667059
O O16 0.111867 0.281983 0.524804
O O17 0.715714 0.500000 0.621130
O O18 0.500000 0.821922 0.500000
O O19 0.316385 0.000000 0.672875
O O20 0.469333 0.000000 0.964315
O O21 0.500000 0.248714 0.000000
#
# Coordination Sequence:
#
# PCOD8058447 Si02
#       8
#     4   4   4   4   4   4   4   4
#     4   9  17  31  48  67  98 139 166 190 243 301
#     4  11  22  36  53  73  95 129 174 214 250 295
#     4  10  18  31  48  71 102 134 165 199 245 301
#     4  11  20  32  53  75  98 131 169 210 251 294
#     4  11  21  35  51  71 101 135 166 203 252 301
#     4  10  21  36  50  70 103 138 167 201 249 300
#     4   9  17  28  44  71 101 130 165 204 239 283
#     4   9  18  35  53  70  97 129 163 209 263 299
#
# _framework density 16.880096000000002
#
# number of rings (size 3 to 8) (size 9 to 14) (size 15 to 20)
#    0.000    2.000    2.500    2.250    0.000    5.000 
#    0.000    3.125    0.000    0.000    0.000    0.875 
#    0.000    7.000    0.000    0.000    0.000    0.000 
#
# Total GULP energy -396852.417219 kJ/mol
# GULP energy per Si atom -12401.638038 kJ/mol
# Density = 1.684168 g / cm^3
# Si number density = 16.880096 Si / 1000 Ang^3
#
#
#
# Elastic Constant Matrix: (Units=GPa)
#
#
# Indices 1 2 3 4 5 6 
#
# 1 111.7544 42.8512 36.8768 0.0000 -8.6130 0.0000
# 2 42.8512 72.8708 32.6948 0.0000 -5.4869 0.0000
# 3 36.8768 32.6948 51.1097 0.0000 5.1537 0.0000
# 4 0.0000 0.0000 0.0000 15.3446 0.0000 -1.6835
# 5 -8.6130 -5.4869 5.1537 0.0000 16.0164 0.0000
# 6 0.0000 0.0000 0.0000 -1.6835 0.0000 35.5144
#
#
#
# Elastic Compliance Matrix: (Units=1/GPa)
#
#
# Indices 1 2 3 4 5 6 
#
# 1 0.013864 -0.003622 -0.008592 0.000000 0.008980 0.000000
# 2 -0.003622 0.022233 -0.012589 0.000000 0.009720 0.000000
# 3 -0.008592 -0.012589 0.035884 0.000000 -0.020480 0.000000
# 4 0.000000 0.000000 0.000000 0.065510 0.000000 0.003105
# 5 0.008980 0.009720 -0.020480 0.000000 0.077184 0.000000
# 6 0.000000 0.000000 0.000000 0.003105 0.000000 0.028305
#
#
# Mechanical properties :
#
#
# Convention : Reuss Voigt Hill
#
# Bulk Modulus (GPa) = 44.69353 51.17561 47.93457
# Shear Modulus (GPa) = 16.66420 21.59591 19.13005
#
# Velocity S-wave (km/s) = 3.14540 3.58071 3.37009
# Velocity P-wave (km/s) = 6.30285 6.89045 6.60319
#
# Compressibility (1/GPa) = 0.02237460
#
# Stress axis : x y z
#
# Youngs Moduli (GPa) = 72.12847 44.97842 27.86785
#
# Poissons Ratio (x) = 0.16289 0.23944
# Poissons Ratio (y) = 0.26122 0.35084
# Poissons Ratio (z) = 0.61973 0.56625
#
# Static dielectric constant tensor:
#      x y z
#    x 3.256610 0.000000 -0.115410 
#    y 0.000000 3.143530 0.000000 
#    z -0.115410 0.000000 3.033020 
# 
# 
# High freq. dielectric constant tensor:
#      x y z
#    x 1.655800 0.000000 -0.012170 
#    y 0.000000 1.652660 0.000000 
#    z -0.012170 0.000000 1.615610 
# 
# From -- ./inp_files/52739.got.cif
#   From: 2010.06.25/outbox.cif.g09.slc.cpg/sg10_27_cif.got.tgz:52739.got - 2010.06.27 22:07:45.
