data_PCOD8058289
_publ_section_title
;
Structure prediction by ZEFSAII (Michael W. Deem and Ramdas Pophale) SiO2 
 PCOD8058289
Probable space group: P 2/M
;
_chemical_formula_sum "Si O2"
_cell_formula_units_Z 32
_cell_length_a 26.879116
_cell_length_b 8.808795
_cell_length_c 21.557356
_cell_angle_alpha 90.000000
_cell_angle_beta 20.531721
_cell_angle_gamma 90.000000
_cell_volume 1790.172249
_symmetry_space_group_name_H-M "P 2/M"
_symmetry_group_IT_number 10
_symmetry_cell_setting 'monoclinic'
loop_
_space_group_symop_operation_xyz
x,y,z
-x,y,-z
-x,-y,-z
x,-y,z
loop_
_atom_site_type_symbol
_atom_site_label
_atom_site_fract_x
_atom_site_fract_y
_atom_site_fract_z
Si Si1 0.340847 0.323431 0.704149
Si Si2 0.653476 0.325245 0.505843
Si Si3 0.437028 0.324318 0.011149
Si Si4 0.165780 0.825261 0.801869
Si Si5 0.243856 0.827299 0.068558
Si Si6 0.140510 0.320832 0.303814
Si Si7 0.362562 0.177198 0.804398
Si Si8 0.520564 0.672808 0.783425
O O1 0.500000 0.280076 0.500000
O O2 0.323670 0.500000 0.738963
O O3 0.239167 0.278899 0.767061
O O4 0.295968 0.227806 0.816983
O O5 0.677457 0.500000 0.459410
O O6 0.780161 0.225608 0.329355
O O7 0.502959 0.275342 0.653243
O O8 0.653787 0.304666 0.581073
O O9 0.412302 0.500000 0.054867
O O10 0.551094 0.302392 0.821336
O O11 0.500000 0.245073 0.000000
O O12 0.283030 0.255966 0.171116
O O13 0.205754 0.000000 0.766420
O O14 0.000000 0.797087 0.000000
O O15 0.239814 0.791577 0.999498
O O16 0.405459 0.796347 0.898999
O O17 0.204386 0.000000 0.128644
O O18 0.138815 0.725745 0.233012
O O19 0.138530 0.500000 0.309983
O O20 0.000000 0.252041 0.500000
O O21 0.404267 0.000000 0.755163
O O22 0.460562 0.500000 0.844898
#
# Coordination Sequence:
#
# PCOD8058289 Si02
#       8
#     4   4   4   4   4   4   4   4
#     4  11  22  35  55  83 106 130 167 213 261 302
#     4  10  18  30  50  75 101 130 165 210 256 298
#     4   8  13  24  45  70  92 119 154 194 235 278
#     4  11  24  39  55  75 101 138 175 207 251 309
#     4   9  17  28  45  72  99 128 163 201 242 290
#     4   9  17  29  46  68  95 128 162 199 241 289
#     4  10  19  31  51  77 104 132 165 209 254 301
#     4   8  15  27  45  70  97 125 158 201 245 289
#
# _framework density 17.875374000000001
#
# number of rings (size 3 to 8) (size 9 to 14) (size 15 to 20)
#    0.000    2.500    1.250    2.625    0.000    3.750 
#    0.000    0.000    2.750    6.000    0.000    0.000 
#    0.000    0.000    0.000    0.000    0.000    0.000 
#
# Total GULP energy -396538.009104 kJ/mol
# GULP energy per Si atom -12391.812785 kJ/mol
# Density = 1.783469 g / cm^3
# Si number density = 17.875374 Si / 1000 Ang^3
#
#
#
# Elastic Constant Matrix: (Units=GPa)
#
#
# Indices 1 2 3 4 5 6 
#
# 1 106.1827 24.5788 52.2803 0.0000 28.4629 0.0000
# 2 24.5788 36.8942 27.7095 0.0000 7.0785 0.0000
# 3 52.2803 27.7095 109.0257 0.0000 26.8819 0.0000
# 4 0.0000 0.0000 0.0000 16.0823 0.0000 10.0337
# 5 28.4629 7.0785 26.8819 0.0000 29.1903 0.0000
# 6 0.0000 0.0000 0.0000 10.0337 0.0000 16.1857
#
#
#
# Elastic Compliance Matrix: (Units=1/GPa)
#
#
# Indices 1 2 3 4 5 6 
#
# 1 0.015101 -0.005626 -0.003256 0.000000 -0.010361 0.000000
# 2 -0.005626 0.035598 -0.007211 0.000000 0.003495 0.000000
# 3 -0.003256 -0.007211 0.014687 0.000000 -0.008602 0.000000
# 4 0.000000 0.000000 0.000000 0.101396 0.000000 -0.062856
# 5 -0.010361 0.003495 -0.008602 0.000000 0.051435 0.000000
# 6 0.000000 0.000000 0.000000 -0.062856 0.000000 0.100748
#
#
# Mechanical properties :
#
#
# Convention : Reuss Voigt Hill
#
# Bulk Modulus (GPa) = 30.12207 51.24888 40.68547
# Shear Modulus (GPa) = 13.80375 22.12726 17.96551
#
# Velocity S-wave (km/s) = 2.78190 3.52214 3.17368
# Velocity P-wave (km/s) = 5.21597 6.72852 6.01994
#
# Compressibility (1/GPa) = 0.03319826
#
# Stress axis : x y z
#
# Youngs Moduli (GPa) = 66.22128 28.09122 68.08555
#
# Poissons Ratio (x) = 0.15805 0.22172
# Poissons Ratio (y) = 0.37259 0.49098
# Poissons Ratio (z) = 0.21565 0.20257
#
# Static dielectric constant tensor:
#      x y z
#    x 3.515520 0.000000 0.324360 
#    y 0.000000 3.209140 0.000000 
#    z 0.324360 0.000000 3.710660 
# 
# 
# High freq. dielectric constant tensor:
#      x y z
#    x 1.677570 0.000000 0.043640 
#    y 0.000000 1.685690 0.000000 
#    z 0.043640 0.000000 1.670590 
# 
# From -- ./inp_files/86810.got.cif
#   From: 2010.06.25/outbox.cif.g09.slc.cpg/sg10_44_cif.got.tgz:86810.got - 2010.06.27 22:07:45.
