data_PCOD8058879
_publ_section_title
;
Structure prediction by ZEFSAII (Michael W. Deem and Ramdas Pophale) SiO2 
 PCOD8058879
Probable space group: P 2/M
;
_chemical_formula_sum "Si O2"
_cell_formula_units_Z 32
_cell_length_a 20.856666
_cell_length_b 8.995001
_cell_length_c 25.581262
_cell_angle_alpha 90.000000
_cell_angle_beta 21.895331
_cell_angle_gamma 90.000000
_cell_volume 1789.676880
_symmetry_space_group_name_H-M "P 2/M"
_symmetry_group_IT_number 10
_symmetry_cell_setting 'monoclinic'
loop_
_space_group_symop_operation_xyz
x,y,z
-x,y,-z
-x,-y,-z
x,-y,z
loop_
_atom_site_type_symbol
_atom_site_label
_atom_site_fract_x
_atom_site_fract_y
_atom_site_fract_z
Si Si1 0.647156 0.826383 0.153213
Si Si2 0.133479 0.674845 0.440463
Si Si3 0.079558 0.675436 0.597957
Si Si4 0.006163 0.170638 0.836902
Si Si5 0.169804 0.824524 0.137547
Si Si6 0.521146 0.324976 0.145240
Si Si7 0.645984 0.324370 0.428403
Si Si8 0.580402 0.325257 0.595635
O O1 0.550340 0.738307 0.180896
O O2 0.581715 0.763155 0.257954
O O3 0.603825 0.000000 0.179965
O O4 0.852401 0.800582 0.994372
O O5 0.105021 0.500000 0.464961
O O6 0.098511 0.737575 0.524910
O O7 0.326171 0.711702 0.276100
O O8 0.000000 0.746458 0.500000
O O9 0.046616 0.500000 0.625484
O O10 0.250029 0.718639 0.500688
O O11 0.916537 0.759032 0.745541
O O12 0.170210 0.265241 0.729947
O O13 0.943651 0.220864 0.826806
O O14 0.061902 0.000000 0.793980
O O15 0.191884 0.000000 0.125402
O O16 0.357875 0.752508 0.989066
O O17 0.557354 0.500000 0.119354
O O18 0.500000 0.262589 0.500000
O O19 0.655473 0.500000 0.419204
O O20 0.603436 0.269364 0.518978
O O21 0.542140 0.500000 0.627590
#
# Coordination Sequence:
#
# PCOD8058879 Si02
#       8
#     4   4   4   4   4   4   4   4
#     4  10  20  33  52  80 109 136 172 217 263 307
#     4   9  18  33  53  78 107 135 171 218 263 310
#     4  10  18  32  54  80 103 133 177 221 259 302
#     4   9  19  34  51  75 104 136 173 210 254 310
#     4  10  20  33  51  79 109 137 173 218 263 306
#     4  10  18  32  54  79 105 138 175 214 264 308
#     4  10  21  36  54  77 106 137 170 213 264 311
#     4  10  19  33  53  80 105 132 177 220 255 306
#
# _framework density 17.880324000000002
#
# number of rings (size 3 to 8) (size 9 to 14) (size 15 to 20)
#    0.000    2.250    2.500    1.875    0.000    3.750 
#    0.000    1.250    0.000   10.875    0.000    0.000 
#    0.000    0.000    0.000    0.000    0.000    0.000 
#
# Total GULP energy -396846.636195 kJ/mol
# GULP energy per Si atom -12401.457381 kJ/mol
# Density = 1.783963 g / cm^3
# Si number density = 17.880324 Si / 1000 Ang^3
#
#
#
# Elastic Constant Matrix: (Units=GPa)
#
#
# Indices 1 2 3 4 5 6 
#
# 1 112.6536 30.9786 71.9122 0.0000 -2.9595 0.0000
# 2 30.9786 55.2262 51.1338 0.0000 0.7981 0.0000
# 3 71.9122 51.1338 146.6660 0.0000 5.1919 0.0000
# 4 0.0000 0.0000 0.0000 24.8889 0.0000 5.5403
# 5 -2.9595 0.7981 5.1919 0.0000 28.8840 0.0000
# 6 0.0000 0.0000 0.0000 5.5403 0.0000 13.4487
#
#
#
# Elastic Compliance Matrix: (Units=1/GPa)
#
#
# Indices 1 2 3 4 5 6 
#
# 1 0.013251 -0.002026 -0.005878 0.000000 0.002470 0.000000
# 2 -0.002026 0.027074 -0.008466 0.000000 0.000566 0.000000
# 3 -0.005878 -0.008466 0.012746 0.000000 -0.002659 0.000000
# 4 0.000000 0.000000 0.000000 0.044235 0.000000 -0.018223
# 5 0.002470 0.000566 -0.002659 0.000000 0.035337 0.000000
# 6 0.000000 0.000000 0.000000 -0.018223 0.000000 0.081864
#
#
# Mechanical properties :
#
#
# Convention : Reuss Voigt Hill
#
# Bulk Modulus (GPa) = 49.18583 69.17720 59.18151
# Shear Modulus (GPa) = 19.68314 24.14573 21.91443
#
# Velocity S-wave (km/s) = 3.32147 3.67878 3.50468
# Velocity P-wave (km/s) = 6.50212 7.53774 7.03900
#
# Compressibility (1/GPa) = 0.02033106
#
# Stress axis : x y z
#
# Youngs Moduli (GPa) = 75.46464 36.93561 78.45562
#
# Poissons Ratio (x) = 0.07484 0.46119
# Poissons Ratio (y) = 0.15290 0.66418
# Poissons Ratio (z) = 0.44360 0.31269
#
# Static dielectric constant tensor:
#      x y z
#    x 3.296630 0.000000 0.066050 
#    y 0.000000 3.136990 0.000000 
#    z 0.066050 0.000000 3.420370 
# 
# 
# High freq. dielectric constant tensor:
#      x y z
#    x 1.666310 0.000000 0.010650 
#    y 0.000000 1.681420 0.000000 
#    z 0.010650 0.000000 1.704140 
# 
# From -- ./inp_files/86731.got.cif
#   From: 2010.06.25/outbox.cif.g09.slc.cpg/sg10_44_cif.got.tgz:86731.got - 2010.06.27 22:07:45.
