data_PCOD8058782
_publ_section_title
;
Structure prediction by ZEFSAII (Michael W. Deem and Ramdas Pophale) SiO2 
 PCOD8058782
Probable space group: P 2/M
;
_chemical_formula_sum "Si O2"
_cell_formula_units_Z 28
_cell_length_a 16.935240
_cell_length_b 8.910349
_cell_length_c 15.229867
_cell_angle_alpha 90.000000
_cell_angle_beta 45.088528
_cell_angle_gamma 90.000000
_cell_volume 1627.560639
_symmetry_space_group_name_H-M "P 2/M"
_symmetry_group_IT_number 10
_symmetry_cell_setting 'monoclinic'
loop_
_space_group_symop_operation_xyz
x,y,z
-x,y,-z
-x,-y,-z
x,-y,z
loop_
_atom_site_type_symbol
_atom_site_label
_atom_site_fract_x
_atom_site_fract_y
_atom_site_fract_z
Si Si1 0.883181 0.676297 0.404527
Si Si2 0.240217 0.823346 0.345135
Si Si3 0.132831 0.323746 0.266120
Si Si4 0.469745 0.672362 0.124937
Si Si5 0.912691 0.678098 0.188024
Si Si6 0.153655 0.321514 0.944145
Si Si7 0.298328 0.678411 0.986042
O O1 0.859602 0.500000 0.432588
O O2 0.795041 0.766201 0.531473
O O3 0.865046 0.734097 0.318547
O O4 0.008457 0.715506 0.334647
O O5 0.156311 0.754628 0.339948
O O6 0.366687 0.776321 0.228714
O O7 0.230815 0.000000 0.348461
O O8 0.149861 0.500000 0.266661
O O9 0.218410 0.260084 0.126058
O O10 0.440109 0.500000 0.170566
O O11 0.574955 0.731561 0.099159
O O12 0.500000 0.688595 0.000000
O O13 0.920540 0.500000 0.184942
O O14 0.834424 0.730418 0.167356
O O15 0.037547 0.740621 0.074707
O O16 0.152050 0.500000 0.949344
O O17 0.254751 0.260812 0.925628
O O18 0.292760 0.500000 0.994310
#
# Coordination Sequence:
#
# PCOD8058782 Si02
#       7
#     4   4   4   4   4   4   4
#     4  10  19  32  52  75 101 134 168 198 236 294
#     4  12  25  36  47  67 100 136 170 207 247 289
#     4  10  18  32  52  75 100 130 165 199 239 293
#     4  10  19  34  55  73  93 126 169 210 244 287
#     4   8  13  22  42  74 108 130 148 188 243 296
#     4   8  12  21  41  75 109 127 146 189 250 295
#     4   9  15  26  48  75 102 127 155 196 246 293
#
# _framework density 17.203661
#
# number of rings (size 3 to 8) (size 9 to 14) (size 15 to 20)
#    0.000    2.429    2.857    2.571    0.000    2.571 
#    0.000    0.000    0.000    0.857    0.000   10.000 
#    0.000    0.000    0.000    0.000    0.000    0.000 
#
# Total GULP energy -347060.570847 kJ/mol
# GULP energy per Si atom -12395.020387 kJ/mol
# Density = 1.716450 g / cm^3
# Si number density = 17.203661 Si / 1000 Ang^3
#
#
#
# Elastic Constant Matrix: (Units=GPa)
#
#
# Indices 1 2 3 4 5 6 
#
# 1 120.1087 21.7422 40.4609 0.0000 22.4204 0.0000
# 2 21.7422 32.9270 26.9706 0.0000 1.7820 0.0000
# 3 40.4609 26.9706 87.2276 0.0000 16.7998 0.0000
# 4 0.0000 0.0000 0.0000 1.6560 0.0000 -3.1649
# 5 22.4204 1.7820 16.7998 0.0000 28.8727 0.0000
# 6 0.0000 0.0000 0.0000 -3.1649 0.0000 2.2433
#
#
#
# Elastic Compliance Matrix: (Units=1/GPa)
#
#
# Indices 1 2 3 4 5 6 
#
# 1 0.011387 -0.005275 -0.002265 0.000000 -0.007199 0.000000
# 2 -0.005275 0.043879 -0.012825 0.000000 0.008850 0.000000
# 3 -0.002265 -0.012825 0.018007 0.000000 -0.007927 0.000000
# 4 0.000000 0.000000 0.000000 -0.355990 0.000000 -0.502242
# 5 -0.007199 0.008850 -0.007927 0.000000 0.044292 0.000000
# 6 0.000000 0.000000 0.000000 -0.502242 0.000000 -0.262798
#
#
# Mechanical properties :
#
#
# Convention : Reuss Voigt Hill
#
# Bulk Modulus (GPa) = 30.72694 46.51232 38.61963
# Shear Modulus (GPa) = -11.11989 16.62702 2.75356
#
# Velocity S-wave (km/s) = -2.54513 3.11220 1.26651
# Velocity P-wave (km/s) = 3.04344 6.32530 4.96346
#
# Compressibility (1/GPa) = 0.03254473
#
# Stress axis : x y z
#
# Youngs Moduli (GPa) = 87.81636 22.78977 55.53380
#
# Poissons Ratio (x) = 0.12021 0.12576
# Poissons Ratio (y) = 0.46321 0.71223
# Poissons Ratio (z) = 0.19887 0.29228
#
# Static dielectric constant tensor:
#      x y z
#    x 3.651720 0.000000 0.198230 
#    y 0.000000 2.716130 0.000000 
#    z 0.198230 0.000000 3.230360 
# 
# 
# High freq. dielectric constant tensor:
#      x y z
#    x 1.671980 0.000000 0.012620 
#    y 0.000000 1.611140 0.000000 
#    z 0.012620 0.000000 1.651580 
# 
# From -- ./inp_files/68600.got.cif
#   From: 2010.06.25/outbox.cif.g09.slc.cpg/sg10_35_cif.got.tgz:68600.got - 2010.06.27 22:07:45.
