data_PCOD8058328
_publ_section_title
;
Structure prediction by ZEFSAII (Michael W. Deem and Ramdas Pophale) SiO2 
 PCOD8058328
Probable space group: P 2/M
;
_chemical_formula_sum "Si O2"
_cell_formula_units_Z 28
_cell_length_a 9.179610
_cell_length_b 8.943607
_cell_length_c 29.184006
_cell_angle_alpha 90.000000
_cell_angle_beta 38.529666
_cell_angle_gamma 90.000000
_cell_volume 1492.498673
_symmetry_space_group_name_H-M "P 2/M"
_symmetry_group_IT_number 10
_symmetry_cell_setting 'monoclinic'
loop_
_space_group_symop_operation_xyz
x,y,z
-x,y,-z
-x,-y,-z
x,-y,z
loop_
_atom_site_type_symbol
_atom_site_label
_atom_site_fract_x
_atom_site_fract_y
_atom_site_fract_z
Si Si1 0.261531 0.677887 0.929348
Si Si2 0.726944 0.324050 0.349713
Si Si3 0.886441 0.676958 0.211369
Si Si4 0.950390 0.822727 0.654893
Si Si5 0.656528 0.164536 0.506382
Si Si6 0.407745 0.321543 0.071335
Si Si7 0.454227 0.677680 0.784361
O O1 0.254474 0.500000 0.932397
O O2 0.424036 0.740645 0.930088
O O3 0.366446 0.732992 0.855417
O O4 0.000000 0.742166 0.000000
O O5 0.756493 0.500000 0.348443
O O6 0.768018 0.270829 0.287708
O O7 0.461961 0.277921 0.428565
O O8 0.921666 0.245458 0.332587
O O9 0.902139 0.500000 0.205545
O O10 0.733491 0.734841 0.206523
O O11 0.147936 0.743112 0.143342
O O12 0.695890 0.755064 0.712519
O O13 0.088631 0.780632 0.573717
O O14 0.941518 0.000000 0.663602
O O15 0.500000 0.154099 0.500000
O O16 0.672810 0.000000 0.525279
O O17 0.407261 0.500000 0.072249
O O18 0.500000 0.261766 0.000000
O O19 0.488076 0.500000 0.774597
#
# Coordination Sequence:
#
# PCOD8058328 Si02
#       7
#     4   4   4   4   4   4   4
#     4   9  16  26  44  72 101 129 163 202 245 291
#     4  10  18  30  51  76 100 127 162 204 249 297
#     4   9  18  30  44  69 102 131 162 203 247 288
#     4  10  20  34  51  72  99 129 164 206 249 295
#     4   8  16  31  49  70  97 127 161 203 247 293
#     4   9  15  24  40  64  98 134 162 194 240 291
#     4  10  19  32  50  71  99 133 168 206 245 290
#
# _framework density 18.760486
#
# number of rings (size 3 to 8) (size 9 to 14) (size 15 to 20)
#    0.000    2.714    0.000    3.429    0.000    8.857 
#    0.000    2.143    0.000    4.714    0.000    0.000 
#    0.000    6.857    0.000    0.000    0.000    0.000 
#
# Total GULP energy -347126.043909 kJ/mol
# GULP energy per Si atom -12397.358711 kJ/mol
# Density = 1.871779 g / cm^3
# Si number density = 18.760486 Si / 1000 Ang^3
#
#
#
# Elastic Constant Matrix: (Units=GPa)
#
#
# Indices 1 2 3 4 5 6 
#
# 1 150.0793 27.2815 95.9720 0.0000 -1.1321 0.0000
# 2 27.2815 37.9620 36.6417 0.0000 -0.5845 0.0000
# 3 95.9720 36.6417 191.3276 0.0000 -7.1097 0.0000
# 4 0.0000 0.0000 0.0000 3.9157 0.0000 -4.5914
# 5 -1.1321 -0.5845 -7.1097 0.0000 34.2183 0.0000
# 6 0.0000 0.0000 0.0000 -4.5914 0.0000 3.9977
#
#
#
# Elastic Compliance Matrix: (Units=1/GPa)
#
#
# Indices 1 2 3 4 5 6 
#
# 1 0.010077 -0.002882 -0.004527 0.000000 -0.000656 0.000000
# 2 -0.002882 0.033159 -0.004925 0.000000 -0.000552 0.000000
# 3 -0.004527 -0.004925 0.008498 0.000000 0.001532 0.000000
# 4 0.000000 0.000000 0.000000 -0.736600 0.000000 -0.845988
# 5 -0.000656 -0.000552 0.001532 0.000000 0.029511 0.000000
# 6 0.000000 0.000000 0.000000 -0.845988 0.000000 -0.721480
#
#
# Mechanical properties :
#
#
# Convention : Reuss Voigt Hill
#
# Bulk Modulus (GPa) = 36.94888 77.68437 57.31663
# Shear Modulus (GPa) = -3.72261 23.05792 9.66765
#
# Velocity S-wave (km/s) = -1.41017 3.50961 2.27253
# Velocity P-wave (km/s) = 4.13357 7.61062 6.12405
#
# Compressibility (1/GPa) = 0.02706442
#
# Stress axis : x y z
#
# Youngs Moduli (GPa) = 99.23410 30.15793 117.67940
#
# Poissons Ratio (x) = 0.08693 0.53276
# Poissons Ratio (y) = 0.28603 0.57958
# Poissons Ratio (z) = 0.44925 0.14853
#
# Static dielectric constant tensor:
#      x y z
#    x 3.445650 0.000000 -0.050130 
#    y 0.000000 2.981610 0.000000 
#    z -0.050130 0.000000 3.882550 
# 
# 
# High freq. dielectric constant tensor:
#      x y z
#    x 1.718310 0.000000 -0.001750 
#    y 0.000000 1.678860 0.000000 
#    z -0.001750 0.000000 1.750360 
# 
# From -- ./inp_files/94497.got.cif
#   From: 2010.06.25/outbox.cif.g09.slc.cpg/sg10_48_cif.got.tgz:94497.got - 2010.06.27 22:07:45.
