data_PCOD8058178
_publ_section_title
;
Structure prediction by ZEFSAII (Michael W. Deem and Ramdas Pophale) SiO2 
 PCOD8058178
Probable space group: P 2/M
;
_chemical_formula_sum "Si O2"
_cell_formula_units_Z 28
_cell_length_a 28.744301
_cell_length_b 8.989916
_cell_length_c 9.653286
_cell_angle_alpha 90.000000
_cell_angle_beta 38.730031
_cell_angle_gamma 90.000000
_cell_volume 1560.684568
_symmetry_space_group_name_H-M "P 2/M"
_symmetry_group_IT_number 10
_symmetry_cell_setting 'monoclinic'
loop_
_space_group_symop_operation_xyz
x,y,z
-x,y,-z
-x,-y,-z
x,-y,z
loop_
_atom_site_type_symbol
_atom_site_label
_atom_site_fract_x
_atom_site_fract_y
_atom_site_fract_z
Si Si1 0.692005 0.328664 0.312573
Si Si2 0.259296 0.174642 0.066913
Si Si3 0.951635 0.325359 0.787410
Si Si4 0.807814 0.329063 0.273812
Si Si5 0.415785 0.674893 0.197371
Si Si6 0.702111 0.175403 0.718046
Si Si7 0.906642 0.177275 0.607221
O O1 0.691120 0.500000 0.273744
O O2 0.765212 0.287806 0.230728
O O3 0.619630 0.285393 0.571323
O O4 0.690977 0.239389 0.172176
O O5 0.294389 0.226359 0.130539
O O6 0.173932 0.228974 0.258572
O O7 0.261729 0.000000 0.045127
O O8 0.959969 0.500000 0.734877
O O9 0.918289 0.241335 0.732838
O O10 0.031536 0.252182 0.637833
O O11 0.895520 0.300744 0.046668
O O12 0.790559 0.500000 0.351797
O O13 0.778012 0.228127 0.467418
O O14 0.411346 0.500000 0.179311
O O15 0.370938 0.753260 0.178732
O O16 0.500000 0.733763 0.000000
O O17 0.697114 0.000000 0.714687
O O18 0.916186 0.000000 0.585539
#
# Coordination Sequence:
#
# PCOD8058178 Si02
#       7
#     4   4   4   4   4   4   4
#     4   9  17  31  54  79  99 130 172 209 248 299
#     4  10  21  35  49  73 108 140 171 210 254 303
#     4  10  18  30  48  72 100 129 171 223 264 299
#     4   9  18  33  51  74 101 132 175 220 260 305
#     4   9  19  38  60  82 107 132 164 207 251 301
#     4  10  21  35  53  77 105 137 172 208 252 304
#     4  10  19  30  46  70 101 136 173 212 259 306
#
# _framework density 17.940844999999999
#
# number of rings (size 3 to 8) (size 9 to 14) (size 15 to 20)
#    0.000    2.429    1.429    3.000    0.000    5.429 
#    0.000    1.429    0.000    8.571    0.000    0.000 
#    0.000    0.000    0.000    0.000    0.000    0.000 
#
# Total GULP energy -347154.003649 kJ/mol
# GULP energy per Si atom -12398.357273 kJ/mol
# Density = 1.790001 g / cm^3
# Si number density = 17.940845 Si / 1000 Ang^3
#
#
#
# Elastic Constant Matrix: (Units=GPa)
#
#
# Indices 1 2 3 4 5 6 
#
# 1 91.5388 43.7632 71.8803 0.0000 7.7898 0.0000
# 2 43.7632 53.6368 43.3375 0.0000 -1.6784 0.0000
# 3 71.8803 43.3375 132.6540 0.0000 -4.5604 0.0000
# 4 0.0000 0.0000 0.0000 19.5365 0.0000 11.2800
# 5 7.7898 -1.6784 -4.5604 0.0000 26.9113 0.0000
# 6 0.0000 0.0000 0.0000 11.2800 0.0000 7.2356
#
#
#
# Elastic Compliance Matrix: (Units=1/GPa)
#
#
# Indices 1 2 3 4 5 6 
#
# 1 0.026204 -0.013510 -0.010134 0.000000 -0.010145 0.000000
# 2 -0.013510 0.032296 -0.003045 0.000000 0.005409 0.000000
# 3 -0.010134 -0.003045 0.014202 0.000000 0.005150 0.000000
# 4 0.000000 0.000000 0.000000 0.512444 0.000000 -0.798883
# 5 -0.010145 0.005409 0.005150 0.000000 0.041306 0.000000
# 6 0.000000 0.000000 0.000000 -0.798883 0.000000 1.383637
#
#
# Mechanical properties :
#
#
# Convention : Reuss Voigt Hill
#
# Bulk Modulus (GPa) = 51.74772 66.19908 58.97340
# Shear Modulus (GPa) = 2.41557 18.65992 10.53774
#
# Velocity S-wave (km/s) = 1.16161 3.22853 2.42618
# Velocity P-wave (km/s) = 5.54123 7.13277 6.38677
#
# Compressibility (1/GPa) = 0.01932452
#
# Stress axis : x y z
#
# Youngs Moduli (GPa) = 38.16148 30.96362 70.41467
#
# Poissons Ratio (x) = 0.41831 0.71361
# Poissons Ratio (y) = 0.51555 0.21438
# Poissons Ratio (z) = 0.38674 0.09427
#
# Static dielectric constant tensor:
#      x y z
#    x 3.199920 0.000000 -0.194460 
#    y 0.000000 3.276020 0.000000 
#    z -0.194460 0.000000 3.549360 
# 
# 
# High freq. dielectric constant tensor:
#      x y z
#    x 1.666560 0.000000 -0.007710 
#    y 0.000000 1.696520 0.000000 
#    z -0.007710 0.000000 1.699140 
# 
# From -- ./inp_files/37919.got.cif
#   From: 2010.06.25/outbox.cif.g09.slc.cpg/sg10_19_cif.got.tgz:37919.got - 2010.06.27 22:07:45.
