data_PCOD8058009
_publ_section_title
;
Structure prediction by ZEFSAII (Michael W. Deem and Ramdas Pophale) SiO2 
 PCOD8058009
Probable space group: P 2/M
;
_chemical_formula_sum "Si O2"
_cell_formula_units_Z 28
_cell_length_a 15.723008
_cell_length_b 9.398116
_cell_length_c 14.715870
_cell_angle_alpha 90.000000
_cell_angle_beta 46.238993
_cell_angle_gamma 90.000000
_cell_volume 1570.502264
_symmetry_space_group_name_H-M "P 2/M"
_symmetry_group_IT_number 10
_symmetry_cell_setting 'monoclinic'
loop_
_space_group_symop_operation_xyz
x,y,z
-x,y,-z
-x,-y,-z
x,-y,z
loop_
_atom_site_type_symbol
_atom_site_label
_atom_site_fract_x
_atom_site_fract_y
_atom_site_fract_z
Si Si1 0.306338 0.331064 0.425741
Si Si2 0.523739 0.330987 0.382564
Si Si3 0.385468 0.835233 0.202348
Si Si4 0.651651 0.164737 0.977950
Si Si5 0.854909 0.667277 0.927935
Si Si6 0.784002 0.667905 0.175940
Si Si7 0.884683 0.668726 0.289349
O O1 0.304528 0.500000 0.413927
O O2 0.424368 0.274821 0.387698
O O3 0.303777 0.257379 0.329453
O O4 0.194611 0.278611 0.567789
O O5 0.500000 0.268850 0.500000
O O6 0.516537 0.500000 0.390460
O O7 0.651386 0.275507 0.256800
O O8 0.337267 0.806953 0.137345
O O9 0.373098 0.000000 0.237336
O O10 0.522296 0.788144 0.107734
O O11 0.749753 0.255544 0.955263
O O12 0.672737 0.000000 0.984411
O O13 0.833088 0.500000 0.932710
O O14 0.980261 0.715407 0.793510
O O15 0.859366 0.708891 0.031553
O O16 0.779733 0.500000 0.192619
O O17 0.838526 0.734959 0.227776
O O18 0.876369 0.500000 0.287991
#
# Coordination Sequence:
#
# PCOD8058009 Si02
#       7
#     4   4   4   4   4   4   4
#     4  10  18  29  49  76 103 132 163 197 242 287
#     4   9  14  22  39  67  99 126 156 194 234 279
#     4   9  19  36  56  74  94 123 158 199 251 306
#     4   9  19  37  56  72  94 125 158 198 254 305
#     4  10  19  30  49  76 100 127 169 210 236 271
#     4   9  15  25  43  69 100 133 165 198 238 283
#     4   9  17  29  44  69 107 140 162 193 239 287
#
# _framework density 17.828690999999999
#
# number of rings (size 3 to 8) (size 9 to 14) (size 15 to 20)
#    0.000    2.714    1.429    2.143    0.000    4.000 
#    0.000    2.857    0.000    7.286    0.000    0.000 
#    0.000    0.000    0.000    0.000    0.000    0.000 
#
# Total GULP energy -347086.950643 kJ/mol
# GULP energy per Si atom -12395.962523 kJ/mol
# Density = 1.778811 g / cm^3
# Si number density = 17.828691 Si / 1000 Ang^3
#
#
#
# Elastic Constant Matrix: (Units=GPa)
#
#
# Indices 1 2 3 4 5 6 
#
# 1 81.3703 31.8302 50.8340 0.0000 -1.9171 0.0000
# 2 31.8302 32.3202 37.7611 0.0000 3.7947 0.0000
# 3 50.8340 37.7611 135.3994 0.0000 1.1113 0.0000
# 4 0.0000 0.0000 0.0000 3.5646 0.0000 -10.4042
# 5 -1.9171 3.7947 1.1113 0.0000 26.5375 0.0000
# 6 0.0000 0.0000 0.0000 -10.4042 0.0000 9.0445
#
#
#
# Elastic Compliance Matrix: (Units=1/GPa)
#
#
# Indices 1 2 3 4 5 6 
#
# 1 0.021295 -0.017930 -0.003029 0.000000 0.004229 0.000000
# 2 -0.017930 0.061975 -0.010473 0.000000 -0.009719 0.000000
# 3 -0.003029 -0.010473 0.011437 0.000000 0.000800 0.000000
# 4 0.000000 0.000000 0.000000 -0.118994 0.000000 -0.136883
# 5 0.004229 -0.009719 0.000800 0.000000 0.039344 0.000000
# 6 0.000000 0.000000 0.000000 -0.136883 0.000000 -0.046897
#
#
# Mechanical properties :
#
#
# Convention : Reuss Voigt Hill
#
# Bulk Modulus (GPa) = 31.40333 54.43785 42.92059
# Shear Modulus (GPa) = 120.07848 16.40694 68.24271
#
# Velocity S-wave (km/s) = 8.21568 3.03686 6.19355
# Velocity P-wave (km/s) = 10.37539 6.54957 8.67599
#
# Compressibility (1/GPa) = 0.03184376
#
# Stress axis : x y z
#
# Youngs Moduli (GPa) = 46.95865 16.13553 87.43474
#
# Poissons Ratio (x) = 0.28930 0.26488
# Poissons Ratio (y) = 0.84195 0.91569
# Poissons Ratio (z) = 0.14226 0.16898
#
# Static dielectric constant tensor:
#      x y z
#    x 3.256920 0.000000 -0.047680 
#    y 0.000000 2.759180 0.000000 
#    z -0.047680 0.000000 3.509700 
# 
# 
# High freq. dielectric constant tensor:
#      x y z
#    x 1.686360 0.000000 0.000420 
#    y 0.000000 1.632800 0.000000 
#    z 0.000420 0.000000 1.702030 
# 
# From -- ./inp_files/46129.got.cif
#   From: 2010.06.25/outbox.cif.g09.slc.cpg/sg10_24_cif.got.tgz:46129.got - 2010.06.27 22:07:45.
