data_PCOD8058238
_publ_section_title
;
Structure prediction by ZEFSAII (Michael W. Deem and Ramdas Pophale) SiO2 
 PCOD8058238
Probable space group: P 2/M
;
_chemical_formula_sum "Si O2"
_cell_formula_units_Z 20
_cell_length_a 20.020171
_cell_length_b 13.626372
_cell_length_c 14.539587
_cell_angle_alpha 90.000000
_cell_angle_beta 163.240535
_cell_angle_gamma 90.000000
_cell_volume 1143.738533
_symmetry_space_group_name_H-M "P 2/M"
_symmetry_group_IT_number 10
_symmetry_cell_setting 'monoclinic'
loop_
_space_group_symop_operation_xyz
x,y,z
-x,y,-z
-x,-y,-z
x,-y,z
loop_
_atom_site_type_symbol
_atom_site_label
_atom_site_fract_x
_atom_site_fract_y
_atom_site_fract_z
Si Si1 0.598201 0.107110 0.229745
Si Si2 0.375421 0.613103 0.240196
Si Si3 0.755029 0.728795 0.218451
Si Si4 0.592652 0.388923 0.338354
Si Si5 0.091715 0.726405 0.377107
O O1 0.857259 0.156838 0.571461
O O2 0.612419 0.000000 0.298255
O O3 0.500000 0.088626 0.000000
O O4 0.417313 0.182326 0.038001
O O5 0.500000 0.632625 0.500000
O O6 0.282483 0.500000 0.111083
O O7 0.563876 0.633161 0.409011
O O8 0.173212 0.694050 0.962122
O O9 0.768538 0.703339 0.344446
O O10 0.000000 0.758512 0.500000
O O11 0.653193 0.632354 0.035215
O O12 0.661363 0.500000 0.412166
O O13 0.803094 0.329142 0.571845
#
# Coordination Sequence:
#
# PCOD8058238 Si02
#       5
#     4   4   4   4   4
#     4   8  16  30  49  74 102 130 159 198 246 299
#     4  10  21  35  51  73  99 131 173 210 240 284
#     4  10  18  30  49  76 105 131 163 200 244 300
#     4  10  20  32  49  73 101 134 166 198 246 297
#     4  10  19  33  52  71 104 132 162 205 245 295
#
# _framework density 17.486515000000001
#
# number of rings (size 3 to 8) (size 9 to 14) (size 15 to 20)
#    0.000    2.400    2.000    2.400    0.000    4.000 
#    0.000    3.000    0.000    0.600    0.000    5.600 
#    0.000    0.000    0.000    0.000    0.000    0.000 
#
# Total GULP energy -247777.871641 kJ/mol
# GULP energy per Si atom -12388.893582 kJ/mol
# Density = 1.744671 g / cm^3
# Si number density = 17.486515 Si / 1000 Ang^3
#
#
#
# Elastic Constant Matrix: (Units=GPa)
#
#
# Indices 1 2 3 4 5 6 
#
# 1 88.5036 32.9561 11.1599 0.0000 -6.8533 0.0000
# 2 32.9561 83.1643 22.0774 0.0000 0.3066 0.0000
# 3 11.1599 22.0774 35.1276 0.0000 -5.8778 0.0000
# 4 0.0000 0.0000 0.0000 9.0800 0.0000 7.5245
# 5 -6.8533 0.3066 -5.8778 0.0000 28.6598 0.0000
# 6 0.0000 0.0000 0.0000 7.5245 0.0000 12.9629
#
#
#
# Elastic Compliance Matrix: (Units=1/GPa)
#
#
# Indices 1 2 3 4 5 6 
#
# 1 0.013566 -0.005264 -0.000465 0.000000 0.003205 0.000000
# 2 -0.005264 0.016597 -0.009318 0.000000 -0.003347 0.000000
# 3 -0.000465 -0.009318 0.035695 0.000000 0.007309 0.000000
# 4 0.000000 0.000000 0.000000 0.212215 0.000000 -0.123184
# 5 0.003205 -0.003347 0.007309 0.000000 0.037193 0.000000
# 6 0.000000 0.000000 0.000000 -0.123184 0.000000 0.148648
#
#
# Mechanical properties :
#
#
# Convention : Reuss Voigt Hill
#
# Bulk Modulus (GPa) = 27.96268 37.68692 32.82480
# Shear Modulus (GPa) = 9.88278 19.51400 14.69839
#
# Velocity S-wave (km/s) = 2.37990 3.34420 2.90238
# Velocity P-wave (km/s) = 4.85568 6.04238 5.48124
#
# Compressibility (1/GPa) = 0.03576195
#
# Stress axis : x y z
#
# Youngs Moduli (GPa) = 73.71343 60.25334 28.01517
#
# Poissons Ratio (x) = 0.31719 0.01303
# Poissons Ratio (y) = 0.38805 0.26106
# Poissons Ratio (z) = 0.03428 0.56147
#
# Static dielectric constant tensor:
#      x y z
#    x 3.321050 0.000000 0.053100 
#    y 0.000000 3.491450 0.000000 
#    z 0.053100 0.000000 2.994840 
# 
# 
# High freq. dielectric constant tensor:
#      x y z
#    x 1.681570 0.000000 0.010230 
#    y 0.000000 1.664690 0.000000 
#    z 0.010230 0.000000 1.643950 
# 
# From -- ./inp_files/24457.got.cif
#   From: 2010.06.25/outbox.cif.g09.slc.cpg/sg10_13_cif.got.tgz:24457.got - 2010.06.27 22:07:45.
