data_PCOD8058805
_publ_section_title
;
Structure prediction by ZEFSAII (Michael W. Deem and Ramdas Pophale) SiO2 
 PCOD8058805
Probable space group: P 2/M
;
_chemical_formula_sum "Si O2"
_cell_formula_units_Z 32
_cell_length_a 23.164656
_cell_length_b 8.862788
_cell_length_c 14.559970
_cell_angle_alpha 90.000000
_cell_angle_beta 35.754924
_cell_angle_gamma 90.000000
_cell_volume 1746.654510
_symmetry_space_group_name_H-M "P 2/M"
_symmetry_group_IT_number 10
_symmetry_cell_setting 'monoclinic'
loop_
_space_group_symop_operation_xyz
x,y,z
-x,y,-z
-x,-y,-z
x,-y,z
loop_
_atom_site_type_symbol
_atom_site_label
_atom_site_fract_x
_atom_site_fract_y
_atom_site_fract_z
Si Si1 0.688606 0.179325 0.041455
Si Si2 0.397842 0.321329 0.018006
Si Si3 0.289368 0.826919 0.668560
Si Si4 0.381225 0.678800 0.246261
Si Si5 0.995096 0.675143 0.903336
Si Si6 0.803377 0.320755 0.046672
Si Si7 0.788380 0.324960 0.402480
Si Si8 0.507163 0.826622 0.390760
O O1 0.679512 0.239902 0.949591
O O2 0.783547 0.248286 0.971745
O O3 0.590353 0.245588 0.218726
O O4 0.696754 0.000000 0.028975
O O5 0.386968 0.500000 0.021220
O O6 0.511910 0.270248 0.851827
O O7 0.368607 0.266396 0.157886
O O8 0.281975 0.737438 0.774242
O O9 0.216097 0.756684 0.689483
O O10 0.399389 0.810403 0.484193
O O11 0.262061 0.000000 0.722798
O O12 0.376991 0.500000 0.252266
O O13 0.289638 0.745263 0.424075
O O14 0.970947 0.500000 0.947670
O O15 0.097686 0.699549 0.714561
O O16 0.000000 0.747617 0.000000
O O17 0.907238 0.742501 0.953743
O O18 0.801195 0.500000 0.039997
O O19 0.764453 0.500000 0.417553
O O20 0.500000 0.748097 0.500000
O O21 0.538765 0.000000 0.364343
#
# Coordination Sequence:
#
# PCOD8058805 Si02
#       8
#     4   4   4   4   4   4   4   4
#     4  11  21  34  51  72  99 135 171 203 245 297
#     4   9  17  33  53  78 107 131 160 202 252 295
#     4  11  20  31  47  70 100 133 164 200 243 292
#     4   8  16  31  55  80 103 130 163 206 247 293
#     4   9  17  31  50  72  98 128 165 211 251 286
#     4  11  21  34  50  69  96 133 170 207 248 291
#     4  10  18  32  53  74  97 129 167 203 247 297
#     4   9  17  30  44  61  94 133 160 189 232 282
#
# _framework density 18.320737999999999
#
# number of rings (size 3 to 8) (size 9 to 14) (size 15 to 20)
#    0.000    2.250    2.500    2.625    0.000    0.000 
#    0.000    6.250    0.000    0.750    0.000    5.250 
#    0.000    0.000    0.000    0.000    0.000    0.000 
#
# Total GULP energy -396601.507243 kJ/mol
# GULP energy per Si atom -12393.797101 kJ/mol
# Density = 1.827904 g / cm^3
# Si number density = 18.320738 Si / 1000 Ang^3
#
#
#
# Elastic Constant Matrix: (Units=GPa)
#
#
# Indices 1 2 3 4 5 6 
#
# 1 145.1771 37.4623 36.2084 0.0000 -4.3445 0.0000
# 2 37.4623 51.0032 15.7580 0.0000 -2.5498 0.0000
# 3 36.2084 15.7580 67.3335 0.0000 -3.0337 0.0000
# 4 0.0000 0.0000 0.0000 13.8598 0.0000 0.8018
# 5 -4.3445 -2.5498 -3.0337 0.0000 23.4193 0.0000
# 6 0.0000 0.0000 0.0000 0.8018 0.0000 16.3633
#
#
#
# Elastic Compliance Matrix: (Units=1/GPa)
#
#
# Indices 1 2 3 4 5 6 
#
# 1 0.009273 -0.005657 -0.003634 0.000000 0.000634 0.000000
# 2 -0.005657 0.024651 -0.002669 0.000000 0.001289 0.000000
# 3 -0.003634 -0.002669 0.017489 0.000000 0.001301 0.000000
# 4 0.000000 0.000000 0.000000 0.072356 0.000000 -0.003546
# 5 0.000634 0.001289 0.001301 0.000000 0.043126 0.000000
# 6 0.000000 0.000000 0.000000 -0.003546 0.000000 0.061286
#
#
# Mechanical properties :
#
#
# Convention : Reuss Voigt Hill
#
# Bulk Modulus (GPa) = 36.37317 49.15236 42.76277
# Shear Modulus (GPa) = 19.13762 22.33416 20.73589
#
# Velocity S-wave (km/s) = 3.23551 3.49530 3.36791
# Velocity P-wave (km/s) = 5.81848 6.57089 6.20610
#
# Compressibility (1/GPa) = 0.02749279
#
# Stress axis : x y z
#
# Youngs Moduli (GPa) = 107.83758 40.56702 57.17883
#
# Poissons Ratio (x) = 0.22948 0.20780
# Poissons Ratio (y) = 0.61001 0.15261
# Poissons Ratio (z) = 0.39191 0.10827
#
# Static dielectric constant tensor:
#      x y z
#    x 3.455830 0.000000 -0.051130 
#    y 0.000000 2.985980 0.000000 
#    z -0.051130 0.000000 3.439440 
# 
# 
# High freq. dielectric constant tensor:
#      x y z
#    x 1.711790 0.000000 -0.008250 
#    y 0.000000 1.676530 0.000000 
#    z -0.008250 0.000000 1.689270 
# 
# From -- ./inp_files/66028.got.cif
#   From: 2010.06.25/outbox.cif.g09.slc.cpg/sg10_34_cif.got.tgz:66028.got - 2010.06.27 22:07:45.
