data_PCOD8058070
_publ_section_title
;
Structure prediction by ZEFSAII (Michael W. Deem and Ramdas Pophale) SiO2 
 PCOD8058070
Probable space group: P 2/M
;
_chemical_formula_sum "Si O2"
_cell_formula_units_Z 28
_cell_length_a 15.457450
_cell_length_b 13.389623
_cell_length_c 18.145542
_cell_angle_alpha 90.000000
_cell_angle_beta 149.060900
_cell_angle_gamma 90.000000
_cell_volume 1930.840056
_symmetry_space_group_name_H-M "P 2/M"
_symmetry_group_IT_number 10
_symmetry_cell_setting 'monoclinic'
loop_
_space_group_symop_operation_xyz
x,y,z
-x,y,-z
-x,-y,-z
x,-y,z
loop_
_atom_site_type_symbol
_atom_site_label
_atom_site_fract_x
_atom_site_fract_y
_atom_site_fract_z
Si Si1 0.837340 0.617955 0.167892
Si Si2 0.845155 0.380887 0.339601
Si Si3 0.336592 0.724489 0.330127
Si Si4 0.502363 0.382279 0.154491
Si Si5 0.672448 0.617165 0.827361
Si Si6 0.088006 0.888289 0.142862
Si Si7 0.992866 0.302368 0.140771
O O1 0.864796 0.500000 0.178499
O O2 0.871878 0.655725 0.275576
O O3 0.965670 0.673186 0.206667
O O4 0.646899 0.648896 0.009563
O O5 0.836471 0.500000 0.334299
O O6 0.675462 0.334441 0.251049
O O7 0.000000 0.339653 0.500000
O O8 0.500000 0.721526 0.500000
O O9 0.380204 0.675294 0.284079
O O10 0.274711 0.839100 0.271974
O O11 0.181866 0.663498 0.255346
O O12 0.521988 0.500000 0.168865
O O13 0.458472 0.346699 0.205138
O O14 0.657513 0.500000 0.801621
O O15 0.861683 0.640230 0.992482
O O16 0.976682 0.817884 0.115983
O O17 0.102707 0.000000 0.186275
O O18 0.000000 0.890167 0.000000
#
# Coordination Sequence:
#
# PCOD8058070 Si02
#       7
#     4   4   4   4   4   4   4
#     4   9  16  26  43  60  82 114 148 181 211 249
#     4   9  16  25  37  57  84 113 144 178 215 251
#     4  10  20  31  42  65  93 117 145 183 214 268
#     4   8  15  26  40  56  76 109 152 184 207 241
#     4  10  18  30  45  60  87 126 157 181 211 247
#     4   9  17  33  52  67  84 109 144 188 233 265
#     4   9  17  31  44  65  83 113 151 187 211 264
#
# _framework density 14.50146
#
# number of rings (size 3 to 8) (size 9 to 14) (size 15 to 20)
#    0.857    2.000    1.429    2.143    0.000    5.143 
#    0.000    1.429    0.000    0.000    0.000    0.000 
#    0.000   10.857    0.000    0.000    0.000    0.571 
#
# Total GULP energy -346944.151765 kJ/mol
# GULP energy per Si atom -12390.862563 kJ/mol
# Density = 1.446845 g / cm^3
# Si number density = 14.501460 Si / 1000 Ang^3
#
#
#
# Elastic Constant Matrix: (Units=GPa)
#
#
# Indices 1 2 3 4 5 6 
#
# 1 118.1753 33.1933 59.3576 0.0000 -11.5695 0.0000
# 2 33.1933 51.9317 14.4971 0.0000 -5.8784 0.0000
# 3 59.3576 14.4971 93.9205 0.0000 -13.2521 0.0000
# 4 0.0000 0.0000 0.0000 7.9005 0.0000 -4.0925
# 5 -11.5695 -5.8784 -13.2521 0.0000 19.9920 0.0000
# 6 0.0000 0.0000 0.0000 -4.0925 0.0000 3.1040
#
#
#
# Elastic Compliance Matrix: (Units=1/GPa)
#
#
# Indices 1 2 3 4 5 6 
#
# 1 0.014505 -0.006930 -0.007944 0.000000 0.001091 0.000000
# 2 -0.006930 0.023768 0.001248 0.000000 0.003805 0.000000
# 3 -0.007944 0.001248 0.016413 0.000000 0.006650 0.000000
# 4 0.000000 0.000000 0.000000 0.399226 0.000000 0.526353
# 5 0.001091 0.003805 0.006650 0.000000 0.056178 0.000000
# 6 0.000000 0.000000 0.000000 0.526353 0.000000 1.016122
#
#
# Mechanical properties :
#
#
# Convention : Reuss Voigt Hill
#
# Bulk Modulus (GPa) = 36.44973 53.12482 44.78727
# Shear Modulus (GPa) = 3.19977 16.66461 9.93219
#
# Velocity S-wave (km/s) = 1.48705 3.39362 2.61992
# Velocity P-wave (km/s) = 5.30454 7.21590 6.33275
#
# Compressibility (1/GPa) = 0.02743504
#
# Stress axis : x y z
#
# Youngs Moduli (GPa) = 68.93961 42.07316 60.92607
#
# Poissons Ratio (x) = 0.29159 0.48398
# Poissons Ratio (y) = 0.47778 -0.07605
# Poissons Ratio (z) = 0.54764 -0.05252
#
# Static dielectric constant tensor:
#      x y z
#    x 2.977510 0.000000 0.038940 
#    y 0.000000 2.549650 0.000000 
#    z 0.038940 0.000000 2.800530 
# 
# 
# High freq. dielectric constant tensor:
#      x y z
#    x 1.558680 0.000000 -0.002630 
#    y 0.000000 1.501400 0.000000 
#    z -0.002630 0.000000 1.552950 
# 
# From -- ./inp_files/78254.got.cif
#   From: 2010.06.25/outbox.cif.g09.slc.cpg/sg10_40_cif.got.tgz:78254.got - 2010.06.27 22:07:45.
