data_PCOD8058177
_publ_section_title
;
Structure prediction by ZEFSAII (Michael W. Deem and Ramdas Pophale) SiO2 
 PCOD8058177
Probable space group: P 2/M
;
_chemical_formula_sum "Si O2"
_cell_formula_units_Z 22
_cell_length_a 11.583186
_cell_length_b 11.928865
_cell_length_c 23.630953
_cell_angle_alpha 90.000000
_cell_angle_beta 21.203712
_cell_angle_gamma 90.000000
_cell_volume 1180.969968
_symmetry_space_group_name_H-M "P 2/M"
_symmetry_group_IT_number 10
_symmetry_cell_setting 'monoclinic'
loop_
_space_group_symop_operation_xyz
x,y,z
-x,y,-z
-x,-y,-z
x,-y,z
loop_
_atom_site_type_symbol
_atom_site_label
_atom_site_fract_x
_atom_site_fract_y
_atom_site_fract_z
Si Si1 0.892518 0.000000 0.140090
Si Si2 0.128462 0.374772 0.104610
Si Si3 0.806804 0.815499 0.721722
Si Si4 0.887936 0.374114 0.762087
Si Si5 0.129274 0.233005 0.997864
Si Si6 0.146054 0.000000 0.495436
Si Si7 0.479541 0.000000 0.943608
O O1 0.523485 0.000000 0.323454
O O2 0.984747 0.891594 0.061631
O O3 0.104732 0.000000 0.100010
O O4 0.009711 0.500000 0.145051
O O5 0.997909 0.339297 0.226627
O O6 0.508118 0.371739 0.932817
O O7 0.000106 0.294202 0.113657
O O8 0.010107 0.715752 0.659355
O O9 0.514871 0.766664 0.817900
O O10 0.649340 0.889484 0.842922
O O11 0.036868 0.887570 0.577134
O O12 0.012329 0.500000 0.690852
O O13 0.000000 0.294236 0.000000
O O14 0.000000 0.000000 0.500000
O O15 0.500000 0.000000 0.000000
#
# Coordination Sequence:
#
# PCOD8058177 Si02
#       7
#     2   4   4   4   4   2   2
#     4  10  21  32  49  71  98 134 168 201 253 295
#     4   8  15  26  45  73  98 126 156 198 255 295
#     4   9  19  31  51  76  95 131 170 201 250 302
#     4   8  14  27  48  72  98 122 161 207 245 297
#     4  10  18  30  48  72 100 129 166 206 245 297
#     4  11  21  37  52  69 103 139 172 209 245 296
#     4   9  19  31  52  76 105 128 158 208 254 298
#
# _framework density 18.628755000000002
#
# number of rings (size 3 to 8) (size 9 to 14) (size 15 to 20)
#    0.000    2.909    0.000    3.000    7.636    0.364 
#    0.000    1.818    0.000    1.636    0.000    2.545 
#    0.000    0.000    0.000    0.000    0.000    0.000 
#
# Total GULP energy -272649.338889 kJ/mol
# GULP energy per Si atom -12393.151768 kJ/mol
# Density = 1.858636 g / cm^3
# Si number density = 18.628755 Si / 1000 Ang^3
#
#
#
# Elastic Constant Matrix: (Units=GPa)
#
#
# Indices 1 2 3 4 5 6 
#
# 1 153.4664 64.2729 32.0940 0.0000 14.7158 0.0000
# 2 64.2729 109.1170 18.9065 0.0000 12.8786 0.0000
# 3 32.0940 18.9065 55.7549 0.0000 0.7977 0.0000
# 4 0.0000 0.0000 0.0000 12.2994 0.0000 10.3005
# 5 14.7158 12.8786 0.7977 0.0000 17.7486 0.0000
# 6 0.0000 0.0000 0.0000 10.3005 0.0000 19.0782
#
#
#
# Elastic Compliance Matrix: (Units=1/GPa)
#
#
# Indices 1 2 3 4 5 6 
#
# 1 0.009655 -0.004455 -0.003981 0.000000 -0.004594 0.000000
# 2 -0.004455 0.012723 -0.001672 0.000000 -0.005463 0.000000
# 3 -0.003981 -0.001672 0.020743 0.000000 0.003582 0.000000
# 4 0.000000 0.000000 0.000000 0.148410 0.000000 -0.080128
# 5 -0.004594 -0.005463 0.003582 0.000000 0.063954 0.000000
# 6 0.000000 0.000000 0.000000 -0.080128 0.000000 0.095678
#
#
# Mechanical properties :
#
#
# Convention : Reuss Voigt Hill
#
# Bulk Modulus (GPa) = 43.65877 60.98723 52.32300
# Shear Modulus (GPa) = 13.19211 23.36289 18.27750
#
# Velocity S-wave (km/s) = 2.66401 3.54521 3.13572
# Velocity P-wave (km/s) = 5.74018 7.04041 6.42328
#
# Compressibility (1/GPa) = 0.02290490
#
# Stress axis : x y z
#
# Youngs Moduli (GPa) = 103.57377 78.59739 48.20900
#
# Poissons Ratio (x) = 0.35016 0.19193
# Poissons Ratio (y) = 0.46143 0.08060
# Poissons Ratio (z) = 0.41235 0.13140
#
# Static dielectric constant tensor:
#      x y z
#    x 3.640090 0.000000 0.051660 
#    y 0.000000 3.843950 0.000000 
#    z 0.051660 0.000000 2.909570 
# 
# 
# High freq. dielectric constant tensor:
#      x y z
#    x 1.730050 0.000000 0.007050 
#    y 0.000000 1.726350 0.000000 
#    z 0.007050 0.000000 1.667620 
# 
# From -- ./inp_files/57630.got.cif
#   From: 2010.06.25/outbox.cif.g09.slc.cpg/sg10_29_cif.got.tgz:57630.got - 2010.06.27 22:07:45.
