data_PCOD8058517
_publ_section_title
;
Structure prediction by ZEFSAII (Michael W. Deem and Ramdas Pophale) SiO2 
 PCOD8058517
Probable space group: P 2/M
;
_chemical_formula_sum "Si O2"
_cell_formula_units_Z 24
_cell_length_a 24.302691
_cell_length_b 8.427072
_cell_length_c 16.233347
_cell_angle_alpha 90.000000
_cell_angle_beta 23.800106
_cell_angle_gamma 90.000000
_cell_volume 1341.631520
_symmetry_space_group_name_H-M "P 2/M"
_symmetry_group_IT_number 10
_symmetry_cell_setting 'monoclinic'
loop_
_space_group_symop_operation_xyz
x,y,z
-x,y,-z
-x,-y,-z
x,-y,z
loop_
_atom_site_type_symbol
_atom_site_label
_atom_site_fract_x
_atom_site_fract_y
_atom_site_fract_z
Si Si1 0.560608 0.685284 0.797966
Si Si2 0.304862 0.817086 0.233886
Si Si3 0.022072 0.686653 0.564597
Si Si4 0.245651 0.689919 0.975788
Si Si5 0.649468 0.673862 0.332895
Si Si6 0.528065 0.309882 0.659753
O O1 0.593639 0.500000 0.758004
O O2 0.668392 0.778965 0.706594
O O3 0.576084 0.749576 0.683433
O O4 0.405717 0.712101 0.040092
O O5 0.150626 0.779243 0.423235
O O6 0.336822 0.000000 0.173214
O O7 0.044678 0.500000 0.545576
O O8 0.000000 0.730212 0.500000
O O9 0.892287 0.750835 0.793245
O O10 0.248369 0.500000 0.968872
O O11 0.256974 0.758471 0.865622
O O12 0.374013 0.751182 0.853800
O O13 0.500000 0.655985 0.500000
O O14 0.712355 0.500000 0.262829
O O15 0.631989 0.758985 0.446520
O O16 0.528275 0.500000 0.655351
#
# Coordination Sequence:
#
# PCOD8058517 Si02
#       6
#     4   4   4   4   4   4
#     4  10  18  31  51  70  89 115 151 191 228 266
#     4  11  22  34  46  64  92 122 152 185 227 272
#     4  10  19  31  48  69  93 121 154 187 220 264
#     4   8  13  22  39  65  96 123 143 174 223 270
#     4   7  10  18  34  61  95 120 138 170 222 272
#     4   8  13  22  41  69  94 115 142 180 225 269
#
# _framework density 17.888667000000002
#
# number of rings (size 3 to 8) (size 9 to 14) (size 15 to 20)
#    0.000    3.000    0.000    6.000    0.000    3.000 
#    0.000    0.000    0.000    1.000    0.000    9.333 
#    0.000   11.333    0.000    0.000    0.000    0.000 
#
# Total GULP energy -297337.841596 kJ/mol
# GULP energy per Si atom -12389.076733 kJ/mol
# Density = 1.784795 g / cm^3
# Si number density = 17.888667 Si / 1000 Ang^3
#
#
#
# Elastic Constant Matrix: (Units=GPa)
#
#
# Indices 1 2 3 4 5 6 
#
# 1 140.7572 16.0030 64.1041 0.0000 23.7139 0.0000
# 2 16.0030 25.7244 10.9510 0.0000 -1.4775 0.0000
# 3 64.1041 10.9510 98.4217 0.0000 14.9732 0.0000
# 4 0.0000 0.0000 0.0000 3.8653 0.0000 -1.7116
# 5 23.7139 -1.4775 14.9732 0.0000 33.5055 0.0000
# 6 0.0000 0.0000 0.0000 -1.7116 0.0000 -1.1674
#
#
#
# Elastic Compliance Matrix: (Units=1/GPa)
#
#
# Indices 1 2 3 4 5 6 
#
# 1 0.011313 -0.004806 -0.005990 0.000000 -0.005541 0.000000
# 2 -0.004806 0.043382 -0.002688 0.000000 0.006516 0.000000
# 3 -0.005990 -0.002688 0.014736 0.000000 -0.002464 0.000000
# 4 0.000000 0.000000 0.000000 0.156868 0.000000 -0.229989
# 5 -0.005541 0.006516 -0.002464 0.000000 0.035156 0.000000
# 6 0.000000 0.000000 0.000000 -0.229989 0.000000 -0.519377
#
#
# Mechanical properties :
#
#
# Convention : Reuss Voigt Hill
#
# Bulk Modulus (GPa) = 23.55045 49.66882 36.60964
# Shear Modulus (GPa) = -23.06276 18.83036 -2.11620
#
# Velocity S-wave (km/s) = -3.59449 3.24796 -1.08883
# Velocity P-wave (km/s) = 2.00837 6.47236 4.35074
#
# Compressibility (1/GPa) = 0.04246203
#
# Stress axis : x y z
#
# Youngs Moduli (GPa) = 88.39758 23.05116 67.86120
#
# Poissons Ratio (x) = 0.11078 0.40651
# Poissons Ratio (y) = 0.42481 0.18242
# Poissons Ratio (z) = 0.52953 0.06196
#
# Static dielectric constant tensor:
#      x y z
#    x 3.600430 0.000000 0.430210 
#    y 0.000000 2.798980 0.000000 
#    z 0.430210 0.000000 3.422460 
# 
# 
# High freq. dielectric constant tensor:
#      x y z
#    x 1.694320 0.000000 0.026720 
#    y 0.000000 1.643810 0.000000 
#    z 0.026720 0.000000 1.675760 
# 
# From -- ./inp_files/54593.got.cif
#   From: 2010.06.25/outbox.cif.g09.slc.cpg/sg10_28_cif.got.tgz:54593.got - 2010.06.27 22:07:45.
