data_PCOD8058660
_publ_section_title
;
Structure prediction by ZEFSAII (Michael W. Deem and Ramdas Pophale) SiO2 
 PCOD8058660
Probable space group: P 2/M
;
_chemical_formula_sum "Si O2"
_cell_formula_units_Z 32
_cell_length_a 28.212929
_cell_length_b 9.059468
_cell_length_c 21.477543
_cell_angle_alpha 90.000000
_cell_angle_beta 161.604624
_cell_angle_gamma 90.000000
_cell_volume 1732.345693
_symmetry_space_group_name_H-M "P 2/M"
_symmetry_group_IT_number 10
_symmetry_cell_setting 'monoclinic'
loop_
_space_group_symop_operation_xyz
x,y,z
-x,y,-z
-x,-y,-z
x,-y,z
loop_
_atom_site_type_symbol
_atom_site_label
_atom_site_fract_x
_atom_site_fract_y
_atom_site_fract_z
Si Si1 0.570951 0.824615 0.905744
Si Si2 0.929367 0.324876 0.848643
Si Si3 0.142529 0.162688 0.804606
Si Si4 0.564782 0.328927 0.148871
Si Si5 0.412217 0.675880 0.593599
Si Si6 0.653883 0.834095 0.820046
Si Si7 0.095864 0.674178 0.933581
Si Si8 0.903653 0.327839 0.574613
O O1 0.534822 0.769583 0.929530
O O2 0.463090 0.742296 0.722740
O O3 0.547493 0.000000 0.869365
O O4 0.745968 0.782275 0.111149
O O5 0.936035 0.500000 0.857512
O O6 0.758342 0.272932 0.629258
O O7 0.026456 0.266648 0.911422
O O8 0.000000 0.259303 0.000000
O O9 0.997588 0.264986 0.633128
O O10 0.081251 0.000000 0.713156
O O11 0.241270 0.161809 0.989526
O O12 0.558101 0.500000 0.161289
O O13 0.734523 0.266973 0.362673
O O14 0.500000 0.306139 0.000000
O O15 0.431087 0.500000 0.619057
O O16 0.505837 0.740369 0.652134
O O17 0.608751 0.000000 0.743477
O O18 0.744633 0.754912 0.877460
O O19 0.125480 0.500000 0.970884
O O20 0.978194 0.717415 0.732856
O O21 0.901760 0.500000 0.561789
#
# Coordination Sequence:
#
# PCOD8058660 Si02
#       8
#     4   4   4   4   4   4   4   4
#     4  10  20  34  53  77 103 131 166 206 250 301
#     4   9  18  32  50  74 103 133 169 213 253 293
#     4   8  16  30  48  72  98 124 158 202 248 293
#     4  10  21  36  52  73 103 136 170 208 249 295
#     4  10  18  31  54  79 101 129 166 207 252 298
#     4   9  17  30  48  73 103 129 160 204 250 297
#     4   9  16  29  51  75  97 125 165 208 249 295
#     4   9  17  30  50  75  98 124 162 205 247 292
#
# _framework density 18.472064
#
# number of rings (size 3 to 8) (size 9 to 14) (size 15 to 20)
#    0.000    2.750    0.000    2.625    0.000    6.250 
#    0.000    5.000    0.000   10.875    0.000    0.000 
#    0.000    0.000    0.000    0.000    0.000    0.000 
#
# Total GULP energy -396738.320763 kJ/mol
# GULP energy per Si atom -12398.072524 kJ/mol
# Density = 1.843002 g / cm^3
# Si number density = 18.472064 Si / 1000 Ang^3
#
#
#
# Elastic Constant Matrix: (Units=GPa)
#
#
# Indices 1 2 3 4 5 6 
#
# 1 139.8273 52.3246 75.1335 0.0000 35.0391 0.0000
# 2 52.3246 65.0959 32.8947 0.0000 12.0654 0.0000
# 3 75.1335 32.8947 55.4078 0.0000 18.8688 0.0000
# 4 0.0000 0.0000 0.0000 10.9517 0.0000 5.1127
# 5 35.0391 12.0654 18.8688 0.0000 30.8445 0.0000
# 6 0.0000 0.0000 0.0000 5.1127 0.0000 21.0551
#
#
#
# Elastic Compliance Matrix: (Units=1/GPa)
#
#
# Indices 1 2 3 4 5 6 
#
# 1 0.030222 -0.004901 -0.034146 0.000000 -0.011526 0.000000
# 2 -0.004901 0.022755 -0.007236 0.000000 0.001093 0.000000
# 3 -0.034146 -0.007236 0.068807 0.000000 -0.000472 0.000000
# 4 0.000000 0.000000 0.000000 0.102984 0.000000 -0.025007
# 5 -0.011526 0.001093 -0.000472 0.000000 0.045375 0.000000
# 6 0.000000 0.000000 0.000000 -0.025007 0.000000 0.053567
#
#
# Mechanical properties :
#
#
# Convention : Reuss Voigt Hill
#
# Bulk Modulus (GPa) = 34.22545 64.55963 49.39254
# Shear Modulus (GPa) = 11.73668 19.23548 15.48608
#
# Velocity S-wave (km/s) = 2.52340 3.23046 2.89857
# Velocity P-wave (km/s) = 5.20178 6.99573 6.16436
#
# Compressibility (1/GPa) = 0.02921802
#
# Stress axis : x y z
#
# Youngs Moduli (GPa) = 33.08865 43.94571 14.53347
#
# Poissons Ratio (x) = 0.21539 0.49626
# Poissons Ratio (y) = 0.16218 0.10516
# Poissons Ratio (z) = 1.12985 0.31797
#
# Static dielectric constant tensor:
#      x y z
#    x 3.522980 0.000000 0.321600 
#    y 0.000000 3.342420 0.000000 
#    z 0.321600 0.000000 3.402800 
# 
# 
# High freq. dielectric constant tensor:
#      x y z
#    x 1.715070 0.000000 0.027660 
#    y 0.000000 1.703850 0.000000 
#    z 0.027660 0.000000 1.701330 
# 
# From -- ./inp_files/86940.got.cif
#   From: 2010.06.25/outbox.cif.g09.slc.cpg/sg10_44_cif.got.tgz:86940.got - 2010.06.27 22:07:45.
