data_PCOD8058400
_publ_section_title
;
Structure prediction by ZEFSAII (Michael W. Deem and Ramdas Pophale) SiO2 
 PCOD8058400
Probable space group: P 2/M
;
_chemical_formula_sum "Si O2"
_cell_formula_units_Z 32
_cell_length_a 19.081522
_cell_length_b 15.895487
_cell_length_c 7.777090
_cell_angle_alpha 90.000000
_cell_angle_beta 44.150960
_cell_angle_gamma 90.000000
_cell_volume 1643.073697
_symmetry_space_group_name_H-M "P 2/M"
_symmetry_group_IT_number 10
_symmetry_cell_setting 'monoclinic'
loop_
_space_group_symop_operation_xyz
x,y,z
-x,y,-z
-x,-y,-z
x,-y,z
loop_
_atom_site_type_symbol
_atom_site_label
_atom_site_fract_x
_atom_site_fract_y
_atom_site_fract_z
Si Si1 0.735732 0.325222 0.329180
Si Si2 0.387489 0.733174 0.760989
Si Si3 0.385618 0.272204 0.152116
Si Si4 0.023250 0.240774 0.649034
Si Si5 0.850164 0.848894 0.119106
Si Si6 0.211864 0.152316 0.419892
Si Si7 0.059704 0.406405 0.069196
Si Si8 0.723798 0.091463 0.037888
O O1 0.675757 0.326718 0.254304
O O2 0.661682 0.337801 0.625105
O O3 0.787256 0.235711 0.256165
O O4 0.820708 0.396885 0.174910
O O5 0.500000 0.733207 0.500000
O O6 0.379068 0.693632 0.967329
O O7 0.352342 0.830608 0.817446
O O8 0.323699 0.185160 0.267888
O O9 0.500000 0.251512 0.000000
O O10 0.140948 0.232384 0.489028
O O11 0.000000 0.207875 0.500000
O O12 0.983906 0.336865 0.724359
O O13 0.964585 0.178235 0.881811
O O14 0.836628 0.895179 0.328484
O O15 0.806648 0.904604 0.042427
O O16 0.217675 0.090401 0.247539
O O17 0.041143 0.500000 0.176682
O O18 0.000000 0.392689 0.000000
O O19 0.669137 0.000000 0.151163
#
# Coordination Sequence:
#
# PCOD8058400 Si02
#       8
#     4   4   4   4   4   4   4   4
#     4   9  18  34  55  81 109 144 186 229 268 322
#     4  10  19  33  57  83 107 145 191 238 282 322
#     4  10  18  30  54  83 104 134 185 241 269 318
#     4  11  19  34  59  84 110 142 188 229 271 323
#     4   9  18  34  54  76 105 144 187 229 270 323
#     4  10  20  34  55  78 109 145 187 235 273 327
#     4  10  21  37  57  85 122 153 179 220 279 335
#     4  10  21  35  51  79 114 147 184 231 287 342
#
# _framework density 19.475694000000001
#
# number of rings (size 3 to 8) (size 9 to 14) (size 15 to 20)
#    0.000    2.125    2.500    2.625    1.750    1.000 
#    0.000    1.250    0.000    3.750    0.000    0.000 
#    0.000    0.000    0.000    0.000    0.000    0.000 
#
# Total GULP energy -396520.047545 kJ/mol
# GULP energy per Si atom -12391.251486 kJ/mol
# Density = 1.943137 g / cm^3
# Si number density = 19.475694 Si / 1000 Ang^3
#
#
#
# Elastic Constant Matrix: (Units=GPa)
#
#
# Indices 1 2 3 4 5 6 
#
# 1 129.1086 23.4552 51.7099 0.0000 5.2303 0.0000
# 2 23.4552 35.3378 17.5672 0.0000 -5.6576 0.0000
# 3 51.7099 17.5672 93.0011 0.0000 5.3173 0.0000
# 4 0.0000 0.0000 0.0000 15.8429 0.0000 4.4232
# 5 5.2303 -5.6576 5.3173 0.0000 47.7880 0.0000
# 6 0.0000 0.0000 0.0000 4.4232 0.0000 13.5608
#
#
#
# Elastic Compliance Matrix: (Units=1/GPa)
#
#
# Indices 1 2 3 4 5 6 
#
# 1 0.010645 -0.004797 -0.004945 0.000000 -0.001183 0.000000
# 2 -0.004797 0.034331 -0.004106 0.000000 0.005046 0.000000
# 3 -0.004945 -0.004106 0.014366 0.000000 -0.001543 0.000000
# 4 0.000000 0.000000 0.000000 0.069443 0.000000 -0.022651
# 5 -0.001183 0.005046 -0.001543 0.000000 0.021824 0.000000
# 6 0.000000 0.000000 0.000000 -0.022651 0.000000 0.081130
#
#
# Mechanical properties :
#
#
# Convention : Reuss Voigt Hill
#
# Bulk Modulus (GPa) = 31.59951 49.21245 40.40598
# Shear Modulus (GPa) = 18.51943 26.41936 22.46940
#
# Velocity S-wave (km/s) = 3.08701 3.68711 3.40032
# Velocity P-wave (km/s) = 5.38205 6.59165 6.01732
#
# Compressibility (1/GPa) = 0.03164606
#
# Stress axis : x y z
#
# Youngs Moduli (GPa) = 93.93703 29.12777 69.60815
#
# Poissons Ratio (x) = 0.13972 0.34423
# Poissons Ratio (y) = 0.45059 0.28584
# Poissons Ratio (z) = 0.46455 0.11961
#
# Static dielectric constant tensor:
#      x y z
#    x 3.870760 0.000000 0.278460 
#    y 0.000000 3.042630 0.000000 
#    z 0.278460 0.000000 3.936850 
# 
# 
# High freq. dielectric constant tensor:
#      x y z
#    x 1.775430 0.000000 0.012140 
#    y 0.000000 1.694850 0.000000 
#    z 0.012140 0.000000 1.769620 
# 
# From -- ./inp_files/35117.got.cif
#   From: 2010.06.25/outbox.cif.g09.slc.cpg/sg10_18_cif.got.tgz:35117.got - 2010.06.27 22:07:45.
