data_PCOD8058239
_publ_section_title
;
Structure prediction by ZEFSAII (Michael W. Deem and Ramdas Pophale) SiO2 
 PCOD8058239
Probable space group: P 2/M
;
_chemical_formula_sum "Si O2"
_cell_formula_units_Z 28
_cell_length_a 9.978695
_cell_length_b 9.214565
_cell_length_c 29.176568
_cell_angle_alpha 90.000000
_cell_angle_beta 34.351556
_cell_angle_gamma 90.000000
_cell_volume 1513.802116
_symmetry_space_group_name_H-M "P 2/M"
_symmetry_group_IT_number 10
_symmetry_cell_setting 'monoclinic'
loop_
_space_group_symop_operation_xyz
x,y,z
-x,y,-z
-x,-y,-z
x,-y,z
loop_
_atom_site_type_symbol
_atom_site_label
_atom_site_fract_x
_atom_site_fract_y
_atom_site_fract_z
Si Si1 0.445403 0.335156 0.311923
Si Si2 0.412915 0.330408 0.427014
Si Si3 0.352630 0.839169 0.994825
Si Si4 0.836756 0.167705 0.353593
Si Si5 0.023659 0.666665 0.852171
Si Si6 0.824836 0.831053 0.822808
Si Si7 0.996854 0.170142 0.410261
O O1 0.352851 0.500000 0.332258
O O2 0.478243 0.298746 0.356163
O O3 0.265691 0.224879 0.338822
O O4 0.698168 0.314489 0.215528
O O5 0.390301 0.500000 0.443945
O O6 0.614586 0.264852 0.402517
O O7 0.162568 0.253824 0.507768
O O8 0.543186 0.788466 0.902170
O O9 0.255076 0.000000 0.011563
O O10 0.500000 0.837447 0.000000
O O11 0.126701 0.733379 0.062999
O O12 0.066035 0.202721 0.257625
O O13 0.904447 0.207565 0.385920
O O14 0.760448 0.000000 0.370356
O O15 0.951263 0.500000 0.867530
O O16 0.970191 0.742591 0.819250
O O17 0.848723 0.000000 0.829384
O O18 0.987943 0.000000 0.423088
#
# Coordination Sequence:
#
# PCOD8058239 Si02
#       7
#     4   4   4   4   4   4   4
#     4  10  22  38  54  76 107 140 176 217 259 311
#     4  11  22  38  58  79 104 137 177 218 264 315
#     4   8  15  27  45  73 104 134 168 206 255 308
#     4  10  21  37  56  79 108 138 174 220 261 307
#     4  10  18  30  49  76 106 134 170 214 257 302
#     4   9  17  31  51  74 104 138 169 208 258 307
#     4  11  24  38  54  79 106 137 178 219 264 313
#
# _framework density 18.496473000000002
#
# number of rings (size 3 to 8) (size 9 to 14) (size 15 to 20)
#    0.000    2.143    1.429    3.000    0.000    9.429 
#    0.000    0.000    0.000    0.857    0.000    6.000 
#    0.000    0.000    0.000    0.000    0.000    0.000 
#
# Total GULP energy -347209.715844 kJ/mol
# GULP energy per Si atom -12400.346994 kJ/mol
# Density = 1.845437 g / cm^3
# Si number density = 18.496473 Si / 1000 Ang^3
#
#
#
# Elastic Constant Matrix: (Units=GPa)
#
#
# Indices 1 2 3 4 5 6 
#
# 1 58.8031 40.0061 15.5477 0.0000 -17.1975 0.0000
# 2 40.0061 93.0245 44.5142 0.0000 -15.2579 0.0000
# 3 15.5477 44.5142 106.8058 0.0000 -21.3589 0.0000
# 4 0.0000 0.0000 0.0000 31.7938 0.0000 -8.9893
# 5 -17.1975 -15.2579 -21.3589 0.0000 18.5376 0.0000
# 6 0.0000 0.0000 0.0000 -8.9893 0.0000 25.1594
#
#
#
# Elastic Compliance Matrix: (Units=1/GPa)
#
#
# Indices 1 2 3 4 5 6 
#
# 1 0.030996 -0.011790 0.005472 0.000000 0.025356 0.000000
# 2 -0.011790 0.018443 -0.006655 0.000000 -0.003426 0.000000
# 3 0.005472 -0.006655 0.014631 0.000000 0.016456 0.000000
# 4 0.000000 0.000000 0.000000 0.034987 0.000000 0.012501
# 5 0.025356 -0.003426 0.016456 0.000000 0.093609 0.000000
# 6 0.000000 0.000000 0.000000 0.012501 0.000000 0.044213
#
#
# Mechanical properties :
#
#
# Convention : Reuss Voigt Hill
#
# Bulk Modulus (GPa) = 26.23017 50.97440 38.60229
# Shear Modulus (GPa) = 18.14670 25.66918 21.90794
#
# Velocity S-wave (km/s) = 3.13563 3.72934 3.44530
# Velocity P-wave (km/s) = 5.22700 6.79432 6.06153
#
# Compressibility (1/GPa) = 0.03812404
#
# Stress axis : x y z
#
# Youngs Moduli (GPa) = 32.26259 54.22108 68.34821
#
# Poissons Ratio (x) = 0.63925 -0.37402
# Poissons Ratio (y) = 0.38036 0.45489
# Poissons Ratio (z) = -0.17655 0.36087
#
# Static dielectric constant tensor:
#      x y z
#    x 2.994880 0.000000 -0.053980 
#    y 0.000000 3.442470 0.000000 
#    z -0.053980 0.000000 3.899270 
# 
# 
# High freq. dielectric constant tensor:
#      x y z
#    x 1.674710 0.000000 -0.009520 
#    y 0.000000 1.721770 0.000000 
#    z -0.009520 0.000000 1.738010 
# 
# From -- ./inp_files/37037.got.cif
#   From: 2010.06.25/outbox.cif.g09.slc.cpg/sg10_19_cif.got.tgz:37037.got - 2010.06.27 22:07:45.
