data_PCOD8058484
_publ_section_title
;
Structure prediction by ZEFSAII (Michael W. Deem and Ramdas Pophale) SiO2 
 PCOD8058484
Probable space group: P 2/M
;
_chemical_formula_sum "Si O2"
_cell_formula_units_Z 32
_cell_length_a 12.216355
_cell_length_b 8.962283
_cell_length_c 20.329140
_cell_angle_alpha 90.000000
_cell_angle_beta 53.469987
_cell_angle_gamma 90.000000
_cell_volume 1788.502691
_symmetry_space_group_name_H-M "P 2/M"
_symmetry_group_IT_number 10
_symmetry_cell_setting 'monoclinic'
loop_
_space_group_symop_operation_xyz
x,y,z
-x,y,-z
-x,-y,-z
x,-y,z
loop_
_atom_site_type_symbol
_atom_site_label
_atom_site_fract_x
_atom_site_fract_y
_atom_site_fract_z
Si Si1 0.795826 0.675997 0.336158
Si Si2 0.828756 0.327908 0.690600
Si Si3 0.908615 0.322346 0.800951
Si Si4 0.192888 0.677148 0.884010
Si Si5 0.309882 0.824643 0.375179
Si Si6 0.101808 0.677263 0.052926
Si Si7 0.405803 0.677588 0.702310
Si Si8 0.142070 0.671247 0.542811
O O1 0.805675 0.500000 0.324624
O O2 0.671322 0.734113 0.336124
O O3 0.775855 0.716885 0.420157
O O4 0.938590 0.744112 0.259347
O O5 0.784575 0.500000 0.699898
O O6 0.818708 0.271211 0.770296
O O7 0.724573 0.229505 0.685988
O O8 0.982054 0.305763 0.610438
O O9 0.917775 0.500000 0.794247
O O10 0.845842 0.268008 0.893663
O O11 0.192862 0.500000 0.880353
O O12 0.321105 0.736114 0.796299
O O13 0.051737 0.737102 0.903510
O O14 0.200289 0.731925 0.958043
O O15 0.448260 0.752157 0.350790
O O16 0.188917 0.776555 0.467110
O O17 0.325612 0.000000 0.369498
O O18 0.097389 0.500000 0.053368
O O19 0.423171 0.500000 0.696875
O O20 0.173222 0.500000 0.512611
#
# Coordination Sequence:
#
# PCOD8058484 Si02
#       8
#     4   4   4   4   4   4   4   4
#     4   8  14  26  47  74  98 122 151 186 232 281
#     4   9  18  33  54  75  92 117 156 200 239 278
#     4   8  12  22  44  74 103 122 144 187 238 281
#     4   8  13  20  38  71 107 132 146 175 227 283
#     4  12  25  36  46  64  92 128 165 200 240 279
#     4   8  11  18  37  73 111 127 139 177 236 283
#     4  10  18  31  50  70  98 132 163 188 219 277
#     4   9  18  34  55  75  93 114 150 200 244 284
#
# _framework density 17.892061000000002
#
# number of rings (size 3 to 8) (size 9 to 14) (size 15 to 20)
#    0.000    3.000    1.250    3.750    0.000    2.500 
#    0.000    3.125    0.000    1.500    0.000    7.875 
#    0.000    0.000    0.000    0.000    0.000    0.000 
#
# Total GULP energy -396483.270379 kJ/mol
# GULP energy per Si atom -12390.102199 kJ/mol
# Density = 1.785134 g / cm^3
# Si number density = 17.892061 Si / 1000 Ang^3
#
#
#
# Elastic Constant Matrix: (Units=GPa)
#
#
# Indices 1 2 3 4 5 6 
#
# 1 100.3722 23.1883 19.0263 0.0000 25.9335 0.0000
# 2 23.1883 36.1783 10.4634 0.0000 4.2604 0.0000
# 3 19.0263 10.4634 45.5114 0.0000 23.2991 0.0000
# 4 0.0000 0.0000 0.0000 -0.2617 0.0000 0.6776
# 5 25.9335 4.2604 23.2991 0.0000 30.7674 0.0000
# 6 0.0000 0.0000 0.0000 0.6776 0.0000 -2.0381
#
#
#
# Elastic Compliance Matrix: (Units=1/GPa)
#
#
# Indices 1 2 3 4 5 6 
#
# 1 0.014943 -0.008758 0.002603 0.000000 -0.013353 0.000000
# 2 -0.008758 0.034799 -0.009229 0.000000 0.009552 0.000000
# 3 0.002603 -0.009229 0.038338 0.000000 -0.029948 0.000000
# 4 0.000000 0.000000 0.000000-27.420188 0.000000 -9.116066
# 5 -0.013353 0.009552 -0.029948 0.000000 0.065113 0.000000
# 6 0.000000 0.000000 0.000000 -9.116066 0.000000 -3.521362
#
#
# Mechanical properties :
#
#
# Convention : Reuss Voigt Hill
#
# Bulk Modulus (GPa) = 17.44889 31.93532 24.69211
# Shear Modulus (GPa) = -0.16266 14.31910 7.07822
#
# Velocity S-wave (km/s) = -0.30185 2.83204 1.99114
# Velocity P-wave (km/s) = 3.10677 5.34617 4.37227
#
# Compressibility (1/GPa) = 0.05731022
#
# Stress axis : x y z
#
# Youngs Moduli (GPa) = 66.92095 28.73675 26.08387
#
# Poissons Ratio (x) = 0.25167 -0.06789
# Poissons Ratio (y) = 0.58609 0.24074
# Poissons Ratio (z) = -0.17418 0.26523
#
# Static dielectric constant tensor:
#      x y z
#    x 3.504350 0.000000 0.424560 
#    y 0.000000 2.705150 0.000000 
#    z 0.424560 0.000000 3.565160 
# 
# 
# High freq. dielectric constant tensor:
#      x y z
#    x 1.686750 0.000000 0.029250 
#    y 0.000000 1.625370 0.000000 
#    z 0.029250 0.000000 1.689560 
# 
# From -- ./inp_files/83527.got.cif
#   From: 2010.06.25/outbox.cif.g09.slc.cpg/sg10_42_cif.got.tgz:83527.got - 2010.06.27 22:07:45.
