data_PCOD8058410
_publ_section_title
;
Structure prediction by ZEFSAII (Michael W. Deem and Ramdas Pophale) SiO2 
 PCOD8058410
Probable space group: P 2/M
;
_chemical_formula_sum "Si O2"
_cell_formula_units_Z 24
_cell_length_a 23.397430
_cell_length_b 9.304422
_cell_length_c 16.774120
_cell_angle_alpha 90.000000
_cell_angle_beta 22.615776
_cell_angle_gamma 90.000000
_cell_volume 1404.266584
_symmetry_space_group_name_H-M "P 2/M"
_symmetry_group_IT_number 10
_symmetry_cell_setting 'monoclinic'
loop_
_space_group_symop_operation_xyz
x,y,z
-x,y,-z
-x,-y,-z
x,-y,z
loop_
_atom_site_type_symbol
_atom_site_label
_atom_site_fract_x
_atom_site_fract_y
_atom_site_fract_z
Si Si1 0.385678 0.829655 0.950370
Si Si2 0.101928 0.332038 0.603922
Si Si3 0.189045 0.159072 0.056228
Si Si4 0.329437 0.000000 0.742388
Si Si5 0.175063 0.000000 0.773695
Si Si6 0.653565 0.332617 0.841986
Si Si7 0.719952 0.159202 0.502211
O O1 0.314841 0.755601 0.118730
O O2 0.380980 0.000000 0.966215
O O3 0.291348 0.780083 0.995383
O O4 0.554748 0.775330 0.721270
O O5 0.086228 0.500000 0.639076
O O6 0.213047 0.296606 0.389073
O O7 0.163109 0.262911 0.606116
O O8 0.941832 0.270332 0.789099
O O9 0.289636 0.141588 0.846478
O O10 0.124528 0.000000 0.161709
O O11 0.500000 0.000000 0.500000
O O12 0.230178 0.000000 0.792140
O O13 0.234818 0.141701 0.649418
O O14 0.000000 0.000000 0.000000
O O15 0.645216 0.500000 0.874481
O O16 0.500000 0.280407 0.000000
O O17 0.726538 0.000000 0.534524
#
# Coordination Sequence:
#
# PCOD8058410 Si02
#       7
#     4   4   4   2   2   4   4
#     4  10  19  35  53  80 110 139 181 235 270 312
#     4  11  21  36  54  78 113 153 185 220 268 319
#     4   9  21  36  56  83 113 139 178 226 278 327
#     4  10  18  36  64  83 106 140 176 225 268 340
#     4  10  18  30  56  83 106 132 174 217 274 334
#     4  10  21  35  53  77 108 151 196 221 255 315
#     4   9  19  32  54  81 109 133 184 227 274 322
#
# _framework density 17.090772000000001
#
# number of rings (size 3 to 8) (size 9 to 14) (size 15 to 20)
#    1.000    1.167    1.667    2.500    0.000    3.000 
#    0.000    3.333    0.000    5.000    0.000    0.000 
#    0.000    0.000    0.000    0.000    0.000    0.000 
#
# Total GULP energy -297523.453906 kJ/mol
# GULP energy per Si atom -12396.810579 kJ/mol
# Density = 1.705187 g / cm^3
# Si number density = 17.090772 Si / 1000 Ang^3
#
#
#
# Elastic Constant Matrix: (Units=GPa)
#
#
# Indices 1 2 3 4 5 6 
#
# 1 153.7086 41.9765 51.8456 0.0000 -5.4604 0.0000
# 2 41.9765 48.3510 35.3789 0.0000 -5.7071 0.0000
# 3 51.8456 35.3789 106.0552 0.0000 -5.8687 0.0000
# 4 0.0000 0.0000 0.0000 22.5370 0.0000 -3.9907
# 5 -5.4604 -5.7071 -5.8687 0.0000 32.7423 0.0000
# 6 0.0000 0.0000 0.0000 -3.9907 0.0000 4.0613
#
#
#
# Elastic Compliance Matrix: (Units=1/GPa)
#
#
# Indices 1 2 3 4 5 6 
#
# 1 0.008953 -0.006044 -0.002359 0.000000 0.000017 0.000000
# 2 -0.006044 0.031770 -0.007467 0.000000 0.003191 0.000000
# 3 -0.002359 -0.007467 0.013110 0.000000 0.000655 0.000000
# 4 0.000000 0.000000 0.000000 0.053718 0.000000 0.052784
# 5 0.000017 0.003191 0.000655 0.000000 0.031218 0.000000
# 6 0.000000 0.000000 0.000000 0.052784 0.000000 0.298096
#
#
# Mechanical properties :
#
#
# Convention : Reuss Voigt Hill
#
# Bulk Modulus (GPa) = 45.26659 62.94631 54.10645
# Shear Modulus (GPa) = 10.50491 23.79569 17.15030
#
# Velocity S-wave (km/s) = 2.48191 3.73542 3.17122
# Velocity P-wave (km/s) = 5.89548 7.45084 6.71832
#
# Compressibility (1/GPa) = 0.02209135
#
# Stress axis : x y z
#
# Youngs Moduli (GPa) = 111.69631 31.47670 76.28039
#
# Poissons Ratio (x) = 0.19025 0.17998
# Poissons Ratio (y) = 0.67511 0.56956
# Poissons Ratio (z) = 0.26354 0.23503
#
# Static dielectric constant tensor:
#      x y z
#    x 3.179930 0.000000 0.014350 
#    y 0.000000 2.936280 0.000000 
#    z 0.014350 0.000000 3.168360 
# 
# 
# High freq. dielectric constant tensor:
#      x y z
#    x 1.665680 0.000000 -0.005570 
#    y 0.000000 1.631660 0.000000 
#    z -0.005570 0.000000 1.664060 
# 
# From -- ./inp_files/80095.got.cif
#   From: 2010.06.25/outbox.cif.g09.slc.cpg/sg10_41_cif.got.tgz:80095.got - 2010.06.27 22:07:45.
