data_PCOD8058338
_publ_section_title
;
Structure prediction by ZEFSAII (Michael W. Deem and Ramdas Pophale) SiO2 
 PCOD8058338
Probable space group: P 2/M
;
_chemical_formula_sum "Si O2"
_cell_formula_units_Z 32
_cell_length_a 18.505876
_cell_length_b 12.130813
_cell_length_c 18.688681
_cell_angle_alpha 90.000000
_cell_angle_beta 156.011284
_cell_angle_gamma 90.000000
_cell_volume 1705.687040
_symmetry_space_group_name_H-M "P 2/M"
_symmetry_group_IT_number 10
_symmetry_cell_setting 'monoclinic'
loop_
_space_group_symop_operation_xyz
x,y,z
-x,y,-z
-x,-y,-z
x,-y,z
loop_
_atom_site_type_symbol
_atom_site_label
_atom_site_fract_x
_atom_site_fract_y
_atom_site_fract_z
Si Si1 0.997690 0.726190 0.919714
Si Si2 0.836490 0.120545 0.472661
Si Si3 0.500227 0.129298 0.915999
Si Si4 0.084048 0.373952 0.300613
Si Si5 0.252446 0.871521 0.066308
Si Si6 0.149902 0.782276 0.830774
Si Si7 0.359887 0.185509 0.571984
Si Si8 0.667373 0.876529 0.610854
O O1 0.970008 0.637278 0.831835
O O2 0.835350 0.807058 0.782084
O O3 0.165161 0.804965 0.053154
O O4 0.000000 0.666655 0.000000
O O5 0.690972 0.172185 0.286497
O O6 0.750160 0.111579 0.472745
O O7 0.020930 0.186266 0.647542
O O8 0.887560 0.000000 0.490326
O O9 0.532746 0.000000 0.923445
O O10 0.500000 0.143256 0.000000
O O11 0.650422 0.209810 0.018894
O O12 0.126715 0.500000 0.356515
O O13 0.264138 0.305019 0.479534
O O14 0.918126 0.336339 0.201214
O O15 0.437779 0.808886 0.216822
O O16 0.275898 0.000000 0.107827
O O17 0.133412 0.861883 0.886064
O O18 0.366868 0.121592 0.504308
O O19 0.500000 0.822845 0.500000
O O20 0.698215 0.000000 0.666648
#
# Coordination Sequence:
#
# PCOD8058338 Si02
#       8
#     4   4   4   4   4   4   4   4
#     4  10  21  33  49  75 106 139 180 225 280 339
#     4  10  18  30  51  78 114 152 184 218 261 321
#     4  10  20  33  52  84 125 159 184 213 260 332
#     4   9  21  40  58  75 100 137 188 247 287 319
#     4  11  19  30  52  80 114 145 177 220 270 337
#     4  10  20  34  55  80 111 145 190 228 274 324
#     4  10  19  31  51  75 100 138 184 229 276 324
#     4  10  19  30  45  70 107 146 179 216 269 334
#
# _framework density 18.760767999999999
#
# number of rings (size 3 to 8) (size 9 to 14) (size 15 to 20)
#    0.000    2.000    1.250    4.125    0.000    2.750 
#    0.000    4.375    0.000   13.125    0.000    3.500 
#    0.000    0.000    0.000    0.000    0.000    0.000 
#
# Total GULP energy -396514.922747 kJ/mol
# GULP energy per Si atom -12391.091336 kJ/mol
# Density = 1.871807 g / cm^3
# Si number density = 18.760768 Si / 1000 Ang^3
#
#
#
# Elastic Constant Matrix: (Units=GPa)
#
#
# Indices 1 2 3 4 5 6 
#
# 1 61.6326 13.5458 17.4794 0.0000 -7.9656 0.0000
# 2 13.5458 85.8749 27.3376 0.0000 5.5460 0.0000
# 3 17.4794 27.3376 100.7444 0.0000 -8.2878 0.0000
# 4 0.0000 0.0000 0.0000 15.2025 0.0000 2.4260
# 5 -7.9656 5.5460 -8.2878 0.0000 31.4018 0.0000
# 6 0.0000 0.0000 0.0000 2.4260 0.0000 13.6671
#
#
#
# Elastic Compliance Matrix: (Units=1/GPa)
#
#
# Indices 1 2 3 4 5 6 
#
# 1 0.017927 -0.002452 -0.002081 0.000000 0.004431 0.000000
# 2 -0.002452 0.013411 -0.003537 0.000000 -0.003924 0.000000
# 3 -0.002081 -0.003537 0.011505 0.000000 0.003133 0.000000
# 4 0.000000 0.000000 0.000000 0.067696 0.000000 -0.012016
# 5 0.004431 -0.003924 0.003133 0.000000 0.034489 0.000000
# 6 0.000000 0.000000 0.000000 -0.012016 0.000000 0.075301
#
#
# Mechanical properties :
#
#
# Convention : Reuss Voigt Hill
#
# Bulk Modulus (GPa) = 37.44657 40.55306 38.99982
# Shear Modulus (GPa) = 20.37759 24.71356 22.54558
#
# Velocity S-wave (km/s) = 3.29930 3.63340 3.47037
# Velocity P-wave (km/s) = 5.87514 6.26617 6.07380
#
# Compressibility (1/GPa) = 0.02670471
#
# Stress axis : x y z
#
# Youngs Moduli (GPa) = 55.78250 74.56676 86.92244
#
# Poissons Ratio (x) = 0.18281 0.18085
# Poissons Ratio (y) = 0.13676 0.30741
# Poissons Ratio (z) = 0.11606 0.26371
#
# Static dielectric constant tensor:
#      x y z
#    x 4.145050 0.000000 -0.330250 
#    y 0.000000 2.895660 0.000000 
#    z -0.330250 0.000000 3.860520 
# 
# 
# High freq. dielectric constant tensor:
#      x y z
#    x 1.729740 0.000000 -0.002080 
#    y 0.000000 1.667030 0.000000 
#    z -0.002080 0.000000 1.745050 
# 
# From -- ./inp_files/86291.got.cif
#   From: 2010.06.25/outbox.cif.g09.slc.cpg/sg10_44_cif.got.tgz:86291.got - 2010.06.27 22:07:45.
