data_PCOD8058870
_publ_section_title
;
Structure prediction by ZEFSAII (Michael W. Deem and Ramdas Pophale) SiO2 
 PCOD8058870
Probable space group: P 2/M
;
_chemical_formula_sum "Si O2"
_cell_formula_units_Z 32
_cell_length_a 16.374885
_cell_length_b 9.056644
_cell_length_c 25.015517
_cell_angle_alpha 90.000000
_cell_angle_beta 153.338136
_cell_angle_gamma 90.000000
_cell_volume 1664.694713
_symmetry_space_group_name_H-M "P 2/M"
_symmetry_group_IT_number 10
_symmetry_cell_setting 'monoclinic'
loop_
_space_group_symop_operation_xyz
x,y,z
-x,y,-z
-x,-y,-z
x,-y,z
loop_
_atom_site_type_symbol
_atom_site_label
_atom_site_fract_x
_atom_site_fract_y
_atom_site_fract_z
Si Si1 0.540092 0.328888 0.270698
Si Si2 0.129895 0.325663 0.735698
Si Si3 0.125066 0.330419 0.024082
Si Si4 0.048432 0.173000 0.173839
Si Si5 0.571209 0.676656 0.170234
Si Si6 0.278515 0.323496 0.516499
Si Si7 0.205591 0.325987 0.898552
Si Si8 0.462757 0.172577 0.417169
O O1 0.586807 0.500000 0.294140
O O2 0.330312 0.301650 0.162181
O O3 0.587470 0.259463 0.240217
O O4 0.656364 0.261053 0.387520
O O5 0.120768 0.500000 0.724366
O O6 0.258028 0.261422 0.763653
O O7 0.219719 0.281636 0.844665
O O8 0.925775 0.262716 0.611209
O O9 0.095913 0.500000 0.988903
O O10 0.000000 0.286296 0.000000
O O11 0.079315 0.224008 0.948898
O O12 0.255708 0.218445 0.282975
O O13 0.976691 0.250833 0.185457
O O14 0.031305 0.000000 0.172474
O O15 0.567080 0.500000 0.167870
O O16 0.384313 0.733202 0.033786
O O17 0.290288 0.500000 0.521351
O O18 0.404989 0.263130 0.543608
O O19 0.183509 0.500000 0.892774
O O20 0.500000 0.216306 0.500000
O O21 0.497574 0.000000 0.427821
#
# Coordination Sequence:
#
# PCOD8058870 Si02
#       8
#     4   4   4   4   4   4   4   4
#     4   9  17  30  49  76 108 141 170 206 259 314
#     4   9  18  30  50  82 108 133 173 225 267 300
#     4  10  19  33  53  76 103 137 175 211 256 313
#     4  11  22  34  52  78 105 134 173 217 262 307
#     4   9  16  29  51  78 108 139 174 213 261 317
#     4  10  20  34  53  80 109 134 174 222 261 302
#     4  10  18  32  54  78 107 139 175 214 262 318
#     4  10  22  39  55  73 103 143 179 209 256 319
#
# _framework density 19.222743999999999
#
# number of rings (size 3 to 8) (size 9 to 14) (size 15 to 20)
#    0.000    2.250    1.250    2.250    0.000    4.500 
#    0.000    3.125    0.000    2.250    0.000    0.875 
#    0.000    0.000    0.000    0.000    0.000    0.000 
#
# Total GULP energy -396771.527325 kJ/mol
# GULP energy per Si atom -12399.110229 kJ/mol
# Density = 1.917899 g / cm^3
# Si number density = 19.222744 Si / 1000 Ang^3
#
#
#
# Elastic Constant Matrix: (Units=GPa)
#
#
# Indices 1 2 3 4 5 6 
#
# 1 169.2470 28.1782 69.2831 0.0000 7.1363 0.0000
# 2 28.1782 23.6139 22.5401 0.0000 3.2642 0.0000
# 3 69.2831 22.5401 114.5510 0.0000 -6.1743 0.0000
# 4 0.0000 0.0000 0.0000 12.5039 0.0000 -0.0711
# 5 7.1363 3.2642 -6.1743 0.0000 36.3618 0.0000
# 6 0.0000 0.0000 0.0000 -0.0711 0.0000 7.0919
#
#
#
# Elastic Compliance Matrix: (Units=1/GPa)
#
#
# Indices 1 2 3 4 5 6 
#
# 1 0.008717 -0.006176 -0.004157 0.000000 -0.001862 0.000000
# 2 -0.006176 0.058076 -0.007981 0.000000 -0.005357 0.000000
# 3 -0.004157 -0.007981 0.013016 0.000000 0.003743 0.000000
# 4 0.000000 0.000000 0.000000 0.079979 0.000000 0.000802
# 5 -0.001862 -0.005357 0.003743 0.000000 0.028983 0.000000
# 6 0.000000 0.000000 0.000000 0.000802 0.000000 0.141014
#
#
# Mechanical properties :
#
#
# Convention : Reuss Voigt Hill
#
# Bulk Modulus (GPa) = 23.15838 60.82386 41.99112
# Shear Modulus (GPa) = 13.12991 23.68555 18.40773
#
# Velocity S-wave (km/s) = 2.61634 3.51403 3.09787
# Velocity P-wave (km/s) = 4.60440 6.94081 5.88962
#
# Compressibility (1/GPa) = 0.04318091
#
# Stress axis : x y z
#
# Youngs Moduli (GPa) = 114.71474 17.21868 76.82645
#
# Poissons Ratio (x) = 0.10635 0.31940
# Poissons Ratio (y) = 0.70852 0.61313
# Poissons Ratio (z) = 0.47692 0.13742
#
# Static dielectric constant tensor:
#      x y z
#    x 3.866400 0.000000 -0.031690 
#    y 0.000000 3.018430 0.000000 
#    z -0.031690 0.000000 3.746850 
# 
# 
# High freq. dielectric constant tensor:
#      x y z
#    x 1.765060 0.000000 -0.000850 
#    y 0.000000 1.691650 0.000000 
#    z -0.000850 0.000000 1.757350 
# 
# From -- ./inp_files/89499.got.cif
#   From: 2010.06.25/outbox.cif.g09.slc.cpg/sg10_45_cif.got.tgz:89499.got - 2010.06.27 22:07:45.
