data_PCOD8058012
_publ_section_title
;
Structure prediction by ZEFSAII (Michael W. Deem and Ramdas Pophale) SiO2 
 PCOD8058012
Probable space group: P 2/M
;
_chemical_formula_sum "Si O2"
_cell_formula_units_Z 28
_cell_length_a 14.659177
_cell_length_b 9.070438
_cell_length_c 19.539662
_cell_angle_alpha 90.000000
_cell_angle_beta 147.855097
_cell_angle_gamma 90.000000
_cell_volume 1382.348006
_symmetry_space_group_name_H-M "P 2/M"
_symmetry_group_IT_number 10
_symmetry_cell_setting 'monoclinic'
loop_
_space_group_symop_operation_xyz
x,y,z
-x,y,-z
-x,-y,-z
x,-y,z
loop_
_atom_site_type_symbol
_atom_site_label
_atom_site_fract_x
_atom_site_fract_y
_atom_site_fract_z
Si Si1 0.635033 0.664407 0.036117
Si Si2 0.022940 0.676929 0.807532
Si Si3 0.353967 0.662548 0.756099
Si Si4 0.485638 0.675992 0.698198
Si Si5 0.868341 0.674978 0.973166
Si Si6 0.212312 0.824642 0.442358
Si Si7 0.050991 0.827150 0.608427
O O1 0.662430 0.500000 0.084359
O O2 0.549363 0.656095 0.906799
O O3 0.500000 0.750540 0.000000
O O4 0.822096 0.735356 0.143639
O O5 0.004678 0.500000 0.793264
O O6 0.851648 0.755263 0.670240
O O7 0.063835 0.732236 0.910201
O O8 0.273071 0.500000 0.701580
O O9 0.370005 0.727225 0.689715
O O10 0.239634 0.756456 0.737184
O O11 0.481538 0.500000 0.685444
O O12 0.679497 0.733654 0.832583
O O13 0.399654 0.756981 0.578346
O O14 0.863387 0.500000 0.971566
O O15 0.000000 0.734622 0.000000
O O16 0.081120 0.771657 0.418420
O O17 0.225644 0.000000 0.444583
O O18 0.000000 0.773682 0.500000
O O19 0.070692 0.000000 0.625321
#
# Coordination Sequence:
#
# PCOD8058012 Si02
#       7
#     4   4   4   4   4   4   4
#     4   9  16  27  46  74 108 140 173 219 272 318
#     4  10  19  35  58  84 113 145 183 230 281 333
#     4  10  18  29  49  77 104 137 185 233 271 317
#     4  10  19  34  57  84 110 140 183 229 276 334
#     4   9  18  36  64  93 115 137 175 233 293 342
#     4  11  23  37  53  77 114 156 191 228 276 326
#     4  10  20  33  46  67 106 154 194 227 268 320
#
# _framework density 20.255392000000001
#
# number of rings (size 3 to 8) (size 9 to 14) (size 15 to 20)
#    0.000    2.143    2.857    1.286    0.000    2.571 
#    0.000    2.143    0.000    8.571    0.000    0.000 
#    0.000    0.000    0.000    0.000    0.000    0.000 
#
# Total GULP energy -346990.874283 kJ/mol
# GULP energy per Si atom -12392.531224 kJ/mol
# Density = 2.020929 g / cm^3
# Si number density = 20.255392 Si / 1000 Ang^3
#
#
#
# Elastic Constant Matrix: (Units=GPa)
#
#
# Indices 1 2 3 4 5 6 
#
# 1 91.2221 21.2543 51.9799 0.0000 -2.1946 0.0000
# 2 21.2543 32.3879 38.1955 0.0000 -2.3931 0.0000
# 3 51.9799 38.1955 149.7235 0.0000 -11.5028 0.0000
# 4 0.0000 0.0000 0.0000 6.0352 0.0000 -1.2473
# 5 -2.1946 -2.3931 -11.5028 0.0000 22.8258 0.0000
# 6 0.0000 0.0000 0.0000 -1.2473 0.0000 13.6330
#
#
#
# Elastic Compliance Matrix: (Units=1/GPa)
#
#
# Indices 1 2 3 4 5 6 
#
# 1 0.014238 -0.005001 -0.003747 0.000000 -0.001044 0.000000
# 2 -0.005001 0.045945 -0.010040 0.000000 -0.000723 0.000000
# 3 -0.003747 -0.010040 0.010853 0.000000 0.004056 0.000000
# 4 0.000000 0.000000 0.000000 0.168887 0.000000 0.015452
# 5 -0.001044 -0.000723 0.004056 0.000000 0.045678 0.000000
# 6 0.000000 0.000000 0.000000 0.015452 0.000000 0.074765
#
#
# Mechanical properties :
#
#
# Convention : Reuss Voigt Hill
#
# Bulk Modulus (GPa) = 29.88822 55.13253 42.51038
# Shear Modulus (GPa) = 12.22209 19.29239 15.75724
#
# Velocity S-wave (km/s) = 2.45908 3.08954 2.79216
# Velocity P-wave (km/s) = 4.78022 6.32493 5.60604
#
# Compressibility (1/GPa) = 0.03345799
#
# Stress axis : x y z
#
# Youngs Moduli (GPa) = 70.23613 21.76527 92.14174
#
# Poissons Ratio (x) = 0.10885 0.34528
# Poissons Ratio (y) = 0.35127 0.92511
# Poissons Ratio (z) = 0.26319 0.21852
#
# Static dielectric constant tensor:
#      x y z
#    x 3.597430 0.000000 -0.044160 
#    y 0.000000 3.103160 0.000000 
#    z -0.044160 0.000000 3.865740 
# 
# 
# High freq. dielectric constant tensor:
#      x y z
#    x 1.770880 0.000000 -0.009540 
#    y 0.000000 1.738710 0.000000 
#    z -0.009540 0.000000 1.807650 
# 
# From -- ./inp_files/49378.got.cif
#   From: 2010.06.25/outbox.cif.g09.slc.cpg/sg10_25_cif.got.tgz:49378.got - 2010.06.27 22:07:45.
