data_PCOD8058068
_publ_section_title
;
Structure prediction by ZEFSAII (Michael W. Deem and Ramdas Pophale) SiO2 
 PCOD8058068
Probable space group: P 2/M
;
_chemical_formula_sum "Si O2"
_cell_formula_units_Z 32
_cell_length_a 13.204636
_cell_length_b 22.558126
_cell_length_c 18.743391
_cell_angle_alpha 90.000000
_cell_angle_beta 18.589138
_cell_angle_gamma 90.000000
_cell_volume 1779.787598
_symmetry_space_group_name_H-M "P 2/M"
_symmetry_group_IT_number 10
_symmetry_cell_setting 'monoclinic'
loop_
_space_group_symop_operation_xyz
x,y,z
-x,y,-z
-x,-y,-z
x,-y,z
loop_
_atom_site_type_symbol
_atom_site_label
_atom_site_fract_x
_atom_site_fract_y
_atom_site_fract_z
Si Si1 0.196672 0.636266 0.163529
Si Si2 0.410584 0.434049 0.477357
Si Si3 0.318186 0.933711 0.333439
Si Si4 0.723372 0.285523 0.023362
Si Si5 0.001494 0.847859 0.355942
Si Si6 0.365969 0.155426 0.974534
Si Si7 0.762101 0.679199 0.219490
Si Si8 0.737495 0.720645 0.540150
O O1 0.949608 0.587792 0.298039
O O2 0.043797 0.678898 0.326229
O O3 0.500000 0.605290 0.000000
O O4 0.340962 0.676265 0.003714
O O5 0.500000 0.435105 0.500000
O O6 0.445867 0.500000 0.421009
O O7 0.671166 0.390063 0.270039
O O8 0.225254 0.902083 0.469765
O O9 0.599394 0.897825 0.105611
O O10 0.000000 0.935904 0.500000
O O11 0.443705 0.000000 0.265186
O O12 0.701253 0.216105 0.021854
O O13 0.467347 0.302545 0.255429
O O14 0.082723 0.303162 0.808631
O O15 0.817183 0.788440 0.497976
O O16 0.315001 0.842174 0.193383
O O17 0.076339 0.856836 0.222384
O O18 0.444446 0.716440 0.414908
O O19 0.000000 0.698806 0.000000
#
# Coordination Sequence:
#
# PCOD8058068 Si02
#       8
#     4   4   4   4   4   4   4   4
#     4  11  22  34  54  82 110 141 176 220 274 322
#     4  10  20  37  58  77 104 146 185 217 262 318
#     4   9  18  31  46  66  98 141 181 213 252 310
#     4  11  19  33  52  76 111 138 170 224 270 319
#     4  10  18  30  44  72 101 134 171 209 261 325
#     4  10  19  28  47  70 102 135 167 210 269 316
#     4   9  20  35  53  81 104 135 178 225 263 314
#     4  10  20  32  51  78 107 137 177 212 273 326
#
# _framework density 17.979673999999999
#
# number of rings (size 3 to 8) (size 9 to 14) (size 15 to 20)
#    0.000    2.000    3.750    0.750    0.000    2.500 
#    0.000    2.500    0.000    0.000    0.000    5.250 
#    0.000    2.000    0.000    0.000    0.000    0.000 
#
# Total GULP energy -396557.756738 kJ/mol
# GULP energy per Si atom -12392.429898 kJ/mol
# Density = 1.793875 g / cm^3
# Si number density = 17.979674 Si / 1000 Ang^3
#
#
#
# Elastic Constant Matrix: (Units=GPa)
#
#
# Indices 1 2 3 4 5 6 
#
# 1 63.7289 18.6636 31.4993 0.0000 5.7901 0.0000
# 2 18.6636 93.1347 18.2986 0.0000 3.8924 0.0000
# 3 31.4993 18.2986 60.9558 0.0000 7.3039 0.0000
# 4 0.0000 0.0000 0.0000 11.4912 0.0000 -4.6501
# 5 5.7901 3.8924 7.3039 0.0000 31.7284 0.0000
# 6 0.0000 0.0000 0.0000 -4.6501 0.0000 15.8953
#
#
#
# Elastic Compliance Matrix: (Units=1/GPa)
#
#
# Indices 1 2 3 4 5 6 
#
# 1 0.021564 -0.002241 -0.010316 0.000000 -0.001285 0.000000
# 2 -0.002241 0.011655 -0.002282 0.000000 -0.000496 0.000000
# 3 -0.010316 -0.002282 0.022791 0.000000 -0.003084 0.000000
# 4 0.000000 0.000000 0.000000 0.098709 0.000000 0.028877
# 5 -0.001285 -0.000496 -0.003084 0.000000 0.032523 0.000000
# 6 0.000000 0.000000 0.000000 0.028877 0.000000 0.071360
#
#
# Mechanical properties :
#
#
# Convention : Reuss Voigt Hill
#
# Bulk Modulus (GPa) = 37.97616 39.41584 38.69600
# Shear Modulus (GPa) = 16.83187 21.78016 19.30601
#
# Velocity S-wave (km/s) = 3.06299 3.48426 3.28040
# Velocity P-wave (km/s) = 5.80317 6.17712 5.99306
#
# Compressibility (1/GPa) = 0.02633231
#
# Stress axis : x y z
#
# Youngs Moduli (GPa) = 46.37452 85.79915 43.87719
#
# Poissons Ratio (x) = 0.19224 0.45266
# Poissons Ratio (y) = 0.10390 0.10011
# Poissons Ratio (z) = 0.47842 0.19576
#
# Static dielectric constant tensor:
#      x y z
#    x 3.421620 0.000000 0.057270 
#    y 0.000000 3.416950 0.000000 
#    z 0.057270 0.000000 3.497090 
# 
# 
# High freq. dielectric constant tensor:
#      x y z
#    x 1.687210 0.000000 0.013560 
#    y 0.000000 1.681910 0.000000 
#    z 0.013560 0.000000 1.693020 
# 
# From -- ./inp_files/77236.got.cif
#   From: 2010.06.25/outbox.cif.g09.slc.cpg/sg10_39_cif.got.tgz:77236.got - 2010.06.27 22:07:45.
