data_PCOD8058041
_publ_section_title
;
Structure prediction by ZEFSAII (Michael W. Deem and Ramdas Pophale) SiO2 
 PCOD8058041
Probable space group: P 2/M
;
_chemical_formula_sum "Si O2"
_cell_formula_units_Z 28
_cell_length_a 9.272455
_cell_length_b 13.723515
_cell_length_c 14.795219
_cell_angle_alpha 90.000000
_cell_angle_beta 132.327285
_cell_angle_gamma 90.000000
_cell_volume 1391.901094
_symmetry_space_group_name_H-M "P 2/M"
_symmetry_group_IT_number 10
_symmetry_cell_setting 'monoclinic'
loop_
_space_group_symop_operation_xyz
x,y,z
-x,y,-z
-x,-y,-z
x,-y,z
loop_
_atom_site_type_symbol
_atom_site_label
_atom_site_fract_x
_atom_site_fract_y
_atom_site_fract_z
Si Si1 0.886041 0.894306 0.127278
Si Si2 0.786323 0.258292 0.945399
Si Si3 0.621626 0.789596 0.468555
Si Si4 0.469313 0.385720 0.881987
Si Si5 0.029614 0.111336 0.641012
Si Si6 0.685291 0.105979 0.760498
Si Si7 0.200933 0.288838 0.622031
O O1 0.839632 0.889084 0.213541
O O2 0.116423 0.886191 0.210823
O O3 0.814347 0.000000 0.058999
O O4 0.784161 0.804307 0.035993
O O5 0.667211 0.356793 0.913044
O O6 0.670527 0.191497 0.826854
O O7 0.000000 0.286566 0.000000
O O8 0.500000 0.739212 0.500000
O O9 0.491203 0.881266 0.383268
O O10 0.645895 0.710465 0.397013
O O11 0.831577 0.831789 0.583660
O O12 0.436867 0.500000 0.861897
O O13 0.285423 0.337648 0.749943
O O14 0.500000 0.353633 0.000000
O O15 0.151761 0.173735 0.619401
O O16 0.996019 0.000000 0.592585
O O17 0.668356 0.000000 0.800357
O O18 0.000000 0.340033 0.500000
#
# Coordination Sequence:
#
# PCOD8058041 Si02
#       7
#     4   4   4   4   4   4   4
#     4   9  17  30  50  80 118 157 192 229 275 337
#     4  10  20  36  59  85 116 150 190 241 293 351
#     4  11  20  33  55  82 118 160 202 237 278 335
#     4  11  24  44  68  91 114 146 194 249 310 370
#     4  10  20  33  51  80 121 160 195 237 281 334
#     4  10  18  29  50  81 116 157 196 232 271 330
#     4  10  23  41  60  88 120 159 197 247 292 349
#
# _framework density 20.116371999999998
#
# number of rings (size 3 to 8) (size 9 to 14) (size 15 to 20)
#    0.000    1.857    2.857    1.714    0.000    6.000 
#    0.000    0.000    0.000    3.429    0.000    0.000 
#    0.000    0.000    0.000    0.000    0.000    0.000 
#
# Total GULP energy -346886.824729 kJ/mol
# GULP energy per Si atom -12388.815169 kJ/mol
# Density = 2.007059 g / cm^3
# Si number density = 20.116372 Si / 1000 Ang^3
#
#
#
# Elastic Constant Matrix: (Units=GPa)
#
#
# Indices 1 2 3 4 5 6 
#
# 1 97.7338 29.4926 32.4613 0.0000 -13.7492 0.0000
# 2 29.4926 66.1961 30.4384 0.0000 -2.2966 0.0000
# 3 32.4613 30.4384 111.8966 0.0000 -8.2207 0.0000
# 4 0.0000 0.0000 0.0000 31.9947 0.0000 -2.7854
# 5 -13.7492 -2.2966 -8.2207 0.0000 29.9204 0.0000
# 6 0.0000 0.0000 0.0000 -2.7854 0.0000 23.2271
#
#
#
# Elastic Compliance Matrix: (Units=1/GPa)
#
#
# Indices 1 2 3 4 5 6 
#
# 1 0.013062 -0.004655 -0.002152 0.000000 0.005054 0.000000
# 2 -0.004655 0.018925 -0.003927 0.000000 -0.001765 0.000000
# 3 -0.002152 -0.003927 0.010752 0.000000 0.001664 0.000000
# 4 0.000000 0.000000 0.000000 0.031585 0.000000 0.003788
# 5 0.005054 -0.001765 0.001664 0.000000 0.036066 0.000000
# 6 0.000000 0.000000 0.000000 0.003788 0.000000 0.043507
#
#
# Mechanical properties :
#
#
# Convention : Reuss Voigt Hill
#
# Bulk Modulus (GPa) = 47.01268 51.17900 49.09584
# Shear Modulus (GPa) = 27.40386 29.25737 28.33062
#
# Velocity S-wave (km/s) = 3.69489 3.81780 3.75685
# Velocity P-wave (km/s) = 6.45167 6.70305 6.57856
#
# Compressibility (1/GPa) = 0.02127086
#
# Stress axis : x y z
#
# Youngs Moduli (GPa) = 76.55643 52.83958 93.00898
#
# Poissons Ratio (x) = 0.24596 0.20014
# Poissons Ratio (y) = 0.35636 0.36528
# Poissons Ratio (z) = 0.16474 0.20752
#
# Static dielectric constant tensor:
#      x y z
#    x 3.642050 0.000000 -0.197030 
#    y 0.000000 3.253270 0.000000 
#    z -0.197030 0.000000 3.940390 
# 
# 
# High freq. dielectric constant tensor:
#      x y z
#    x 1.781050 0.000000 -0.009290 
#    y 0.000000 1.738090 0.000000 
#    z -0.009290 0.000000 1.803210 
# 
# From -- ./inp_files/29416.got.cif
#   From: 2010.06.25/outbox.cif.g09.slc.cpg/sg10_15_cif.got.tgz:29416.got - 2010.06.27 22:07:45.
