data_PCOD8058366
_publ_section_title
;
Structure prediction by ZEFSAII (Michael W. Deem and Ramdas Pophale) SiO2 
 PCOD8058366
Probable space group: P 2/M
;
_chemical_formula_sum "Si O2"
_cell_formula_units_Z 30
_cell_length_a 13.495888
_cell_length_b 9.585202
_cell_length_c 12.532022
_cell_angle_alpha 90.000000
_cell_angle_beta 72.232795
_cell_angle_gamma 90.000000
_cell_volume 1543.830400
_symmetry_space_group_name_H-M "P 2/M"
_symmetry_group_IT_number 10
_symmetry_cell_setting 'monoclinic'
loop_
_space_group_symop_operation_xyz
x,y,z
-x,y,-z
-x,-y,-z
x,-y,z
loop_
_atom_site_type_symbol
_atom_site_label
_atom_site_fract_x
_atom_site_fract_y
_atom_site_fract_z
Si Si1 0.941751 0.347320 0.243610
Si Si2 0.312454 0.664306 0.301113
Si Si3 0.772244 0.840522 0.051471
Si Si4 0.000000 0.739323 0.000000
Si Si5 0.381748 0.653182 0.510542
Si Si6 0.248852 0.834002 0.705134
Si Si7 0.617047 0.836214 0.921996
Si Si8 0.919054 0.660930 0.610798
O O1 0.895779 0.500000 0.289067
O O2 0.972996 0.355362 0.109658
O O3 0.861229 0.225932 0.298296
O O4 0.042941 0.316136 0.280940
O O5 0.312522 0.500000 0.271257
O O6 0.372889 0.696338 0.390266
O O7 0.369642 0.750195 0.190525
O O8 0.195969 0.725612 0.356849
O O9 0.734503 0.780645 0.178524
O O10 0.741447 0.000000 0.060543
O O11 0.702814 0.774806 0.978786
O O12 0.897789 0.828151 0.999608
O O13 0.500000 0.641000 0.500000
O O14 0.328599 0.500000 0.545826
O O15 0.336527 0.771854 0.601355
O O16 0.246604 0.000000 0.696500
O O17 0.635308 0.000000 0.893168
O O18 0.500000 0.808878 0.000000
O O19 0.908658 0.500000 0.582147
O O20 0.000000 0.731555 0.500000
#
# Coordination Sequence:
#
# PCOD8058366 Si02
#       8
#     4   4   4   2   4   4   4   4
#     4  10  19  32  52  78 111 144 181 225 274 328
#     4  10  21  38  59  85 115 146 188 235 283 339
#     4   9  19  35  54  80 113 150 188 232 285 335
#     4  10  18  30  52  80 111 144 187 232 279 336
#     4  10  22  39  59  82 110 142 180 230 287 335
#     4  10  21  36  56  82 111 146 188 228 273 330
#     4  10  22  39  59  81 112 152 195 237 283 337
#     4   9  17  31  54  80 108 146 182 219 274 338
#
# _framework density 19.432188
#
# number of rings (size 3 to 8) (size 9 to 14) (size 15 to 20)
#    0.000    2.267    0.000    2.400    1.867    3.733 
#    0.000    4.000    0.000    1.600    0.000    0.000 
#    0.000    0.000    0.000    0.000    0.000    0.000 
#
# Total GULP energy -371819.920182 kJ/mol
# GULP energy per Si atom -12393.997339 kJ/mol
# Density = 1.938796 g / cm^3
# Si number density = 19.432188 Si / 1000 Ang^3
#
#
#
# Elastic Constant Matrix: (Units=GPa)
#
#
# Indices 1 2 3 4 5 6 
#
# 1 125.5902 29.2041 61.1303 0.0000 9.9871 0.0000
# 2 29.2041 70.9287 47.3196 0.0000 -1.4788 0.0000
# 3 61.1303 47.3196 122.4336 0.0000 0.2308 0.0000
# 4 0.0000 0.0000 0.0000 52.8508 0.0000 3.7216
# 5 9.9871 -1.4788 0.2308 0.0000 34.2977 0.0000
# 6 0.0000 0.0000 0.0000 3.7216 0.0000 24.0520
#
#
#
# Elastic Compliance Matrix: (Units=1/GPa)
#
#
# Indices 1 2 3 4 5 6 
#
# 1 0.010925 -0.001253 -0.004964 0.000000 -0.003202 0.000000
# 2 -0.001253 0.019167 -0.006784 0.000000 0.001237 0.000000
# 3 -0.004964 -0.006784 0.013267 0.000000 0.001064 0.000000
# 4 0.000000 0.000000 0.000000 0.019130 0.000000 -0.002960
# 5 -0.003202 0.001237 0.001064 0.000000 0.030135 0.000000
# 6 0.000000 0.000000 0.000000 -0.002960 0.000000 0.042035
#
#
# Mechanical properties :
#
#
# Convention : Reuss Voigt Hill
#
# Bulk Modulus (GPa) = 57.62279 66.02895 61.82587
# Shear Modulus (GPa) = 30.03989 34.32666 32.18328
#
# Velocity S-wave (km/s) = 3.93604 4.20752 4.07404
# Velocity P-wave (km/s) = 7.09748 7.59323 7.34954
#
# Compressibility (1/GPa) = 0.01735424
#
# Stress axis : x y z
#
# Youngs Moduli (GPa) = 91.53536 52.17425 75.37782
#
# Poissons Ratio (x) = 0.06537 0.37420
# Poissons Ratio (y) = 0.11469 0.51140
# Poissons Ratio (z) = 0.45441 0.35397
#
# Static dielectric constant tensor:
#      x y z
#    x 3.755980 0.000000 0.084010 
#    y 0.000000 3.345040 0.000000 
#    z 0.084010 0.000000 3.670130 
# 
# 
# High freq. dielectric constant tensor:
#      x y z
#    x 1.764530 0.000000 0.009060 
#    y 0.000000 1.726980 0.000000 
#    z 0.009060 0.000000 1.764680 
# 
# From -- ./inp_files/49733.got.cif
#   From: 2010.06.25/outbox.cif.g09.slc.cpg/sg10_25_cif.got.tgz:49733.got - 2010.06.27 22:07:45.
