data_PCOD8058548
_publ_section_title
;
Structure prediction by ZEFSAII (Michael W. Deem and Ramdas Pophale) SiO2 
 PCOD8058548
Probable space group: P 2/M
;
_chemical_formula_sum "Si O2"
_cell_formula_units_Z 24
_cell_length_a 15.800646
_cell_length_b 14.211725
_cell_length_c 9.678519
_cell_angle_alpha 90.000000
_cell_angle_beta 141.870289
_cell_angle_gamma 90.000000
_cell_volume 1341.924316
_symmetry_space_group_name_H-M "P 2/M"
_symmetry_group_IT_number 10
_symmetry_cell_setting 'monoclinic'
loop_
_space_group_symop_operation_xyz
x,y,z
-x,y,-z
-x,-y,-z
x,-y,z
loop_
_atom_site_type_symbol
_atom_site_label
_atom_site_fract_x
_atom_site_fract_y
_atom_site_fract_z
Si Si1 0.927222 0.606422 0.545429
Si Si2 0.621614 0.109159 0.010471
Si Si3 0.363699 0.399626 0.740256
Si Si4 0.650036 0.802667 0.343548
Si Si5 0.908740 0.108792 0.255862
Si Si6 0.950754 0.773251 0.783252
O O1 0.979344 0.500000 0.644080
O O2 0.762990 0.609188 0.314503
O O3 0.958096 0.673172 0.715247
O O4 0.000000 0.644758 0.500000
O O5 0.477011 0.139585 0.751189
O O6 0.614329 0.000000 0.046105
O O7 0.646309 0.173972 0.175695
O O8 0.747236 0.126845 0.069296
O O9 0.347901 0.500000 0.637452
O O10 0.370228 0.308676 0.650428
O O11 0.500000 0.403297 0.000000
O O12 0.801453 0.825186 0.594995
O O13 0.000000 0.149941 0.500000
O O14 0.945720 0.157094 0.159944
O O15 0.943801 0.000000 0.285316
O O16 0.000000 0.755044 0.000000
#
# Coordination Sequence:
#
# PCOD8058548 Si02
#       6
#     4   4   4   4   4   4
#     4   9  19  34  55  80 105 137 178 221 259 303
#     4  10  19  32  54  79 100 130 175 228 272 306
#     4   9  16  26  44  75 106 128 158 206 262 303
#     4  10  18  31  51  76 105 136 172 217 264 314
#     4  10  20  35  55  78 103 134 177 227 268 308
#     4  11  23  35  52  78 112 147 174 213 266 325
#
# _framework density 17.884764000000001
#
# number of rings (size 3 to 8) (size 9 to 14) (size 15 to 20)
#    0.000    2.167    3.333    1.500    2.333    1.333 
#    0.000    0.833    0.000    2.000    0.000    0.000 
#    0.000   18.667    0.000    0.000    0.000    0.000 
#
# Total GULP energy -297337.325511 kJ/mol
# GULP energy per Si atom -12389.055230 kJ/mol
# Density = 1.784406 g / cm^3
# Si number density = 17.884764 Si / 1000 Ang^3
#
#
#
# Elastic Constant Matrix: (Units=GPa)
#
#
# Indices 1 2 3 4 5 6 
#
# 1 108.2262 48.3612 68.2893 0.0000 14.5697 0.0000
# 2 48.3612 95.7514 33.7522 0.0000 7.5386 0.0000
# 3 68.2893 33.7522 93.4099 0.0000 10.8641 0.0000
# 4 0.0000 0.0000 0.0000 9.9570 0.0000 7.0534
# 5 14.5697 7.5386 10.8641 0.0000 32.8670 0.0000
# 6 0.0000 0.0000 0.0000 7.0534 0.0000 24.8108
#
#
#
# Elastic Compliance Matrix: (Units=1/GPa)
#
#
# Indices 1 2 3 4 5 6 
#
# 1 0.019767 -0.005451 -0.012072 0.000000 -0.003522 0.000000
# 2 -0.005451 0.013531 -0.000857 0.000000 -0.000404 0.000000
# 3 -0.012072 -0.000857 0.019963 0.000000 -0.001051 0.000000
# 4 0.000000 0.000000 0.000000 0.125757 0.000000 -0.035751
# 5 -0.003522 -0.000404 -0.001051 0.000000 0.032427 0.000000
# 6 0.000000 0.000000 0.000000 -0.035751 0.000000 0.050469
#
#
# Mechanical properties :
#
#
# Convention : Reuss Voigt Hill
#
# Bulk Modulus (GPa) = 60.60367 66.46590 63.53478
# Shear Modulus (GPa) = 16.43799 23.32594 19.88196
#
# Velocity S-wave (km/s) = 3.03496 3.61534 3.33779
# Velocity P-wave (km/s) = 6.80004 7.39403 7.10325
#
# Compressibility (1/GPa) = 0.01650065
#
# Stress axis : x y z
#
# Youngs Moduli (GPa) = 50.58909 73.90529 50.09336
#
# Poissons Ratio (x) = 0.40287 0.60472
# Poissons Ratio (y) = 0.27577 0.04293
# Poissons Ratio (z) = 0.61070 0.06334
#
# Static dielectric constant tensor:
#      x y z
#    x 3.455910 0.000000 0.523030 
#    y 0.000000 3.847390 0.000000 
#    z 0.523030 0.000000 3.150740 
# 
# 
# High freq. dielectric constant tensor:
#      x y z
#    x 1.673650 0.000000 0.051570 
#    y 0.000000 1.714050 0.000000 
#    z 0.051570 0.000000 1.655740 
# 
# From -- ./inp_files/29691.got.cif
#   From: 2010.06.25/outbox.cif.g09.slc.cpg/sg10_15_cif.got.tgz:29691.got - 2010.06.27 22:07:45.
