data_PCOD8058890
_publ_section_title
;
Structure prediction by ZEFSAII (Michael W. Deem and Ramdas Pophale) SiO2 
 PCOD8058890
Probable space group: P 2/M
;
_chemical_formula_sum "Si O2"
_cell_formula_units_Z 32
_cell_length_a 20.715740
_cell_length_b 8.711595
_cell_length_c 26.231506
_cell_angle_alpha 90.000000
_cell_angle_beta 19.792249
_cell_angle_gamma 90.000000
_cell_volume 1602.957275
_symmetry_space_group_name_H-M "P 2/M"
_symmetry_group_IT_number 10
_symmetry_cell_setting 'monoclinic'
loop_
_space_group_symop_operation_xyz
x,y,z
-x,y,-z
-x,-y,-z
x,-y,z
loop_
_atom_site_type_symbol
_atom_site_label
_atom_site_fract_x
_atom_site_fract_y
_atom_site_fract_z
Si Si1 0.456448 0.683971 0.277210
Si Si2 0.138442 0.325135 0.828611
Si Si3 0.889001 0.675468 0.326111
Si Si4 0.312500 0.177055 0.610711
Si Si5 0.292884 0.672649 0.817105
Si Si6 0.076295 0.179766 0.593139
Si Si7 0.677721 0.317702 0.901877
Si Si8 0.312338 0.676838 0.991319
O O1 0.464992 0.500000 0.270972
O O2 0.561697 0.751249 0.250325
O O3 0.238701 0.742057 0.437275
O O4 0.564755 0.750832 0.146184
O O5 0.201002 0.500000 0.769150
O O6 0.147185 0.213089 0.773871
O O7 0.273941 0.256419 0.773910
O O8 0.918360 0.325260 0.004730
O O9 0.868255 0.500000 0.360099
O O10 0.714555 0.721370 0.419587
O O11 0.876237 0.785886 0.383656
O O12 0.087023 0.700174 0.148437
O O13 0.500000 0.234062 0.500000
O O14 0.315352 0.000000 0.593075
O O15 0.365836 0.500000 0.756193
O O16 0.867693 0.247174 0.735249
O O17 0.076838 0.000000 0.582078
O O18 0.705603 0.500000 0.882264
O O19 0.643122 0.254252 0.985288
O O20 0.500000 0.265603 0.000000
O O21 0.368102 0.500000 0.951490
#
# Coordination Sequence:
#
# PCOD8058890 Si02
#       8
#     4   4   4   4   4   4   4   4
#     4  10  18  32  54  80 110 144 183 227 277 328
#     4   9  17  33  52  72  95 128 181 231 279 335
#     4  10  20  38  61  80 101 139 192 239 280 330
#     4  11  24  36  46  69 107 141 175 226 285 335
#     4   8  16  30  52  76  98 128 175 235 280 324
#     4  11  23  37  54  83 120 151 181 221 276 336
#     4   9  18  37  64  90 115 148 191 232 269 319
#     4   8  16  32  58  88 110 134 179 235 278 318
#
# _framework density 19.963104000000001
#
# number of rings (size 3 to 8) (size 9 to 14) (size 15 to 20)
#    0.000    2.500    0.000    4.125    1.750    3.250 
#    0.000    6.875    0.000    3.750    0.000    0.000 
#    0.000    0.000    0.000    0.000    0.000    0.000 
#
# Total GULP energy -396520.678471 kJ/mol
# GULP energy per Si atom -12391.271202 kJ/mol
# Density = 1.991767 g / cm^3
# Si number density = 19.963104 Si / 1000 Ang^3
#
#
#
# Elastic Constant Matrix: (Units=GPa)
#
#
# Indices 1 2 3 4 5 6 
#
# 1 74.6962 14.7919 25.5126 0.0000 -25.8668 0.0000
# 2 14.7919 37.2620 19.8448 0.0000 -8.1625 0.0000
# 3 25.5126 19.8448 90.5761 0.0000 -9.7831 0.0000
# 4 0.0000 0.0000 0.0000 9.4314 0.0000 -2.3892
# 5 -25.8668 -8.1625 -9.7831 0.0000 30.0640 0.0000
# 6 0.0000 0.0000 0.0000 -2.3892 0.0000 18.2753
#
#
#
# Elastic Compliance Matrix: (Units=1/GPa)
#
#
# Indices 1 2 3 4 5 6 
#
# 1 0.020626 -0.002870 -0.003470 0.000000 0.015838 0.000000
# 2 -0.002870 0.031980 -0.005728 0.000000 0.004349 0.000000
# 3 -0.003470 -0.005728 0.013248 0.000000 -0.000230 0.000000
# 4 0.000000 0.000000 0.000000 0.109661 0.000000 0.014336
# 5 0.015838 0.004349 -0.000230 0.000000 0.047995 0.000000
# 6 0.000000 0.000000 0.000000 0.014336 0.000000 0.056593
#
#
# Mechanical properties :
#
#
# Convention : Reuss Voigt Hill
#
# Bulk Modulus (GPa) = 23.97168 35.87032 29.92100
# Shear Modulus (GPa) = 15.71609 21.04647 18.38128
#
# Velocity S-wave (km/s) = 2.80885 3.25047 3.03770
# Velocity P-wave (km/s) = 4.74906 5.66522 5.22725
#
# Compressibility (1/GPa) = 0.04171589
#
# Stress axis : x y z
#
# Youngs Moduli (GPa) = 48.48327 31.26965 75.48246
#
# Poissons Ratio (x) = 0.08975 0.26193
# Poissons Ratio (y) = 0.13916 0.43239
# Poissons Ratio (z) = 0.16824 0.17913
#
# Static dielectric constant tensor:
#      x y z
#    x 3.970810 0.000000 0.053880 
#    y 0.000000 3.200470 0.000000 
#    z 0.053880 0.000000 3.715370 
# 
# 
# High freq. dielectric constant tensor:
#      x y z
#    x 1.771640 0.000000 0.002480 
#    y 0.000000 1.735970 0.000000 
#    z 0.002480 0.000000 1.784180 
# 
# From -- ./inp_files/86969.got.cif
#   From: 2010.06.25/outbox.cif.g09.slc.cpg/sg10_44_cif.got.tgz:86969.got - 2010.06.27 22:07:45.
