data_PCOD8058514
_publ_section_title
;
Structure prediction by ZEFSAII (Michael W. Deem and Ramdas Pophale) SiO2 
 PCOD8058514
Probable space group: P 2/M
;
_chemical_formula_sum "Si O2"
_cell_formula_units_Z 28
_cell_length_a 22.829021
_cell_length_b 11.616134
_cell_length_c 28.811567
_cell_angle_alpha 90.000000
_cell_angle_beta 11.409382
_cell_angle_gamma 90.000000
_cell_volume 1511.406433
_symmetry_space_group_name_H-M "P 2/M"
_symmetry_group_IT_number 10
_symmetry_cell_setting 'monoclinic'
loop_
_space_group_symop_operation_xyz
x,y,z
-x,y,-z
-x,-y,-z
x,-y,z
loop_
_atom_site_type_symbol
_atom_site_label
_atom_site_fract_x
_atom_site_fract_y
_atom_site_fract_z
Si Si1 0.192381 0.136189 0.307606
Si Si2 0.210610 0.868838 0.461099
Si Si3 0.907565 0.000000 0.997377
Si Si4 0.818913 0.767640 0.350742
Si Si5 0.198855 0.232341 0.970768
Si Si6 0.722052 0.363913 0.185290
Si Si7 0.819592 0.131167 0.852092
Si Si8 0.477915 0.000000 0.617174
O O1 0.000000 0.179225 0.500000
O O2 0.037370 0.182597 0.381214
O O3 0.209224 0.000000 0.290757
O O4 0.525823 0.182585 0.055562
O O5 0.495696 0.786798 0.238440
O O6 0.088821 0.867630 0.607450
O O7 0.297603 0.000000 0.379244
O O8 0.913228 0.110931 0.960993
O O9 0.611718 0.000000 0.258837
O O10 0.191791 0.000000 0.808225
O O11 0.580632 0.679155 0.556263
O O12 0.667969 0.889073 0.457871
O O13 0.090980 0.786792 0.174919
O O14 0.956056 0.719323 0.195975
O O15 0.240544 0.320846 0.896317
O O16 0.711423 0.500000 0.192364
O O17 0.000000 0.318973 0.000000
O O18 0.763434 0.000000 0.913388
#
# Coordination Sequence:
#
# PCOD8058514 Si02
#       8
#     4   4   2   4   4   4   4   2
#     4   9  17  27  43  73 115 158 195 227 267 327
#     4  10  18  31  50  78 118 159 193 227 274 338
#     4  11  21  35  55  83 119 152 184 227 287 356
#     4  12  23  37  60  88 117 152 191 235 290 348
#     4  12  23  37  60  88 117 152 191 235 290 348
#     4  11  26  47  65  82 109 147 196 251 298 344
#     4  10  18  31  50  78 118 159 193 227 274 338
#     4  11  21  35  55  83 119 152 184 227 287 356
#
# _framework density 18.525791999999999
#
# number of rings (size 3 to 8) (size 9 to 14) (size 15 to 20)
#    0.000    1.286    4.286    2.571    0.000    6.286 
#    0.000    1.429    0.000    0.000    0.000    2.000 
#    0.000    3.429    0.000    0.000    0.000    0.000 
#
# Total GULP energy -347196.984874 kJ/mol
# GULP energy per Si atom -12399.892317 kJ/mol
# Density = 1.848363 g / cm^3
# Si number density = 18.525792 Si / 1000 Ang^3
#
#
#
# Elastic Constant Matrix: (Units=GPa)
#
#
# Indices 1 2 3 4 5 6 
#
# 1 115.8216 28.5808 68.2678 0.0000 -1.3749 0.0000
# 2 28.5808 50.4865 28.2768 0.0000 -1.8220 0.0000
# 3 68.2678 28.2768 115.6879 0.0000 1.5938 0.0000
# 4 0.0000 0.0000 0.0000 19.6368 0.0000 -6.4554
# 5 -1.3749 -1.8220 1.5938 0.0000 42.7367 0.0000
# 6 0.0000 0.0000 0.0000 -6.4554 0.0000 20.6763
#
#
#
# Elastic Compliance Matrix: (Units=1/GPa)
#
#
# Indices 1 2 3 4 5 6 
#
# 1 0.013846 -0.003751 -0.007262 0.000000 0.000556 0.000000
# 2 -0.003751 0.024026 -0.003673 0.000000 0.001041 0.000000
# 3 -0.007262 -0.003673 0.013839 0.000000 -0.000906 0.000000
# 4 0.000000 0.000000 0.000000 0.056749 0.000000 0.017718
# 5 0.000556 0.001041 -0.000906 0.000000 0.023495 0.000000
# 6 0.000000 0.000000 0.000000 0.017718 0.000000 0.053896
#
#
# Mechanical properties :
#
#
# Convention : Reuss Voigt Hill
#
# Bulk Modulus (GPa) = 44.76394 59.13855 51.95125
# Shear Modulus (GPa) = 22.45470 27.06799 24.76134
#
# Velocity S-wave (km/s) = 3.48527 3.82658 3.65990
# Velocity P-wave (km/s) = 6.35701 7.17741 6.77963
#
# Compressibility (1/GPa) = 0.02233941
#
# Stress axis : x y z
#
# Youngs Moduli (GPa) = 72.22083 41.62199 72.25803
#
# Poissons Ratio (x) = 0.15614 0.52471
# Poissons Ratio (y) = 0.27093 0.26541
# Poissons Ratio (z) = 0.52444 0.15288
#
# Static dielectric constant tensor:
#      x y z
#    x 3.672870 0.000000 -0.127420 
#    y 0.000000 2.839030 0.000000 
#    z -0.127420 0.000000 3.652550 
# 
# 
# High freq. dielectric constant tensor:
#      x y z
#    x 1.737840 0.000000 -0.005840 
#    y 0.000000 1.648240 0.000000 
#    z -0.005840 0.000000 1.736910 
# 
# From -- ./inp_files/95812.got.cif
#   From: 2010.06.25/outbox.cif.g09.slc.cpg/sg10_48_cif.got.tgz:95812.got - 2010.06.27 22:07:45.
