data_PCOD8058055
_publ_section_title
;
Structure prediction by ZEFSAII (Michael W. Deem and Ramdas Pophale) SiO2 
 PCOD8058055
Probable space group: P 2/M
;
_chemical_formula_sum "Si O2"
_cell_formula_units_Z 28
_cell_length_a 15.122665
_cell_length_b 9.868919
_cell_length_c 23.560404
_cell_angle_alpha 90.000000
_cell_angle_beta 154.657412
_cell_angle_gamma 90.000000
_cell_volume 1505.062744
_symmetry_space_group_name_H-M "P 2/M"
_symmetry_group_IT_number 10
_symmetry_cell_setting 'monoclinic'
loop_
_space_group_symop_operation_xyz
x,y,z
-x,y,-z
-x,-y,-z
x,-y,z
loop_
_atom_site_type_symbol
_atom_site_label
_atom_site_fract_x
_atom_site_fract_y
_atom_site_fract_z
Si Si1 0.140674 0.346512 0.635011
Si Si2 0.971986 0.839578 0.157069
Si Si3 0.282443 0.340479 0.404308
Si Si4 0.493928 0.852722 0.714973
Si Si5 0.104201 0.846881 0.114065
Si Si6 0.223987 0.349384 0.499895
Si Si7 0.528357 0.153508 0.861296
O O1 0.215008 0.500000 0.665308
O O2 0.337925 0.252840 0.760881
O O3 0.000000 0.296346 0.500000
O O4 0.017768 0.342739 0.623890
O O5 0.091933 0.749767 0.272179
O O6 0.057066 0.779838 0.146852
O O7 0.020375 0.000000 0.193733
O O8 0.724815 0.812208 0.015537
O O9 0.500000 0.301789 0.500000
O O10 0.234899 0.500000 0.367964
O O11 0.282821 0.301056 0.470933
O O12 0.652097 0.844099 0.754656
O O13 0.324850 0.739593 0.607628
O O14 0.605166 0.832290 0.840435
O O15 0.384671 0.000000 0.650617
O O16 0.013908 0.000000 0.064144
O O17 0.000000 0.769634 0.000000
O O18 0.311378 0.500000 0.558407
O O19 0.454305 0.000000 0.830814
#
# Coordination Sequence:
#
# PCOD8058055 Si02
#       7
#     4   4   4   4   4   4   4
#     4  10  20  35  55  79 107 143 184 224 267 322
#     4  10  20  35  56  81 111 145 182 223 268 322
#     4  10  22  40  59  79 108 145 183 225 270 318
#     4  10  18  29  51  81 109 138 174 215 266 323
#     4   9  15  27  48  75 107 139 169 206 259 322
#     4  10  21  37  55  76 106 142 181 223 270 319
#     4  10  20  33  52  82 114 141 172 220 277 323
#
# _framework density 18.603876
#
# number of rings (size 3 to 8) (size 9 to 14) (size 15 to 20)
#    0.000    2.143    2.857    0.857    0.000    2.286 
#    0.000    0.714    0.000    5.143    0.000    0.000 
#    0.000    0.000    0.000    0.000    0.000    0.000 
#
# Total GULP energy -346953.610253 kJ/mol
# GULP energy per Si atom -12391.200366 kJ/mol
# Density = 1.856153 g / cm^3
# Si number density = 18.603876 Si / 1000 Ang^3
#
#
#
# Elastic Constant Matrix: (Units=GPa)
#
#
# Indices 1 2 3 4 5 6 
#
# 1 78.2352 22.6770 21.4862 0.0000 4.7686 0.0000
# 2 22.6770 76.3852 63.4710 0.0000 4.8844 0.0000
# 3 21.4862 63.4710 105.2218 0.0000 7.1797 0.0000
# 4 0.0000 0.0000 0.0000 -33.4817 0.0000 13.2829
# 5 4.7686 4.8844 7.1797 0.0000 22.7387 0.0000
# 6 0.0000 0.0000 0.0000 13.2829 0.0000 22.2264
#
#
#
# Elastic Compliance Matrix: (Units=1/GPa)
#
#
# Indices 1 2 3 4 5 6 
#
# 1 0.014100 -0.003567 -0.000591 0.000000 -0.002004 0.000000
# 2 -0.003567 0.027159 -0.015645 0.000000 -0.000146 0.000000
# 3 -0.000591 -0.015645 0.019238 0.000000 -0.002590 0.000000
# 4 0.000000 0.000000 0.000000 -0.024143 0.000000 0.014428
# 5 -0.002004 -0.000146 -0.002590 0.000000 0.045247 0.000000
# 6 0.000000 0.000000 0.000000 0.014428 0.000000 0.036369
#
#
# Mechanical properties :
#
#
# Convention : Reuss Voigt Hill
#
# Bulk Modulus (GPa) = 47.86266 52.79008 50.32637
# Shear Modulus (GPa) = 30.38770 12.44385 21.41578
#
# Velocity S-wave (km/s) = 4.04593 2.58909 3.39654
# Velocity P-wave (km/s) = 6.89994 6.11353 6.51861
#
# Compressibility (1/GPa) = 0.02089311
#
# Stress axis : x y z
#
# Youngs Moduli (GPa) = 70.92040 36.81966 51.98024
#
# Poissons Ratio (x) = 0.13133 0.03072
# Poissons Ratio (y) = 0.25296 0.81321
# Poissons Ratio (z) = 0.04191 0.57603
#
# Static dielectric constant tensor:
#      x y z
#    x 3.470960 0.000000 -0.031590 
#    y 0.000000 3.277670 0.000000 
#    z -0.031590 0.000000 3.203140 
# 
# 
# High freq. dielectric constant tensor:
#      x y z
#    x 1.723320 0.000000 0.005430 
#    y 0.000000 1.704840 0.000000 
#    z 0.005430 0.000000 1.705010 
# 
# From -- ./inp_files/49177.got.cif
#   From: 2010.06.25/outbox.cif.g09.slc.cpg/sg10_25_cif.got.tgz:49177.got - 2010.06.27 22:07:45.
