data_PCOD8058992
_publ_section_title
;
Structure prediction by ZEFSAII (Michael W. Deem and Ramdas Pophale) SiO2 
 PCOD8058992
Probable space group: P 2/M
;
_chemical_formula_sum "Si O2"
_cell_formula_units_Z 32
_cell_length_a 17.927261
_cell_length_b 13.789516
_cell_length_c 14.959244
_cell_angle_alpha 90.000000
_cell_angle_beta 30.279844
_cell_angle_gamma 90.000000
_cell_volume 1864.644322
_symmetry_space_group_name_H-M "P 2/M"
_symmetry_group_IT_number 10
_symmetry_cell_setting 'monoclinic'
loop_
_space_group_symop_operation_xyz
x,y,z
-x,y,-z
-x,-y,-z
x,-y,z
loop_
_atom_site_type_symbol
_atom_site_label
_atom_site_fract_x
_atom_site_fract_y
_atom_site_fract_z
Si Si1 0.524375 0.611127 0.720865
Si Si2 0.828002 0.228726 0.665422
Si Si3 0.402927 0.107305 0.188372
Si Si4 0.341474 0.892153 0.821498
Si Si5 0.415509 0.751338 0.497949
Si Si6 0.170362 0.889563 0.821577
Si Si7 0.353124 0.223390 0.970250
Si Si8 0.640193 0.608625 0.797005
O O1 0.484999 0.500000 0.735557
O O2 0.603757 0.662766 0.553087
O O3 0.376248 0.670612 0.901023
O O4 0.623627 0.612190 0.707405
O O5 0.758708 0.147902 0.671178
O O6 0.789419 0.333601 0.664552
O O7 0.000000 0.211138 0.500000
O O8 0.759297 0.226050 0.833786
O O9 0.484016 0.180515 0.172712
O O10 0.383757 0.000000 0.250799
O O11 0.500000 0.099466 0.000000
O O12 0.488008 0.835540 0.643924
O O13 0.217283 0.888151 0.875560
O O14 0.273588 0.846364 0.981342
O O15 0.394479 0.000000 0.786592
O O16 0.500000 0.712711 0.500000
O O17 0.258616 0.804462 0.678343
O O18 0.195025 0.000000 0.757397
O O19 0.000000 0.860152 0.000000
O O20 0.662737 0.500000 0.808625
O O21 0.500000 0.653313 0.000000
#
# Coordination Sequence:
#
# PCOD8058992 Si02
#       8
#     4   4   4   4   4   4   4   4
#     4  10  19  32  56  79  97 127 173 220 258 301
#     4  11  21  33  48  73 106 136 169 216 266 317
#     4   9  17  31  50  67  90 130 172 205 246 301
#     4   9  17  30  51  77 101 129 168 213 249 289
#     4   9  18  32  52  80 105 130 165 209 252 300
#     4   9  17  32  53  78 108 139 167 199 248 305
#     4  10  18  33  51  74  99 132 176 213 258 306
#     4  10  18  34  57  75  96 131 178 224 262 302
#
# _framework density 17.161449999999999
#
# number of rings (size 3 to 8) (size 9 to 14) (size 15 to 20)
#    0.000    2.375    2.500    1.125    0.000    2.750 
#    2.250    0.000    0.000    0.375    0.000    0.000 
#    0.000    0.000    0.000    0.000    0.000    0.000 
#
# Total GULP energy -396530.115929 kJ/mol
# GULP energy per Si atom -12391.566123 kJ/mol
# Density = 1.712239 g / cm^3
# Si number density = 17.161450 Si / 1000 Ang^3
#
#
#
# Elastic Constant Matrix: (Units=GPa)
#
#
# Indices 1 2 3 4 5 6 
#
# 1 71.7340 47.5604 47.3888 0.0000 4.2497 0.0000
# 2 47.5604 128.0443 45.6949 0.0000 0.9561 0.0000
# 3 47.3888 45.6949 77.6558 0.0000 -8.8018 0.0000
# 4 0.0000 0.0000 0.0000 17.6208 0.0000 4.6740
# 5 4.2497 0.9561 -8.8018 0.0000 33.6571 0.0000
# 6 0.0000 0.0000 0.0000 4.6740 0.0000 25.5958
#
#
#
# Elastic Compliance Matrix: (Units=1/GPa)
#
#
# Indices 1 2 3 4 5 6 
#
# 1 0.027182 -0.004857 -0.014534 0.000000 -0.007095 0.000000
# 2 -0.004857 0.010867 -0.003500 0.000000 -0.000611 0.000000
# 3 -0.014534 -0.003500 0.024759 0.000000 0.008410 0.000000
# 4 0.000000 0.000000 0.000000 0.059640 0.000000 -0.010891
# 5 -0.007095 -0.000611 0.008410 0.000000 0.032824 0.000000
# 6 0.000000 0.000000 0.000000 -0.010891 0.000000 0.041058
#
#
# Mechanical properties :
#
#
# Convention : Reuss Voigt Hill
#
# Bulk Modulus (GPa) = 58.72982 62.08025 60.40504
# Shear Modulus (GPa) = 20.17852 24.49407 22.33629
#
# Velocity S-wave (km/s) = 3.43272 3.78202 3.61160
# Velocity P-wave (km/s) = 7.07161 7.43804 7.25714
#
# Compressibility (1/GPa) = 0.01702712
#
# Stress axis : x y z
#
# Youngs Moduli (GPa) = 36.78868 92.01808 40.38874
#
# Poissons Ratio (x) = 0.44691 0.58701
# Poissons Ratio (y) = 0.17867 0.14137
# Poissons Ratio (z) = 0.53469 0.32207
#
# Static dielectric constant tensor:
#      x y z
#    x 3.479830 0.000000 0.258380 
#    y 0.000000 3.507220 0.000000 
#    z 0.258380 0.000000 2.916320 
# 
# 
# High freq. dielectric constant tensor:
#      x y z
#    x 1.663560 0.000000 0.016540 
#    y 0.000000 1.671090 0.000000 
#    z 0.016540 0.000000 1.623240 
# 
# From -- ./inp_files/69303.got.cif
#   From: 2010.06.25/outbox.cif.g09.slc.cpg/sg10_35_cif.got.tgz:69303.got - 2010.06.27 22:07:45.
