data_PCOD8058280
_publ_section_title
;
Structure prediction by ZEFSAII (Michael W. Deem and Ramdas Pophale) SiO2 
 PCOD8058280
Probable space group: P 2/M
;
_chemical_formula_sum "Si O2"
_cell_formula_units_Z 32
_cell_length_a 23.854415
_cell_length_b 8.813094
_cell_length_c 17.838211
_cell_angle_alpha 90.000000
_cell_angle_beta 30.899031
_cell_angle_gamma 90.000000
_cell_volume 1925.801552
_symmetry_space_group_name_H-M "P 2/M"
_symmetry_group_IT_number 10
_symmetry_cell_setting 'monoclinic'
loop_
_space_group_symop_operation_xyz
x,y,z
-x,y,-z
-x,-y,-z
x,-y,z
loop_
_atom_site_type_symbol
_atom_site_label
_atom_site_fract_x
_atom_site_fract_y
_atom_site_fract_z
Si Si1 0.943875 0.181228 0.886713
Si Si2 0.125317 0.167410 0.880848
Si Si3 0.178086 0.820469 0.665456
Si Si4 0.912505 0.179698 0.756932
Si Si5 0.699180 0.176407 0.617065
Si Si6 0.753014 0.678031 0.826292
Si Si7 0.861427 0.678453 0.546661
Si Si8 0.528746 0.823757 0.051171
O O1 0.898756 0.237648 0.858584
O O2 0.068286 0.240506 0.751316
O O3 0.942235 0.000000 0.893240
O O4 0.871473 0.247657 0.040224
O O5 0.190041 0.249420 0.736889
O O6 0.175368 0.000000 0.833763
O O7 0.000000 0.156587 0.000000
O O8 0.279270 0.779618 0.494950
O O9 0.167316 0.000000 0.688587
O O10 0.807639 0.237752 0.833231
O O11 0.022428 0.242478 0.594269
O O12 0.918450 0.000000 0.746924
O O13 0.777871 0.274696 0.578230
O O14 0.573809 0.212047 0.778003
O O15 0.726788 0.000000 0.600393
O O16 0.763889 0.500000 0.825971
O O17 0.811335 0.730956 0.683170
O O18 0.626674 0.723091 0.969462
O O19 0.879765 0.500000 0.522773
O O20 0.562182 0.000000 0.014913
O O21 0.500000 0.773438 0.000000
#
# Coordination Sequence:
#
# PCOD8058280 Si02
#       8
#     4   4   4   4   4   4   4   4
#     4   8  13  22  39  66  96 124 151 182 227 279
#     4   7  10  17  33  61  96 125 146 176 223 277
#     4   8  12  21  39  66  98 124 149 184 228 275
#     4  11  21  33  51  72  96 125 160 199 236 278
#     4  10  18  30  50  74  97 123 159 197 234 278
#     4  11  24  38  50  66  93 127 164 200 237 283
#     4  11  22  34  48  68  96 128 160 193 234 283
#     4  10  20  34  53  73  93 120 158 202 244 281
#
# _framework density 16.616458000000002
#
# number of rings (size 3 to 8) (size 9 to 14) (size 15 to 20)
#    0.000    2.500    2.500    3.000    0.000    3.750 
#    0.000    0.000    0.000    0.000    0.000    3.500 
#    0.000    7.000    0.000    0.000    0.000    0.000 
#
# Total GULP energy -396516.664116 kJ/mol
# GULP energy per Si atom -12391.145754 kJ/mol
# Density = 1.657864 g / cm^3
# Si number density = 16.616458 Si / 1000 Ang^3
#
#
#
# Elastic Constant Matrix: (Units=GPa)
#
#
# Indices 1 2 3 4 5 6 
#
# 1 91.1504 18.1758 77.8755 0.0000 15.8876 0.0000
# 2 18.1758 28.0297 23.8199 0.0000 0.9212 0.0000
# 3 77.8755 23.8199 117.3127 0.0000 28.3450 0.0000
# 4 0.0000 0.0000 0.0000 12.8097 0.0000 -4.5503
# 5 15.8876 0.9212 28.3450 0.0000 32.2726 0.0000
# 6 0.0000 0.0000 0.0000 -4.5503 0.0000 9.5206
#
#
#
# Elastic Compliance Matrix: (Units=1/GPa)
#
#
# Indices 1 2 3 4 5 6 
#
# 1 0.025660 -0.002081 -0.017230 0.000000 0.002560 0.000000
# 2 -0.002081 0.045064 -0.009781 0.000000 0.008329 0.000000
# 3 -0.017230 -0.009781 0.025173 0.000000 -0.013348 0.000000
# 4 0.000000 0.000000 0.000000 0.094030 0.000000 0.044941
# 5 0.002560 0.008329 -0.013348 0.000000 0.041212 0.000000
# 6 0.000000 0.000000 0.000000 0.044941 0.000000 0.126515
#
#
# Mechanical properties :
#
#
# Convention : Reuss Voigt Hill
#
# Bulk Modulus (GPa) = 26.51590 52.91501 39.71546
# Shear Modulus (GPa) = 11.67105 18.69535 15.18320
#
# Velocity S-wave (km/s) = 2.65312 3.35791 3.02610
# Velocity P-wave (km/s) = 5.03762 6.85187 6.01356
#
# Compressibility (1/GPa) = 0.03771322
#
# Stress axis : x y z
#
# Youngs Moduli (GPa) = 38.97054 22.19056 39.72484
#
# Poissons Ratio (x) = 0.04619 0.68446
# Poissons Ratio (y) = 0.08111 0.38854
# Poissons Ratio (z) = 0.67146 0.21704
#
# Static dielectric constant tensor:
#      x y z
#    x 3.248200 0.000000 0.440520 
#    y 0.000000 2.809720 0.000000 
#    z 0.440520 0.000000 3.322330 
# 
# 
# High freq. dielectric constant tensor:
#      x y z
#    x 1.627200 0.000000 0.030260 
#    y 0.000000 1.606470 0.000000 
#    z 0.030260 0.000000 1.634210 
# 
# From -- ./inp_files/79913.got.cif
#   From: 2010.06.25/outbox.cif.g09.slc.cpg/sg10_40_cif.got.tgz:79913.got - 2010.06.27 22:07:45.
