data_PCOD8058193
_publ_section_title
;
Structure prediction by ZEFSAII (Michael W. Deem and Ramdas Pophale) SiO2 
 PCOD8058193
Probable space group: P 2/M
;
_chemical_formula_sum "Si O2"
_cell_formula_units_Z 30
_cell_length_a 23.372014
_cell_length_b 9.396476
_cell_length_c 13.922966
_cell_angle_alpha 90.000000
_cell_angle_beta 148.635273
_cell_angle_gamma 90.000000
_cell_volume 1591.476918
_symmetry_space_group_name_H-M "P 2/M"
_symmetry_group_IT_number 10
_symmetry_cell_setting 'monoclinic'
loop_
_space_group_symop_operation_xyz
x,y,z
-x,y,-z
-x,-y,-z
x,-y,z
loop_
_atom_site_type_symbol
_atom_site_label
_atom_site_fract_x
_atom_site_fract_y
_atom_site_fract_z
Si Si1 0.093649 0.831435 0.849700
Si Si2 0.733372 0.653196 0.370838
Si Si3 0.125037 0.168255 0.557584
Si Si4 0.703342 0.664065 0.545450
Si Si5 0.490727 0.838295 0.199313
Si Si6 0.103594 0.831350 0.082141
Si Si7 0.745739 0.831264 0.076122
Si Si8 0.500000 0.748128 0.000000
O O1 0.208384 0.783582 0.963017
O O2 0.993986 0.769504 0.641978
O O3 0.086477 0.000000 0.838798
O O4 0.081688 0.778834 0.941746
O O5 0.782252 0.500000 0.408017
O O6 0.788751 0.785909 0.399498
O O7 0.754082 0.673763 0.512742
O O8 0.604572 0.647527 0.162503
O O9 0.166747 0.227356 0.719701
O O10 0.121517 0.000000 0.553242
O O11 0.691129 0.500000 0.561633
O O12 0.584566 0.738802 0.378385
O O13 0.786710 0.748804 0.732219
O O14 0.487588 0.842405 0.078675
O O15 0.510132 0.000000 0.262262
O O16 0.376560 0.773540 0.078223
O O17 0.125226 0.000000 0.119968
O O18 0.000000 0.787707 0.000000
O O19 0.740918 0.000000 0.078806
#
# Coordination Sequence:
#
# PCOD8058193 Si02
#       8
#     4   4   4   4   4   4   4   2
#     4   9  18  32  54  80 109 138 172 219 268 318
#     4  10  20  32  48  73 106 141 176 211 258 315
#     4  10  18  31  53  81 108 139 175 216 259 311
#     4  10  22  37  53  76 107 145 181 218 268 320
#     4  10  19  32  53  80 109 138 176 222 261 306
#     4  10  20  36  58  84 107 134 175 226 274 310
#     4   9  17  31  51  81 111 141 175 209 260 320
#     4  10  18  30  48  76 104 140 176 214 254 312
#
# _framework density 18.850415000000002
#
# number of rings (size 3 to 8) (size 9 to 14) (size 15 to 20)
#    0.000    2.267    1.333    2.000    0.000    6.133 
#    0.000    1.333    0.000    8.000    0.000    0.000 
#    0.000    0.000    0.000    0.000    0.000    0.000 
#
# Total GULP energy -371812.685545 kJ/mol
# GULP energy per Si atom -12393.756185 kJ/mol
# Density = 1.880751 g / cm^3
# Si number density = 18.850415 Si / 1000 Ang^3
#
#
#
# Elastic Constant Matrix: (Units=GPa)
#
#
# Indices 1 2 3 4 5 6 
#
# 1 128.9246 21.3283 63.7774 0.0000 13.8102 0.0000
# 2 21.3283 43.8093 34.1716 0.0000 -2.2607 0.0000
# 3 63.7774 34.1716 123.9911 0.0000 5.3701 0.0000
# 4 0.0000 0.0000 0.0000 9.9708 0.0000 0.4713
# 5 13.8102 -2.2607 5.3701 0.0000 23.3869 0.0000
# 6 0.0000 0.0000 0.0000 0.4713 0.0000 7.2472
#
#
#
# Elastic Compliance Matrix: (Units=1/GPa)
#
#
# Indices 1 2 3 4 5 6 
#
# 1 0.011118 -0.001822 -0.004974 0.000000 -0.005599 0.000000
# 2 -0.001822 0.029895 -0.007549 0.000000 0.005699 0.000000
# 3 -0.004974 -0.007549 0.012735 0.000000 -0.000717 0.000000
# 4 0.000000 0.000000 0.000000 0.100602 0.000000 -0.006542
# 5 -0.005599 0.005699 -0.000717 0.000000 0.046781 0.000000
# 6 0.000000 0.000000 0.000000 -0.006542 0.000000 0.138411
#
#
# Mechanical properties :
#
#
# Convention : Reuss Voigt Hill
#
# Bulk Modulus (GPa) = 39.90582 59.47551 49.69067
# Shear Modulus (GPa) = 13.27720 19.95083 16.61402
#
# Velocity S-wave (km/s) = 2.65683 3.25680 2.97199
# Velocity P-wave (km/s) = 5.53420 6.76477 6.18019
#
# Compressibility (1/GPa) = 0.02505900
#
# Stress axis : x y z
#
# Youngs Moduli (GPa) = 89.94083 33.44998 78.52228
#
# Poissons Ratio (x) = 0.06094 0.39060
# Poissons Ratio (y) = 0.16386 0.59275
# Poissons Ratio (z) = 0.44740 0.25251
#
# Static dielectric constant tensor:
#      x y z
#    x 3.553550 0.000000 0.022890 
#    y 0.000000 3.111340 0.000000 
#    z 0.022890 0.000000 3.566390 
# 
# 
# High freq. dielectric constant tensor:
#      x y z
#    x 1.726120 0.000000 0.007280 
#    y 0.000000 1.696920 0.000000 
#    z 0.007280 0.000000 1.735450 
# 
# From -- ./inp_files/71332.got.cif
#   From: 2010.06.25/outbox.cif.g09.slc.cpg/sg10_36_cif.got.tgz:71332.got - 2010.06.27 22:07:45.
