data_PCOD8058295
_publ_section_title
;
Structure prediction by ZEFSAII (Michael W. Deem and Ramdas Pophale) SiO2 
 PCOD8058295
Probable space group: P 2/M
;
_chemical_formula_sum "Si O2"
_cell_formula_units_Z 26
_cell_length_a 11.507346
_cell_length_b 9.592436
_cell_length_c 26.395627
_cell_angle_alpha 90.000000
_cell_angle_beta 153.559048
_cell_angle_gamma 90.000000
_cell_volume 1297.372366
_symmetry_space_group_name_H-M "P 2/M"
_symmetry_group_IT_number 10
_symmetry_cell_setting 'monoclinic'
loop_
_space_group_symop_operation_xyz
x,y,z
-x,y,-z
-x,-y,-z
x,-y,z
loop_
_atom_site_type_symbol
_atom_site_label
_atom_site_fract_x
_atom_site_fract_y
_atom_site_fract_z
Si Si1 0.478204 0.337992 0.883403
Si Si2 0.741906 0.654226 0.494376
Si Si3 0.310106 0.157803 0.615921
Si Si4 0.500000 0.252198 0.500000
Si Si5 0.342045 0.658023 0.720168
Si Si6 0.979448 0.843303 0.252676
Si Si7 0.755824 0.153873 0.065292
O O1 0.464194 0.500000 0.893475
O O2 0.520227 0.320596 0.839519
O O3 0.205466 0.266669 0.791651
O O4 0.724417 0.265908 0.007842
O O5 0.712704 0.500000 0.459338
O O6 0.609079 0.764774 0.404355
O O7 0.601354 0.653052 0.493717
O O8 0.045200 0.691220 0.620340
O O9 0.437952 0.237154 0.713716
O O10 0.000000 0.162755 0.500000
O O11 0.416381 0.000000 0.655825
O O12 0.733011 0.156600 0.611627
O O13 0.367251 0.500000 0.709688
O O14 0.990129 0.808669 0.196069
O O15 0.864448 0.000000 0.214869
O O16 0.797758 0.000000 0.057789
O O17 0.500000 0.158226 0.000000
#
# Coordination Sequence:
#
# PCOD8058295 Si02
#       7
#     4   4   4   2   4   4   4
#     4  10  18  30  50  76 100 127 167 212 255 301
#     4  10  20  34  49  68 100 138 170 206 250 298
#     4   9  18  31  48  71  96 127 168 211 250 297
#     4  12  22  34  52  76 100 140 182 208 236 298
#     4   9  17  31  49  72 100 130 163 206 257 300
#     4  10  21  34  47  67 100 138 173 208 251 298
#     4   8  16  31  47  66  95 131 166 206 256 302
#
# _framework density 20.040507000000002
#
# number of rings (size 3 to 8) (size 9 to 14) (size 15 to 20)
#    0.000    2.462    1.538    2.308    0.000    7.692 
#    0.000    0.000    0.000    0.000    0.000    1.077 
#    0.000    7.385    0.000    0.000    0.000    0.000 
#
# Total GULP energy -322250.551903 kJ/mol
# GULP energy per Si atom -12394.251996 kJ/mol
# Density = 1.999489 g / cm^3
# Si number density = 20.040507 Si / 1000 Ang^3
#
#
#
# Elastic Constant Matrix: (Units=GPa)
#
#
# Indices 1 2 3 4 5 6 
#
# 1 82.2025 52.0064 30.8785 0.0000 -31.3612 0.0000
# 2 52.0064 147.2684 52.7764 0.0000 -37.1036 0.0000
# 3 30.8785 52.7764 99.1022 0.0000 -34.5539 0.0000
# 4 0.0000 0.0000 0.0000 24.8837 0.0000 -14.7079
# 5 -31.3612 -37.1036 -34.5539 0.0000 32.9058 0.0000
# 6 0.0000 0.0000 0.0000 -14.7079 0.0000 16.5324
#
#
#
# Elastic Compliance Matrix: (Units=1/GPa)
#
#
# Indices 1 2 3 4 5 6 
#
# 1 0.020246 -0.003380 0.001405 0.000000 0.016960 0.000000
# 2 -0.003380 0.010331 -0.002382 0.000000 0.005925 0.000000
# 3 0.001405 -0.002382 0.016489 0.000000 0.015968 0.000000
# 4 0.000000 0.000000 0.000000 0.084753 0.000000 0.075400
# 5 0.016960 0.005925 0.015968 0.000000 0.070002 0.000000
# 6 0.000000 0.000000 0.000000 0.075400 0.000000 0.127567
#
#
# Mechanical properties :
#
#
# Convention : Reuss Voigt Hill
#
# Bulk Modulus (GPa) = 26.07499 66.65505 46.36502
# Shear Modulus (GPa) = 14.24960 27.72518 20.98739
#
# Velocity S-wave (km/s) = 2.66943 3.72352 3.23963
# Velocity P-wave (km/s) = 4.74768 7.19851 6.09750
#
# Compressibility (1/GPa) = 0.03835092
#
# Stress axis : x y z
#
# Youngs Moduli (GPa) = 49.39177 96.79939 60.64672
#
# Poissons Ratio (x) = 0.32722 -0.08522
# Poissons Ratio (y) = 0.16696 0.14448
# Poissons Ratio (z) = -0.06941 0.23061
#
# Static dielectric constant tensor:
#      x y z
#    x 3.345020 0.000000 -0.487230 
#    y 0.000000 3.647320 0.000000 
#    z -0.487230 0.000000 3.821280 
# 
# 
# High freq. dielectric constant tensor:
#      x y z
#    x 1.748010 0.000000 -0.039640 
#    y 0.000000 1.786240 0.000000 
#    z -0.039640 0.000000 1.764880 
# 
# From -- ./inp_files/57384.got.cif
#   From: 2010.06.25/outbox.cif.g09.slc.cpg/sg10_29_cif.got.tgz:57384.got - 2010.06.27 22:07:45.
