data_PCOD8058903
_publ_section_title
;
Structure prediction by ZEFSAII (Michael W. Deem and Ramdas Pophale) SiO2 
 PCOD8058903
Probable space group: P 2/M
;
_chemical_formula_sum "Si O2"
_cell_formula_units_Z 30
_cell_length_a 11.414871
_cell_length_b 9.250234
_cell_length_c 14.599346
_cell_angle_alpha 90.000000
_cell_angle_beta 69.224417
_cell_angle_gamma 90.000000
_cell_volume 1441.312058
_symmetry_space_group_name_H-M "P 2/M"
_symmetry_group_IT_number 10
_symmetry_cell_setting 'monoclinic'
loop_
_space_group_symop_operation_xyz
x,y,z
-x,y,-z
-x,-y,-z
x,-y,z
loop_
_atom_site_type_symbol
_atom_site_label
_atom_site_fract_x
_atom_site_fract_y
_atom_site_fract_z
Si Si1 0.274699 0.340606 0.426045
Si Si2 0.853330 0.670615 0.035116
Si Si3 0.273068 0.330105 0.632075
Si Si4 0.667607 0.169533 0.213918
Si Si5 0.029130 0.840764 0.689728
Si Si6 0.785551 0.831571 0.873204
Si Si7 0.000000 0.750188 0.500000
Si Si8 0.603593 0.166915 0.769336
O O1 0.326737 0.500000 0.391052
O O2 0.317005 0.292826 0.516700
O O3 0.333014 0.235449 0.336539
O O4 0.123926 0.348304 0.463502
O O5 0.829232 0.500000 0.047268
O O6 0.791856 0.732520 0.960338
O O7 0.786772 0.749359 0.138272
O O8 0.000000 0.708357 0.000000
O O9 0.282192 0.500000 0.650118
O O10 0.359015 0.239894 0.678855
O O11 0.129990 0.280139 0.687292
O O12 0.544714 0.197436 0.186149
O O13 0.696438 0.000000 0.215218
O O14 0.000869 0.849667 0.589599
O O15 0.904036 0.798499 0.777289
O O16 0.076799 0.000000 0.706940
O O17 0.663753 0.781261 0.848598
O O18 0.777274 0.000000 0.904830
O O19 0.634486 0.000000 0.748680
#
# Coordination Sequence:
#
# PCOD8058903 Si02
#       8
#     4   4   4   4   4   4   2   4
#     4  10  21  36  57  87 124 169 210 249 304 362
#     4  11  25  44  67  95 123 155 195 249 309 366
#     4  10  22  38  57  86 125 163 205 259 308 361
#     4  11  24  43  66  89 118 160 207 256 308 366
#     4  10  19  32  57  88 120 159 202 248 301 358
#     4  10  21  39  61  90 124 160 200 248 303 360
#     4  10  18  32  54  88 124 160 202 252 298 350
#     4  10  23  42  62  89 125 163 206 254 303 358
#
# _framework density 20.814368000000002
#
# number of rings (size 3 to 8) (size 9 to 14) (size 15 to 20)
#    0.000    1.733    1.333    2.400    0.000    9.600 
#    0.000    5.333    0.000    0.000    0.000    0.000 
#    0.000    0.000    0.000    0.000    0.000    0.000 
#
# Total GULP energy -372010.086744 kJ/mol
# GULP energy per Si atom -12400.336225 kJ/mol
# Density = 2.076699 g / cm^3
# Si number density = 20.814368 Si / 1000 Ang^3
#
#
#
# Elastic Constant Matrix: (Units=GPa)
#
#
# Indices 1 2 3 4 5 6 
#
# 1 91.9066 43.1305 35.5644 0.0000 22.2588 0.0000
# 2 43.1305 98.7346 43.9312 0.0000 10.6917 0.0000
# 3 35.5644 43.9312 87.6680 0.0000 16.6573 0.0000
# 4 0.0000 0.0000 0.0000 31.2321 0.0000 8.7745
# 5 22.2588 10.6917 16.6573 0.0000 32.9048 0.0000
# 6 0.0000 0.0000 0.0000 8.7745 0.0000 16.7303
#
#
#
# Elastic Compliance Matrix: (Units=1/GPa)
#
#
# Indices 1 2 3 4 5 6 
#
# 1 0.016176 -0.005091 -0.002485 0.000000 -0.008030 0.000000
# 2 -0.005091 0.014668 -0.005569 0.000000 0.001497 0.000000
# 3 -0.002485 -0.005569 0.016090 0.000000 -0.004654 0.000000
# 4 0.000000 0.000000 0.000000 0.037551 0.000000 -0.019694
# 5 -0.008030 0.001497 -0.004654 0.000000 0.037693 0.000000
# 6 0.000000 0.000000 0.000000 -0.019694 0.000000 0.070101
#
#
# Mechanical properties :
#
#
# Convention : Reuss Voigt Hill
#
# Bulk Modulus (GPa) = 48.44272 58.17348 53.30810
# Shear Modulus (GPa) = 22.17771 26.55232 24.36502
#
# Velocity S-wave (km/s) = 3.26774 3.57553 3.42510
# Velocity P-wave (km/s) = 6.12876 6.71232 6.42717
#
# Compressibility (1/GPa) = 0.02064294
#
# Stress axis : x y z
#
# Youngs Moduli (GPa) = 61.81876 68.17549 62.14974
#
# Poissons Ratio (x) = 0.34708 0.15447
# Poissons Ratio (y) = 0.31471 0.34614
# Poissons Ratio (z) = 0.15364 0.37970
#
# Static dielectric constant tensor:
#      x y z
#    x 3.911870 0.000000 0.229390 
#    y 0.000000 3.661800 0.000000 
#    z 0.229390 0.000000 3.797020 
# 
# 
# High freq. dielectric constant tensor:
#      x y z
#    x 1.817990 0.000000 0.012900 
#    y 0.000000 1.810880 0.000000 
#    z 0.012900 0.000000 1.815120 
# 
# From -- ./inp_files/63734.got.cif
#   From: 2010.06.25/outbox.cif.g09.slc.cpg/sg10_32_cif.got.tgz:63734.got - 2010.06.27 22:07:45.
