data_PCOD8058512
_publ_section_title
;
Structure prediction by ZEFSAII (Michael W. Deem and Ramdas Pophale) SiO2 
 PCOD8058512
Probable space group: P 2/M
;
_chemical_formula_sum "Si O2"
_cell_formula_units_Z 28
_cell_length_a 27.047201
_cell_length_b 11.219486
_cell_length_c 27.403980
_cell_angle_alpha 90.000000
_cell_angle_beta 10.645490
_cell_angle_gamma 90.000000
_cell_volume 1536.209141
_symmetry_space_group_name_H-M "P 2/M"
_symmetry_group_IT_number 10
_symmetry_cell_setting 'monoclinic'
loop_
_space_group_symop_operation_xyz
x,y,z
-x,y,-z
-x,-y,-z
x,-y,z
loop_
_atom_site_type_symbol
_atom_site_label
_atom_site_fract_x
_atom_site_fract_y
_atom_site_fract_z
Si Si1 0.742276 0.760061 0.727340
Si Si2 0.947420 0.358405 0.252241
Si Si3 0.526675 0.739252 0.114623
Si Si4 0.943158 0.000000 0.491401
Si Si5 0.275996 0.357792 0.753755
Si Si6 0.605204 0.642295 0.253692
Si Si7 0.062278 0.361807 0.627918
Si Si8 0.403754 0.000000 0.970016
O O1 0.617826 0.713171 0.797238
O O2 0.882564 0.886650 0.583074
O O3 0.000000 0.684656 0.500000
O O4 0.500000 0.766226 0.000000
O O5 0.948477 0.500000 0.250520
O O6 0.680494 0.308642 0.486001
O O7 0.976767 0.313887 0.279223
O O8 0.188257 0.307031 0.986376
O O9 0.306803 0.713058 0.368711
O O10 0.652282 0.872893 0.001261
O O11 0.784018 0.653944 0.868716
O O12 0.725685 0.000000 0.659594
O O13 0.242989 0.000000 0.177733
O O14 0.500000 0.309159 0.500000
O O15 0.276878 0.500000 0.754502
O O16 0.324784 0.307073 0.760683
O O17 0.000000 0.308662 0.000000
O O18 0.611146 0.500000 0.249188
O O19 0.144816 0.500000 0.546276
#
# Coordination Sequence:
#
# PCOD8058512 Si02
#       8
#     4   4   4   2   4   4   4   2
#     4  11  20  32  51  75 102 129 157 189 233 290
#     4   9  17  28  43  62  80 106 149 201 246 270
#     4  11  22  37  55  77 103 128 156 197 243 294
#     4  10  18  31  50  78 106 128 152 184 232 283
#     4   9  15  21  30  47  73 107 143 179 225 278
#     4   9  15  24  37  54  79 107 142 194 242 273
#     4  11  22  37  56  74  95 127 169 212 249 284
#     4  10  20  35  54  80 108 130 152 186 240 297
#
# _framework density 18.226685
#
# number of rings (size 3 to 8) (size 9 to 14) (size 15 to 20)
#    0.000    2.000    0.000    6.857    0.000    5.714 
#    0.000    0.000    0.000    8.571    0.000    0.000 
#    0.000    0.000    0.000    0.000    0.000    0.000 
#
# Total GULP energy -346910.800404 kJ/mol
# GULP energy per Si atom -12389.671443 kJ/mol
# Density = 1.818520 g / cm^3
# Si number density = 18.226685 Si / 1000 Ang^3
#
#
#
# Elastic Constant Matrix: (Units=GPa)
#
#
# Indices 1 2 3 4 5 6 
#
# 1 106.1104 24.4879 39.0604 0.0000 7.1248 0.0000
# 2 24.4879 22.4724 16.9907 0.0000 6.5266 0.0000
# 3 39.0604 16.9907 126.6122 0.0000 12.3441 0.0000
# 4 0.0000 0.0000 0.0000 18.4627 0.0000 4.0499
# 5 7.1248 6.5266 12.3441 0.0000 43.0758 0.0000
# 6 0.0000 0.0000 0.0000 4.0499 0.0000 1.7882
#
#
#
# Elastic Compliance Matrix: (Units=1/GPa)
#
#
# Indices 1 2 3 4 5 6 
#
# 1 0.013215 -0.012699 -0.002415 0.000000 0.000430 0.000000
# 2 -0.012699 0.063157 -0.003939 0.000000 -0.006340 0.000000
# 3 -0.002415 -0.003939 0.009335 0.000000 -0.001679 0.000000
# 4 0.000000 0.000000 0.000000 0.107638 0.000000 -0.243778
# 5 0.000430 -0.006340 -0.001679 0.000000 0.024585 0.000000
# 6 0.000000 0.000000 0.000000 -0.243778 0.000000 1.111335
#
#
# Mechanical properties :
#
#
# Convention : Reuss Voigt Hill
#
# Bulk Modulus (GPa) = 21.00821 46.25256 33.63039
# Shear Modulus (GPa) = 3.61470 24.30907 13.96189
#
# Velocity S-wave (km/s) = 1.40979 3.65596 2.77070
# Velocity P-wave (km/s) = 3.76843 6.57668 5.35975
#
# Compressibility (1/GPa) = 0.04760044
#
# Stress axis : x y z
#
# Youngs Moduli (GPa) = 75.67253 15.83354 107.11926
#
# Poissons Ratio (x) = 0.20108 0.25865
# Poissons Ratio (y) = 0.96100 0.42199
# Poissons Ratio (z) = 0.18272 0.06238
#
# Static dielectric constant tensor:
#      x y z
#    x 3.572610 0.000000 -0.078680 
#    y 0.000000 2.841360 0.000000 
#    z -0.078680 0.000000 3.720100 
# 
# 
# High freq. dielectric constant tensor:
#      x y z
#    x 1.714230 0.000000 -0.002800 
#    y 0.000000 1.622110 0.000000 
#    z -0.002800 0.000000 1.735120 
# 
# From -- ./inp_files/94012.got.cif
#   From: 2010.06.25/outbox.cif.g09.slc.cpg/sg10_48_cif.got.tgz:94012.got - 2010.06.27 22:07:45.
