data_PCOD8058620
_publ_section_title
;
Structure prediction by ZEFSAII (Michael W. Deem and Ramdas Pophale) SiO2 
 PCOD8058620
Probable space group: P 2/M
;
_chemical_formula_sum "Si O2"
_cell_formula_units_Z 24
_cell_length_a 22.517711
_cell_length_b 8.505662
_cell_length_c 11.781870
_cell_angle_alpha 90.000000
_cell_angle_beta 31.303464
_cell_angle_gamma 90.000000
_cell_volume 1172.441814
_symmetry_space_group_name_H-M "P 2/M"
_symmetry_group_IT_number 10
_symmetry_cell_setting 'monoclinic'
loop_
_space_group_symop_operation_xyz
x,y,z
-x,y,-z
-x,-y,-z
x,-y,z
loop_
_atom_site_type_symbol
_atom_site_label
_atom_site_fract_x
_atom_site_fract_y
_atom_site_fract_z
Si Si1 0.291536 0.812122 0.526245
Si Si2 0.815579 0.183012 0.070131
Si Si3 0.550355 0.183091 0.133029
Si Si4 0.973849 0.811994 0.416152
Si Si5 0.755395 0.183097 0.642583
Si Si6 0.381637 0.681137 0.749451
O O1 0.217179 0.743597 0.753050
O O2 0.422479 0.753430 0.322193
O O3 0.238125 0.746369 0.495797
O O4 0.292344 0.000000 0.524754
O O5 0.714705 0.209990 0.146334
O O6 0.833022 0.000000 0.059870
O O7 0.931418 0.253699 0.827323
O O8 0.611708 0.284963 0.128774
O O9 0.550365 0.000000 0.167849
O O10 0.626952 0.212389 0.896515
O O11 0.852293 0.745675 0.568274
O O12 0.000000 0.745316 0.500000
O O13 0.976609 0.000000 0.417095
O O14 0.782111 0.000000 0.591258
O O15 0.500000 0.731818 0.500000
O O16 0.351925 0.500000 0.774880
#
# Coordination Sequence:
#
# PCOD8058620 Si02
#       6
#     4   4   4   4   4   4
#     4   9  17  28  46  76 105 131 167 208 249 293
#     4  10  19  32  52  76 102 132 169 210 247 292
#     4  10  18  31  53  76 102 133 167 208 249 295
#     4   9  17  29  46  72 104 135 167 204 248 293
#     4   9  17  29  48  76 107 135 164 204 252 295
#     4  11  22  34  50  74 103 132 164 206 257 303
#
# _framework density 20.470099999999999
#
# number of rings (size 3 to 8) (size 9 to 14) (size 15 to 20)
#    0.000    2.333    1.667    2.000    0.000    6.000 
#    0.000    3.333    0.000    7.500    0.000    1.167 
#    0.000    0.000    0.000    0.000    0.000    0.000 
#
# Total GULP energy -297503.202670 kJ/mol
# GULP energy per Si atom -12395.966778 kJ/mol
# Density = 2.042351 g / cm^3
# Si number density = 20.470100 Si / 1000 Ang^3
#
#
#
# Elastic Constant Matrix: (Units=GPa)
#
#
# Indices 1 2 3 4 5 6 
#
# 1 155.4707 -1.2800 70.6608 0.0000 19.3674 0.0000
# 2 -1.2800 3.6599 10.5103 0.0000 1.3289 0.0000
# 3 70.6608 10.5103 153.5186 0.0000 7.9478 0.0000
# 4 0.0000 0.0000 0.0000 7.6083 0.0000 1.4234
# 5 19.3674 1.3289 7.9478 0.0000 32.9485 0.0000
# 6 0.0000 0.0000 0.0000 1.4234 0.0000 4.3932
#
#
#
# Elastic Compliance Matrix: (Units=1/GPa)
#
#
# Indices 1 2 3 4 5 6 
#
# 1 0.009909 0.022036 -0.005794 0.000000 -0.005316 0.000000
# 2 0.022036 0.391298 -0.035892 0.000000 -0.020077 0.000000
# 3 -0.005794 -0.035892 0.011531 0.000000 0.002072 0.000000
# 4 0.000000 0.000000 0.000000 0.139916 0.000000 -0.045332
# 5 -0.005316 -0.020077 0.002072 0.000000 0.033785 0.000000
# 6 0.000000 0.000000 0.000000 -0.045332 0.000000 0.242309
#
#
# Mechanical properties :
#
#
# Convention : Reuss Voigt Hill
#
# Bulk Modulus (GPa) = 2.67784 52.49238 27.58511
# Shear Modulus (GPa) = 5.03764 24.50723 14.77243
#
# Velocity S-wave (km/s) = 1.57045 3.46384 2.68929
# Velocity P-wave (km/s) = 2.14463 6.45730 4.81124
#
# Compressibility (1/GPa) = 0.37343577
#
# Stress axis : x y z
#
# Youngs Moduli (GPa) = 100.91601 2.55560 86.72342
#
# Poissons Ratio (x) = -0.05631 0.50251
# Poissons Ratio (y) = -2.22375 3.11272
# Poissons Ratio (z) = 0.58475 0.09173
#
# Static dielectric constant tensor:
#      x y z
#    x 3.891880 0.000000 0.128780 
#    y 0.000000 2.990750 0.000000 
#    z 0.128780 0.000000 4.010630 
# 
# 
# High freq. dielectric constant tensor:
#      x y z
#    x 1.807370 0.000000 0.007830 
#    y 0.000000 1.726570 0.000000 
#    z 0.007830 0.000000 1.812780 
# 
# From -- ./inp_files/45017.got.cif
#   From: 2010.06.25/outbox.cif.g09.slc.cpg/sg10_23_cif.got.tgz:45017.got - 2010.06.27 22:07:45.
