data_PCOD8058732
_publ_section_title
;
Structure prediction by ZEFSAII (Michael W. Deem and Ramdas Pophale) SiO2 
 PCOD8058732
Probable space group: P 2/M
;
_chemical_formula_sum "Si O2"
_cell_formula_units_Z 24
_cell_length_a 23.128644
_cell_length_b 13.194685
_cell_length_c 6.995815
_cell_angle_alpha 90.000000
_cell_angle_beta 40.065731
_cell_angle_gamma 90.000000
_cell_volume 1374.194134
_symmetry_space_group_name_H-M "P 2/M"
_symmetry_group_IT_number 10
_symmetry_cell_setting 'monoclinic'
loop_
_space_group_symop_operation_xyz
x,y,z
-x,y,-z
-x,-y,-z
x,-y,z
loop_
_atom_site_type_symbol
_atom_site_label
_atom_site_fract_x
_atom_site_fract_y
_atom_site_fract_z
Si Si1 0.397852 0.881384 0.238957
Si Si2 0.006448 0.309245 0.264427
Si Si3 0.742832 0.796856 0.672122
Si Si4 0.115405 0.884995 0.961745
Si Si5 0.739777 0.884133 0.088922
Si Si6 0.141834 0.615671 0.632658
O O1 0.353748 0.820223 0.175326
O O2 0.346723 0.856355 0.564677
O O3 0.390833 0.000000 0.207537
O O4 0.500000 0.845148 0.000000
O O5 0.000000 0.340443 0.500000
O O6 0.911723 0.331206 0.405086
O O7 0.030483 0.190349 0.173610
O O8 0.083154 0.378887 0.974515
O O9 0.819258 0.867708 0.383938
O O10 0.766426 0.678796 0.573645
O O11 0.739131 0.813190 0.907328
O O12 0.170086 0.864050 0.018133
O O13 0.079011 0.000000 0.046152
O O14 0.734502 0.000000 0.034783
O O15 0.165312 0.500000 0.525352
#
# Coordination Sequence:
#
# PCOD8058732 Si02
#       6
#     4   4   4   4   4   4
#     4   9  18  31  48  75 105 125 147 181 220 273
#     4  10  19  33  50  69  94 124 157 195 238 279
#     4  10  18  32  50  67  93 126 158 192 232 276
#     4   9  18  30  44  68 100 128 156 189 223 271
#     4   9  16  28  48  71  97 129 157 180 217 272
#     4  10  22  36  49  68  90 117 160 208 243 272
#
# _framework density 17.464783000000001
#
# number of rings (size 3 to 8) (size 9 to 14) (size 15 to 20)
#    0.000    2.500    0.000    4.500    0.000    2.333 
#    0.000   10.833    0.000    0.500    0.000    1.167 
#    0.000    0.000    0.000    0.000    0.000    0.000 
#
# Total GULP energy -297633.988911 kJ/mol
# GULP energy per Si atom -12401.416205 kJ/mol
# Density = 1.742503 g / cm^3
# Si number density = 17.464783 Si / 1000 Ang^3
#
#
#
# Elastic Constant Matrix: (Units=GPa)
#
#
# Indices 1 2 3 4 5 6 
#
# 1 85.1077 58.1328 41.4690 0.0000 5.8420 0.0000
# 2 58.1328 109.6787 27.2433 0.0000 -4.1557 0.0000
# 3 41.4690 27.2433 58.5222 0.0000 18.2285 0.0000
# 4 0.0000 0.0000 0.0000 11.7567 0.0000 -4.1559
# 5 5.8420 -4.1557 18.2285 0.0000 28.8453 0.0000
# 6 0.0000 0.0000 0.0000 -4.1559 0.0000 14.2434
#
#
#
# Elastic Compliance Matrix: (Units=1/GPa)
#
#
# Indices 1 2 3 4 5 6 
#
# 1 0.025006 -0.009705 -0.013930 0.000000 0.002341 0.000000
# 2 -0.009705 0.014865 -0.001647 0.000000 0.005148 0.000000
# 3 -0.013930 -0.001647 0.033518 0.000000 -0.018597 0.000000
# 4 0.000000 0.000000 0.000000 0.094840 0.000000 0.027672
# 5 0.002341 0.005148 -0.018597 0.000000 0.046688 0.000000
# 6 0.000000 0.000000 0.000000 0.027672 0.000000 0.078282
#
#
# Mechanical properties :
#
#
# Convention : Reuss Voigt Hill
#
# Bulk Modulus (GPa) = 43.81128 56.33319 50.07223
# Shear Modulus (GPa) = 14.23001 19.39999 16.81500
#
# Velocity S-wave (km/s) = 2.85754 3.33649 3.10626
# Velocity P-wave (km/s) = 6.00228 6.86791 6.44963
#
# Compressibility (1/GPa) = 0.02282517
#
# Stress axis : x y z
#
# Youngs Moduli (GPa) = 39.99107 67.27006 29.83485
#
# Poissons Ratio (x) = 0.65284 0.41561
# Poissons Ratio (y) = 0.38811 0.04913
# Poissons Ratio (z) = 0.55709 0.11078
#
# Static dielectric constant tensor:
#      x y z
#    x 3.206610 0.000000 0.064110 
#    y 0.000000 3.062390 0.000000 
#    z 0.064110 0.000000 3.183080 
# 
# 
# High freq. dielectric constant tensor:
#      x y z
#    x 1.665500 0.000000 0.017300 
#    y 0.000000 1.652410 0.000000 
#    z 0.017300 0.000000 1.667840 
# 
# From -- ./inp_files/12558.got.cif
#   From: 2010.06.25/outbox.cif.g09.slc.cpg/sg10_7_cif.got.tgz:12558.got - 2010.06.27 22:07:45.
