data_PCOD8058691
_publ_section_title
;
Structure prediction by ZEFSAII (Michael W. Deem and Ramdas Pophale) SiO2 
 PCOD8058691
Probable space group: P 2/M
;
_chemical_formula_sum "Si O2"
_cell_formula_units_Z 32
_cell_length_a 33.394053
_cell_length_b 9.492905
_cell_length_c 11.914749
_cell_angle_alpha 90.000000
_cell_angle_beta 27.374078
_cell_angle_gamma 90.000000
_cell_volume 1736.682017
_symmetry_space_group_name_H-M "P 2/M"
_symmetry_group_IT_number 10
_symmetry_cell_setting 'monoclinic'
loop_
_space_group_symop_operation_xyz
x,y,z
-x,y,-z
-x,-y,-z
x,-y,z
loop_
_atom_site_type_symbol
_atom_site_label
_atom_site_fract_x
_atom_site_fract_y
_atom_site_fract_z
Si Si1 0.588956 0.660656 0.537833
Si Si2 0.392315 0.664168 0.024921
Si Si3 0.096272 0.833504 0.774281
Si Si4 0.739588 0.833689 0.048084
Si Si5 0.907520 0.838550 0.758579
Si Si6 0.746664 0.164602 0.769994
Si Si7 0.175708 0.838768 0.804790
Si Si8 0.658829 0.660929 0.600637
O O1 0.613382 0.500000 0.446342
O O2 0.653905 0.762435 0.311168
O O3 0.590750 0.680713 0.668497
O O4 0.491158 0.696190 0.741815
O O5 0.370217 0.500000 0.065532
O O6 0.329549 0.752188 0.101748
O O7 0.381450 0.711917 0.181396
O O8 0.159010 0.792131 0.514914
O O9 0.137560 0.772434 0.785763
O O10 0.086904 0.000000 0.809704
O O11 0.000000 0.766530 0.000000
O O12 0.730472 0.000000 0.091749
O O13 0.825651 0.771425 0.895575
O O14 0.747319 0.795502 0.898416
O O15 0.000000 0.763783 0.500000
O O16 0.912307 0.000000 0.706618
O O17 0.896649 0.825482 0.918970
O O18 0.729129 0.000000 0.793902
O O19 0.258864 0.753530 0.637720
O O20 0.204425 0.000000 0.715383
O O21 0.689336 0.500000 0.534509
#
# Coordination Sequence:
#
# PCOD8058691 Si02
#       8
#     4   4   4   4   4   4   4   4
#     4  10  21  37  57  79 104 138 178 218 264 319
#     4  10  21  37  57  79 104 138 178 218 264 319
#     4   9  18  31  51  80 109 137 173 217 261 308
#     4  10  21  36  54  78 109 141 175 219 267 311
#     4   9  18  31  51  80 109 137 173 217 261 308
#     4  10  21  36  54  78 109 141 175 219 267 311
#     4  10  18  31  55  81 106 138 177 217 262 316
#     4  10  19  34  56  80 108 136 170 219 271 315
#
# _framework density 18.425941000000002
#
# number of rings (size 3 to 8) (size 9 to 14) (size 15 to 20)
#    0.000    2.250    2.500    0.375    1.750    3.000 
#    0.000    2.500    0.000    5.250    0.000    0.000 
#    0.000    0.000    0.000    0.000    0.000    0.000 
#
# Total GULP energy -396768.867622 kJ/mol
# GULP energy per Si atom -12399.027113 kJ/mol
# Density = 1.838400 g / cm^3
# Si number density = 18.425941 Si / 1000 Ang^3
#
#
#
# Elastic Constant Matrix: (Units=GPa)
#
#
# Indices 1 2 3 4 5 6 
#
# 1 107.1083 30.6422 54.8969 0.0000 6.4457 0.0000
# 2 30.6422 36.8847 38.1804 0.0000 -0.9918 0.0000
# 3 54.8969 38.1804 130.8217 0.0000 -2.5788 0.0000
# 4 0.0000 0.0000 0.0000 -9.5009 0.0000 9.2219
# 5 6.4457 -0.9918 -2.5788 0.0000 32.9008 0.0000
# 6 0.0000 0.0000 0.0000 9.2219 0.0000 22.4699
#
#
#
# Elastic Compliance Matrix: (Units=1/GPa)
#
#
# Indices 1 2 3 4 5 6 
#
# 1 0.013517 -0.007707 -0.003485 0.000000 -0.003154 0.000000
# 2 -0.007707 0.043244 -0.009346 0.000000 0.002081 0.000000
# 3 -0.003485 -0.009346 0.011860 0.000000 0.001331 0.000000
# 4 0.000000 0.000000 0.000000 -0.075269 0.000000 0.030891
# 5 -0.003154 0.002081 0.001331 0.000000 0.031179 0.000000
# 6 0.000000 0.000000 0.000000 0.030891 0.000000 0.031826
#
#
# Mechanical properties :
#
#
# Convention : Reuss Voigt Hill
#
# Bulk Modulus (GPa) = 36.30275 58.02817 47.16546
# Shear Modulus (GPa) = 46.89765 19.24696 33.07230
#
# Velocity S-wave (km/s) = 5.05047 3.23547 4.24120
# Velocity P-wave (km/s) = 7.33174 6.74675 7.04532
#
# Compressibility (1/GPa) = 0.02754612
#
# Stress axis : x y z
#
# Youngs Moduli (GPa) = 73.97985 23.12462 84.31486
#
# Poissons Ratio (x) = 0.17821 0.29386
# Poissons Ratio (y) = 0.57014 0.78799
# Poissons Ratio (z) = 0.25784 0.21612
#
# Static dielectric constant tensor:
#      x y z
#    x 3.515930 0.000000 -0.058940 
#    y 0.000000 3.079910 0.000000 
#    z -0.058940 0.000000 3.498720 
# 
# 
# High freq. dielectric constant tensor:
#      x y z
#    x 1.723850 0.000000 0.001450 
#    y 0.000000 1.675930 0.000000 
#    z 0.001450 0.000000 1.723010 
# 
# From -- ./inp_files/50716.got.cif
#   From: 2010.06.25/outbox.cif.g09.slc.cpg/sg10_26_cif.got.tgz:50716.got - 2010.06.27 22:07:45.
