data_PCOD8058779
_publ_section_title
;
Structure prediction by ZEFSAII (Michael W. Deem and Ramdas Pophale) SiO2 
 PCOD8058779
Probable space group: P 2/M
;
_chemical_formula_sum "Si O2"
_cell_formula_units_Z 32
_cell_length_a 23.820038
_cell_length_b 9.045192
_cell_length_c 17.526745
_cell_angle_alpha 90.000000
_cell_angle_beta 28.003873
_cell_angle_gamma 90.000000
_cell_volume 1773.070510
_symmetry_space_group_name_H-M "P 2/M"
_symmetry_group_IT_number 10
_symmetry_cell_setting 'monoclinic'
loop_
_space_group_symop_operation_xyz
x,y,z
-x,y,-z
-x,-y,-z
x,-y,z
loop_
_atom_site_type_symbol
_atom_site_label
_atom_site_fract_x
_atom_site_fract_y
_atom_site_fract_z
Si Si1 0.812847 0.825653 0.398740
Si Si2 0.103869 0.174550 0.540655
Si Si3 0.608973 0.824388 0.532696
Si Si4 0.630862 0.330145 0.192034
Si Si5 0.142141 0.836481 0.331086
Si Si6 0.041826 0.832285 0.036054
Si Si7 0.713980 0.670911 0.259944
Si Si8 0.146735 0.326368 0.176411
O O1 0.811651 0.780470 0.489472
O O2 0.697058 0.763012 0.493533
O O3 0.934848 0.764918 0.215149
O O4 0.813241 0.000000 0.387231
O O5 0.173939 0.220797 0.378727
O O6 0.975976 0.252041 0.702597
O O7 0.077688 0.000000 0.570819
O O8 0.477094 0.767624 0.710903
O O9 0.651631 0.764989 0.400193
O O10 0.609078 0.000000 0.528769
O O11 0.603860 0.500000 0.204671
O O12 0.639061 0.306823 0.272743
O O13 0.752692 0.279239 0.004906
O O14 0.189759 0.726759 0.208870
O O15 0.000000 0.844272 0.500000
O O16 0.196304 0.000000 0.251515
O O17 0.076038 0.000000 0.019269
O O18 0.152600 0.725221 0.915837
O O19 0.000000 0.830370 0.000000
O O20 0.716624 0.500000 0.281304
O O21 0.126410 0.500000 0.203643
#
# Coordination Sequence:
#
# PCOD8058779 Si02
#       8
#     4   4   4   4   4   4   4   4
#     4   9  18  33  52  74 102 132 163 206 253 292
#     4   9  17  31  52  77 105 134 161 196 246 301
#     4  11  22  37  55  74  96 129 175 215 251 296
#     4  10  23  39  51  70 101 134 169 212 254 293
#     4   8  15  28  48  75 104 131 161 196 241 299
#     4  10  18  32  52  74 103 131 162 207 251 293
#     4  11  22  36  53  73 101 133 168 209 254 302
#     4  10  19  32  51  75 105 133 162 203 248 294
#
# _framework density 18.047788000000001
#
# number of rings (size 3 to 8) (size 9 to 14) (size 15 to 20)
#    0.000    2.250    1.250    3.000    0.000    6.000 
#    0.000    1.250    0.000    0.750    0.000    5.250 
#    0.000    0.000    0.000    0.000    0.000    0.000 
#
# Total GULP energy -396739.798217 kJ/mol
# GULP energy per Si atom -12398.118694 kJ/mol
# Density = 1.800671 g / cm^3
# Si number density = 18.047788 Si / 1000 Ang^3
#
#
#
# Elastic Constant Matrix: (Units=GPa)
#
#
# Indices 1 2 3 4 5 6 
#
# 1 111.2773 38.4045 48.3780 0.0000 12.1114 0.0000
# 2 38.4045 61.7814 35.6636 0.0000 -2.4129 0.0000
# 3 48.3780 35.6636 59.5939 0.0000 -2.1453 0.0000
# 4 0.0000 0.0000 0.0000 35.2310 0.0000 0.7548
# 5 12.1114 -2.4129 -2.1453 0.0000 29.8650 0.0000
# 6 0.0000 0.0000 0.0000 0.7548 0.0000 16.5241
#
#
#
# Elastic Compliance Matrix: (Units=1/GPa)
#
#
# Indices 1 2 3 4 5 6 
#
# 1 0.015849 -0.003915 -0.010794 0.000000 -0.007519 0.000000
# 2 -0.003915 0.025722 -0.012115 0.000000 0.002796 0.000000
# 3 -0.010794 -0.012115 0.033000 0.000000 0.005769 0.000000
# 4 0.000000 0.000000 0.000000 0.028412 0.000000 -0.001298
# 5 -0.007519 0.002796 0.005769 0.000000 0.037174 0.000000
# 6 0.000000 0.000000 0.000000 -0.001298 0.000000 0.060577
#
#
# Mechanical properties :
#
#
# Convention : Reuss Voigt Hill
#
# Bulk Modulus (GPa) = 47.79062 53.06053 50.42558
# Shear Modulus (GPa) = 19.13115 23.67110 21.40113
#
# Velocity S-wave (km/s) = 3.25934 3.62550 3.44729
# Velocity P-wave (km/s) = 6.37980 6.85489 6.62161
#
# Compressibility (1/GPa) = 0.02092461
#
# Stress axis : x y z
#
# Youngs Moduli (GPa) = 63.09727 38.87727 30.30296
#
# Poissons Ratio (x) = 0.15219 0.32708
# Poissons Ratio (y) = 0.24701 0.36711
# Poissons Ratio (z) = 0.68105 0.47098
#
# Static dielectric constant tensor:
#      x y z
#    x 3.720000 0.000000 0.197150 
#    y 0.000000 3.242060 0.000000 
#    z 0.197150 0.000000 3.313870 
# 
# 
# High freq. dielectric constant tensor:
#      x y z
#    x 1.703200 0.000000 0.013530 
#    y 0.000000 1.687360 0.000000 
#    z 0.013530 0.000000 1.679280 
# 
# From -- ./inp_files/79942.got.cif
#   From: 2010.06.25/outbox.cif.g09.slc.cpg/sg10_40_cif.got.tgz:79942.got - 2010.06.27 22:07:45.
