data_PCOD8058640
_publ_section_title
;
Structure prediction by ZEFSAII (Michael W. Deem and Ramdas Pophale) SiO2 
 PCOD8058640
Probable space group: P 2/M
;
_chemical_formula_sum "Si O2"
_cell_formula_units_Z 28
_cell_length_a 14.713676
_cell_length_b 8.812900
_cell_length_c 11.726699
_cell_angle_alpha 90.000000
_cell_angle_beta 69.675695
_cell_angle_gamma 90.000000
_cell_volume 1425.932698
_symmetry_space_group_name_H-M "P 2/M"
_symmetry_group_IT_number 10
_symmetry_cell_setting 'monoclinic'
loop_
_space_group_symop_operation_xyz
x,y,z
-x,y,-z
-x,-y,-z
x,-y,z
loop_
_atom_site_type_symbol
_atom_site_label
_atom_site_fract_x
_atom_site_fract_y
_atom_site_fract_z
Si Si1 0.605841 0.824016 0.943931
Si Si2 0.471759 0.678754 0.386533
Si Si3 0.087071 0.180734 0.384982
Si Si4 0.041538 0.819482 0.155986
Si Si5 0.855359 0.820129 0.112364
Si Si6 0.645131 0.824223 0.180088
Si Si7 0.302102 0.180135 0.326758
O O1 0.664544 0.755229 0.811540
O O2 0.591627 0.000000 0.922065
O O3 0.500000 0.746547 0.000000
O O4 0.661877 0.799440 0.037705
O O5 0.500000 0.737430 0.500000
O O6 0.460290 0.500000 0.388911
O O7 0.555694 0.726572 0.262752
O O8 0.368809 0.750438 0.396743
O O9 0.074630 0.248131 0.262799
O O10 0.190467 0.231815 0.392220
O O11 0.000000 0.246238 0.500000
O O12 0.081580 0.000000 0.382265
O O13 0.929892 0.770220 0.178994
O O14 0.048630 0.000000 0.155572
O O15 0.109450 0.754278 0.025367
O O16 0.746300 0.766303 0.191678
O O17 0.853606 0.000000 0.100800
O O18 0.622561 0.000000 0.217226
O O19 0.310788 0.000000 0.330150
#
# Coordination Sequence:
#
# PCOD8058640 Si02
#       7
#     4   4   4   4   4   4   4
#     4   9  15  26  48  77 105 129 160 207 255 294
#     4  11  25  41  52  67  99 138 171 209 259 308
#     4   9  17  27  43  70 103 133 162 201 248 293
#     4   8  13  24  39  65 105 137 160 194 248 297
#     4   8  14  23  42  70 100 132 162 199 244 293
#     4  10  18  31  53  80 104 131 172 212 248 300
#     4  10  19  34  56  79 103 135 171 210 253 300
#
# _framework density 19.63627
#
# number of rings (size 3 to 8) (size 9 to 14) (size 15 to 20)
#    0.000    2.714    1.429    2.143    0.000    5.714 
#    0.000    4.286    0.000    0.429    0.000    3.000 
#    0.000    0.000    0.000    0.000    0.000    0.000 
#
# Total GULP energy -347013.738608 kJ/mol
# GULP energy per Si atom -12393.347807 kJ/mol
# Density = 1.959158 g / cm^3
# Si number density = 19.636270 Si / 1000 Ang^3
#
#
#
# Elastic Constant Matrix: (Units=GPa)
#
#
# Indices 1 2 3 4 5 6 
#
# 1 183.7598 24.4365 63.0554 0.0000 -4.1842 0.0000
# 2 24.4365 19.5154 17.5826 0.0000 1.9996 0.0000
# 3 63.0554 17.5826 94.7613 0.0000 3.6532 0.0000
# 4 0.0000 0.0000 0.0000 7.6146 0.0000 3.4865
# 5 -4.1842 1.9996 3.6532 0.0000 34.9585 0.0000
# 6 0.0000 0.0000 0.0000 3.4865 0.0000 6.1411
#
#
#
# Elastic Compliance Matrix: (Units=1/GPa)
#
#
# Indices 1 2 3 4 5 6 
#
# 1 0.007684 -0.006160 -0.004036 0.000000 0.001694 0.000000
# 2 -0.006160 0.066655 -0.008126 0.000000 -0.003701 0.000000
# 3 -0.004036 -0.008126 0.014806 0.000000 -0.001566 0.000000
# 4 0.000000 0.000000 0.000000 0.177454 0.000000 -0.100745
# 5 0.001694 -0.003701 -0.001566 0.000000 0.029183 0.000000
# 6 0.000000 0.000000 0.000000 -0.100745 0.000000 0.220032
#
#
# Mechanical properties :
#
#
# Convention : Reuss Voigt Hill
#
# Bulk Modulus (GPa) = 19.04666 56.46506 37.75586
# Shear Modulus (GPa) = 8.77255 22.60698 15.68976
#
# Velocity S-wave (km/s) = 2.11595 3.39674 2.82976
# Velocity P-wave (km/s) = 3.96111 6.64844 5.47230
#
# Compressibility (1/GPa) = 0.05250264
#
# Stress axis : x y z
#
# Youngs Moduli (GPa) = 130.13428 15.00264 67.53849
#
# Poissons Ratio (x) = 0.09241 0.27256
# Poissons Ratio (y) = 0.80158 0.54883
# Poissons Ratio (z) = 0.52518 0.12191
#
# Static dielectric constant tensor:
#      x y z
#    x 3.956380 0.000000 -0.000680 
#    y 0.000000 2.834110 0.000000 
#    z -0.000680 0.000000 3.674550 
# 
# 
# High freq. dielectric constant tensor:
#      x y z
#    x 1.787610 0.000000 0.000400 
#    y 0.000000 1.682920 0.000000 
#    z 0.000400 0.000000 1.758930 
# 
# From -- ./inp_files/49138.got.cif
#   From: 2010.06.25/outbox.cif.g09.slc.cpg/sg10_25_cif.got.tgz:49138.got - 2010.06.27 22:07:45.
