data_PCOD8058320
_publ_section_title
;
Structure prediction by ZEFSAII (Michael W. Deem and Ramdas Pophale) SiO2 
 PCOD8058320
Probable space group: P 2/M
;
_chemical_formula_sum "Si O2"
_cell_formula_units_Z 32
_cell_length_a 17.136516
_cell_length_b 8.644302
_cell_length_c 11.803126
_cell_angle_alpha 90.000000
_cell_angle_beta 85.902463
_cell_angle_gamma 90.000000
_cell_volume 1743.965802
_symmetry_space_group_name_H-M "P 2/M"
_symmetry_group_IT_number 10
_symmetry_cell_setting 'monoclinic'
loop_
_space_group_symop_operation_xyz
x,y,z
-x,y,-z
-x,-y,-z
x,-y,z
loop_
_atom_site_type_symbol
_atom_site_label
_atom_site_fract_x
_atom_site_fract_y
_atom_site_fract_z
Si Si1 0.544964 0.179981 0.379661
Si Si2 0.674614 0.330818 0.946524
Si Si3 0.713122 0.318971 0.377678
Si Si4 0.912873 0.818172 0.977119
Si Si5 0.735691 0.819088 0.608089
Si Si6 0.830077 0.329116 0.784031
Si Si7 0.774772 0.684098 0.130215
Si Si8 0.588581 0.685126 0.745922
O O1 0.500000 0.215831 0.500000
O O2 0.622733 0.280158 0.368993
O O3 0.491986 0.234003 0.279925
O O4 0.565862 0.000000 0.366107
O O5 0.641877 0.500000 0.981109
O O6 0.751629 0.344562 0.862946
O O7 0.609720 0.251177 0.871473
O O8 0.702082 0.247056 0.060270
O O9 0.721796 0.500000 0.401307
O O10 0.751529 0.222916 0.475818
O O11 0.760971 0.269078 0.260937
O O12 0.895475 0.753627 0.853484
O O13 0.901869 0.000000 0.974857
O O14 0.856704 0.751721 0.080334
O O15 0.000000 0.767450 0.000000
O O16 0.811528 0.768715 0.672655
O O17 0.656835 0.730663 0.651753
O O18 0.720799 0.000000 0.623997
O O19 0.860121 0.500000 0.746215
O O20 0.776462 0.500000 0.112068
O O21 0.580465 0.500000 0.745584
#
# Coordination Sequence:
#
# PCOD8058320 Si02
#       8
#     4   4   4   4   4   4   4   4
#     4  11  22  34  48  70 101 137 177 224 274 321
#     4   7  13  28  49  72  96 124 163 212 258 299
#     4  11  22  35  53  75 101 139 182 222 266 317
#     4  10  20  34  56  87 117 142 169 206 257 311
#     4  11  20  31  49  75 106 138 173 218 270 316
#     4   9  17  31  52  78 106 137 176 217 254 300
#     4   9  19  36  56  78 105 138 178 217 257 313
#     4  10  18  30  51  74  97 130 174 224 270 314
#
# _framework density 18.348984999999999
#
# number of rings (size 3 to 8) (size 9 to 14) (size 15 to 20)
#    0.000    2.250    1.250    4.500    0.000    2.500 
#    0.000    1.250    0.000    4.500    0.000    5.250 
#    0.000    0.000    0.000    0.000    0.000    0.000 
#
# Total GULP energy -396617.420856 kJ/mol
# GULP energy per Si atom -12394.294402 kJ/mol
# Density = 1.830722 g / cm^3
# Si number density = 18.348985 Si / 1000 Ang^3
#
#
#
# Elastic Constant Matrix: (Units=GPa)
#
#
# Indices 1 2 3 4 5 6 
#
# 1 78.4954 21.4446 51.0467 0.0000 22.3758 0.0000
# 2 21.4446 50.4805 26.0957 0.0000 5.1060 0.0000
# 3 51.0467 26.0957 111.1552 0.0000 22.1129 0.0000
# 4 0.0000 0.0000 0.0000 22.1435 0.0000 7.8743
# 5 22.3758 5.1060 22.1129 0.0000 28.3623 0.0000
# 6 0.0000 0.0000 0.0000 7.8743 0.0000 23.5345
#
#
#
# Elastic Compliance Matrix: (Units=1/GPa)
#
#
# Indices 1 2 3 4 5 6 
#
# 1 0.021375 -0.004580 -0.006569 0.000000 -0.010917 0.000000
# 2 -0.004580 0.023527 -0.003901 0.000000 0.002420 0.000000
# 3 -0.006569 -0.003901 0.013917 0.000000 -0.004966 0.000000
# 4 0.000000 0.000000 0.000000 0.051259 0.000000 -0.017150
# 5 -0.010917 0.002420 -0.004966 0.000000 0.047307 0.000000
# 6 0.000000 0.000000 0.000000 -0.017150 0.000000 0.048229
#
#
# Mechanical properties :
#
#
# Convention : Reuss Voigt Hill
#
# Bulk Modulus (GPa) = 34.82147 48.58944 41.70545
# Shear Modulus (GPa) = 20.38422 24.24433 22.31427
#
# Velocity S-wave (km/s) = 3.33666 3.63890 3.49105
# Velocity P-wave (km/s) = 5.81919 6.64783 6.24726
#
# Compressibility (1/GPa) = 0.02871792
#
# Stress axis : x y z
#
# Youngs Moduli (GPa) = 46.78402 42.50359 71.85472
#
# Poissons Ratio (x) = 0.19467 0.47202
# Poissons Ratio (y) = 0.21428 0.28034
# Poissons Ratio (z) = 0.30733 0.16583
#
# Static dielectric constant tensor:
#      x y z
#    x 3.179410 0.000000 0.404940 
#    y 0.000000 3.325160 0.000000 
#    z 0.404940 0.000000 3.705760 
# 
# 
# High freq. dielectric constant tensor:
#      x y z
#    x 1.678140 0.000000 0.033100 
#    y 0.000000 1.708250 0.000000 
#    z 0.033100 0.000000 1.713860 
# 
# From -- ./inp_files/52804.got.cif
#   From: 2010.06.25/outbox.cif.g09.slc.cpg/sg10_27_cif.got.tgz:52804.got - 2010.06.27 22:07:45.
