data_PCOD8058250
_publ_section_title
;
Structure prediction by ZEFSAII (Michael W. Deem and Ramdas Pophale) SiO2 
 PCOD8058250
Probable space group: P 2/M
;
_chemical_formula_sum "Si O2"
_cell_formula_units_Z 32
_cell_length_a 14.112718
_cell_length_b 8.898799
_cell_length_c 15.570958
_cell_angle_alpha 90.000000
_cell_angle_beta 89.587451
_cell_angle_gamma 90.000000
_cell_volume 1955.447390
_symmetry_space_group_name_H-M "P 2/M"
_symmetry_group_IT_number 10
_symmetry_cell_setting 'monoclinic'
loop_
_space_group_symop_operation_xyz
x,y,z
-x,y,-z
-x,-y,-z
x,-y,z
loop_
_atom_site_type_symbol
_atom_site_label
_atom_site_fract_x
_atom_site_fract_y
_atom_site_fract_z
Si Si1 0.409452 0.323574 0.094986
Si Si2 0.888892 0.327519 0.012779
Si Si3 0.112513 0.830845 0.495699
Si Si4 0.101183 0.322498 0.323531
Si Si5 0.598390 0.824855 0.086768
Si Si6 0.208521 0.323880 0.157158
Si Si7 0.116921 0.323267 0.668218
Si Si8 0.793805 0.825638 0.171423
O O1 0.431268 0.500000 0.090828
O O2 0.501142 0.235531 0.130514
O O3 0.320701 0.288811 0.157822
O O4 0.382856 0.267423 0.000108
O O5 0.857594 0.500000 0.028655
O O6 0.838414 0.257332 0.928968
O O7 0.860157 0.230324 0.094518
O O8 0.000000 0.314975 0.000000
O O9 0.146364 0.750108 0.408446
O O10 0.153520 0.745588 0.578322
O O11 0.000000 0.825495 0.500000
O O12 0.151511 0.000000 0.495791
O O13 0.112454 0.500000 0.332365
O O14 0.159345 0.255627 0.242210
O O15 0.991592 0.276533 0.311793
O O16 0.683813 0.795108 0.151380
O O17 0.588424 0.000000 0.064021
O O18 0.187419 0.500000 0.156364
O O19 0.127498 0.500000 0.661861
O O20 0.183790 0.263002 0.742397
O O21 0.814608 0.000000 0.186134
#
# Coordination Sequence:
#
# PCOD8058250 Si02
#       8
#     4   4   4   4   4   4   4   4
#     4  10  18  30  50  70  89 118 158 203 243 277
#     4  10  19  32  48  65  92 130 166 196 228 272
#     4   9  17  30  47  69  97 125 156 196 238 276
#     4   9  17  31  49  70  96 126 160 194 232 278
#     4  10  20  33  47  65  92 123 156 197 245 288
#     4   9  17  29  46  70  95 121 157 198 234 273
#     4  10  19  31  50  71  94 127 164 198 232 277
#     4  11  22  33  46  67  96 128 159 197 241 284
#
# _framework density 16.364540999999999
#
# number of rings (size 3 to 8) (size 9 to 14) (size 15 to 20)
#    0.000    2.250    1.250    3.375    0.000    5.750 
#    0.000    1.875    0.000    0.000    0.000    0.875 
#    0.000    7.000    0.000    0.000    0.000    0.000 
#
# Total GULP energy -396801.952308 kJ/mol
# GULP energy per Si atom -12400.061010 kJ/mol
# Density = 1.632730 g / cm^3
# Si number density = 16.364541 Si / 1000 Ang^3
#
#
#
# Elastic Constant Matrix: (Units=GPa)
#
#
# Indices 1 2 3 4 5 6 
#
# 1 72.0228 28.7385 40.3783 0.0000 5.3072 0.0000
# 2 28.7385 57.5558 33.2305 0.0000 5.0888 0.0000
# 3 40.3783 33.2305 117.5644 0.0000 7.5428 0.0000
# 4 0.0000 0.0000 0.0000 21.1833 0.0000 7.4369
# 5 5.3072 5.0888 7.5428 0.0000 12.8537 0.0000
# 6 0.0000 0.0000 0.0000 7.4369 0.0000 17.9223
#
#
#
# Elastic Compliance Matrix: (Units=1/GPa)
#
#
# Indices 1 2 3 4 5 6 
#
# 1 0.019343 -0.006797 -0.004554 0.000000 -0.002623 0.000000
# 2 -0.006797 0.023461 -0.004033 0.000000 -0.004115 0.000000
# 3 -0.004554 -0.004033 0.011417 0.000000 -0.003223 0.000000
# 4 0.000000 0.000000 0.000000 0.055257 0.000000 -0.022929
# 5 -0.002623 -0.004115 -0.003223 0.000000 0.082402 0.000000
# 6 0.000000 0.000000 0.000000 -0.022929 0.000000 0.065311
#
#
# Mechanical properties :
#
#
# Convention : Reuss Voigt Hill
#
# Bulk Modulus (GPa) = 42.63897 50.20416 46.42157
# Shear Modulus (GPa) = 16.90474 20.04491 18.47483
#
# Velocity S-wave (km/s) = 3.21753 3.50365 3.36364
# Velocity P-wave (km/s) = 6.31788 6.86387 6.59653
#
# Compressibility (1/GPa) = 0.02345272
#
# Stress axis : x y z
#
# Youngs Moduli (GPa) = 51.69815 42.62478 87.59086
#
# Poissons Ratio (x) = 0.28972 0.39888
# Poissons Ratio (y) = 0.35140 0.35323
# Poissons Ratio (z) = 0.23543 0.17190
#
# Static dielectric constant tensor:
#      x y z
#    x 3.053940 0.000000 -0.014650 
#    y 0.000000 3.114350 0.000000 
#    z -0.014650 0.000000 3.118230 
# 
# 
# High freq. dielectric constant tensor:
#      x y z
#    x 1.610210 0.000000 0.001410 
#    y 0.000000 1.630910 0.000000 
#    z 0.001410 0.000000 1.619230 
# 
# From -- ./inp_files/66186.got.cif
#   From: 2010.06.25/outbox.cif.g09.slc.cpg/sg10_34_cif.got.tgz:66186.got - 2010.06.27 22:07:45.
