data_PCOD8058994
_publ_section_title
;
Structure prediction by ZEFSAII (Michael W. Deem and Ramdas Pophale) SiO2 
 PCOD8058994
Probable space group: P 2/M
;
_chemical_formula_sum "Si O2"
_cell_formula_units_Z 26
_cell_length_a 17.580618
_cell_length_b 16.465186
_cell_length_c 8.994776
_cell_angle_alpha 90.000000
_cell_angle_beta 35.286711
_cell_angle_gamma 90.000000
_cell_volume 1504.075647
_symmetry_space_group_name_H-M "P 2/M"
_symmetry_group_IT_number 10
_symmetry_cell_setting 'monoclinic'
loop_
_space_group_symop_operation_xyz
x,y,z
-x,y,-z
-x,-y,-z
x,-y,z
loop_
_atom_site_type_symbol
_atom_site_label
_atom_site_fract_x
_atom_site_fract_y
_atom_site_fract_z
Si Si1 0.282099 0.678565 0.709925
Si Si2 0.500000 0.208947 0.500000
Si Si3 0.132408 0.757570 0.697799
Si Si4 0.978453 0.327085 0.709688
Si Si5 0.704572 0.091779 0.621620
Si Si6 0.550432 0.907559 0.161250
Si Si7 0.349381 0.500000 0.684750
Si Si8 0.928263 0.500000 0.768353
O O1 0.403632 0.732896 0.564554
O O2 0.242274 0.703822 0.605962
O O3 0.324043 0.583383 0.633918
O O4 0.166033 0.703825 0.010674
O O5 0.425112 0.151508 0.738253
O O6 0.100970 0.719137 0.587529
O O7 0.175131 0.850065 0.608138
O O8 0.000000 0.757150 0.000000
O O9 0.000000 0.320328 0.500000
O O10 0.978175 0.419757 0.772977
O O11 0.598130 0.099763 0.660773
O O12 0.758218 0.000000 0.543123
O O13 0.646338 0.117611 0.874004
O O14 0.579040 0.000000 0.166184
O O15 0.500000 0.500000 0.500000
O O16 0.232761 0.500000 0.996414
O O17 0.000000 0.500000 0.500000
#
# Coordination Sequence:
#
# PCOD8058994 Si02
#       8
#     4   2   4   4   4   4   2   2
#     4  10  21  33  50  81 104 143 172 216 263 309
#     4  12  19  31  54  80 110 128 180 211 265 304
#     4  10  20  35  52  77 108 134 178 217 258 312
#     4   9  19  34  55  76 100 135 179 219 259 306
#     4   9  18  35  53  74 102 138 173 209 267 317
#     4   9  19  33  53  76 103 136 172 217 259 310
#     4  10  18  33  51  75 114 143 175 217 263 316
#     4   8  16  33  53  77  99 136 181 216 265 309
#
# _framework density 17.286365
#
# number of rings (size 3 to 8) (size 9 to 14) (size 15 to 20)
#    0.000    2.462    2.308    1.154    2.154    0.923 
#    0.000    3.077    0.000    0.462    0.000    4.308 
#    0.000    0.000    0.000    0.000    0.000    0.000 
#
# Total GULP energy -322166.496159 kJ/mol
# GULP energy per Si atom -12391.019083 kJ/mol
# Density = 1.724702 g / cm^3
# Si number density = 17.286365 Si / 1000 Ang^3
#
#
#
# Elastic Constant Matrix: (Units=GPa)
#
#
# Indices 1 2 3 4 5 6 
#
# 1 98.1661 56.1467 28.8364 0.0000 -1.5199 0.0000
# 2 56.1467 113.4202 27.9693 0.0000 -4.7201 0.0000
# 3 28.8364 27.9693 31.0951 0.0000 -3.4894 0.0000
# 4 0.0000 0.0000 0.0000 26.5306 0.0000 -2.3902
# 5 -1.5199 -4.7201 -3.4894 0.0000 25.7043 0.0000
# 6 0.0000 0.0000 0.0000 -2.3902 0.0000 27.0810
#
#
#
# Elastic Compliance Matrix: (Units=1/GPa)
#
#
# Indices 1 2 3 4 5 6 
#
# 1 0.016425 -0.005648 -0.010316 0.000000 -0.001466 0.000000
# 2 -0.005648 0.013285 -0.006575 0.000000 0.001213 0.000000
# 3 -0.010316 -0.006575 0.048170 0.000000 0.004722 0.000000
# 4 0.000000 0.000000 0.000000 0.037994 0.000000 0.003353
# 5 -0.001466 0.001213 0.004722 0.000000 0.039681 0.000000
# 6 0.000000 0.000000 0.000000 0.003353 0.000000 0.037222
#
#
# Mechanical properties :
#
#
# Convention : Reuss Voigt Hill
#
# Bulk Modulus (GPa) = 30.48690 52.06511 41.27601
# Shear Modulus (GPa) = 20.09724 24.51177 22.30450
#
# Velocity S-wave (km/s) = 3.41340 3.76970 3.59596
# Velocity P-wave (km/s) = 5.76279 7.00943 6.41645
#
# Compressibility (1/GPa) = 0.03280098
#
# Stress axis : x y z
#
# Youngs Moduli (GPa) = 60.88339 75.27485 20.75959
#
# Poissons Ratio (x) = 0.42515 0.21416
# Poissons Ratio (y) = 0.34386 0.13650
# Poissons Ratio (z) = 0.62808 0.49497
#
# Static dielectric constant tensor:
#      x y z
#    x 3.189470 0.000000 -0.018510 
#    y 0.000000 3.648210 0.000000 
#    z -0.018510 0.000000 3.127590 
# 
# 
# High freq. dielectric constant tensor:
#      x y z
#    x 1.649600 0.000000 0.000250 
#    y 0.000000 1.681390 0.000000 
#    z 0.000250 0.000000 1.658110 
# 
# From -- ./inp_files/33049.got.cif
#   From: 2010.06.25/outbox.cif.g09.slc.cpg/sg10_17_cif.got.tgz:33049.got - 2010.06.27 22:07:45.
