data_PCOD8058496
_publ_section_title
;
Structure prediction by ZEFSAII (Michael W. Deem and Ramdas Pophale) SiO2 
 PCOD8058496
Probable space group: P 2/M
;
_chemical_formula_sum "Si O2"
_cell_formula_units_Z 32
_cell_length_a 14.546918
_cell_length_b 9.169851
_cell_length_c 14.168530
_cell_angle_alpha 90.000000
_cell_angle_beta 73.633349
_cell_angle_gamma 90.000000
_cell_volume 1813.398083
_symmetry_space_group_name_H-M "P 2/M"
_symmetry_group_IT_number 10
_symmetry_cell_setting 'monoclinic'
loop_
_space_group_symop_operation_xyz
x,y,z
-x,y,-z
-x,-y,-z
x,-y,z
loop_
_atom_site_type_symbol
_atom_site_label
_atom_site_fract_x
_atom_site_fract_y
_atom_site_fract_z
Si Si1 0.203707 0.328430 0.295686
Si Si2 0.953740 0.334081 0.796308
Si Si3 0.103975 0.328210 0.508575
Si Si4 0.261108 0.831097 0.828010
Si Si5 0.889581 0.662920 0.013131
Si Si6 0.409778 0.672414 0.903803
Si Si7 0.133462 0.170240 0.695381
Si Si8 0.377072 0.673145 0.123394
O O1 0.212400 0.500000 0.278566
O O2 0.104693 0.276300 0.276779
O O3 0.189465 0.288515 0.409767
O O4 0.296795 0.257787 0.217268
O O5 0.990489 0.500000 0.772202
O O6 0.878222 0.324840 0.903816
O O7 0.046348 0.232998 0.783471
O O8 0.099369 0.500000 0.529560
O O9 0.136134 0.249344 0.594400
O O10 0.000000 0.275717 0.500000
O O11 0.356294 0.744446 0.830217
O O12 0.230873 0.801171 0.727540
O O13 0.280860 0.000000 0.839130
O O14 0.174407 0.783903 0.920202
O O15 0.859869 0.500000 0.056650
O O16 0.000000 0.693218 0.000000
O O17 0.402913 0.500000 0.893431
O O18 0.519446 0.727373 0.870203
O O19 0.361809 0.719994 0.018099
O O20 0.117361 0.000000 0.683408
O O21 0.375850 0.500000 0.127853
#
# Coordination Sequence:
#
# PCOD8058496 Si02
#       8
#     4   4   4   4   4   4   4   4
#     4   9  16  28  50  76 102 127 157 205 262 308
#     4  10  18  31  50  73 101 132 167 205 248 302
#     4  10  19  33  53  75  98 130 172 214 258 303
#     4  11  23  35  48  69 104 145 175 207 254 303
#     4  10  19  30  49  73  97 131 172 210 245 293
#     4   9  17  32  56  81 104 131 168 208 251 308
#     4  11  23  35  47  67 100 140 175 209 250 297
#     4   8  15  30  54  83 107 127 158 210 265 306
#
# _framework density 17.646428
#
# number of rings (size 3 to 8) (size 9 to 14) (size 15 to 20)
#    0.000    2.250    2.500    2.250    0.000    4.500 
#    0.000    1.250    0.000    3.000    0.000    5.250 
#    0.000    0.000    0.000    0.000    0.000    0.000 
#
# Total GULP energy -396567.635312 kJ/mol
# GULP energy per Si atom -12392.738604 kJ/mol
# Density = 1.760626 g / cm^3
# Si number density = 17.646428 Si / 1000 Ang^3
#
#
#
# Elastic Constant Matrix: (Units=GPa)
#
#
# Indices 1 2 3 4 5 6 
#
# 1 79.0380 38.9801 52.0138 0.0000 12.6408 0.0000
# 2 38.9801 54.3657 34.7381 0.0000 11.4604 0.0000
# 3 52.0138 34.7381 95.0613 0.0000 8.3925 0.0000
# 4 0.0000 0.0000 0.0000 17.9767 0.0000 7.2072
# 5 12.6408 11.4604 8.3925 0.0000 30.1726 0.0000
# 6 0.0000 0.0000 0.0000 7.2072 0.0000 14.4455
#
#
#
# Elastic Compliance Matrix: (Units=1/GPa)
#
#
# Indices 1 2 3 4 5 6 
#
# 1 0.024740 -0.011134 -0.009151 0.000000 -0.003590 0.000000
# 2 -0.011134 0.030471 -0.004544 0.000000 -0.005645 0.000000
# 3 -0.009151 -0.004544 0.017117 0.000000 0.000799 0.000000
# 4 0.000000 0.000000 0.000000 0.069537 0.000000 -0.034694
# 5 -0.003590 -0.005645 0.000799 0.000000 0.036569 0.000000
# 6 0.000000 0.000000 0.000000 -0.034694 0.000000 0.086536
#
#
# Mechanical properties :
#
#
# Convention : Reuss Voigt Hill
#
# Bulk Modulus (GPa) = 44.11453 53.32544 48.71998
# Shear Modulus (GPa) = 15.51911 19.36780 17.44345
#
# Velocity S-wave (km/s) = 2.96877 3.31652 3.14745
# Velocity P-wave (km/s) = 6.06670 6.70449 6.39355
#
# Compressibility (1/GPa) = 0.02266827
#
# Stress axis : x y z
#
# Youngs Moduli (GPa) = 40.42109 32.81815 58.42298
#
# Poissons Ratio (x) = 0.36541 0.53461
# Poissons Ratio (y) = 0.45006 0.26549
# Poissons Ratio (z) = 0.36988 0.14914
#
# Static dielectric constant tensor:
#      x y z
#    x 3.380580 0.000000 0.023760 
#    y 0.000000 2.960470 0.000000 
#    z 0.023760 0.000000 3.487950 
# 
# 
# High freq. dielectric constant tensor:
#      x y z
#    x 1.673190 0.000000 0.011920 
#    y 0.000000 1.648070 0.000000 
#    z 0.011920 0.000000 1.679590 
# 
# From -- ./inp_files/65981.got.cif
#   From: 2010.06.25/outbox.cif.g09.slc.cpg/sg10_33_cif.got.tgz:65981.got - 2010.06.27 22:07:45.
