data_PCOD8058513
_publ_section_title
;
Structure prediction by ZEFSAII (Michael W. Deem and Ramdas Pophale) SiO2 
 PCOD8058513
Probable space group: P 2/M
;
_chemical_formula_sum "Si O2"
_cell_formula_units_Z 24
_cell_length_a 25.971738
_cell_length_b 11.256825
_cell_length_c 23.839754
_cell_angle_alpha 90.000000
_cell_angle_beta 169.532288
_cell_angle_gamma 90.000000
_cell_volume 1266.278309
_symmetry_space_group_name_H-M "P 2/M"
_symmetry_group_IT_number 10
_symmetry_cell_setting 'monoclinic'
loop_
_space_group_symop_operation_xyz
x,y,z
-x,y,-z
-x,-y,-z
x,-y,z
loop_
_atom_site_type_symbol
_atom_site_label
_atom_site_fract_x
_atom_site_fract_y
_atom_site_fract_z
Si Si1 0.233429 0.500000 0.580430
Si Si2 0.829329 0.261190 0.366402
Si Si3 0.134626 0.500000 0.713890
Si Si4 0.815304 0.141142 0.677139
Si Si5 0.870454 0.239664 0.541142
Si Si6 0.570642 0.858256 0.637155
Si Si7 0.525584 0.137934 0.795353
O O1 0.217951 0.373300 0.532293
O O2 0.940085 0.500000 0.300632
O O3 0.524205 0.500000 0.928920
O O4 0.858294 0.214209 0.461096
O O5 0.000000 0.185460 0.500000
O O6 0.985385 0.386762 0.527559
O O7 0.500000 0.269467 0.000000
O O8 0.659464 0.188829 0.565583
O O9 0.669290 0.187373 0.463911
O O10 0.812466 0.000000 0.673191
O O11 0.132060 0.190832 0.021096
O O12 0.641544 0.154441 0.325269
O O13 0.185985 0.211957 0.899032
O O14 0.500000 0.806395 0.500000
O O15 0.575682 0.000000 0.639485
O O16 0.602884 0.000000 0.870719
#
# Coordination Sequence:
#
# PCOD8058513 Si02
#       7
#     2   4   2   4   4   4   4
#     4  10  20  35  54  80 108 130 157 202 264 322
#     4  11  20  32  51  75 102 129 162 206 259 321
#     4  10  18  31  50  78 106 128 152 190 257 330
#     4   9  17  28  43  66  93 127 171 206 235 280
#     4  11  22  37  55  77 103 133 167 211 265 311
#     4   9  15  24  40  64  96 130 160 195 244 296
#     4  11  22  37  56  74  99 140 185 218 240 284
#
# _framework density 18.95318
#
# number of rings (size 3 to 8) (size 9 to 14) (size 15 to 20)
#    0.000    1.833    0.000    7.500    0.000    4.667 
#    0.000    0.000    0.000   10.000    0.000    0.000 
#    0.000    0.000    0.000   52.500    0.000   23.333 
#
# Total GULP energy -297333.261278 kJ/mol
# GULP energy per Si atom -12388.885887 kJ/mol
# Density = 1.891004 g / cm^3
# Si number density = 18.953180 Si / 1000 Ang^3
#
#
#
# Elastic Constant Matrix: (Units=GPa)
#
#
# Indices 1 2 3 4 5 6 
#
# 1 76.5356 15.5652 10.2295 0.0000 -1.1252 0.0000
# 2 15.5652 27.6799 27.5377 0.0000 -8.0174 0.0000
# 3 10.2295 27.5377 123.1353 0.0000 -1.1376 0.0000
# 4 0.0000 0.0000 0.0000 21.3056 0.0000 5.4911
# 5 -1.1252 -8.0174 -1.1376 0.0000 35.7846 0.0000
# 6 0.0000 0.0000 0.0000 5.4911 0.0000 2.8975
#
#
#
# Elastic Compliance Matrix: (Units=1/GPa)
#
#
# Indices 1 2 3 4 5 6 
#
# 1 0.014911 -0.009812 0.000940 0.000000 -0.001700 0.000000
# 2 -0.009812 0.056868 -0.011791 0.000000 0.012058 0.000000
# 3 0.000940 -0.011791 0.010659 0.000000 -0.002273 0.000000
# 4 0.000000 0.000000 0.000000 0.091748 0.000000 -0.173872
# 5 -0.001700 0.012058 -0.002273 0.000000 0.030521 0.000000
# 6 0.000000 0.000000 0.000000 -0.173872 0.000000 0.674635
#
#
# Mechanical properties :
#
#
# Convention : Reuss Voigt Hill
#
# Bulk Modulus (GPa) = 24.32443 37.11286 30.71864
# Shear Modulus (GPa) = 5.35118 23.59877 14.47498
#
# Velocity S-wave (km/s) = 1.68211 3.53244 2.76655
# Velocity P-wave (km/s) = 4.07854 6.02174 5.14275
#
# Compressibility (1/GPa) = 0.04111093
#
# Stress axis : x y z
#
# Youngs Moduli (GPa) = 67.06593 17.58450 93.81695
#
# Poissons Ratio (x) = 0.17254 -0.08818
# Poissons Ratio (y) = 0.65806 1.10623
# Poissons Ratio (z) = -0.06304 0.20735
#
# Static dielectric constant tensor:
#      x y z
#    x 3.796830 0.000000 0.104700 
#    y 0.000000 3.051430 0.000000 
#    z 0.104700 0.000000 3.682740 
# 
# 
# High freq. dielectric constant tensor:
#      x y z
#    x 1.750380 0.000000 0.012240 
#    y 0.000000 1.663210 0.000000 
#    z 0.012240 0.000000 1.755530 
# 
# From -- ./inp_files/90869.got.cif
#   From: 2010.06.25/outbox.cif.g09.slc.cpg/sg10_46_cif.got.tgz:90869.got - 2010.06.27 22:07:45.
