data_PCOD8058370
_publ_section_title
;
Structure prediction by ZEFSAII (Michael W. Deem and Ramdas Pophale) SiO2 
 PCOD8058370
Probable space group: P 2/M
;
_chemical_formula_sum "Si O2"
_cell_formula_units_Z 32
_cell_length_a 15.334396
_cell_length_b 9.214344
_cell_length_c 22.042952
_cell_angle_alpha 90.000000
_cell_angle_beta 31.119139
_cell_angle_gamma 90.000000
_cell_volume 1609.680180
_symmetry_space_group_name_H-M "P 2/M"
_symmetry_group_IT_number 10
_symmetry_cell_setting 'monoclinic'
loop_
_space_group_symop_operation_xyz
x,y,z
-x,y,-z
-x,-y,-z
x,-y,z
loop_
_atom_site_type_symbol
_atom_site_label
_atom_site_fract_x
_atom_site_fract_y
_atom_site_fract_z
Si Si1 0.615313 0.836441 0.765783
Si Si2 0.319492 0.335508 0.484447
Si Si3 0.696689 0.333117 0.253836
Si Si4 0.991472 0.666318 0.750674
Si Si5 0.988173 0.166889 0.143702
Si Si6 0.847179 0.835594 0.515847
Si Si7 0.304880 0.832198 0.871174
Si Si8 0.163284 0.330790 0.284232
O O1 0.777091 0.831728 0.625470
O O2 0.449615 0.774669 0.830716
O O3 0.660863 0.740209 0.797764
O O4 0.579197 0.000000 0.809284
O O5 0.283476 0.500000 0.482808
O O6 0.510481 0.320601 0.394463
O O7 0.298963 0.224912 0.441005
O O8 0.185424 0.298486 0.616961
O O9 0.752996 0.500000 0.214454
O O10 0.820255 0.251829 0.225690
O O11 0.698467 0.264130 0.186412
O O12 0.973406 0.500000 0.781986
O O13 0.865870 0.700679 0.769576
O O14 0.938145 0.768625 0.837777
O O15 0.941675 0.000000 0.181660
O O16 0.124434 0.185127 0.009889
O O17 0.010748 0.736070 0.413574
O O18 0.893200 0.000000 0.469504
O O19 0.341266 0.000000 0.832139
O O20 0.169783 0.500000 0.294089
#
# Coordination Sequence:
#
# PCOD8058370 Si02
#       8
#     4   4   4   4   4   4   4   4
#     4  10  20  34  54  81 112 147 186 228 277 332
#     4   9  19  35  56  84 116 150 182 226 284 335
#     4  11  22  37  61  89 116 145 184 231 285 342
#     4   9  20  40  59  78 112 150 189 232 276 329
#     4  11  24  40  60  82 109 150 194 235 282 333
#     4  10  18  30  52  81 114 150 185 224 274 332
#     4  10  22  41  59  82 117 150 185 234 284 330
#     4  10  21  35  54  81 114 150 184 227 281 334
#
# _framework density 19.879725000000001
#
# number of rings (size 3 to 8) (size 9 to 14) (size 15 to 20)
#    0.000    2.000    1.250    3.000    0.000    9.000 
#    0.000    3.125    0.000    3.750    0.000    0.000 
#    0.000    0.000    0.000    0.000    0.000    0.000 
#
# Total GULP energy -396844.349360 kJ/mol
# GULP energy per Si atom -12401.385918 kJ/mol
# Density = 1.983448 g / cm^3
# Si number density = 19.879725 Si / 1000 Ang^3
#
#
#
# Elastic Constant Matrix: (Units=GPa)
#
#
# Indices 1 2 3 4 5 6 
#
# 1 94.2472 49.7885 10.2980 0.0000 -12.0953 0.0000
# 2 49.7885 102.6751 12.9063 0.0000 -0.0266 0.0000
# 3 10.2980 12.9063 17.0592 0.0000 0.6123 0.0000
# 4 0.0000 0.0000 0.0000 24.7093 0.0000 -3.8835
# 5 -12.0953 -0.0266 0.6123 0.0000 24.3438 0.0000
# 6 0.0000 0.0000 0.0000 -3.8835 0.0000 37.5210
#
#
#
# Elastic Compliance Matrix: (Units=1/GPa)
#
#
# Indices 1 2 3 4 5 6 
#
# 1 0.015903 -0.007146 -0.004481 0.000000 0.008006 0.000000
# 2 -0.007146 0.013975 -0.006138 0.000000 -0.003381 0.000000
# 3 -0.004481 -0.006138 0.066108 0.000000 -0.003896 0.000000
# 4 0.000000 0.000000 0.000000 0.041140 0.000000 0.004258
# 5 0.008006 -0.003381 -0.003896 0.000000 0.045150 0.000000
# 6 0.000000 0.000000 0.000000 0.004258 0.000000 0.027092
#
#
# Mechanical properties :
#
#
# Convention : Reuss Voigt Hill
#
# Bulk Modulus (GPa) = 16.54093 39.99634 28.26864
# Shear Modulus (GPa) = 18.86439 26.71407 22.78923
#
# Velocity S-wave (km/s) = 3.08381 3.66974 3.38946
# Velocity P-wave (km/s) = 4.58458 6.17405 5.43770
#
# Compressibility (1/GPa) = 0.06045608
#
# Stress axis : x y z
#
# Youngs Moduli (GPa) = 62.88314 71.55461 15.12682
#
# Poissons Ratio (x) = 0.51133 0.06778
# Poissons Ratio (y) = 0.44936 0.09285
# Poissons Ratio (z) = 0.28176 0.43921
#
# Static dielectric constant tensor:
#      x y z
#    x 3.582380 0.000000 -0.192090 
#    y 0.000000 3.714320 0.000000 
#    z -0.192090 0.000000 3.443780 
# 
# 
# High freq. dielectric constant tensor:
#      x y z
#    x 1.775340 0.000000 -0.015110 
#    y 0.000000 1.780270 0.000000 
#    z -0.015110 0.000000 1.757070 
# 
# From -- ./inp_files/89493.got.cif
#   From: 2010.06.25/outbox.cif.g09.slc.cpg/sg10_45_cif.got.tgz:89493.got - 2010.06.27 22:07:45.
