data_PCOD8058611
_publ_section_title
;
Structure prediction by ZEFSAII (Michael W. Deem and Ramdas Pophale) SiO2 
 PCOD8058611
Probable space group: P 2/M
;
_chemical_formula_sum "Si O2"
_cell_formula_units_Z 28
_cell_length_a 8.997741
_cell_length_b 19.182042
_cell_length_c 15.337791
_cell_angle_alpha 90.000000
_cell_angle_beta 28.867256
_cell_angle_gamma 90.000000
_cell_volume 1278.033379
_symmetry_space_group_name_H-M "P 2/M"
_symmetry_group_IT_number 10
_symmetry_cell_setting 'monoclinic'
loop_
_space_group_symop_operation_xyz
x,y,z
-x,y,-z
-x,-y,-z
x,-y,z
loop_
_atom_site_type_symbol
_atom_site_label
_atom_site_fract_x
_atom_site_fract_y
_atom_site_fract_z
Si Si1 0.859211 0.082127 0.808683
Si Si2 0.341714 0.732597 0.332793
Si Si3 0.617283 0.500000 0.037693
Si Si4 0.372693 0.640214 0.468943
Si Si5 0.647755 0.500000 0.329557
Si Si6 0.128912 0.077526 0.847021
Si Si7 0.359136 0.356297 0.166806
Si Si8 0.209723 0.115404 0.463957
O O1 0.014627 0.113081 0.816711
O O2 0.002555 0.127448 0.656358
O O3 0.931360 0.000000 0.756546
O O4 0.500000 0.096626 0.000000
O O5 0.496551 0.700055 0.339655
O O6 0.481001 0.706203 0.168666
O O7 0.333369 0.815329 0.351798
O O8 0.000000 0.701439 0.500000
O O9 0.482105 0.428548 0.147652
O O10 0.500000 0.500000 0.000000
O O11 0.984742 0.500000 0.856937
O O12 0.500000 0.656072 0.500000
O O13 0.515843 0.569770 0.353041
O O14 0.005250 0.637666 0.660786
O O15 0.500000 0.500000 0.500000
O O16 0.496357 0.070856 0.659749
O O17 0.984030 0.000000 0.920856
O O18 0.000000 0.116927 0.000000
O O19 0.500000 0.340688 0.000000
O O20 0.000000 0.075171 0.500000
#
# Coordination Sequence:
#
# PCOD8058611 Si02
#       8
#     4   4   2   4   2   4   4   4
#     4  10  21  38  64  96 125 155 195 248 309 362
#     4   9  22  40  56  79 114 154 199 235 281 350
#     4  10  18  31  56  89 114 142 184 237 303 359
#     4  10  19  35  56  80 110 148 186 232 286 344
#     4  10  18  31  52  83 116 142 180 233 291 349
#     4  10  21  38  60  90 125 157 195 244 296 352
#     4  10  19  37  60  83 113 149 190 239 293 351
#     4  11  22  39  59  85 121 162 204 246 292 354
#
# _framework density 21.908662
#
# number of rings (size 3 to 8) (size 9 to 14) (size 15 to 20)
#    0.000    2.000    0.000    5.571    0.000    5.143 
#    0.000   19.286    0.000    0.000    0.000    0.000 
#    0.000    0.000    0.000    0.000    0.000    0.000 
#
# Total GULP energy -346910.804116 kJ/mol
# GULP energy per Si atom -12389.671576 kJ/mol
# Density = 2.185880 g / cm^3
# Si number density = 21.908662 Si / 1000 Ang^3
#
#
#
# Elastic Constant Matrix: (Units=GPa)
#
#
# Indices 1 2 3 4 5 6 
#
# 1 155.7063 22.2480 61.7665 0.0000 5.7644 0.0000
# 2 22.2480 67.3989 16.2830 0.0000 9.2526 0.0000
# 3 61.7665 16.2830 119.1230 0.0000 -1.8660 0.0000
# 4 0.0000 0.0000 0.0000 26.2943 0.0000 4.3883
# 5 5.7644 9.2526 -1.8660 0.0000 47.1959 0.0000
# 6 0.0000 0.0000 0.0000 4.3883 0.0000 22.8946
#
#
#
# Elastic Compliance Matrix: (Units=1/GPa)
#
#
# Indices 1 2 3 4 5 6 
#
# 1 0.008315 -0.001636 -0.004101 0.000000 -0.000857 0.000000
# 2 -0.001636 0.016131 -0.001404 0.000000 -0.003018 0.000000
# 3 -0.004101 -0.001404 0.010732 0.000000 0.001200 0.000000
# 4 0.000000 0.000000 0.000000 0.039288 0.000000 -0.007530
# 5 -0.000857 -0.003018 0.001200 0.000000 0.021932 0.000000
# 6 0.000000 0.000000 0.000000 -0.007530 0.000000 0.045122
#
#
# Mechanical properties :
#
#
# Convention : Reuss Voigt Hill
#
# Bulk Modulus (GPa) = 47.85825 60.31370 54.08597
# Shear Modulus (GPa) = 30.71898 35.40566 33.06232
#
# Velocity S-wave (km/s) = 3.74858 4.02438 3.88893
# Velocity P-wave (km/s) = 6.37398 7.01310 6.70116
#
# Compressibility (1/GPa) = 0.02089504
#
# Stress axis : x y z
#
# Youngs Moduli (GPa) = 120.26926 61.99397 93.18111
#
# Poissons Ratio (x) = 0.10144 0.38214
# Poissons Ratio (y) = 0.19679 0.13081
# Poissons Ratio (z) = 0.49323 0.08703
#
# Static dielectric constant tensor:
#      x y z
#    x 4.225410 0.000000 0.058050 
#    y 0.000000 3.950100 0.000000 
#    z 0.058050 0.000000 3.863400 
# 
# 
# High freq. dielectric constant tensor:
#      x y z
#    x 1.873280 0.000000 0.001850 
#    y 0.000000 1.838370 0.000000 
#    z 0.001850 0.000000 1.853870 
# 
# From -- ./inp_files/62594.got.cif
#   From: 2010.06.25/outbox.cif.g09.slc.cpg/sg10_32_cif.got.tgz:62594.got - 2010.06.27 22:07:45.
