data_PCOD8058758
_publ_section_title
;
Structure prediction by ZEFSAII (Michael W. Deem and Ramdas Pophale) SiO2 
 PCOD8058758
Probable space group: P 2/M
;
_chemical_formula_sum "Si O2"
_cell_formula_units_Z 32
_cell_length_a 17.529372
_cell_length_b 8.863642
_cell_length_c 23.771073
_cell_angle_alpha 90.000000
_cell_angle_beta 149.057798
_cell_angle_gamma 90.000000
_cell_volume 1899.051442
_symmetry_space_group_name_H-M "P 2/M"
_symmetry_group_IT_number 10
_symmetry_cell_setting 'monoclinic'
loop_
_space_group_symop_operation_xyz
x,y,z
-x,y,-z
-x,-y,-z
x,-y,z
loop_
_atom_site_type_symbol
_atom_site_label
_atom_site_fract_x
_atom_site_fract_y
_atom_site_fract_z
Si Si1 0.778619 0.174574 0.094183
Si Si2 0.666356 0.177344 0.823348
Si Si3 0.391843 0.322111 0.696283
Si Si4 0.119588 0.322260 0.951133
Si Si5 0.077950 0.176779 0.491065
Si Si6 0.128777 0.666256 0.127126
Si Si7 0.446300 0.174744 0.848472
Si Si8 0.821433 0.822036 0.245704
O O1 0.868362 0.271666 0.105545
O O2 0.825505 0.240359 0.184715
O O3 0.823148 0.000000 0.114916
O O4 0.602842 0.195891 0.977650
O O5 0.503458 0.250551 0.721181
O O6 0.744167 0.219187 0.813117
O O7 0.651571 0.000000 0.818992
O O8 0.758531 0.235500 0.935109
O O9 0.401029 0.500000 0.697946
O O10 0.227176 0.269395 0.577515
O O11 0.443132 0.270596 0.790067
O O12 0.149474 0.500000 0.976662
O O13 0.952127 0.281559 0.866291
O O14 0.000000 0.222476 0.500000
O O15 0.971379 0.224342 0.372445
O O16 0.115050 0.000000 0.514190
O O17 0.200343 0.500000 0.179349
O O18 0.000000 0.659069 0.000000
O O19 0.320689 0.241070 0.810473
O O20 0.415139 0.000000 0.813289
O O21 0.802067 0.000000 0.230481
#
# Coordination Sequence:
#
# PCOD8058758 Si02
#       8
#     4   4   4   4   4   4   4   4
#     4  10  19  30  50  76 102 134 172 208 243 296
#     4  11  20  31  49  73  99 129 168 208 247 294
#     4  12  23  33  49  73 103 133 167 208 256 302
#     4  10  19  31  47  70 104 139 164 195 245 299
#     4  10  19  35  56  73  95 129 173 215 254 298
#     4   8  16  30  46  67  99 135 163 193 242 298
#     4  10  18  32  51  72  99 133 171 206 249 298
#     4   9  18  33  52  74  98 130 172 216 254 289
#
# _framework density 16.850518000000001
#
# number of rings (size 3 to 8) (size 9 to 14) (size 15 to 20)
#    0.000    2.000    2.500    3.750    0.000    4.500 
#    0.000    1.250    0.000    1.500    0.000    0.875 
#    0.000    7.000    0.000    0.000    0.000    0.000 
#
# Total GULP energy -396788.128219 kJ/mol
# GULP energy per Si atom -12399.629007 kJ/mol
# Density = 1.681217 g / cm^3
# Si number density = 16.850518 Si / 1000 Ang^3
#
#
#
# Elastic Constant Matrix: (Units=GPa)
#
#
# Indices 1 2 3 4 5 6 
#
# 1 122.8516 56.4937 51.9495 0.0000 20.5639 0.0000
# 2 56.4937 94.4357 40.9778 0.0000 14.2568 0.0000
# 3 51.9495 40.9778 82.2150 0.0000 5.5815 0.0000
# 4 0.0000 0.0000 0.0000 12.0033 0.0000 6.3155
# 5 20.5639 14.2568 5.5815 0.0000 21.6699 0.0000
# 6 0.0000 0.0000 0.0000 6.3155 0.0000 21.7741
#
#
#
# Elastic Compliance Matrix: (Units=1/GPa)
#
#
# Indices 1 2 3 4 5 6 
#
# 1 0.014362 -0.004535 -0.006200 0.000000 -0.009048 0.000000
# 2 -0.004535 0.016176 -0.004851 0.000000 -0.005089 0.000000
# 3 -0.006200 -0.004851 0.018201 0.000000 0.004387 0.000000
# 4 0.000000 0.000000 0.000000 0.098314 0.000000 -0.028516
# 5 -0.009048 -0.005089 0.004387 0.000000 0.056951 0.000000
# 6 0.000000 0.000000 0.000000 -0.028516 0.000000 0.054197
#
#
# Mechanical properties :
#
#
# Convention : Reuss Voigt Hill
#
# Bulk Modulus (GPa) = 56.92997 66.48271 61.70634
# Shear Modulus (GPa) = 16.93604 21.09488 19.01546
#
# Velocity S-wave (km/s) = 3.17373 3.54203 3.36293
# Velocity P-wave (km/s) = 6.87668 7.50120 7.19572
#
# Compressibility (1/GPa) = 0.01756544
#
# Stress axis : x y z
#
# Youngs Moduli (GPa) = 69.62916 61.82172 54.94219
#
# Poissons Ratio (x) = 0.28038 0.34065
# Poissons Ratio (y) = 0.31578 0.26653
# Poissons Ratio (z) = 0.43171 0.29990
#
# Static dielectric constant tensor:
#      x y z
#    x 3.523800 0.000000 0.120790 
#    y 0.000000 3.023700 0.000000 
#    z 0.120790 0.000000 2.985540 
# 
# 
# High freq. dielectric constant tensor:
#      x y z
#    x 1.657470 0.000000 0.015340 
#    y 0.000000 1.639040 0.000000 
#    z 0.015340 0.000000 1.615390 
# 
# From -- ./inp_files/79961.got.cif
#   From: 2010.06.25/outbox.cif.g09.slc.cpg/sg10_40_cif.got.tgz:79961.got - 2010.06.27 22:07:45.
