data_PCOD8058880
_publ_section_title
;
Structure prediction by ZEFSAII (Michael W. Deem and Ramdas Pophale) SiO2 
 PCOD8058880
Probable space group: P 2/M
;
_chemical_formula_sum "Si O2"
_cell_formula_units_Z 28
_cell_length_a 22.356392
_cell_length_b 16.404518
_cell_length_c 10.052998
_cell_angle_alpha 90.000000
_cell_angle_beta 25.205337
_cell_angle_gamma 90.000000
_cell_volume 1570.114339
_symmetry_space_group_name_H-M "P 2/M"
_symmetry_group_IT_number 10
_symmetry_cell_setting 'monoclinic'
loop_
_space_group_symop_operation_xyz
x,y,z
-x,y,-z
-x,-y,-z
x,-y,z
loop_
_atom_site_type_symbol
_atom_site_label
_atom_site_fract_x
_atom_site_fract_y
_atom_site_fract_z
Si Si1 0.625029 0.095310 0.652820
Si Si2 0.833151 0.233047 0.838478
Si Si3 0.165470 0.220367 0.675130
Si Si4 0.173708 0.500000 0.498052
Si Si5 0.841860 0.331406 0.071755
Si Si6 0.825455 0.324360 0.591803
Si Si7 0.838267 0.500000 0.175842
Si Si8 0.631742 0.094719 0.329510
O O1 0.765009 0.133658 0.434604
O O2 0.599353 0.118569 0.548838
O O3 0.646522 0.000000 0.623508
O O4 0.500000 0.126107 0.000000
O O5 0.773897 0.278483 0.827635
O O6 0.000000 0.217474 0.500000
O O7 0.786566 0.295380 0.046210
O O8 0.761331 0.146090 0.009453
O O9 0.215280 0.277888 0.693572
O O10 0.224006 0.264915 0.426533
O O11 0.000000 0.205537 0.000000
O O12 0.232604 0.417528 0.307556
O O13 0.223673 0.500000 0.550559
O O14 0.006138 0.500000 0.838121
O O15 0.781143 0.422084 0.210890
O O16 0.008551 0.332005 0.741511
O O17 0.500000 0.113715 0.500000
O O18 0.674645 0.000000 0.233590
#
# Coordination Sequence:
#
# PCOD8058880 Si02
#       8
#     4   4   4   2   4   4   2   4
#     4  10  22  39  57  79 106 135 175 224 265 313
#     4  10  20  34  52  79 110 138 174 220 265 311
#     4  10  18  32  54  79 108 140 175 215 264 312
#     4   9  14  25  41  71 108 141 172 209 257 309
#     4   9  16  29  46  74 106 140 176 215 257 307
#     4   9  18  27  47  76 109 140 171 213 261 309
#     4   9  14  23  45  69 104 145 175 206 257 309
#     4  10  22  40  58  76 103 140 179 218 264 319
#
# _framework density 17.833096000000001
#
# number of rings (size 3 to 8) (size 9 to 14) (size 15 to 20)
#    0.000    2.429    2.857    0.000    2.000    1.143 
#    0.000    2.857    0.000    0.000    0.000    6.000 
#    0.000    0.000    0.000    0.000    0.000    0.000 
#
# Total GULP energy -347013.018494 kJ/mol
# GULP energy per Si atom -12393.322089 kJ/mol
# Density = 1.779251 g / cm^3
# Si number density = 17.833096 Si / 1000 Ang^3
#
#
#
# Elastic Constant Matrix: (Units=GPa)
#
#
# Indices 1 2 3 4 5 6 
#
# 1 116.2292 64.1711 53.4223 0.0000 32.5369 0.0000
# 2 64.1711 111.2534 52.8425 0.0000 11.3744 0.0000
# 3 53.4223 52.8425 58.6853 0.0000 19.2060 0.0000
# 4 0.0000 0.0000 0.0000 14.1836 0.0000 12.0779
# 5 32.5369 11.3744 19.2060 0.0000 29.8362 0.0000
# 6 0.0000 0.0000 0.0000 12.0779 0.0000 27.6140
#
#
#
# Elastic Compliance Matrix: (Units=1/GPa)
#
#
# Indices 1 2 3 4 5 6 
#
# 1 0.019365 -0.006182 -0.007502 0.000000 -0.013932 0.000000
# 2 -0.006182 0.018055 -0.013408 0.000000 0.008490 0.000000
# 3 -0.007502 -0.013408 0.040024 0.000000 -0.012471 0.000000
# 4 0.000000 0.000000 0.000000 0.112348 0.000000 -0.049139
# 5 -0.013932 0.008490 -0.012471 0.000000 0.053501 0.000000
# 6 0.000000 0.000000 0.000000 -0.049139 0.000000 0.057706
#
#
# Mechanical properties :
#
#
# Convention : Reuss Voigt Hill
#
# Bulk Modulus (GPa) = 42.99366 69.67108 56.33237
# Shear Modulus (GPa) = 13.77646 22.04220 17.90933
#
# Velocity S-wave (km/s) = 2.78244 3.51953 3.17247
# Velocity P-wave (km/s) = 5.87230 7.46119 6.71391
#
# Compressibility (1/GPa) = 0.02325925
#
# Stress axis : x y z
#
# Youngs Moduli (GPa) = 51.63875 55.38676 24.98483
#
# Poissons Ratio (x) = 0.34241 0.18745
# Poissons Ratio (y) = 0.31924 0.33500
# Poissons Ratio (z) = 0.38742 0.74263
#
# Static dielectric constant tensor:
#      x y z
#    x 3.255240 0.000000 0.261280 
#    y 0.000000 3.494920 0.000000 
#    z 0.261280 0.000000 2.918380 
# 
# 
# High freq. dielectric constant tensor:
#      x y z
#    x 1.688430 0.000000 0.030710 
#    y 0.000000 1.701690 0.000000 
#    z 0.030710 0.000000 1.650100 
# 
# From -- ./inp_files/35376.got.cif
#   From: 2010.06.25/outbox.cif.g09.slc.cpg/sg10_18_cif.got.tgz:35376.got - 2010.06.27 22:07:45.
