data_PCOD8058539
_publ_section_title
;
Structure prediction by ZEFSAII (Michael W. Deem and Ramdas Pophale) SiO2 
 PCOD8058539
Probable space group: P 2/M
;
_chemical_formula_sum "Si O2"
_cell_formula_units_Z 32
_cell_length_a 26.109382
_cell_length_b 9.107643
_cell_length_c 21.103505
_cell_angle_alpha 90.000000
_cell_angle_beta 159.560760
_cell_angle_gamma 90.000000
_cell_volume 1752.462279
_symmetry_space_group_name_H-M "P 2/M"
_symmetry_group_IT_number 10
_symmetry_cell_setting 'monoclinic'
loop_
_space_group_symop_operation_xyz
x,y,z
-x,y,-z
-x,-y,-z
x,-y,z
loop_
_atom_site_type_symbol
_atom_site_label
_atom_site_fract_x
_atom_site_fract_y
_atom_site_fract_z
Si Si1 0.844890 0.326274 0.806334
Si Si2 0.651569 0.172067 0.823377
Si Si3 0.237517 0.171836 0.912724
Si Si4 0.521029 0.671027 0.193982
Si Si5 0.943640 0.827080 0.503860
Si Si6 0.662671 0.670254 0.710470
Si Si7 0.373904 0.329664 0.548819
Si Si8 0.352942 0.327111 0.792372
O O1 0.853478 0.500000 0.823152
O O2 0.748216 0.262480 0.750579
O O3 0.782765 0.288031 0.664076
O O4 0.000000 0.251449 0.000000
O O5 0.716160 0.245799 0.835424
O O6 0.489333 0.232069 0.645466
O O7 0.644909 0.000000 0.805451
O O8 0.749349 0.214152 0.998039
O O9 0.074555 0.220458 0.703071
O O10 0.261179 0.000000 0.928516
O O11 0.363780 0.249568 0.017313
O O12 0.483782 0.500000 0.144341
O O13 0.623928 0.705400 0.373984
O O14 0.616223 0.723920 0.244198
O O15 0.791317 0.750283 0.346625
O O16 0.000000 0.777901 0.500000
O O17 0.913783 0.000000 0.471384
O O18 0.500000 0.701170 0.500000
O O19 0.693464 0.500000 0.759157
O O20 0.413206 0.500000 0.581650
O O21 0.324481 0.500000 0.764406
O O22 0.500000 0.280985 0.000000
#
# Coordination Sequence:
#
# PCOD8058539 Si02
#       8
#     4   4   4   4   4   4   4   4
#     4   9  17  30  48  70  95 125 161 207 256 293
#     4  10  19  31  50  75 102 132 166 205 257 308
#     4   9  19  35  53  76 106 136 170 215 262 305
#     4   9  18  32  53  78 101 133 174 211 250 308
#     4  10  21  37  57  80 105 137 179 219 253 299
#     4  10  18  31  51  74  97 126 169 214 253 295
#     4   9  16  31  52  71  97 129 168 211 250 293
#     4  10  21  36  53  79 113 141 169 209 260 311
#
# _framework density 18.260023
#
# number of rings (size 3 to 8) (size 9 to 14) (size 15 to 20)
#    0.000    2.500    1.250    1.125    0.000    2.250 
#    2.250    0.000    0.000    1.500    0.000    0.000 
#    0.000    0.000    0.000    0.000    0.000    0.000 
#
# Total GULP energy -396594.254568 kJ/mol
# GULP energy per Si atom -12393.570455 kJ/mol
# Density = 1.821846 g / cm^3
# Si number density = 18.260023 Si / 1000 Ang^3
#
#
#
# Elastic Constant Matrix: (Units=GPa)
#
#
# Indices 1 2 3 4 5 6 
#
# 1 143.5536 40.9487 81.3798 0.0000 -3.2213 0.0000
# 2 40.9487 40.1662 45.1935 0.0000 2.6823 0.0000
# 3 81.3798 45.1935 148.8351 0.0000 -3.2489 0.0000
# 4 0.0000 0.0000 0.0000 24.1785 0.0000 -0.4496
# 5 -3.2213 2.6823 -3.2489 0.0000 29.8632 0.0000
# 6 0.0000 0.0000 0.0000 -0.4496 0.0000 24.8973
#
#
#
# Elastic Compliance Matrix: (Units=1/GPa)
#
#
# Indices 1 2 3 4 5 6 
#
# 1 0.011284 -0.007127 -0.003975 0.000000 0.001425 0.000000
# 2 -0.007127 0.042975 -0.009276 0.000000 -0.005638 0.000000
# 3 -0.003975 -0.009276 0.011745 0.000000 0.001682 0.000000
# 4 0.000000 0.000000 0.000000 0.041373 0.000000 0.000747
# 5 0.001425 -0.005638 0.001682 0.000000 0.034329 0.000000
# 6 0.000000 0.000000 0.000000 0.000747 0.000000 0.040179
#
#
# Mechanical properties :
#
#
# Convention : Reuss Voigt Hill
#
# Bulk Modulus (GPa) = 39.60337 74.17765 56.89051
# Shear Modulus (GPa) = 21.63965 26.79000 24.21482
#
# Velocity S-wave (km/s) = 3.44624 3.83448 3.64553
# Velocity P-wave (km/s) = 6.12952 7.76630 6.99595
#
# Compressibility (1/GPa) = 0.02525038
#
# Stress axis : x y z
#
# Youngs Moduli (GPa) = 88.61881 23.26910 85.13963
#
# Poissons Ratio (x) = 0.16584 0.33841
# Poissons Ratio (y) = 0.63159 0.78972
# Poissons Ratio (z) = 0.35224 0.21583
#
# Static dielectric constant tensor:
#      x y z
#    x 3.555560 0.000000 -0.189240 
#    y 0.000000 3.175080 0.000000 
#    z -0.189240 0.000000 3.537050 
# 
# 
# High freq. dielectric constant tensor:
#      x y z
#    x 1.712310 0.000000 -0.017790 
#    y 0.000000 1.685190 0.000000 
#    z -0.017790 0.000000 1.709070 
# 
# From -- ./inp_files/86922.got.cif
#   From: 2010.06.25/outbox.cif.g09.slc.cpg/sg10_44_cif.got.tgz:86922.got - 2010.06.27 22:07:45.
