data_PCOD8058426
_publ_section_title
;
Structure prediction by ZEFSAII (Michael W. Deem and Ramdas Pophale) SiO2 
 PCOD8058426
Probable space group: P 2/M
;
_chemical_formula_sum "Si O2"
_cell_formula_units_Z 28
_cell_length_a 9.602460
_cell_length_b 11.967089
_cell_length_c 19.643805
_cell_angle_alpha 90.000000
_cell_angle_beta 50.211918
_cell_angle_gamma 90.000000
_cell_volume 1734.576313
_symmetry_space_group_name_H-M "P 2/M"
_symmetry_group_IT_number 10
_symmetry_cell_setting 'monoclinic'
loop_
_space_group_symop_operation_xyz
x,y,z
-x,y,-z
-x,-y,-z
x,-y,z
loop_
_atom_site_type_symbol
_atom_site_label
_atom_site_fract_x
_atom_site_fract_y
_atom_site_fract_z
Si Si1 0.100436 0.786186 0.538736
Si Si2 0.922009 0.371316 0.698754
Si Si3 0.518501 0.760890 0.642077
Si Si4 0.169001 0.367355 0.742294
Si Si5 0.858379 0.370243 0.096668
Si Si6 0.542359 0.628025 0.769134
Si Si7 0.792869 0.000000 0.424816
Si Si8 0.559045 0.000000 0.372414
O O1 0.308919 0.752134 0.461258
O O2 0.000000 0.816386 0.500000
O O3 0.999726 0.685095 0.606901
O O4 0.088492 0.891869 0.593045
O O5 0.970857 0.500000 0.674403
O O6 0.704637 0.352619 0.772114
O O7 0.011819 0.326720 0.740274
O O8 0.357642 0.687765 0.659134
O O9 0.573766 0.713339 0.697912
O O10 0.450472 0.889281 0.671381
O O11 0.194992 0.500000 0.734572
O O12 0.120390 0.322298 0.833289
O O13 0.906007 0.500000 0.084990
O O14 0.652536 0.349156 0.134700
O O15 0.000000 0.311683 0.000000
O O16 0.545439 0.500000 0.740272
O O17 0.742785 0.000000 0.360343
O O18 0.611429 0.000000 0.525012
#
# Coordination Sequence:
#
# PCOD8058426 Si02
#       8
#     4   4   4   4   4   4   2   2
#     4  11  20  31  45  64  87 125 161 191 222 265
#     4  10  20  31  43  65  95 123 152 187 225 263
#     4  10  18  31  47  64  88 119 158 191 224 263
#     4   9  18  31  47  67  93 120 148 186 227 266
#     4   8  14  27  48  69  87 114 149 179 218 274
#     4   9  17  30  46  66  94 121 146 185 228 263
#     4   9  19  32  44  60  87 113 152 201 241 251
#     4   9  18  30  46  64  83 114 151 199 232 264
#
# _framework density 16.14227
#
# number of rings (size 3 to 8) (size 9 to 14) (size 15 to 20)
#    0.000    2.571    1.429    2.357    0.000    3.143 
#    0.000    2.143    0.000    4.286    0.000    8.000 
#    0.000    0.000    0.000   17.571    0.000    5.714 
#
# Total GULP energy -347058.279172 kJ/mol
# GULP energy per Si atom -12394.938542 kJ/mol
# Density = 1.610553 g / cm^3
# Si number density = 16.142270 Si / 1000 Ang^3
#
#
#
# Elastic Constant Matrix: (Units=GPa)
#
#
# Indices 1 2 3 4 5 6 
#
# 1 133.3292 32.7974 41.0691 0.0000 -11.7822 0.0000
# 2 32.7974 51.3055 25.6090 0.0000 -2.3878 0.0000
# 3 41.0691 25.6090 79.3934 0.0000 -13.2412 0.0000
# 4 0.0000 0.0000 0.0000 4.0852 0.0000 0.8324
# 5 -11.7822 -2.3878 -13.2412 0.0000 15.4967 0.0000
# 6 0.0000 0.0000 0.0000 0.8324 0.0000 23.6681
#
#
#
# Elastic Compliance Matrix: (Units=1/GPa)
#
#
# Indices 1 2 3 4 5 6 
#
# 1 0.009934 -0.004702 -0.002896 0.000000 0.004354 0.000000
# 2 -0.004702 0.025602 -0.006722 0.000000 -0.005374 0.000000
# 3 -0.002896 -0.006722 0.018334 0.000000 0.012429 0.000000
# 4 0.000000 0.000000 0.000000 0.246553 0.000000 -0.008671
# 5 0.004354 -0.005374 0.012429 0.000000 0.077632 0.000000
# 6 0.000000 0.000000 0.000000 -0.008671 0.000000 0.042556
#
#
# Mechanical properties :
#
#
# Convention : Reuss Voigt Hill
#
# Bulk Modulus (GPa) = 39.63458 51.44212 45.53835
# Shear Modulus (GPa) = 10.92512 19.62017 15.27264
#
# Velocity S-wave (km/s) = 2.60436 3.49012 3.07926
# Velocity P-wave (km/s) = 5.80088 6.94106 6.39643
#
# Compressibility (1/GPa) = 0.02523049
#
# Stress axis : x y z
#
# Youngs Moduli (GPa) = 100.66853 39.05920 54.54200
#
# Poissons Ratio (x) = 0.18366 0.15794
# Poissons Ratio (y) = 0.47336 0.36664
# Poissons Ratio (z) = 0.29150 0.26256
#
# Static dielectric constant tensor:
#      x y z
#    x 3.334900 0.000000 -0.099160 
#    y 0.000000 3.015950 0.000000 
#    z -0.099160 0.000000 2.940270 
# 
# 
# High freq. dielectric constant tensor:
#      x y z
#    x 1.634960 0.000000 -0.012600 
#    y 0.000000 1.602640 0.000000 
#    z -0.012600 0.000000 1.583360 
# 
# From -- ./inp_files/67129.got.cif
#   From: 2010.06.25/outbox.cif.g09.slc.cpg/sg10_34_cif.got.tgz:67129.got - 2010.06.27 22:07:45.
