data_PCOD8058011
_publ_section_title
;
Structure prediction by ZEFSAII (Michael W. Deem and Ramdas Pophale) SiO2 
 PCOD8058011
Probable space group: P 2/M
;
_chemical_formula_sum "Si O2"
_cell_formula_units_Z 32
_cell_length_a 20.005679
_cell_length_b 9.333889
_cell_length_c 25.126414
_cell_angle_alpha 90.000000
_cell_angle_beta 157.348047
_cell_angle_gamma 90.000000
_cell_volume 1806.992570
_symmetry_space_group_name_H-M "P 2/M"
_symmetry_group_IT_number 10
_symmetry_cell_setting 'monoclinic'
loop_
_space_group_symop_operation_xyz
x,y,z
-x,y,-z
-x,-y,-z
x,-y,z
loop_
_atom_site_type_symbol
_atom_site_label
_atom_site_fract_x
_atom_site_fract_y
_atom_site_fract_z
Si Si1 0.017365 0.668725 0.663794
Si Si2 0.671409 0.163879 0.157305
Si Si3 0.662618 0.164355 0.805101
Si Si4 0.177136 0.341364 0.163128
Si Si5 0.490371 0.163579 0.850311
Si Si6 0.935177 0.667016 0.073369
Si Si7 0.839041 0.334716 0.118331
Si Si8 0.678640 0.164532 0.382981
O O1 0.012657 0.500000 0.650292
O O2 0.171423 0.733762 0.742162
O O3 0.043905 0.707386 0.745301
O O4 0.837433 0.735070 0.513572
O O5 0.644769 0.179045 0.200817
O O6 0.715775 0.000000 0.174147
O O7 0.500000 0.214562 0.000000
O O8 0.687223 0.233036 0.764393
O O9 0.462366 0.179282 0.673835
O O10 0.722054 0.000000 0.846332
O O11 0.776753 0.242606 0.933434
O O12 0.261163 0.500000 0.225534
O O13 0.119516 0.293058 0.180540
O O14 0.000000 0.341616 0.000000
O O15 0.400464 0.221137 0.730734
O O16 0.548028 0.000000 0.884118
O O17 0.661659 0.249411 0.990027
O O18 0.893797 0.500000 0.031904
O O19 0.949985 0.700844 0.146865
O O20 0.786036 0.500000 0.081249
O O21 0.740866 0.000000 0.423033
#
# Coordination Sequence:
#
# PCOD8058011 Si02
#       8
#     4   4   4   4   4   4   4   4
#     4  11  24  38  55  80 109 140 177 220 266 316
#     4  10  20  36  60  82 105 139 175 215 265 320
#     4  10  18  29  49  76 105 136 173 218 261 304
#     4   8  15  27  44  70 104 139 171 207 257 314
#     4  10  20  36  58  82 104 136 180 218 260 316
#     4   9  17  30  49  74 105 138 172 212 261 313
#     4  10  20  34  54  80 107 137 175 222 266 308
#     4  10  22  38  54  76 109 143 178 218 261 314
#
# _framework density 17.708981999999999
#
# number of rings (size 3 to 8) (size 9 to 14) (size 15 to 20)
#    0.000    2.250    2.500    1.500    0.000    5.500 
#    0.000    2.500    0.000    0.750    0.000    5.250 
#    0.000    0.000    0.000    0.000    0.000    0.000 
#
# Total GULP energy -396781.840851 kJ/mol
# GULP energy per Si atom -12399.432527 kJ/mol
# Density = 1.766868 g / cm^3
# Si number density = 17.708982 Si / 1000 Ang^3
#
#
#
# Elastic Constant Matrix: (Units=GPa)
#
#
# Indices 1 2 3 4 5 6 
#
# 1 107.2868 41.6112 33.2735 0.0000 6.4910 0.0000
# 2 41.6112 78.0243 45.6707 0.0000 3.8164 0.0000
# 3 33.2735 45.6707 78.5139 0.0000 0.3395 0.0000
# 4 0.0000 0.0000 0.0000 31.2163 0.0000 4.0134
# 5 6.4910 3.8164 0.3395 0.0000 19.4087 0.0000
# 6 0.0000 0.0000 0.0000 4.0134 0.0000 29.0991
#
#
#
# Elastic Compliance Matrix: (Units=1/GPa)
#
#
# Indices 1 2 3 4 5 6 
#
# 1 0.012141 -0.005038 -0.002202 0.000000 -0.003031 0.000000
# 2 -0.005038 0.021782 -0.010525 0.000000 -0.002414 0.000000
# 3 -0.002202 -0.010525 0.019781 0.000000 0.002460 0.000000
# 4 0.000000 0.000000 0.000000 0.032613 0.000000 -0.004498
# 5 -0.003031 -0.002414 0.002460 0.000000 0.052969 0.000000
# 6 0.000000 0.000000 0.000000 -0.004498 0.000000 0.034986
#
#
# Mechanical properties :
#
#
# Convention : Reuss Voigt Hill
#
# Bulk Modulus (GPa) = 55.01974 56.10397 55.56185
# Shear Modulus (GPa) = 23.16327 25.49611 24.32969
#
# Velocity S-wave (km/s) = 3.62055 3.79849 3.71059
# Velocity P-wave (km/s) = 6.97238 7.14058 7.05698
#
# Compressibility (1/GPa) = 0.01817530
#
# Stress axis : x y z
#
# Youngs Moduli (GPa) = 82.36569 45.90938 50.55302
#
# Poissons Ratio (x) = 0.23129 0.11130
# Poissons Ratio (y) = 0.41495 0.53207
# Poissons Ratio (z) = 0.18134 0.48319
#
# Static dielectric constant tensor:
#      x y z
#    x 3.830920 0.000000 0.030100 
#    y 0.000000 3.341460 0.000000 
#    z 0.030100 0.000000 2.924590 
# 
# 
# High freq. dielectric constant tensor:
#      x y z
#    x 1.705020 0.000000 0.006200 
#    y 0.000000 1.686480 0.000000 
#    z 0.006200 0.000000 1.645790 
# 
# From -- ./inp_files/93639.got.cif
#   From: 2010.06.25/outbox.cif.g09.slc.cpg/sg10_47_cif.got.tgz:93639.got - 2010.06.27 22:07:45.
