data_PCOD8058029
_publ_section_title
;
Structure prediction by ZEFSAII (Michael W. Deem and Ramdas Pophale) SiO2 
 PCOD8058029
Probable space group: P 2/M
;
_chemical_formula_sum "Si O2"
_cell_formula_units_Z 28
_cell_length_a 16.912967
_cell_length_b 9.160822
_cell_length_c 14.889043
_cell_angle_alpha 90.000000
_cell_angle_beta 46.160133
_cell_angle_gamma 90.000000
_cell_volume 1663.887614
_symmetry_space_group_name_H-M "P 2/M"
_symmetry_group_IT_number 10
_symmetry_cell_setting 'monoclinic'
loop_
_space_group_symop_operation_xyz
x,y,z
-x,y,-z
-x,-y,-z
x,-y,z
loop_
_atom_site_type_symbol
_atom_site_label
_atom_site_fract_x
_atom_site_fract_y
_atom_site_fract_z
Si Si1 0.373010 0.169068 0.740019
Si Si2 0.992029 0.172995 0.106325
Si Si3 0.594253 0.326567 0.600278
Si Si4 0.571683 0.672298 0.818048
Si Si5 0.210538 0.828001 0.026746
Si Si6 0.248411 0.830577 0.654357
Si Si7 0.661639 0.327469 0.930813
O O1 0.482050 0.264706 0.647835
O O2 0.302275 0.201235 0.707783
O O3 0.407052 0.000000 0.718682
O O4 0.301260 0.216569 0.881830
O O5 0.878166 0.218296 0.242037
O O6 0.092489 0.231584 0.087377
O O7 0.000903 0.000000 0.090628
O O8 0.000000 0.240714 0.000000
O O9 0.590610 0.500000 0.596445
O O10 0.609815 0.271254 0.690764
O O11 0.696982 0.266799 0.464947
O O12 0.562531 0.500000 0.826208
O O13 0.657477 0.719146 0.828627
O O14 0.450187 0.731291 0.935313
O O15 0.237141 0.751809 0.100562
O O16 0.207970 0.000000 0.043397
O O17 0.260733 0.000000 0.618909
O O18 0.676157 0.500000 0.930473
#
# Coordination Sequence:
#
# PCOD8058029 Si02
#       7
#     4   4   4   4   4   4   4
#     4  10  19  31  48  72 101 130 161 194 234 288
#     4   9  16  31  53  72  93 128 168 200 234 280
#     4  11  21  33  49  71 100 131 162 198 242 287
#     4   8  16  30  49  69  93 128 164 194 233 294
#     4  10  18  29  50  78 101 121 156 205 244 279
#     4  10  20  34  51  70  96 133 170 197 230 284
#     4   9  16  31  51  70  94 127 162 194 242 295
#
# _framework density 16.828059
#
# number of rings (size 3 to 8) (size 9 to 14) (size 15 to 20)
#    0.000    2.429    2.857    1.714    0.000    2.286 
#    0.000    3.571    0.000    1.714    0.000    6.000 
#    0.000    0.000    0.000    0.000    0.000    0.000 
#
# Total GULP energy -347143.806892 kJ/mol
# GULP energy per Si atom -12397.993103 kJ/mol
# Density = 1.678976 g / cm^3
# Si number density = 16.828059 Si / 1000 Ang^3
#
#
#
# Elastic Constant Matrix: (Units=GPa)
#
#
# Indices 1 2 3 4 5 6 
#
# 1 136.9523 34.8294 50.1798 0.0000 -5.0444 0.0000
# 2 34.8294 36.8825 29.5335 0.0000 -0.6153 0.0000
# 3 50.1798 29.5335 64.8293 0.0000 -8.7175 0.0000
# 4 0.0000 0.0000 0.0000 9.9543 0.0000 10.2995
# 5 -5.0444 -0.6153 -8.7175 0.0000 25.7468 0.0000
# 6 0.0000 0.0000 0.0000 10.2995 0.0000 21.3881
#
#
#
# Elastic Compliance Matrix: (Units=1/GPa)
#
#
# Indices 1 2 3 4 5 6 
#
# 1 0.010870 -0.005554 -0.005883 0.000000 0.000005 0.000000
# 2 -0.005554 0.046373 -0.017626 0.000000 -0.005948 0.000000
# 3 -0.005883 -0.017626 0.029123 0.000000 0.008287 0.000000
# 4 0.000000 0.000000 0.000000 0.200217 0.000000 -0.096415
# 5 0.000005 -0.005948 0.008287 0.000000 0.041504 0.000000
# 6 0.000000 0.000000 0.000000 -0.096415 0.000000 0.093184
#
#
# Mechanical properties :
#
#
# Convention : Reuss Voigt Hill
#
# Bulk Modulus (GPa) = 35.41178 51.97216 43.69197
# Shear Modulus (GPa) = 10.22890 19.69261 14.96076
#
# Velocity S-wave (km/s) = 2.46813 3.42457 2.98491
# Velocity P-wave (km/s) = 5.40474 6.82555 6.15627
#
# Compressibility (1/GPa) = 0.02823919
#
# Stress axis : x y z
#
# Youngs Moduli (GPa) = 91.99634 21.56425 34.33763
#
# Poissons Ratio (x) = 0.11977 0.20200
# Poissons Ratio (y) = 0.51097 0.60524
# Poissons Ratio (z) = 0.54119 0.38010
#
# Static dielectric constant tensor:
#      x y z
#    x 3.354900 0.000000 0.118910 
#    y 0.000000 2.846250 0.000000 
#    z 0.118910 0.000000 3.174020 
# 
# 
# High freq. dielectric constant tensor:
#      x y z
#    x 1.654700 0.000000 0.007670 
#    y 0.000000 1.620320 0.000000 
#    z 0.007670 0.000000 1.633420 
# 
# From -- ./inp_files/63520.got.cif
#   From: 2010.06.25/outbox.cif.g09.slc.cpg/sg10_32_cif.got.tgz:63520.got - 2010.06.27 22:07:45.
