data_PCOD8058709
_publ_section_title
;
Structure prediction by ZEFSAII (Michael W. Deem and Ramdas Pophale) SiO2 
 PCOD8058709
Probable space group: P 2/M
;
_chemical_formula_sum "Si O2"
_cell_formula_units_Z 32
_cell_length_a 12.508515
_cell_length_b 8.591956
_cell_length_c 32.192693
_cell_angle_alpha 90.000000
_cell_angle_beta 153.180730
_cell_angle_gamma 90.000000
_cell_volume 1560.999434
_symmetry_space_group_name_H-M "P 2/M"
_symmetry_group_IT_number 10
_symmetry_cell_setting 'monoclinic'
loop_
_space_group_symop_operation_xyz
x,y,z
-x,y,-z
-x,-y,-z
x,-y,z
loop_
_atom_site_type_symbol
_atom_site_label
_atom_site_fract_x
_atom_site_fract_y
_atom_site_fract_z
Si Si1 0.406502 0.316775 0.796044
Si Si2 0.997935 0.678598 0.402706
Si Si3 0.746302 0.179906 0.850047
Si Si4 0.874882 0.318833 0.072498
Si Si5 0.472964 0.317611 0.601752
Si Si6 0.600099 0.818955 0.116336
Si Si7 0.043227 0.818830 0.213990
Si Si8 0.614689 0.323447 0.334562
O O1 0.420876 0.500000 0.793097
O O2 0.169122 0.246817 0.691165
O O3 0.640738 0.241715 0.856880
O O4 0.397424 0.281036 0.841126
O O5 0.032645 0.500000 0.403283
O O6 0.874584 0.696977 0.404932
O O7 0.265626 0.747963 0.498998
O O8 0.560774 0.203846 0.748574
O O9 0.986813 0.271134 0.921536
O O10 0.809962 0.000000 0.876981
O O11 0.816380 0.500000 0.051048
O O12 0.031576 0.278266 0.167274
O O13 0.630356 0.223362 0.990527
O O14 0.521266 0.500000 0.611359
O O15 0.715078 0.223987 0.678021
O O16 0.373794 0.284854 0.613251
O O17 0.827838 0.770559 0.168819
O O18 0.601858 0.000000 0.128257
O O19 0.035955 0.000000 0.200350
O O20 0.521352 0.500000 0.294202
#
# Coordination Sequence:
#
# PCOD8058709 Si02
#       8
#     4   4   4   4   4   4   4   4
#     4  10  21  40  63  87 119 156 201 247 287 339
#     4   8  16  31  54  85 118 153 194 241 290 336
#     4  11  21  35  58  88 125 160 189 232 294 353
#     4  12  24  40  64  92 118 148 193 243 293 350
#     4  10  18  31  56  86 117 155 197 241 288 342
#     4  11  25  44  63  84 114 155 198 242 298 353
#     4  11  24  41  60  86 122 156 190 241 298 352
#     4   9  16  29  51  82 119 156 194 237 286 342
#
# _framework density 20.499686000000001
#
# number of rings (size 3 to 8) (size 9 to 14) (size 15 to 20)
#    0.000    1.750    1.250    4.875    0.000    5.500 
#    0.000    6.250    0.000    7.500    0.000    0.000 
#    0.000    0.000    0.000    0.000    0.000    0.000 
#
# Total GULP energy -396791.398029 kJ/mol
# GULP energy per Si atom -12399.731188 kJ/mol
# Density = 2.045303 g / cm^3
# Si number density = 20.499686 Si / 1000 Ang^3
#
#
#
# Elastic Constant Matrix: (Units=GPa)
#
#
# Indices 1 2 3 4 5 6 
#
# 1 85.1158 24.4200 27.9896 0.0000 11.0121 0.0000
# 2 24.4200 55.7939 10.5890 0.0000 1.3537 0.0000
# 3 27.9896 10.5890 66.3292 0.0000 24.1594 0.0000
# 4 0.0000 0.0000 0.0000 18.0156 0.0000 6.9492
# 5 11.0121 1.3537 24.1594 0.0000 27.6557 0.0000
# 6 0.0000 0.0000 0.0000 6.9492 0.0000 25.2468
#
#
#
# Elastic Compliance Matrix: (Units=1/GPa)
#
#
# Indices 1 2 3 4 5 6 
#
# 1 0.015201 -0.005671 -0.004995 0.000000 -0.001412 0.000000
# 2 -0.005671 0.020713 -0.002005 0.000000 0.002996 0.000000
# 3 -0.004995 -0.002005 0.024558 0.000000 -0.019366 0.000000
# 4 0.000000 0.000000 0.000000 0.062101 0.000000 -0.017093
# 5 -0.001412 0.002996 -0.019366 0.000000 0.053492 0.000000
# 6 0.000000 0.000000 0.000000 -0.017093 0.000000 0.044314
#
#
# Mechanical properties :
#
#
# Convention : Reuss Voigt Hill
#
# Bulk Modulus (GPa) = 28.46518 37.02623 32.74571
# Shear Modulus (GPa) = 19.42271 23.79963 21.61117
#
# Velocity S-wave (km/s) = 3.08143 3.41101 3.25040
# Velocity P-wave (km/s) = 5.15520 5.79779 5.48591
#
# Compressibility (1/GPa) = 0.03513064
#
# Stress axis : x y z
#
# Youngs Moduli (GPa) = 65.78559 48.27888 40.71993
#
# Poissons Ratio (x) = 0.27379 0.20339
# Poissons Ratio (y) = 0.37307 0.08163
# Poissons Ratio (z) = 0.32860 0.09679
#
# Static dielectric constant tensor:
#      x y z
#    x 3.591560 0.000000 0.163320 
#    y 0.000000 3.479070 0.000000 
#    z 0.163320 0.000000 3.864730 
# 
# 
# High freq. dielectric constant tensor:
#      x y z
#    x 1.787770 0.000000 0.012260 
#    y 0.000000 1.784410 0.000000 
#    z 0.012260 0.000000 1.806740 
# 
# From -- ./inp_files/95089.got.cif
#   From: 2010.06.25/outbox.cif.g09.slc.cpg/sg10_48_cif.got.tgz:95089.got - 2010.06.27 22:07:45.
