data_PCOD8058085
_publ_section_title
;
Structure prediction by ZEFSAII (Michael W. Deem and Ramdas Pophale) SiO2 
 PCOD8058085
Probable space group: P 2/M
;
_chemical_formula_sum "Si O2"
_cell_formula_units_Z 32
_cell_length_a 21.201472
_cell_length_b 9.070295
_cell_length_c 30.631046
_cell_angle_alpha 90.000000
_cell_angle_beta 19.416785
_cell_angle_gamma 90.000000
_cell_volume 1958.209626
_symmetry_space_group_name_H-M "P 2/M"
_symmetry_group_IT_number 10
_symmetry_cell_setting 'monoclinic'
loop_
_space_group_symop_operation_xyz
x,y,z
-x,y,-z
-x,-y,-z
x,-y,z
loop_
_atom_site_type_symbol
_atom_site_label
_atom_site_fract_x
_atom_site_fract_y
_atom_site_fract_z
Si Si1 0.694490 0.325242 0.708991
Si Si2 0.330984 0.826466 0.980615
Si Si3 0.957776 0.325731 0.460276
Si Si4 0.318486 0.669725 0.530714
Si Si5 0.370159 0.833597 0.627238
Si Si6 0.674202 0.827366 0.915559
Si Si7 0.962231 0.672840 0.360000
Si Si8 0.059449 0.327002 0.781585
O O1 0.655978 0.500000 0.735957
O O2 0.501683 0.236663 0.840563
O O3 0.782845 0.275075 0.604823
O O4 0.841326 0.274939 0.650856
O O5 0.313562 0.000000 0.984856
O O6 0.368686 0.786478 0.006446
O O7 0.141960 0.751260 0.086427
O O8 0.955387 0.500000 0.460705
O O9 0.935286 0.261061 0.426205
O O10 0.377655 0.500000 0.497036
O O11 0.508859 0.765691 0.411834
O O12 0.230237 0.705194 0.541056
O O13 0.160981 0.710155 0.669630
O O14 0.500000 0.827547 0.500000
O O15 0.182086 0.737638 0.741681
O O16 0.311512 0.000000 0.677384
O O17 0.863883 0.748142 0.777310
O O18 0.705194 0.000000 0.888735
O O19 0.500000 0.769349 0.000000
O O20 0.006187 0.500000 0.332392
O O21 0.032292 0.500000 0.806411
#
# Coordination Sequence:
#
# PCOD8058085 Si02
#       8
#     4   4   4   4   4   4   4   4
#     4   9  17  32  51  69  90 121 161 202 243 278
#     4  11  21  31  45  67  96 126 158 195 235 279
#     4   8  16  31  51  71  91 118 158 206 243 275
#     4   9  17  28  43  66  94 122 154 190 227 273
#     4   9  17  28  44  65  91 124 156 185 225 273
#     4  10  21  33  43  61  94 130 158 188 232 282
#     4  10  18  30  48  70  93 121 158 196 233 275
#     4  10  18  30  46  66  93 124 157 191 229 274
#
# _framework density 16.341459
#
# number of rings (size 3 to 8) (size 9 to 14) (size 15 to 20)
#    0.000    2.500    1.250    2.625    0.000    3.250 
#    0.000    1.875    0.000    0.000    0.000    0.875 
#    0.000    7.000    0.000    0.000    0.000    0.000 
#
# Total GULP energy -396787.373691 kJ/mol
# GULP energy per Si atom -12399.605428 kJ/mol
# Density = 1.630426 g / cm^3
# Si number density = 16.341459 Si / 1000 Ang^3
#
#
#
# Elastic Constant Matrix: (Units=GPa)
#
#
# Indices 1 2 3 4 5 6 
#
# 1 63.4986 33.1074 41.7179 0.0000 -13.1576 0.0000
# 2 33.1074 63.1904 47.6457 0.0000 -8.2486 0.0000
# 3 41.7179 47.6457 92.8377 0.0000 -14.7544 0.0000
# 4 0.0000 0.0000 0.0000 10.4907 0.0000 -5.2879
# 5 -13.1576 -8.2486 -14.7544 0.0000 24.5992 0.0000
# 6 0.0000 0.0000 0.0000 -5.2879 0.0000 19.2096
#
#
#
# Elastic Compliance Matrix: (Units=1/GPa)
#
#
# Indices 1 2 3 4 5 6 
#
# 1 0.025366 -0.007534 -0.006386 0.000000 0.007211 0.000000
# 2 -0.007534 0.028066 -0.011234 0.000000 -0.001357 0.000000
# 3 -0.006386 -0.011234 0.020190 0.000000 0.004927 0.000000
# 4 0.000000 0.000000 0.000000 0.110679 0.000000 0.030467
# 5 0.007211 -0.001357 0.004927 0.000000 0.047009 0.000000
# 6 0.000000 0.000000 0.000000 0.030467 0.000000 0.060444
#
#
# Mechanical properties :
#
#
# Convention : Reuss Voigt Hill
#
# Bulk Modulus (GPa) = 42.89289 51.60764 47.25026
# Shear Modulus (GPa) = 14.29253 17.33029 15.81141
#
# Velocity S-wave (km/s) = 2.96060 3.26008 3.11394
# Velocity P-wave (km/s) = 6.16375 6.76906 6.47348
#
# Compressibility (1/GPa) = 0.02331389
#
# Stress axis : x y z
#
# Youngs Moduli (GPa) = 39.42238 35.63078 49.53020
#
# Poissons Ratio (x) = 0.26843 0.31631
# Poissons Ratio (y) = 0.29699 0.55642
# Poissons Ratio (z) = 0.25176 0.40028
#
# Static dielectric constant tensor:
#      x y z
#    x 3.362390 0.000000 -0.062240 
#    y 0.000000 3.005330 0.000000 
#    z -0.062240 0.000000 2.930080 
# 
# 
# High freq. dielectric constant tensor:
#      x y z
#    x 1.622060 0.000000 -0.019770 
#    y 0.000000 1.623380 0.000000 
#    z -0.019770 0.000000 1.607900 
# 
# From -- ./inp_files/55188.got.cif
#   From: 2010.06.25/outbox.cif.g09.slc.cpg/sg10_28_cif.got.tgz:55188.got - 2010.06.27 22:07:45.
