data_PCOD8058334
_publ_section_title
;
Structure prediction by ZEFSAII (Michael W. Deem and Ramdas Pophale) SiO2 
 PCOD8058334
Probable space group: P 2/M
;
_chemical_formula_sum "Si O2"
_cell_formula_units_Z 28
_cell_length_a 33.315564
_cell_length_b 8.871474
_cell_length_c 9.470618
_cell_angle_alpha 90.000000
_cell_angle_beta 32.910659
_cell_angle_gamma 90.000000
_cell_volume 1520.846804
_symmetry_space_group_name_H-M "P 2/M"
_symmetry_group_IT_number 10
_symmetry_cell_setting 'monoclinic'
loop_
_space_group_symop_operation_xyz
x,y,z
-x,y,-z
-x,-y,-z
x,-y,z
loop_
_atom_site_type_symbol
_atom_site_label
_atom_site_fract_x
_atom_site_fract_y
_atom_site_fract_z
Si Si1 0.585727 0.820974 0.397733
Si Si2 0.155385 0.822791 0.670215
Si Si3 0.989648 0.334427 0.864587
Si Si4 0.722010 0.179792 0.177207
Si Si5 0.848116 0.678771 0.622782
Si Si6 0.422347 0.820542 0.894908
Si Si7 0.288782 0.821003 0.472204
O O1 0.649867 0.757218 0.308821
O O2 0.505151 0.765196 0.690138
O O3 0.599073 0.763063 0.198699
O O4 0.587586 0.000000 0.394821
O O5 0.169356 0.742739 0.480305
O O6 0.218338 0.766396 0.591158
O O7 0.158607 0.000000 0.634751
O O8 0.076645 0.780370 0.973878
O O9 0.969656 0.500000 0.862179
O O10 0.068663 0.277646 0.571478
O O11 0.000000 0.348196 0.000000
O O12 0.716969 0.240109 0.351901
O O13 0.727090 0.000000 0.154365
O O14 0.794717 0.248949 0.894590
O O15 0.838417 0.500000 0.645078
O O16 0.419888 0.000000 0.902856
O O17 0.363416 0.754834 0.180460
O O18 0.292290 0.000000 0.463426
#
# Coordination Sequence:
#
# PCOD8058334 Si02
#       7
#     4   4   4   4   4   4   4
#     4   8  14  24  43  69  95 125 159 195 236 281
#     4  10  18  30  51  76  98 123 157 197 241 285
#     4   8  16  31  49  70  95 121 155 199 241 283
#     4  10  19  31  47  70  99 130 163 197 236 281
#     4  10  20  34  51  71  95 125 161 200 241 285
#     4   8  13  24  41  66  99 127 154 193 239 282
#     4   9  18  29  43  69 104 132 156 193 238 285
#
# _framework density 18.410795
#
# number of rings (size 3 to 8) (size 9 to 14) (size 15 to 20)
#    0.000    3.000    0.000    3.429    0.000    6.000 
#    0.000    5.000    0.000    4.286    0.000   11.000 
#    0.000    0.000    0.000    0.000    0.000    0.000 
#
# Total GULP energy -347036.325628 kJ/mol
# GULP energy per Si atom -12394.154487 kJ/mol
# Density = 1.836889 g / cm^3
# Si number density = 18.410795 Si / 1000 Ang^3
#
#
#
# Elastic Constant Matrix: (Units=GPa)
#
#
# Indices 1 2 3 4 5 6 
#
# 1 84.2349 19.0762 95.9366 0.0000 3.3289 0.0000
# 2 19.0762 31.6757 30.5223 0.0000 -0.2960 0.0000
# 3 95.9366 30.5223 186.6032 0.0000 -9.8147 0.0000
# 4 0.0000 0.0000 0.0000 5.4123 0.0000 2.8001
# 5 3.3289 -0.2960 -9.8147 0.0000 24.2582 0.0000
# 6 0.0000 0.0000 0.0000 2.8001 0.0000 0.7466
#
#
#
# Elastic Compliance Matrix: (Units=1/GPa)
#
#
# Indices 1 2 3 4 5 6 
#
# 1 0.031609 -0.003471 -0.016259 0.000000 -0.010958 0.000000
# 2 -0.003471 0.037960 -0.004470 0.000000 -0.000869 0.000000
# 3 -0.016259 -0.004470 0.014881 0.000000 0.008197 0.000000
# 4 0.000000 0.000000 0.000000 -0.196494 0.000000 0.736925
# 5 -0.010958 -0.000869 0.008197 0.000000 0.046033 0.000000
# 6 0.000000 0.000000 0.000000 0.736925 0.000000 -1.424383
#
#
# Mechanical properties :
#
#
# Convention : Reuss Voigt Hill
#
# Bulk Modulus (GPa) = 27.74092 65.95379 46.84735
# Shear Modulus (GPa) = -3.49656 16.54866 6.52605
#
# Velocity S-wave (km/s) = -1.37961 3.00135 1.88478
# Velocity P-wave (km/s) = 3.54439 6.92185 5.49885
#
# Compressibility (1/GPa) = 0.03604783
#
# Stress axis : x y z
#
# Youngs Moduli (GPa) = 31.63683 26.34384 67.20179
#
# Poissons Ratio (x) = 0.09144 1.09266
# Poissons Ratio (y) = 0.10981 0.30040
# Poissons Ratio (z) = 0.51439 0.11776
#
# Static dielectric constant tensor:
#      x y z
#    x 3.485850 0.000000 -0.244970 
#    y 0.000000 2.943110 0.000000 
#    z -0.244970 0.000000 3.833180 
# 
# 
# High freq. dielectric constant tensor:
#      x y z
#    x 1.702010 0.000000 -0.017320 
#    y 0.000000 1.666740 0.000000 
#    z -0.017320 0.000000 1.726640 
# 
# From -- ./inp_files/37911.got.cif
#   From: 2010.06.25/outbox.cif.g09.slc.cpg/sg10_19_cif.got.tgz:37911.got - 2010.06.27 22:07:45.
