data_PCOD8058923
_publ_section_title
;
Structure prediction by ZEFSAII (Michael W. Deem and Ramdas Pophale) SiO2 
 PCOD8058923
Probable space group: P 2/M
;
_chemical_formula_sum "Si O2"
_cell_formula_units_Z 24
_cell_length_a 18.526186
_cell_length_b 8.801987
_cell_length_c 7.971040
_cell_angle_alpha 90.000000
_cell_angle_beta 114.701387
_cell_angle_gamma 90.000000
_cell_volume 1180.879916
_symmetry_space_group_name_H-M "P 2/M"
_symmetry_group_IT_number 10
_symmetry_cell_setting 'monoclinic'
loop_
_space_group_symop_operation_xyz
x,y,z
-x,y,-z
-x,-y,-z
x,-y,z
loop_
_atom_site_type_symbol
_atom_site_label
_atom_site_fract_x
_atom_site_fract_y
_atom_site_fract_z
Si Si1 0.002590 0.319334 0.190726
Si Si2 0.407267 0.175683 0.887124
Si Si3 0.832730 0.320817 0.142743
Si Si4 0.329232 0.320239 0.490225
Si Si5 0.833046 0.679161 0.517935
Si Si6 0.681765 0.179321 0.864524
O O1 0.006460 0.500000 0.203309
O O2 0.081858 0.247587 0.351069
O O3 0.922831 0.262875 0.204513
O O4 0.000000 0.259473 0.000000
O O5 0.381938 0.266877 0.697548
O O6 0.385628 0.000000 0.837978
O O7 0.500000 0.201365 0.000000
O O8 0.364491 0.237704 0.014498
O O9 0.825880 0.500000 0.100162
O O10 0.808561 0.274009 0.306843
O O11 0.772922 0.235475 0.960235
O O12 0.336436 0.500000 0.484612
O O13 0.237817 0.266661 0.429981
O O14 0.358405 0.247894 0.342876
O O15 0.842869 0.500000 0.538505
O O16 0.677221 0.000000 0.846074
#
# Coordination Sequence:
#
# PCOD8058923 Si02
#       6
#     4   4   4   4   4   4
#     4   9  16  26  45  77 114 150 192 241 287 333
#     4  10  23  44  66  87 116 155 196 238 288 353
#     4  10  18  32  55  81 113 151 198 247 287 334
#     4  11  22  38  63  92 122 153 193 244 294 345
#     4   9  17  30  51  82 114 150 193 241 291 333
#     4  11  23  39  61  87 119 157 196 237 291 356
#
# _framework density 20.323829
#
# number of rings (size 3 to 8) (size 9 to 14) (size 15 to 20)
#    0.000    2.000    1.667    2.500    0.000    6.333 
#    0.000    3.333    0.000    7.500    0.000    0.000 
#    0.000    0.000    0.000    0.000    0.000    0.000 
#
# Total GULP energy -297563.552630 kJ/mol
# GULP energy per Si atom -12398.481360 kJ/mol
# Density = 2.027757 g / cm^3
# Si number density = 20.323829 Si / 1000 Ang^3
#
#
#
# Elastic Constant Matrix: (Units=GPa)
#
#
# Indices 1 2 3 4 5 6 
#
# 1 82.8580 28.6041 52.2003 0.0000 -1.5297 0.0000
# 2 28.6041 47.0909 36.2932 0.0000 3.1335 0.0000
# 3 52.2003 36.2932 127.9617 0.0000 -6.7492 0.0000
# 4 0.0000 0.0000 0.0000 28.8229 0.0000 -3.2431
# 5 -1.5297 3.1335 -6.7492 0.0000 27.4631 0.0000
# 6 0.0000 0.0000 0.0000 -3.2431 0.0000 17.2352
#
#
#
# Elastic Compliance Matrix: (Units=1/GPa)
#
#
# Indices 1 2 3 4 5 6 
#
# 1 0.017739 -0.006714 -0.005309 0.000000 0.000449 0.000000
# 2 -0.006714 0.030429 -0.006175 0.000000 -0.005363 0.000000
# 3 -0.005309 -0.006175 0.011908 0.000000 0.003335 0.000000
# 4 0.000000 0.000000 0.000000 0.035445 0.000000 0.006670
# 5 0.000449 -0.005363 0.003335 0.000000 0.037869 0.000000
# 6 0.000000 0.000000 0.000000 0.006670 0.000000 0.059276
#
#
# Mechanical properties :
#
#
# Convention : Reuss Voigt Hill
#
# Bulk Modulus (GPa) = 42.22581 54.67841 48.45211
# Shear Modulus (GPa) = 21.10115 24.09180 22.59647
#
# Velocity S-wave (km/s) = 3.22568 3.44669 3.33802
# Velocity P-wave (km/s) = 5.89024 6.54229 6.22481
#
# Compressibility (1/GPa) = 0.02368220
#
# Stress axis : x y z
#
# Youngs Moduli (GPa) = 56.37217 32.86303 83.98010
#
# Poissons Ratio (x) = 0.22064 0.44581
# Poissons Ratio (y) = 0.37847 0.51854
# Poissons Ratio (z) = 0.29926 0.20292
#
# Static dielectric constant tensor:
#      x y z
#    x 3.881760 0.000000 -0.077740 
#    y 0.000000 3.238910 0.000000 
#    z -0.077740 0.000000 3.813950 
# 
# 
# High freq. dielectric constant tensor:
#      x y z
#    x 1.800160 0.000000 -0.003940 
#    y 0.000000 1.747400 0.000000 
#    z -0.003940 0.000000 1.809080 
# 
# From -- ./inp_files/33500.got.cif
#   From: 2010.06.25/outbox.cif.g09.slc.cpg/sg10_17_cif.got.tgz:33500.got - 2010.06.27 22:07:45.
