data_PCOD8058155
_publ_section_title
;
Structure prediction by ZEFSAII (Michael W. Deem and Ramdas Pophale) SiO2 
 PCOD8058155
Probable space group: P 2/M
;
_chemical_formula_sum "Si O2"
_cell_formula_units_Z 18
_cell_length_a 16.259510
_cell_length_b 10.656821
_cell_length_c 12.847972
_cell_angle_alpha 90.000000
_cell_angle_beta 153.084750
_cell_angle_gamma 90.000000
_cell_volume 1007.751359
_symmetry_space_group_name_H-M "P 2/M"
_symmetry_group_IT_number 10
_symmetry_cell_setting 'monoclinic'
loop_
_space_group_symop_operation_xyz
x,y,z
-x,y,-z
-x,-y,-z
x,-y,z
loop_
_atom_site_type_symbol
_atom_site_label
_atom_site_fract_x
_atom_site_fract_y
_atom_site_fract_z
Si Si1 0.000000 0.716912 0.000000
Si Si2 0.323250 0.363225 0.233200
Si Si3 0.508986 0.145144 0.124482
Si Si4 0.231329 0.142200 0.981171
Si Si5 0.152041 0.143885 0.368235
O O1 0.146249 0.632285 0.106475
O O2 0.107939 0.799224 0.206331
O O3 0.500000 0.344753 0.500000
O O4 0.328397 0.500000 0.181741
O O5 0.325159 0.245841 0.158572
O O6 0.312437 0.161651 0.957230
O O7 0.669760 0.206326 0.376733
O O8 0.560886 0.000000 0.168032
O O9 0.500000 0.209384 0.000000
O O10 0.278267 0.000000 0.073591
O O11 0.014558 0.161880 0.738292
O O12 0.192963 0.000000 0.391066
#
# Coordination Sequence:
#
# PCOD8058155 Si02
#       5
#     2   4   4   4   4
#     4  10  18  30  48  68  93 126 159 190 229 282
#     4  10  20  32  47  69  97 127 158 193 233 279
#     4   9  17  29  46  69  96 124 156 196 238 278
#     4   9  18  31  47  69  94 122 157 194 234 278
#     4   9  17  28  44  69  98 125 155 193 235 277
#
# _framework density 17.861547999999999
#
# number of rings (size 3 to 8) (size 9 to 14) (size 15 to 20)
#    0.000    2.667    0.000    2.000    0.000    2.222 
#    0.000    4.444    0.000    0.667    0.000    6.222 
#    0.000    0.000    0.000    0.000    0.000    0.000 
#
# Total GULP energy -223037.475313 kJ/mol
# GULP energy per Si atom -12390.970851 kJ/mol
# Density = 1.782089 g / cm^3
# Si number density = 17.861548 Si / 1000 Ang^3
#
#
#
# Elastic Constant Matrix: (Units=GPa)
#
#
# Indices 1 2 3 4 5 6 
#
# 1 95.0175 23.6013 25.4409 0.0000 -6.4688 0.0000
# 2 23.6013 68.9281 12.7300 0.0000 -4.8491 0.0000
# 3 25.4409 12.7300 77.8342 0.0000 -11.1333 0.0000
# 4 0.0000 0.0000 0.0000 13.8101 0.0000 4.9787
# 5 -6.4688 -4.8491 -11.1333 0.0000 26.5130 0.0000
# 6 0.0000 0.0000 0.0000 4.9787 0.0000 8.9112
#
#
#
# Elastic Compliance Matrix: (Units=1/GPa)
#
#
# Indices 1 2 3 4 5 6 
#
# 1 0.012362 -0.003551 -0.003321 0.000000 0.000972 0.000000
# 2 -0.003551 0.016063 -0.001245 0.000000 0.001549 0.000000
# 3 -0.003321 -0.001245 0.014882 0.000000 0.005211 0.000000
# 4 0.000000 0.000000 0.000000 0.090674 0.000000 -0.050660
# 5 0.000972 0.001549 0.005211 0.000000 0.040426 0.000000
# 6 0.000000 0.000000 0.000000 -0.050660 0.000000 0.140522
#
#
# Mechanical properties :
#
#
# Convention : Reuss Voigt Hill
#
# Bulk Modulus (GPa) = 36.93670 40.59159 38.76414
# Shear Modulus (GPa) = 14.69779 21.84737 18.27258
#
# Velocity S-wave (km/s) = 2.87169 3.50115 3.20193
# Velocity P-wave (km/s) = 5.63203 6.25453 5.95142
#
# Compressibility (1/GPa) = 0.02707334
#
# Stress axis : x y z
#
# Youngs Moduli (GPa) = 80.89488 62.25633 67.19407
#
# Poissons Ratio (x) = 0.22107 0.22313
# Poissons Ratio (y) = 0.28726 0.08365
# Poissons Ratio (z) = 0.26863 0.07750
#
# Static dielectric constant tensor:
#      x y z
#    x 3.397980 0.000000 0.243140 
#    y 0.000000 3.133130 0.000000 
#    z 0.243140 0.000000 3.807440 
# 
# 
# High freq. dielectric constant tensor:
#      x y z
#    x 1.691460 0.000000 0.021650 
#    y 0.000000 1.658660 0.000000 
#    z 0.021650 0.000000 1.689150 
# 
# From -- ./inp_files/23168.got.cif
#   From: 2010.06.25/outbox.cif.g09.slc.cpg/sg10_12_cif.got.tgz:23168.got - 2010.06.27 22:07:45.
