data_PCOD8058015
_publ_section_title
;
Structure prediction by ZEFSAII (Michael W. Deem and Ramdas Pophale) SiO2 
 PCOD8058015
Probable space group: P 2/M
;
_chemical_formula_sum "Si O2"
_cell_formula_units_Z 20
_cell_length_a 9.853223
_cell_length_b 13.373454
_cell_length_c 16.467184
_cell_angle_alpha 90.000000
_cell_angle_beta 154.880871
_cell_angle_gamma 90.000000
_cell_volume 921.129538
_symmetry_space_group_name_H-M "P 2/M"
_symmetry_group_IT_number 10
_symmetry_cell_setting 'monoclinic'
loop_
_space_group_symop_operation_xyz
x,y,z
-x,y,-z
-x,-y,-z
x,-y,z
loop_
_atom_site_type_symbol
_atom_site_label
_atom_site_fract_x
_atom_site_fract_y
_atom_site_fract_z
Si Si1 0.119548 0.302934 0.805670
Si Si2 0.743264 0.500000 0.056546
Si Si3 0.373249 0.500000 0.187731
Si Si4 0.375906 0.891200 0.692607
Si Si5 0.260986 0.892229 0.945078
Si Si6 0.752375 0.691010 0.439499
O O1 0.039535 0.399721 0.818459
O O2 0.015306 0.199886 0.795082
O O3 0.941497 0.314660 0.625164
O O4 0.500000 0.296929 0.000000
O O5 0.500000 0.500000 0.000000
O O6 0.551265 0.500000 0.867777
O O7 0.514696 0.598084 0.306444
O O8 0.000000 0.500000 0.000000
O O9 0.446765 0.796330 0.672304
O O10 0.000000 0.898782 0.500000
O O11 0.497656 0.000000 0.724270
O O12 0.537044 0.867385 0.865622
O O13 0.081118 0.000000 0.856888
O O14 0.500000 0.901637 0.000000
O O15 0.000000 0.685227 0.500000
#
# Coordination Sequence:
#
# PCOD8058015 Si02
#       6
#     4   2   2   4   4   4
#     4  10  18  29  49  78 106 138 180 227 274 327
#     4  10  19  36  58  77 104 141 183 229 279 334
#     4  12  26  42  59  83 117 151 191 243 294 342
#     4   9  16  26  45  77 112 144 184 236 284 329
#     4   9  15  23  37  64 105 144 172 211 275 332
#     4  11  20  34  57  83 111 149 196 236 284 345
#
# _framework density 21.712472999999999
#
# number of rings (size 3 to 8) (size 9 to 14) (size 15 to 20)
#    0.000    2.000    0.000    9.300    0.000    2.400 
#    0.000    2.000    0.000    0.600    0.000    0.000 
#    0.000    6.400    0.000    0.000    0.000    0.000 
#
# Total GULP energy -247763.182104 kJ/mol
# GULP energy per Si atom -12388.159105 kJ/mol
# Density = 2.166305 g / cm^3
# Si number density = 21.712473 Si / 1000 Ang^3
#
#
#
# Elastic Constant Matrix: (Units=GPa)
#
#
# Indices 1 2 3 4 5 6 
#
# 1 25.6961 24.0139 39.6703 0.0000 -15.4748 0.0000
# 2 24.0139 267.9386 89.7105 0.0000 -27.3448 0.0000
# 3 39.6703 89.7105 141.6767 0.0000 -47.2463 0.0000
# 4 0.0000 0.0000 0.0000 32.6641 0.0000 -19.6672
# 5 -15.4748 -27.3448 -47.2463 0.0000 37.4030 0.0000
# 6 0.0000 0.0000 0.0000 -19.6672 0.0000 3.8053
#
#
#
# Elastic Compliance Matrix: (Units=1/GPa)
#
#
# Indices 1 2 3 4 5 6 
#
# 1 0.069677 0.000277 -0.017286 0.000000 0.007195 0.000000
# 2 0.000277 0.004744 -0.003260 0.000000 -0.000535 0.000000
# 3 -0.017286 -0.003260 0.018631 0.000000 0.013999 0.000000
# 4 0.000000 0.000000 0.000000 -0.014496 0.000000 -0.074922
# 5 0.007195 -0.000535 0.013999 0.000000 0.047005 0.000000
# 6 0.000000 0.000000 0.000000 -0.074922 0.000000 -0.124434
#
#
# Mechanical properties :
#
#
# Convention : Reuss Voigt Hill
#
# Bulk Modulus (GPa) = 19.04236 82.45566 50.74901
# Shear Modulus (GPa) = 84.50184 33.56892 59.03538
#
# Velocity S-wave (km/s) = 6.24524 3.93627 5.22002
# Velocity P-wave (km/s) = 7.79701 7.66274 7.73017
#
# Compressibility (1/GPa) = 0.05251450
#
# Stress axis : x y z
#
# Youngs Moduli (GPa) = 14.35196 210.77880 53.67290
#
# Poissons Ratio (x) = -0.05843 0.92780
# Poissons Ratio (y) = -0.00398 0.17498
# Poissons Ratio (z) = 0.24809 0.68717
#
# Static dielectric constant tensor:
#      x y z
#    x 3.306500 0.000000 -0.433660 
#    y 0.000000 6.888350 0.000000 
#    z -0.433660 0.000000 3.861730 
# 
# 
# High freq. dielectric constant tensor:
#      x y z
#    x 1.783400 0.000000 -0.052330 
#    y 0.000000 1.905150 0.000000 
#    z -0.052330 0.000000 1.838970 
# 
# From -- ./inp_files/53962.got.cif
#   From: 2010.06.25/outbox.cif.g09.slc.cpg/sg10_27_cif.got.tgz:53962.got - 2010.06.27 22:07:45.
