data_PCOD8058592
_publ_section_title
;
Structure prediction by ZEFSAII (Michael W. Deem and Ramdas Pophale) SiO2 
 PCOD8058592
Probable space group: P 2/M
;
_chemical_formula_sum "Si O2"
_cell_formula_units_Z 24
_cell_length_a 22.227322
_cell_length_b 8.823000
_cell_length_c 9.674881
_cell_angle_alpha 90.000000
_cell_angle_beta 43.992923
_cell_angle_gamma 90.000000
_cell_volume 1317.846325
_symmetry_space_group_name_H-M "P 2/M"
_symmetry_group_IT_number 10
_symmetry_cell_setting 'monoclinic'
loop_
_space_group_symop_operation_xyz
x,y,z
-x,y,-z
-x,-y,-z
x,-y,z
loop_
_atom_site_type_symbol
_atom_site_label
_atom_site_fract_x
_atom_site_fract_y
_atom_site_fract_z
Si Si1 0.722933 0.823311 0.373956
Si Si2 0.402021 0.821989 0.652314
Si Si3 0.861337 0.179263 0.927945
Si Si4 0.259908 0.678850 0.078950
Si Si5 0.221918 0.819638 0.425067
Si Si6 0.970942 0.820837 0.195937
O O1 0.632413 0.786879 0.446325
O O2 0.801892 0.758748 0.151736
O O3 0.725800 0.760514 0.525396
O O4 0.740058 0.000000 0.358302
O O5 0.500000 0.762628 0.500000
O O6 0.395464 0.000000 0.695762
O O7 0.344523 0.735863 0.858939
O O8 0.850234 0.000000 0.925482
O O9 0.829188 0.258604 0.840831
O O10 0.960133 0.224573 0.798895
O O11 0.258255 0.500000 0.079548
O O12 0.267108 0.738153 0.222660
O O13 0.122975 0.761593 0.603538
O O14 0.227097 0.000000 0.395960
O O15 0.967330 0.000000 0.184874
O O16 0.000000 0.750907 0.000000
#
# Coordination Sequence:
#
# PCOD8058592 Si02
#       6
#     4   4   4   4   4   4
#     4   8  14  27  52  80 102 127 162 208 258 306
#     4   9  18  36  62  86 102 122 161 212 263 314
#     4   9  16  31  53  76 101 132 176 221 261 299
#     4  11  23  36  49  71 107 144 175 205 250 306
#     4  10  18  31  52  77 105 136 171 214 262 300
#     4   9  15  26  51  82 103 127 172 227 264 294
#
# _framework density 18.211531000000001
#
# number of rings (size 3 to 8) (size 9 to 14) (size 15 to 20)
#    0.000    2.667    1.667    2.500    0.000    1.000 
#    0.000    8.333    0.000    6.000    0.000    0.000 
#    0.000    0.000    0.000    0.000    0.000    0.000 
#
# Total GULP energy -297488.070740 kJ/mol
# GULP energy per Si atom -12395.336281 kJ/mol
# Density = 1.817008 g / cm^3
# Si number density = 18.211531 Si / 1000 Ang^3
#
#
#
# Elastic Constant Matrix: (Units=GPa)
#
#
# Indices 1 2 3 4 5 6 
#
# 1 148.2482 38.0636 67.7097 0.0000 3.7638 0.0000
# 2 38.0636 54.5100 34.4017 0.0000 3.7137 0.0000
# 3 67.7097 34.4017 85.5284 0.0000 12.5952 0.0000
# 4 0.0000 0.0000 0.0000 5.8462 0.0000 -4.6351
# 5 3.7638 3.7137 12.5952 0.0000 35.7166 0.0000
# 6 0.0000 0.0000 0.0000 -4.6351 0.0000 1.0351
#
#
#
# Elastic Compliance Matrix: (Units=1/GPa)
#
#
# Indices 1 2 3 4 5 6 
#
# 1 0.011019 -0.002870 -0.007850 0.000000 0.001905 0.000000
# 2 -0.002870 0.025367 -0.008002 0.000000 0.000487 0.000000
# 3 -0.007850 -0.008002 0.022024 0.000000 -0.006107 0.000000
# 4 0.000000 0.000000 0.000000 -0.067070 0.000000 -0.300341
# 5 0.001905 0.000487 -0.006107 0.000000 0.029901 0.000000
# 6 0.000000 0.000000 0.000000 -0.300341 0.000000 -0.378817
#
#
# Mechanical properties :
#
#
# Convention : Reuss Voigt Hill
#
# Bulk Modulus (GPa) = 47.69719 63.18184 55.43952
# Shear Modulus (GPa) = -15.96715 18.39369 1.21327
#
# Velocity S-wave (km/s) = -2.96423 3.18150 0.81710
# Velocity P-wave (km/s) = 3.81209 6.94727 5.60342
#
# Compressibility (1/GPa) = 0.02096559
#
# Stress axis : x y z
#
# Youngs Moduli (GPa) = 90.75058 39.42143 45.40414
#
# Poissons Ratio (x) = 0.11316 0.35640
# Poissons Ratio (y) = 0.26050 0.36335
# Poissons Ratio (z) = 0.71235 0.31547
#
# Static dielectric constant tensor:
#      x y z
#    x 3.672990 0.000000 0.088630 
#    y 0.000000 2.884580 0.000000 
#    z 0.088630 0.000000 3.258040 
# 
# 
# High freq. dielectric constant tensor:
#      x y z
#    x 1.717500 0.000000 0.008980 
#    y 0.000000 1.657550 0.000000 
#    z 0.008980 0.000000 1.689260 
# 
# From -- ./inp_files/27216.got.cif
#   From: 2010.06.25/outbox.cif.g09.slc.cpg/sg10_14_cif.got.tgz:27216.got - 2010.06.27 22:07:45.
