data_PCOD8058136
_publ_section_title
;
Structure prediction by ZEFSAII (Michael W. Deem and Ramdas Pophale) SiO2 
 PCOD8058136
Probable space group: P 2/M
;
_chemical_formula_sum "Si O2"
_cell_formula_units_Z 32
_cell_length_a 12.389644
_cell_length_b 9.019344
_cell_length_c 23.906827
_cell_angle_alpha 90.000000
_cell_angle_beta 134.654601
_cell_angle_gamma 90.000000
_cell_volume 1900.391501
_symmetry_space_group_name_H-M "P 2/M"
_symmetry_group_IT_number 10
_symmetry_cell_setting 'monoclinic'
loop_
_space_group_symop_operation_xyz
x,y,z
-x,y,-z
-x,-y,-z
x,-y,z
loop_
_atom_site_type_symbol
_atom_site_label
_atom_site_fract_x
_atom_site_fract_y
_atom_site_fract_z
Si Si1 0.304388 0.324555 0.576277
Si Si2 0.557911 0.325418 0.580493
Si Si3 0.945027 0.826653 0.584736
Si Si4 0.595959 0.324561 0.164320
Si Si5 0.815675 0.828300 0.158440
Si Si6 0.293735 0.825835 0.688847
Si Si7 0.138627 0.171159 0.321341
Si Si8 0.360431 0.336438 0.991346
O O1 0.293354 0.500000 0.579380
O O2 0.439725 0.275928 0.584567
O O3 0.145799 0.265446 0.494489
O O4 0.340306 0.249346 0.648057
O O5 0.500000 0.262124 0.500000
O O6 0.575254 0.500000 0.583988
O O7 0.721895 0.259276 0.654511
O O8 0.896533 0.773116 0.628670
O O9 0.120731 0.789346 0.640864
O O10 0.913229 0.000000 0.563759
O O11 0.618234 0.500000 0.179166
O O12 0.731703 0.264924 0.175302
O O13 0.598413 0.244377 0.224777
O O14 0.431203 0.287413 0.076802
O O15 0.994603 0.800343 0.229187
O O16 0.774726 0.000000 0.152708
O O17 0.765323 0.777726 0.077703
O O18 0.323819 0.000000 0.696258
O O19 0.182486 0.000000 0.339022
O O20 0.286221 0.500000 0.968699
O O21 0.500000 0.341960 0.000000
#
# Coordination Sequence:
#
# PCOD8058136 Si02
#       8
#     4   4   4   4   4   4   4   4
#     4  11  23  37  52  73  99 129 172 215 253 298
#     4  10  21  37  53  72  97 127 168 215 255 296
#     4  10  20  35  51  71 101 134 167 207 250 296
#     4  10  19  31  48  71 102 136 169 203 245 296
#     4  10  18  30  47  73 104 133 167 206 247 296
#     4  11  22  36  52  73 103 135 171 207 248 301
#     4  10  20  33  51  75 101 131 169 208 249 296
#     4   8  16  29  44  68 100 134 167 200 241 295
#
# _framework density 16.838636000000001
#
# number of rings (size 3 to 8) (size 9 to 14) (size 15 to 20)
#    0.000    2.000    2.500    2.625    0.000    7.500 
#    0.000    0.000    0.000    0.000    0.000    0.875 
#    0.000    7.000    0.000    0.000    0.000    0.000 
#
# Total GULP energy -396837.666979 kJ/mol
# GULP energy per Si atom -12401.177093 kJ/mol
# Density = 1.680031 g / cm^3
# Si number density = 16.838636 Si / 1000 Ang^3
#
#
#
# Elastic Constant Matrix: (Units=GPa)
#
#
# Indices 1 2 3 4 5 6 
#
# 1 62.2149 34.6070 43.5284 0.0000 -8.0483 0.0000
# 2 34.6070 66.6844 53.0018 0.0000 -6.1694 0.0000
# 3 43.5284 53.0018 136.3251 0.0000 -12.3515 0.0000
# 4 0.0000 0.0000 0.0000 33.0083 0.0000 -1.6846
# 5 -8.0483 -6.1694 -12.3515 0.0000 19.4574 0.0000
# 6 0.0000 0.0000 0.0000 -1.6846 0.0000 22.6611
#
#
#
# Elastic Compliance Matrix: (Units=1/GPa)
#
#
# Indices 1 2 3 4 5 6 
#
# 1 0.024492 -0.009257 -0.003787 0.000000 0.004792 0.000000
# 2 -0.009257 0.025250 -0.006878 0.000000 -0.000189 0.000000
# 3 -0.003787 -0.006878 0.011543 0.000000 0.003580 0.000000
# 4 0.000000 0.000000 0.000000 0.030411 0.000000 0.002261
# 5 0.004792 -0.000189 0.003580 0.000000 0.055589 0.000000
# 6 0.000000 0.000000 0.000000 0.002261 0.000000 0.044297
#
#
# Mechanical properties :
#
#
# Convention : Reuss Voigt Hill
#
# Bulk Modulus (GPa) = 46.64190 58.61099 52.62645
# Shear Modulus (GPa) = 20.95799 23.96451 22.46125
#
# Velocity S-wave (km/s) = 3.53177 3.77661 3.65624
# Velocity P-wave (km/s) = 6.66263 7.34166 7.01037
#
# Compressibility (1/GPa) = 0.02143995
#
# Stress axis : x y z
#
# Youngs Moduli (GPa) = 40.82944 39.60471 86.63182
#
# Poissons Ratio (x) = 0.36663 0.32808
# Poissons Ratio (y) = 0.37797 0.59586
# Poissons Ratio (z) = 0.15462 0.27240
#
# Static dielectric constant tensor:
#      x y z
#    x 2.884650 0.000000 -0.051230 
#    y 0.000000 3.195840 0.000000 
#    z -0.051230 0.000000 3.496420 
# 
# 
# High freq. dielectric constant tensor:
#      x y z
#    x 1.609220 0.000000 -0.000250 
#    y 0.000000 1.657090 0.000000 
#    z -0.000250 0.000000 1.657440 
# 
# From -- ./inp_files/54794.got.cif
#   From: 2010.06.25/outbox.cif.g09.slc.cpg/sg10_28_cif.got.tgz:54794.got - 2010.06.27 22:07:45.
