data_PCOD8058701
_publ_section_title
;
Structure prediction by ZEFSAII (Michael W. Deem and Ramdas Pophale) SiO2 
 PCOD8058701
Probable space group: P 2/M
;
_chemical_formula_sum "Si O2"
_cell_formula_units_Z 28
_cell_length_a 9.433141
_cell_length_b 17.267694
_cell_length_c 16.307253
_cell_angle_alpha 90.000000
_cell_angle_beta 30.712226
_cell_angle_gamma 90.000000
_cell_volume 1356.624868
_symmetry_space_group_name_H-M "P 2/M"
_symmetry_group_IT_number 10
_symmetry_cell_setting 'monoclinic'
loop_
_space_group_symop_operation_xyz
x,y,z
-x,y,-z
-x,-y,-z
x,-y,z
loop_
_atom_site_type_symbol
_atom_site_label
_atom_site_fract_x
_atom_site_fract_y
_atom_site_fract_z
Si Si1 0.533631 0.698582 0.159886
Si Si2 0.814335 0.126794 0.839357
Si Si3 0.482260 0.756514 0.656059
Si Si4 0.339400 0.085763 0.663673
Si Si5 0.749826 0.413475 0.811719
Si Si6 0.941734 0.814912 0.619850
Si Si7 0.989992 0.707560 0.801686
O O1 0.596576 0.705120 0.225392
O O2 0.348861 0.623749 0.225774
O O3 0.358935 0.775027 0.224205
O O4 0.825394 0.692808 0.968277
O O5 0.835695 0.219813 0.837241
O O6 0.007869 0.084621 0.809340
O O7 0.932719 0.112745 0.687674
O O8 0.500000 0.096021 0.000000
O O9 0.404776 0.849237 0.700209
O O10 0.814311 0.753062 0.476806
O O11 0.311746 0.722683 0.663902
O O12 0.500000 0.107298 0.500000
O O13 0.420484 0.000000 0.655574
O O14 0.860401 0.500000 0.738911
O O15 0.987750 0.363325 0.738492
O O16 0.500000 0.414050 0.000000
O O17 0.000000 0.846859 0.500000
#
# Coordination Sequence:
#
# PCOD8058701 Si02
#       7
#     4   4   4   4   4   4   4
#     4  10  18  34  54  82 109 144 186 228 271 324
#     4  11  18  33  57  83 106 142 192 237 267 326
#     4  10  21  33  56  80 109 144 185 228 276 332
#     4  10  21  36  55  80 113 149 183 230 289 339
#     4   9  17  31  54  83 115 146 181 225 275 329
#     4  10  19  32  52  83 108 140 186 228 277 327
#     4  10  18  31  55  86 107 138 187 233 272 314
#
# _framework density 20.639457
#
# number of rings (size 3 to 8) (size 9 to 14) (size 15 to 20)
#    0.000    2.000    4.286    0.857    0.000    0.286 
#    0.000    0.714    0.000   23.571    0.000    0.000 
#    0.000    0.000    0.000    0.000    0.000    0.286 
#
# Total GULP energy -346922.759843 kJ/mol
# GULP energy per Si atom -12390.098566 kJ/mol
# Density = 2.059248 g / cm^3
# Si number density = 20.639457 Si / 1000 Ang^3
#
#
#
# Elastic Constant Matrix: (Units=GPa)
#
#
# Indices 1 2 3 4 5 6 
#
# 1 104.2137 34.6140 23.8662 0.0000 -6.3496 0.0000
# 2 34.6140 107.1831 2.5606 0.0000 15.8474 0.0000
# 3 23.8662 2.5606 65.7453 0.0000 -0.9444 0.0000
# 4 0.0000 0.0000 0.0000 10.6166 0.0000 2.0798
# 5 -6.3496 15.8474 -0.9444 0.0000 31.4409 0.0000
# 6 0.0000 0.0000 0.0000 2.0798 0.0000 22.4422
#
#
#
# Elastic Compliance Matrix: (Units=1/GPa)
#
#
# Indices 1 2 3 4 5 6 
#
# 1 0.012378 -0.004589 -0.004247 0.000000 0.004685 0.000000
# 2 -0.004589 0.011796 0.001108 0.000000 -0.006839 0.000000
# 3 -0.004247 0.001108 0.016696 0.000000 -0.000915 0.000000
# 4 0.000000 0.000000 0.000000 0.095933 0.000000 -0.008891
# 5 0.004685 -0.006839 -0.000915 0.000000 0.036172 0.000000
# 6 0.000000 0.000000 0.000000 -0.008891 0.000000 0.045383
#
#
# Mechanical properties :
#
#
# Convention : Reuss Voigt Hill
#
# Bulk Modulus (GPa) = 39.34784 44.35818 41.85301
# Shear Modulus (GPa) = 20.63685 27.30670 23.97177
#
# Velocity S-wave (km/s) = 3.16551 3.64130 3.41171
# Velocity P-wave (km/s) = 5.69793 6.26237 5.98681
#
# Compressibility (1/GPa) = 0.02541435
#
# Stress axis : x y z
#
# Youngs Moduli (GPa) = 80.78936 84.77144 59.89558
#
# Poissons Ratio (x) = 0.38898 0.25439
# Poissons Ratio (y) = 0.37071 -0.06637
# Poissons Ratio (z) = 0.34313 -0.09393
#
# Static dielectric constant tensor:
#      x y z
#    x 3.869770 0.000000 0.010720 
#    y 0.000000 3.535110 0.000000 
#    z 0.010720 0.000000 3.681460 
# 
# 
# High freq. dielectric constant tensor:
#      x y z
#    x 1.815810 0.000000 -0.009790 
#    y 0.000000 1.760770 0.000000 
#    z -0.009790 0.000000 1.795350 
# 
# From -- ./inp_files/62332.got.cif
#   From: 2010.06.25/outbox.cif.g09.slc.cpg/sg10_32_cif.got.tgz:62332.got - 2010.06.27 22:07:45.
