data_PCOD8058049
_publ_section_title
;
Structure prediction by ZEFSAII (Michael W. Deem and Ramdas Pophale) SiO2 
 PCOD8058049
Probable space group: P 2/M
;
_chemical_formula_sum "Si O2"
_cell_formula_units_Z 32
_cell_length_a 12.201625
_cell_length_b 8.830355
_cell_length_c 20.127700
_cell_angle_alpha 90.000000
_cell_angle_beta 56.635458
_cell_angle_gamma 90.000000
_cell_volume 1811.233439
_symmetry_space_group_name_H-M "P 2/M"
_symmetry_group_IT_number 10
_symmetry_cell_setting 'monoclinic'
loop_
_space_group_symop_operation_xyz
x,y,z
-x,y,-z
-x,-y,-z
x,-y,z
loop_
_atom_site_type_symbol
_atom_site_label
_atom_site_fract_x
_atom_site_fract_y
_atom_site_fract_z
Si Si1 0.196106 0.824001 0.392640
Si Si2 0.311679 0.320372 0.869285
Si Si3 0.895980 0.322196 0.164318
Si Si4 0.911124 0.175156 0.432995
Si Si5 0.954995 0.677063 0.289016
Si Si6 0.769948 0.820793 0.830164
Si Si7 0.189848 0.679963 0.046867
Si Si8 0.391067 0.321685 0.230592
O O1 0.189190 0.788011 0.473692
O O2 0.309159 0.722260 0.323210
O O3 0.057762 0.781191 0.405998
O O4 0.227521 0.000000 0.369700
O O5 0.300246 0.500000 0.872554
O O6 0.218349 0.248835 0.842876
O O7 0.459854 0.268932 0.806234
O O8 0.263611 0.260613 0.956897
O O9 0.891634 0.500000 0.155002
O O10 0.873681 0.281184 0.249464
O O11 0.038875 0.263797 0.093529
O O12 0.871661 0.273210 0.381408
O O13 0.902761 0.000000 0.416745
O O14 0.987293 0.500000 0.280044
O O15 0.091553 0.765933 0.244806
O O16 0.740284 0.753936 0.912752
O O17 0.657114 0.764837 0.818536
O O18 0.769170 0.000000 0.833463
O O19 0.197293 0.500000 0.052751
O O20 0.380434 0.500000 0.221600
#
# Coordination Sequence:
#
# PCOD8058049 Si02
#       8
#     4   4   4   4   4   4   4   4
#     4   9  18  32  49  71 100 135 164 194 239 292
#     4   9  18  32  51  74  99 129 163 204 252 292
#     4   8  15  29  51  77 100 124 159 204 250 292
#     4   9  17  30  50  74 101 131 162 195 242 293
#     4  10  18  29  51  80 103 124 160 205 245 289
#     4  11  21  33  48  68 101 137 163 196 248 297
#     4   9  17  32  55  77  95 121 165 213 248 287
#     4  11  21  32  49  73 101 131 166 203 239 290
#
# _framework density 17.667518000000001
#
# number of rings (size 3 to 8) (size 9 to 14) (size 15 to 20)
#    0.000    2.500    1.250    3.750    0.000    2.500 
#    0.000    5.000    0.000   15.000    0.000    5.250 
#    0.000    0.000    0.000    0.000    0.000    0.000 
#
# Total GULP energy -396731.192679 kJ/mol
# GULP energy per Si atom -12397.849771 kJ/mol
# Density = 1.762731 g / cm^3
# Si number density = 17.667518 Si / 1000 Ang^3
#
#
#
# Elastic Constant Matrix: (Units=GPa)
#
#
# Indices 1 2 3 4 5 6 
#
# 1 97.9682 35.4679 70.9083 0.0000 5.7276 0.0000
# 2 35.4679 60.4568 35.4863 0.0000 5.3956 0.0000
# 3 70.9083 35.4863 125.8197 0.0000 16.9569 0.0000
# 4 0.0000 0.0000 0.0000 22.1686 0.0000 4.3909
# 5 5.7276 5.3956 16.9569 0.0000 24.5034 0.0000
# 6 0.0000 0.0000 0.0000 4.3909 0.0000 5.1180
#
#
#
# Elastic Compliance Matrix: (Units=1/GPa)
#
#
# Indices 1 2 3 4 5 6 
#
# 1 0.019034 -0.005878 -0.009533 0.000000 0.003442 0.000000
# 2 -0.005878 0.021644 -0.002575 0.000000 -0.001610 0.000000
# 3 -0.009533 -0.002575 0.015076 0.000000 -0.007638 0.000000
# 4 0.000000 0.000000 0.000000 0.054343 0.000000 -0.046622
# 5 0.003442 -0.001610 -0.007638 0.000000 0.045646 0.000000
# 6 0.000000 0.000000 0.000000 -0.046622 0.000000 0.235386
#
#
# Mechanical properties :
#
#
# Convention : Reuss Voigt Hill
#
# Bulk Modulus (GPa) = 50.55050 63.10776 56.82913
# Shear Modulus (GPa) = 11.52881 19.85016 15.68948
#
# Velocity S-wave (km/s) = 2.55726 3.35556 2.98323
# Velocity P-wave (km/s) = 6.11504 7.12813 6.64093
#
# Compressibility (1/GPa) = 0.01978220
#
# Stress axis : x y z
#
# Youngs Moduli (GPa) = 52.53673 46.20150 66.33051
#
# Poissons Ratio (x) = 0.27159 0.63234
# Poissons Ratio (y) = 0.30883 0.17078
# Poissons Ratio (z) = 0.50084 0.11896
#
# Static dielectric constant tensor:
#      x y z
#    x 3.345520 0.000000 0.212030 
#    y 0.000000 3.018920 0.000000 
#    z 0.212030 0.000000 3.394930 
# 
# 
# High freq. dielectric constant tensor:
#      x y z
#    x 1.665080 0.000000 0.022720 
#    y 0.000000 1.660890 0.000000 
#    z 0.022720 0.000000 1.684720 
# 
# From -- ./inp_files/83545.got.cif
#   From: 2010.06.25/outbox.cif.g09.slc.cpg/sg10_42_cif.got.tgz:83545.got - 2010.06.27 22:07:45.
