data_PCOD8058737
_publ_section_title
;
Structure prediction by ZEFSAII (Michael W. Deem and Ramdas Pophale) SiO2 
 PCOD8058737
Probable space group: P 2/M
;
_chemical_formula_sum "Si O2"
_cell_formula_units_Z 24
_cell_length_a 19.076216
_cell_length_b 11.742305
_cell_length_c 13.354454
_cell_angle_alpha 90.000000
_cell_angle_beta 27.084978
_cell_angle_gamma 90.000000
_cell_volume 1362.010128
_symmetry_space_group_name_H-M "P 2/M"
_symmetry_group_IT_number 10
_symmetry_cell_setting 'monoclinic'
loop_
_space_group_symop_operation_xyz
x,y,z
-x,y,-z
-x,-y,-z
x,-y,z
loop_
_atom_site_type_symbol
_atom_site_label
_atom_site_fract_x
_atom_site_fract_y
_atom_site_fract_z
Si Si1 0.081793 0.500000 0.246530
Si Si2 0.225301 0.284978 0.972357
Si Si3 0.535513 0.366762 0.664286
Si Si4 0.761352 0.500000 0.739214
Si Si5 0.152233 0.865498 0.245807
Si Si6 0.162392 0.632137 0.843970
Si Si7 0.414759 0.274420 0.014028
O O1 0.174369 0.500000 0.231173
O O2 0.899254 0.500000 0.486111
O O3 0.122793 0.389513 0.134528
O O4 0.406707 0.306816 0.758717
O O5 0.193471 0.277145 0.893916
O O6 0.161101 0.178861 0.119418
O O7 0.493254 0.500000 0.726492
O O8 0.704239 0.346838 0.406356
O O9 0.533832 0.309099 0.775429
O O10 0.664084 0.387669 0.843203
O O11 0.294321 0.816571 0.126745
O O12 0.000000 0.825327 0.500000
O O13 0.163061 0.000000 0.227552
O O14 0.167403 0.500000 0.874516
O O15 0.000000 0.661299 0.000000
O O16 0.500000 0.216749 0.000000
#
# Coordination Sequence:
#
# PCOD8058737 Si02
#       7
#     2   4   4   2   4   4   4
#     4  11  18  28  53  79 106 142 177 219 256 320
#     4  11  18  34  54  76 103 141 180 216 262 316
#     4  10  18  32  50  73 109 144 178 208 253 319
#     4  11  19  30  47  82 115 139 171 213 268 322
#     4  10  22  39  58  79 104 140 187 228 265 314
#     4  10  21  33  48  78 112 143 173 212 264 322
#     4  11  21  34  53  82 113 145 174 217 272 322
#
# _framework density 17.621015
#
# number of rings (size 3 to 8) (size 9 to 14) (size 15 to 20)
#    0.000    1.500    5.833    1.750    0.000    4.333 
#    0.000    0.000    0.000    8.500    0.000    0.000 
#    0.000    0.000    0.000    0.000    0.000    0.000 
#
# Total GULP energy -297538.226569 kJ/mol
# GULP energy per Si atom -12397.426107 kJ/mol
# Density = 1.758091 g / cm^3
# Si number density = 17.621015 Si / 1000 Ang^3
#
#
#
# Elastic Constant Matrix: (Units=GPa)
#
#
# Indices 1 2 3 4 5 6 
#
# 1 118.8853 25.0326 54.0657 0.0000 1.3061 0.0000
# 2 25.0326 61.2932 34.8489 0.0000 1.6862 0.0000
# 3 54.0657 34.8489 131.0363 0.0000 -8.6314 0.0000
# 4 0.0000 0.0000 0.0000 26.6656 0.0000 14.6439
# 5 1.3061 1.6862 -8.6314 0.0000 11.1316 0.0000
# 6 0.0000 0.0000 0.0000 14.6439 0.0000 116.2710
#
#
#
# Elastic Compliance Matrix: (Units=1/GPa)
#
#
# Indices 1 2 3 4 5 6 
#
# 1 0.010776 -0.001881 -0.004226 0.000000 -0.004257 0.000000
# 2 -0.001881 0.020121 -0.005017 0.000000 -0.006718 0.000000
# 3 -0.004226 -0.005017 0.011373 0.000000 0.010075 0.000000
# 4 0.000000 0.000000 0.000000 0.040288 0.000000 -0.005074
# 5 -0.004257 -0.006718 0.010075 0.000000 0.099163 0.000000
# 6 0.000000 0.000000 0.000000 -0.005074 0.000000 0.009240
#
#
# Mechanical properties :
#
#
# Convention : Reuss Voigt Hill
#
# Bulk Modulus (GPa) = 49.94870 59.90104 54.92487
# Shear Modulus (GPa) = 22.73915 43.96483 33.35199
#
# Velocity S-wave (km/s) = 3.59619 5.00044 4.35528
# Velocity P-wave (km/s) = 6.75656 8.21018 7.51858
#
# Compressibility (1/GPa) = 0.02002054
#
# Stress axis : x y z
#
# Youngs Moduli (GPa) = 92.79541 49.69979 87.92484
#
# Poissons Ratio (x) = 0.09349 0.37161
# Poissons Ratio (y) = 0.17455 0.44116
# Poissons Ratio (z) = 0.39220 0.24937
#
# Static dielectric constant tensor:
#      x y z
#    x 3.496420 0.000000 0.111240 
#    y 0.000000 1.108960 0.000000 
#    z 0.111240 0.000000 3.508410 
# 
# 
# High freq. dielectric constant tensor:
#      x y z
#    x 1.678480 0.000000 0.001740 
#    y 0.000000 1.639930 0.000000 
#    z 0.001740 0.000000 1.699130 
# 
# From -- ./inp_files/37544.got.cif
#   From: 2010.06.25/outbox.cif.g09.slc.cpg/sg10_19_cif.got.tgz:37544.got - 2010.06.27 22:07:45.
