data_PCOD8058359
_publ_section_title
;
Structure prediction by ZEFSAII (Michael W. Deem and Ramdas Pophale) SiO2 
 PCOD8058359
Probable space group: P 2/M
;
_chemical_formula_sum "Si O2"
_cell_formula_units_Z 24
_cell_length_a 26.991878
_cell_length_b 8.547310
_cell_length_c 11.901971
_cell_angle_alpha 90.000000
_cell_angle_beta 28.155623
_cell_angle_gamma 90.000000
_cell_volume 1295.692668
_symmetry_space_group_name_H-M "P 2/M"
_symmetry_group_IT_number 10
_symmetry_cell_setting 'monoclinic'
loop_
_space_group_symop_operation_xyz
x,y,z
-x,y,-z
-x,-y,-z
x,-y,z
loop_
_atom_site_type_symbol
_atom_site_label
_atom_site_fract_x
_atom_site_fract_y
_atom_site_fract_z
Si Si1 0.107800 0.183921 0.159237
Si Si2 0.117881 0.314497 0.379810
Si Si3 0.690832 0.313928 0.854460
Si Si4 0.707531 0.314459 0.347474
Si Si5 0.506067 0.686137 0.613396
Si Si6 0.381297 0.314026 0.239363
O O1 0.149440 0.247572 0.195072
O O2 0.995591 0.257778 0.353458
O O3 0.094479 0.000000 0.193930
O O4 0.186533 0.230258 0.902755
O O5 0.118990 0.500000 0.367709
O O6 0.201926 0.253231 0.303237
O O7 0.687458 0.500000 0.864228
O O8 0.682242 0.254361 0.743135
O O9 0.591816 0.246084 0.121013
O O10 0.723382 0.500000 0.310047
O O11 0.613864 0.257805 0.454058
O O12 0.680962 0.256265 0.526308
O O13 0.500000 0.754444 0.500000
O O14 0.501135 0.500000 0.622330
O O15 0.388653 0.500000 0.226423
O O16 0.500000 0.246316 0.000000
#
# Coordination Sequence:
#
# PCOD8058359 Si02
#       6
#     4   4   4   4   4   4
#     4  11  22  36  53  73 104 139 174 214 261 308
#     4  10  19  34  57  80 103 131 171 215 261 311
#     4   9  16  27  47  79 110 132 162 211 264 308
#     4  10  18  30  52  78 105 137 173 210 252 305
#     4   9  15  23  41  74 108 131 158 203 256 304
#     4   9  15  27  48  79 111 136 166 210 260 303
#
# _framework density 18.52291
#
# number of rings (size 3 to 8) (size 9 to 14) (size 15 to 20)
#    0.000    2.333    1.667    4.000    0.000    2.667 
#    0.000    0.833    0.000   13.000    0.000    0.000 
#    0.000    0.000    0.000    0.000    0.000    0.000 
#
# Total GULP energy -297578.669997 kJ/mol
# GULP energy per Si atom -12399.111250 kJ/mol
# Density = 1.848075 g / cm^3
# Si number density = 18.522910 Si / 1000 Ang^3
#
#
#
# Elastic Constant Matrix: (Units=GPa)
#
#
# Indices 1 2 3 4 5 6 
#
# 1 151.1420 22.9913 86.6674 0.0000 7.8261 0.0000
# 2 22.9913 56.6445 33.0314 0.0000 -3.0009 0.0000
# 3 86.6674 33.0314 161.4922 0.0000 9.8525 0.0000
# 4 0.0000 0.0000 0.0000 0.9017 0.0000 3.1732
# 5 7.8261 -3.0009 9.8525 0.0000 33.5271 0.0000
# 6 0.0000 0.0000 0.0000 3.1732 0.0000 0.9274
#
#
#
# Elastic Compliance Matrix: (Units=1/GPa)
#
#
# Indices 1 2 3 4 5 6 
#
# 1 0.009635 -0.001108 -0.004889 0.000000 -0.000912 0.000000
# 2 -0.001108 0.020484 -0.003791 0.000000 0.003206 0.000000
# 3 -0.004889 -0.003791 0.009716 0.000000 -0.002053 0.000000
# 4 0.000000 0.000000 0.000000 -0.100449 0.000000 0.343686
# 5 -0.000912 0.003206 -0.002053 0.000000 0.030930 0.000000
# 6 0.000000 0.000000 0.000000 0.343686 0.000000 -0.097665
#
#
# Mechanical properties :
#
#
# Convention : Reuss Voigt Hill
#
# Bulk Modulus (GPa) = 49.35671 72.73988 61.04829
# Shear Modulus (GPa) = -49.49501 22.17716 -13.65892
#
# Velocity S-wave (km/s) = -5.17484 3.46393 -2.71847
# Velocity P-wave (km/s) = 3.00019 7.44002 4.81418
#
# Compressibility (1/GPa) = 0.02026067
#
# Stress axis : x y z
#
# Youngs Moduli (GPa) = 103.78470 48.81830 102.91884
#
# Poissons Ratio (x) = 0.05411 0.50313
# Poissons Ratio (y) = 0.11504 0.39012
# Poissons Ratio (z) = 0.50736 0.18505
#
# Static dielectric constant tensor:
#      x y z
#    x 3.696070 0.000000 0.025150 
#    y 0.000000 2.890420 0.000000 
#    z 0.025150 0.000000 3.496200 
# 
# 
# High freq. dielectric constant tensor:
#      x y z
#    x 1.723190 0.000000 0.000910 
#    y 0.000000 1.669570 0.000000 
#    z 0.000910 0.000000 1.723470 
# 
# From -- ./inp_files/57221.got.cif
#   From: 2010.06.25/outbox.cif.g09.slc.cpg/sg10_29_cif.got.tgz:57221.got - 2010.06.27 22:07:45.
