data_PCOD8058854
_publ_section_title
;
Structure prediction by ZEFSAII (Michael W. Deem and Ramdas Pophale) SiO2 
 PCOD8058854
Probable space group: P 2/M
;
_chemical_formula_sum "Si O2"
_cell_formula_units_Z 30
_cell_length_a 23.500658
_cell_length_b 9.396848
_cell_length_c 11.339413
_cell_angle_alpha 90.000000
_cell_angle_beta 40.207730
_cell_angle_gamma 90.000000
_cell_volume 1616.552824
_symmetry_space_group_name_H-M "P 2/M"
_symmetry_group_IT_number 10
_symmetry_cell_setting 'monoclinic'
loop_
_space_group_symop_operation_xyz
x,y,z
-x,y,-z
-x,-y,-z
x,-y,z
loop_
_atom_site_type_symbol
_atom_site_label
_atom_site_fract_x
_atom_site_fract_y
_atom_site_fract_z
Si Si1 0.860949 0.343773 0.036583
Si Si2 0.000000 0.737477 0.000000
Si Si3 0.617693 0.663920 0.924698
Si Si4 0.849051 0.160759 0.387870
Si Si5 0.908413 0.665239 0.701388
Si Si6 0.216563 0.829884 0.263369
Si Si7 0.726267 0.169241 0.377216
Si Si8 0.419552 0.337059 0.285221
O O1 0.817662 0.500000 0.095223
O O2 0.782057 0.230260 0.178700
O O3 0.930852 0.352953 0.033606
O O4 0.912461 0.306369 0.834946
O O5 0.947433 0.831358 0.179358
O O6 0.648499 0.500000 0.889138
O O7 0.684441 0.770592 0.883289
O O8 0.609510 0.705448 0.800598
O O9 0.523635 0.685774 0.136535
O O10 0.838624 0.227088 0.534613
O O11 0.778763 0.227551 0.408824
O O12 0.820108 0.000000 0.448407
O O13 0.891278 0.500000 0.698203
O O14 0.829225 0.760443 0.776930
O O15 0.000000 0.717549 0.500000
O O16 0.218367 0.000000 0.246191
O O17 0.629024 0.236316 0.542126
O O18 0.720917 0.000000 0.372969
O O19 0.393990 0.500000 0.351303
#
# Coordination Sequence:
#
# PCOD8058854 Si02
#       8
#     4   2   4   4   4   4   4   4
#     4  10  21  36  54  78 105 135 178 225 273 324
#     4  10  18  32  54  76 101 134 175 220 269 318
#     4   9  18  32  52  80 112 147 181 219 267 320
#     4   9  18  30  45  72 106 139 172 212 264 317
#     4  10  22  40  58  77 105 143 186 231 274 319
#     4  11  21  34  53  79 110 144 185 225 267 321
#     4  10  19  32  51  76 110 144 175 213 266 324
#     4   9  17  31  52  80 113 145 181 219 264 321
#
# _framework density 18.558008000000001
#
# number of rings (size 3 to 8) (size 9 to 14) (size 15 to 20)
#    0.000    2.267    1.333    2.800    0.000    1.867 
#    0.000    2.667    0.000    0.800    0.000    5.600 
#    0.000    0.000    0.000    0.000    0.000    0.000 
#
# Total GULP energy -371859.349569 kJ/mol
# GULP energy per Si atom -12395.311652 kJ/mol
# Density = 1.851577 g / cm^3
# Si number density = 18.558008 Si / 1000 Ang^3
#
#
#
# Elastic Constant Matrix: (Units=GPa)
#
#
# Indices 1 2 3 4 5 6 
#
# 1 76.5394 39.5424 34.1050 0.0000 -4.1024 0.0000
# 2 39.5424 92.8099 54.4992 0.0000 -6.3431 0.0000
# 3 34.1050 54.4992 126.3050 0.0000 -4.8669 0.0000
# 4 0.0000 0.0000 0.0000 29.7865 0.0000 -2.9780
# 5 -4.1024 -6.3431 -4.8669 0.0000 27.2342 0.0000
# 6 0.0000 0.0000 0.0000 -2.9780 0.0000 21.4624
#
#
#
# Elastic Compliance Matrix: (Units=1/GPa)
#
#
# Indices 1 2 3 4 5 6 
#
# 1 0.017130 -0.006088 -0.001968 0.000000 0.000811 0.000000
# 2 -0.006088 0.016735 -0.005500 0.000000 0.001998 0.000000
# 3 -0.001968 -0.005500 0.010836 0.000000 0.000359 0.000000
# 4 0.000000 0.000000 0.000000 0.034045 0.000000 0.004724
# 5 0.000811 0.001998 0.000359 0.000000 0.037370 0.000000
# 6 0.000000 0.000000 0.000000 0.004724 0.000000 0.047248
#
#
# Mechanical properties :
#
#
# Convention : Reuss Voigt Hill
#
# Bulk Modulus (GPa) = 56.85008 61.32751 59.08880
# Shear Modulus (GPa) = 25.46630 26.86381 26.16505
#
# Velocity S-wave (km/s) = 3.70841 3.80881 3.75895
# Velocity P-wave (km/s) = 7.00262 7.24298 7.12381
#
# Compressibility (1/GPa) = 0.01759012
#
# Stress axis : x y z
#
# Youngs Moduli (GPa) = 58.37559 59.75615 92.28800
#
# Poissons Ratio (x) = 0.36378 0.18158
# Poissons Ratio (y) = 0.35538 0.50759
# Poissons Ratio (z) = 0.11486 0.32866
#
# Static dielectric constant tensor:
#      x y z
#    x 3.151320 0.000000 0.024400 
#    y 0.000000 3.228020 0.000000 
#    z 0.024400 0.000000 3.507280 
# 
# 
# High freq. dielectric constant tensor:
#      x y z
#    x 1.687830 0.000000 -0.005520 
#    y 0.000000 1.713050 0.000000 
#    z -0.005520 0.000000 1.725630 
# 
# From -- ./inp_files/56628.got.cif
#   From: 2010.06.25/outbox.cif.g09.slc.cpg/sg10_29_cif.got.tgz:56628.got - 2010.06.27 22:07:45.
