data_PCOD8058047
_publ_section_title
;
Structure prediction by ZEFSAII (Michael W. Deem and Ramdas Pophale) SiO2 
 PCOD8058047
Probable space group: P 2/M
;
_chemical_formula_sum "Si O2"
_cell_formula_units_Z 32
_cell_length_a 19.137248
_cell_length_b 8.888970
_cell_length_c 27.220894
_cell_angle_alpha 90.000000
_cell_angle_beta 155.809129
_cell_angle_gamma 90.000000
_cell_volume 1897.499324
_symmetry_space_group_name_H-M "P 2/M"
_symmetry_group_IT_number 10
_symmetry_cell_setting 'monoclinic'
loop_
_space_group_symop_operation_xyz
x,y,z
-x,y,-z
-x,-y,-z
x,-y,z
loop_
_atom_site_type_symbol
_atom_site_label
_atom_site_fract_x
_atom_site_fract_y
_atom_site_fract_z
Si Si1 0.280032 0.323102 0.596007
Si Si2 0.069542 0.175628 0.651589
Si Si3 0.613499 0.822909 0.778065
Si Si4 0.848499 0.322777 0.009809
Si Si5 0.684750 0.178308 0.105610
Si Si6 0.675121 0.827542 0.272388
Si Si7 0.142682 0.665896 0.132985
Si Si8 0.700555 0.174693 0.005341
O O1 0.299725 0.500000 0.603543
O O2 0.424937 0.244773 0.656074
O O3 0.297078 0.279487 0.663767
O O4 0.100729 0.271955 0.459248
O O5 0.175411 0.236781 0.766176
O O6 0.175802 0.204767 0.670447
O O7 0.024677 0.000000 0.628157
O O8 0.708553 0.779233 0.788117
O O9 0.603422 0.000000 0.775870
O O10 0.709952 0.761772 0.887797
O O11 0.817705 0.500000 0.983723
O O12 0.824463 0.272152 0.050364
O O13 0.042658 0.280341 0.118012
O O14 0.739668 0.225603 0.086014
O O15 0.670093 0.000000 0.100717
O O16 0.500000 0.248697 0.000000
O O17 0.680712 0.000000 0.294260
O O18 0.496487 0.790826 0.132068
O O19 0.223239 0.500000 0.192104
O O20 0.000000 0.658340 0.000000
O O21 0.742046 0.000000 0.023731
#
# Coordination Sequence:
#
# PCOD8058047 Si02
#       8
#     4   4   4   4   4   4   4   4
#     4  12  24  35  48  69 102 138 172 206 249 302
#     4  10  20  35  54  73  98 131 172 215 253 295
#     4  11  20  31  49  72  98 129 167 206 248 294
#     4  10  19  31  47  71 104 137 164 196 243 298
#     4   9  16  31  54  77  97 125 167 213 258 295
#     4  10  19  32  51  74  99 131 169 209 251 295
#     4   8  16  30  46  67  99 134 163 192 238 298
#     4  10  18  29  51  78 101 130 169 209 247 294
#
# _framework density 16.864301999999999
#
# number of rings (size 3 to 8) (size 9 to 14) (size 15 to 20)
#    0.000    2.000    2.500    3.750    0.000    4.750 
#    0.000    0.625    0.000    0.750    0.000    0.875 
#    0.000    7.000    0.000    0.000    0.000    0.000 
#
# Total GULP energy -396793.567252 kJ/mol
# GULP energy per Si atom -12399.798977 kJ/mol
# Density = 1.682592 g / cm^3
# Si number density = 16.864302 Si / 1000 Ang^3
#
#
#
# Elastic Constant Matrix: (Units=GPa)
#
#
# Indices 1 2 3 4 5 6 
#
# 1 99.7045 53.0673 53.6305 0.0000 24.8248 0.0000
# 2 53.0673 94.6774 45.3001 0.0000 11.1708 0.0000
# 3 53.6305 45.3001 82.3258 0.0000 8.6859 0.0000
# 4 0.0000 0.0000 0.0000 12.5862 0.0000 9.2906
# 5 24.8248 11.1708 8.6859 0.0000 21.7355 0.0000
# 6 0.0000 0.0000 0.0000 9.2906 0.0000 19.6006
#
#
#
# Elastic Compliance Matrix: (Units=1/GPa)
#
#
# Indices 1 2 3 4 5 6 
#
# 1 0.023521 -0.006132 -0.009862 0.000000 -0.019771 0.000000
# 2 -0.006132 0.016350 -0.005068 0.000000 0.000626 0.000000
# 3 -0.009862 -0.005068 0.020773 0.000000 0.005568 0.000000
# 4 0.000000 0.000000 0.000000 0.122212 0.000000 -0.057928
# 5 -0.019771 0.000626 0.005568 0.000000 0.066043 0.000000
# 6 0.000000 0.000000 0.000000 -0.057928 0.000000 0.078477
#
#
# Mechanical properties :
#
#
# Convention : Reuss Voigt Hill
#
# Bulk Modulus (GPa) = 53.99821 64.52260 59.26041
# Shear Modulus (GPa) = 13.30939 19.09844 16.20392
#
# Velocity S-wave (km/s) = 2.81233 3.36888 3.10311
# Velocity P-wave (km/s) = 6.52950 7.31269 6.93216
#
# Compressibility (1/GPa) = 0.01851913
#
# Stress axis : x y z
#
# Youngs Moduli (GPa) = 42.51501 61.16062 48.13932
#
# Poissons Ratio (x) = 0.37504 0.47477
# Poissons Ratio (y) = 0.26070 0.24398
# Poissons Ratio (z) = 0.41930 0.30998
#
# Static dielectric constant tensor:
#      x y z
#    x 3.441030 0.000000 0.183540 
#    y 0.000000 3.028010 0.000000 
#    z 0.183540 0.000000 3.050660 
# 
# 
# High freq. dielectric constant tensor:
#      x y z
#    x 1.653180 0.000000 0.019640 
#    y 0.000000 1.639500 0.000000 
#    z 0.019640 0.000000 1.621100 
# 
# From -- ./inp_files/95683.got.cif
#   From: 2010.06.25/outbox.cif.g09.slc.cpg/sg10_48_cif.got.tgz:95683.got - 2010.06.27 22:07:45.
