data_PCOD8058206
_publ_section_title
;
Structure prediction by ZEFSAII (Michael W. Deem and Ramdas Pophale) SiO2 
 PCOD8058206
Probable space group: P 2/M
;
_chemical_formula_sum "Si O2"
_cell_formula_units_Z 32
_cell_length_a 21.421218
_cell_length_b 8.840025
_cell_length_c 23.702577
_cell_angle_alpha 90.000000
_cell_angle_beta 156.123408
_cell_angle_gamma 90.000000
_cell_volume 1816.767832
_symmetry_space_group_name_H-M "P 2/M"
_symmetry_group_IT_number 10
_symmetry_cell_setting 'monoclinic'
loop_
_space_group_symop_operation_xyz
x,y,z
-x,y,-z
-x,-y,-z
x,-y,z
loop_
_atom_site_type_symbol
_atom_site_label
_atom_site_fract_x
_atom_site_fract_y
_atom_site_fract_z
Si Si1 0.193864 0.319198 0.821987
Si Si2 0.353898 0.320782 0.250422
Si Si3 0.856077 0.681310 0.344820
Si Si4 0.884836 0.178431 0.021675
Si Si5 0.475546 0.334988 0.913640
Si Si6 0.010373 0.321907 0.778154
Si Si7 0.179131 0.678680 0.219404
Si Si8 0.686593 0.322870 0.553477
O O1 0.206429 0.500000 0.831343
O O2 0.128506 0.263128 0.707434
O O3 0.077916 0.262935 0.774657
O O4 0.367495 0.252215 0.978713
O O5 0.347231 0.500000 0.234847
O O6 0.266206 0.273930 0.235016
O O7 0.527892 0.255321 0.398396
O O8 0.280237 0.235344 0.136649
O O9 0.852790 0.500000 0.344320
O O10 0.692052 0.745013 0.234923
O O11 0.000000 0.745562 0.500000
O O12 0.903327 0.237825 0.100248
O O13 0.012180 0.243989 0.083879
O O14 0.893615 0.000000 0.028988
O O15 0.466075 0.500000 0.876861
O O16 0.500000 0.355348 0.000000
O O17 0.036777 0.500000 0.808305
O O18 0.828110 0.282842 0.628680
O O19 0.151459 0.500000 0.200300
O O20 0.278119 0.738735 0.354563
O O21 0.661198 0.500000 0.537968
#
# Coordination Sequence:
#
# PCOD8058206 Si02
#       8
#     4   4   4   4   4   4   4   4
#     4   8  13  22  38  57  79 113 149 176 208 257
#     4  10  18  30  49  70  91 115 144 181 228 275
#     4   8  12  18  30  53  87 117 137 167 215 262
#     4  11  22  33  45  64  91 119 149 187 228 268
#     4   7  10  17  29  48  76 107 136 165 201 245
#     4   9  17  32  50  65  85 117 158 193 220 259
#     4   9  17  31  51  71  89 113 146 182 223 273
#     4   8  15  28  47  69  90 113 144 184 223 261
#
# _framework density 17.613699
#
# number of rings (size 3 to 8) (size 9 to 14) (size 15 to 20)
#    0.000    3.250    0.000    4.125    0.000    3.500 
#    0.000    3.750    0.000    9.750    0.000    0.000 
#    0.000    5.000    0.000    0.000    0.000    1.625 
#
# Total GULP energy -396453.969167 kJ/mol
# GULP energy per Si atom -12389.186536 kJ/mol
# Density = 1.757361 g / cm^3
# Si number density = 17.613699 Si / 1000 Ang^3
#
#
#
# Elastic Constant Matrix: (Units=GPa)
#
#
# Indices 1 2 3 4 5 6 
#
# 1 106.0187 23.0076 63.6889 0.0000 11.5114 0.0000
# 2 23.0076 27.1266 24.0726 0.0000 -0.4276 0.0000
# 3 63.6889 24.0726 164.3126 0.0000 2.4791 0.0000
# 4 0.0000 0.0000 0.0000 -1.0454 0.0000 -1.2915
# 5 11.5114 -0.4276 2.4791 0.0000 15.6267 0.0000
# 6 0.0000 0.0000 0.0000 -1.2915 0.0000 4.2655
#
#
#
# Elastic Compliance Matrix: (Units=1/GPa)
#
#
# Indices 1 2 3 4 5 6 
#
# 1 0.015240 -0.009193 -0.004398 0.000000 -0.010780 0.000000
# 2 -0.009193 0.047991 -0.003598 0.000000 0.008656 0.000000
# 3 -0.004398 -0.003598 0.008290 0.000000 0.001826 0.000000
# 4 0.000000 0.000000 0.000000 -0.696138 0.000000 -0.210781
# 5 -0.010780 0.008656 0.001826 0.000000 0.071881 0.000000
# 6 0.000000 0.000000 0.000000 -0.210781 0.000000 0.170617
#
#
# Mechanical properties :
#
#
# Convention : Reuss Voigt Hill
#
# Bulk Modulus (GPa) = 26.92294 57.66623 42.29459
# Shear Modulus (GPa) = -14.90930 16.21528 0.65299
#
# Velocity S-wave (km/s) = -2.91256 3.03744 0.60954
# Velocity P-wave (km/s) = 2.00194 6.71654 4.95579
#
# Compressibility (1/GPa) = 0.03714304
#
# Stress axis : x y z
#
# Youngs Moduli (GPa) = 65.61885 20.83730 120.62617
#
# Poissons Ratio (x) = 0.19156 0.53045
# Poissons Ratio (y) = 0.60323 0.43404
# Poissons Ratio (z) = 0.28856 0.07498
#
# Static dielectric constant tensor:
#      x y z
#    x 3.283950 0.000000 0.195190 
#    y 0.000000 2.653950 0.000000 
#    z 0.195190 0.000000 3.702430 
# 
# 
# High freq. dielectric constant tensor:
#      x y z
#    x 1.663670 0.000000 0.010470 
#    y 0.000000 1.616380 0.000000 
#    z 0.010470 0.000000 1.693450 
# 
# From -- ./inp_files/93875.got.cif
#   From: 2010.06.25/outbox.cif.g09.slc.cpg/sg10_47_cif.got.tgz:93875.got - 2010.06.27 22:07:45.
