data_PCOD8058817
_publ_section_title
;
Structure prediction by ZEFSAII (Michael W. Deem and Ramdas Pophale) SiO2 
 PCOD8058817
Probable space group: P 2/M
;
_chemical_formula_sum "Si O2"
_cell_formula_units_Z 32
_cell_length_a 21.945910
_cell_length_b 8.526240
_cell_length_c 28.383039
_cell_angle_alpha 90.000000
_cell_angle_beta 161.111552
_cell_angle_gamma 90.000000
_cell_volume 1719.287515
_symmetry_space_group_name_H-M "P 2/M"
_symmetry_group_IT_number 10
_symmetry_cell_setting 'monoclinic'
loop_
_space_group_symop_operation_xyz
x,y,z
-x,y,-z
-x,-y,-z
x,-y,z
loop_
_atom_site_type_symbol
_atom_site_label
_atom_site_fract_x
_atom_site_fract_y
_atom_site_fract_z
Si Si1 0.206601 0.682894 0.166977
Si Si2 0.918270 0.185317 0.092601
Si Si3 0.392542 0.814496 0.066646
Si Si4 0.564500 0.814208 0.097003
Si Si5 0.655455 0.682786 0.337180
Si Si6 0.371604 0.183979 0.197966
Si Si7 0.973844 0.185257 0.426851
Si Si8 0.695969 0.185188 0.661892
O O1 0.207394 0.500000 0.179203
O O2 0.354503 0.722575 0.234170
O O3 0.272004 0.776141 0.260482
O O4 0.000000 0.741076 0.000000
O O5 0.129799 0.254031 0.242154
O O6 0.928027 0.000000 0.097163
O O7 0.814852 0.236418 0.065770
O O8 0.793378 0.245183 0.957437
O O9 0.416046 0.764507 0.029313
O O10 0.554951 0.731565 0.215216
O O11 0.423467 0.000000 0.096030
O O12 0.771390 0.753135 0.261445
O O13 0.569589 0.000000 0.096735
O O14 0.500000 0.739769 0.000000
O O15 0.629181 0.500000 0.326942
O O16 0.570492 0.776008 0.319530
O O17 0.874094 0.726912 0.494010
O O18 0.357492 0.000000 0.197716
O O19 0.000000 0.234619 0.500000
O O20 0.997618 0.000000 0.437813
O O21 0.500000 0.260087 0.500000
O O22 0.687973 0.000000 0.650066
#
# Coordination Sequence:
#
# PCOD8058817 Si02
#       8
#     4   4   4   4   4   4   4   4
#     4  11  22  35  54  82 114 145 180 223 278 332
#     4   8  15  28  50  76 100 133 176 226 269 314
#     4   9  16  31  52  74 101 136 180 221 268 319
#     4   9  17  30  51  78 104 134 178 229 267 306
#     4  11  21  32  50  79 112 138 174 222 274 324
#     4  10  19  34  57  80 106 140 182 227 276 320
#     4  10  18  32  53  76 104 138 176 216 264 315
#     4  10  20  35  54  79 111 147 191 232 272 325
#
# _framework density 18.612361
#
# number of rings (size 3 to 8) (size 9 to 14) (size 15 to 20)
#    0.000    2.250    2.500    2.625    0.000    1.000 
#    0.000    1.250    0.000    6.000    0.000    0.000 
#    0.000    0.000    0.000    0.000    0.000    0.000 
#
# Total GULP energy -396723.310930 kJ/mol
# GULP energy per Si atom -12397.603467 kJ/mol
# Density = 1.857000 g / cm^3
# Si number density = 18.612361 Si / 1000 Ang^3
#
#
#
# Elastic Constant Matrix: (Units=GPa)
#
#
# Indices 1 2 3 4 5 6 
#
# 1 144.4197 3.9694 75.9285 0.0000 17.2897 0.0000
# 2 3.9694 25.2354 10.1780 0.0000 4.0068 0.0000
# 3 75.9285 10.1780 126.2787 0.0000 13.0334 0.0000
# 4 0.0000 0.0000 0.0000 11.8872 0.0000 2.5260
# 5 17.2897 4.0068 13.0334 0.0000 32.2713 0.0000
# 6 0.0000 0.0000 0.0000 2.5260 0.0000 12.9302
#
#
#
# Elastic Compliance Matrix: (Units=1/GPa)
#
#
# Indices 1 2 3 4 5 6 
#
# 1 0.010472 0.001325 -0.006060 0.000000 -0.003328 0.000000
# 2 0.001325 0.041606 -0.003698 0.000000 -0.004382 0.000000
# 3 -0.006060 -0.003698 0.011978 0.000000 -0.001131 0.000000
# 4 0.000000 0.000000 0.000000 0.087768 0.000000 -0.017146
# 5 -0.003328 -0.004382 -0.001131 0.000000 0.033771 0.000000
# 6 0.000000 0.000000 0.000000 -0.017146 0.000000 0.080688
#
#
# Mechanical properties :
#
#
# Convention : Reuss Voigt Hill
#
# Bulk Modulus (GPa) = 21.19088 52.89842 37.04465
# Shear Modulus (GPa) = 16.72923 25.14159 20.93541
#
# Velocity S-wave (km/s) = 3.00129 3.67931 3.35746
# Velocity P-wave (km/s) = 4.83947 6.82148 5.91409
#
# Compressibility (1/GPa) = 0.04719010
#
# Stress axis : x y z
#
# Youngs Moduli (GPa) = 95.48966 24.03516 83.48881
#
# Poissons Ratio (x) = -0.03185 0.50595
# Poissons Ratio (y) = -0.12655 0.30874
# Poissons Ratio (z) = 0.57868 0.08888
#
# Static dielectric constant tensor:
#      x y z
#    x 3.660760 0.000000 0.277720 
#    y 0.000000 3.072910 0.000000 
#    z 0.277720 0.000000 3.558460 
# 
# 
# High freq. dielectric constant tensor:
#      x y z
#    x 1.731540 0.000000 0.023030 
#    y 0.000000 1.692700 0.000000 
#    z 0.023030 0.000000 1.701870 
# 
# From -- ./inp_files/86738.got.cif
#   From: 2010.06.25/outbox.cif.g09.slc.cpg/sg10_44_cif.got.tgz:86738.got - 2010.06.27 22:07:45.
