data_PCOD8058040
_publ_section_title
;
Structure prediction by ZEFSAII (Michael W. Deem and Ramdas Pophale) SiO2 
 PCOD8058040
Probable space group: P 2/M
;
_chemical_formula_sum "Si O2"
_cell_formula_units_Z 32
_cell_length_a 18.645923
_cell_length_b 17.390814
_cell_length_c 11.942201
_cell_angle_alpha 90.000000
_cell_angle_beta 24.051874
_cell_angle_gamma 90.000000
_cell_volume 1578.278121
_symmetry_space_group_name_H-M "P 2/M"
_symmetry_group_IT_number 10
_symmetry_cell_setting 'monoclinic'
loop_
_space_group_symop_operation_xyz
x,y,z
-x,y,-z
-x,-y,-z
x,-y,z
loop_
_atom_site_type_symbol
_atom_site_label
_atom_site_fract_x
_atom_site_fract_y
_atom_site_fract_z
Si Si1 0.347767 0.086719 0.641178
Si Si2 0.816473 0.838047 0.324385
Si Si3 0.355500 0.673704 0.794675
Si Si4 0.980179 0.914663 0.289618
Si Si5 0.861316 0.584360 0.061070
Si Si6 0.576857 0.413104 0.655168
Si Si7 0.186566 0.317177 0.553834
Si Si8 0.986258 0.757703 0.648261
O O1 0.500000 0.124356 0.500000
O O2 0.334628 0.134249 0.544803
O O3 0.400534 0.000000 0.532962
O O4 0.168826 0.088094 0.963992
O O5 0.756496 0.756158 0.455123
O O6 0.835362 0.897924 0.400141
O O7 0.000000 0.830282 0.000000
O O8 0.500000 0.707257 0.500000
O O9 0.264304 0.601068 0.865243
O O10 0.432395 0.641080 0.801686
O O11 0.209965 0.739430 0.026325
O O12 0.973783 0.848578 0.393283
O O13 0.944172 0.000000 0.392040
O O14 0.944801 0.500000 0.923569
O O15 0.750049 0.585450 0.332423
O O16 0.013311 0.646528 0.855921
O O17 0.505306 0.500000 0.777893
O O18 0.645489 0.375132 0.675136
O O19 0.136105 0.292365 0.499105
O O20 0.000000 0.734830 0.500000
#
# Coordination Sequence:
#
# PCOD8058040 Si02
#       8
#     4   4   4   4   4   4   4   4
#     4   9  17  28  45  73 108 139 166 203 254 308
#     4   9  16  27  44  68 103 139 170 206 254 306
#     4   9  19  34  55  81 108 138 173 213 260 310
#     4   9  18  32  51  75 100 131 172 214 256 304
#     4   9  16  28  48  76 110 141 170 211 262 310
#     4  10  18  29  50  80 109 137 173 217 260 304
#     4  10  19  30  47  73 103 138 179 216 257 311
#     4  10  22  39  56  74 102 140 177 216 262 313
#
# _framework density 20.275261
#
# number of rings (size 3 to 8) (size 9 to 14) (size 15 to 20)
#    0.000    2.625    0.000    2.250    0.000    8.750 
#    0.000    0.625    0.000   14.250    0.000    0.000 
#    0.000   10.000    0.000    0.000    0.000    0.000 
#
# Total GULP energy -396592.537078 kJ/mol
# GULP energy per Si atom -12393.516784 kJ/mol
# Density = 2.022911 g / cm^3
# Si number density = 20.275261 Si / 1000 Ang^3
#
#
#
# Elastic Constant Matrix: (Units=GPa)
#
#
# Indices 1 2 3 4 5 6 
#
# 1 157.8782 58.5767 30.0003 0.0000 -22.0735 0.0000
# 2 58.5767 103.9359 14.6782 0.0000 -6.0083 0.0000
# 3 30.0003 14.6782 27.3488 0.0000 -5.5653 0.0000
# 4 0.0000 0.0000 0.0000 11.9110 0.0000 -6.3296
# 5 -22.0735 -6.0083 -5.5653 0.0000 27.8408 0.0000
# 6 0.0000 0.0000 0.0000 -6.3296 0.0000 25.0371
#
#
#
# Elastic Compliance Matrix: (Units=1/GPa)
#
#
# Indices 1 2 3 4 5 6 
#
# 1 0.010189 -0.004329 -0.007714 0.000000 0.005602 0.000000
# 2 -0.004329 0.012287 -0.002089 0.000000 -0.001198 0.000000
# 3 -0.007714 -0.002089 0.046711 0.000000 0.002771 0.000000
# 4 0.000000 0.000000 0.000000 0.096985 0.000000 0.024519
# 5 0.005602 -0.001198 0.002771 0.000000 0.040656 0.000000
# 6 0.000000 0.000000 0.000000 0.024519 0.000000 0.046139
#
#
# Mechanical properties :
#
#
# Convention : Reuss Voigt Hill
#
# Bulk Modulus (GPa) = 24.43599 55.07481 39.75540
# Shear Modulus (GPa) = 16.95644 25.35163 21.15404
#
# Velocity S-wave (km/s) = 2.89504 3.53990 3.23359
# Velocity P-wave (km/s) = 4.82217 6.62800 5.79585
#
# Compressibility (1/GPa) = 0.04092325
#
# Stress axis : x y z
#
# Youngs Moduli (GPa) = 98.14198 81.38643 21.40808
#
# Poissons Ratio (x) = 0.35235 0.16513
# Poissons Ratio (y) = 0.42489 0.04473
# Poissons Ratio (z) = 0.75702 0.17004
#
# Static dielectric constant tensor:
#      x y z
#    x 3.885930 0.000000 -0.319690 
#    y 0.000000 3.916790 0.000000 
#    z -0.319690 0.000000 3.070940 
# 
# 
# High freq. dielectric constant tensor:
#      x y z
#    x 1.803010 0.000000 -0.030800 
#    y 0.000000 1.801490 0.000000 
#    z -0.030800 0.000000 1.725250 
# 
# From -- ./inp_files/54137.got.cif
#   From: 2010.06.25/outbox.cif.g09.slc.cpg/sg10_28_cif.got.tgz:54137.got - 2010.06.27 22:07:45.
