data_PCOD8058707
_publ_section_title
;
Structure prediction by ZEFSAII (Michael W. Deem and Ramdas Pophale) SiO2 
 PCOD8058707
Probable space group: P 2/M
;
_chemical_formula_sum "Si O2"
_cell_formula_units_Z 32
_cell_length_a 14.784228
_cell_length_b 8.893178
_cell_length_c 11.988457
_cell_angle_alpha 90.000000
_cell_angle_beta 92.838117
_cell_angle_gamma 90.000000
_cell_volume 1574.294223
_symmetry_space_group_name_H-M "P 2/M"
_symmetry_group_IT_number 10
_symmetry_cell_setting 'monoclinic'
loop_
_space_group_symop_operation_xyz
x,y,z
-x,y,-z
-x,-y,-z
x,-y,z
loop_
_atom_site_type_symbol
_atom_site_label
_atom_site_fract_x
_atom_site_fract_y
_atom_site_fract_z
Si Si1 0.167841 0.675568 0.845665
Si Si2 0.510282 0.821542 0.129786
Si Si3 0.906084 0.323536 0.554209
Si Si4 0.196120 0.328009 0.087434
Si Si5 0.973357 0.671908 0.788810
Si Si6 0.662256 0.324557 0.285595
Si Si7 0.718448 0.821528 0.506268
Si Si8 0.664641 0.822866 0.747341
O O1 0.151989 0.500000 0.868200
O O2 0.235204 0.704892 0.748446
O O3 0.070660 0.752454 0.812765
O O4 0.209682 0.738709 0.963975
O O5 0.598026 0.746134 0.188405
O O6 0.425791 0.761660 0.198062
O O7 0.520728 0.000000 0.137214
O O8 0.500000 0.770031 0.000000
O O9 0.883272 0.500000 0.544162
O O10 0.917919 0.261671 0.680776
O O11 0.820996 0.236584 0.496345
O O12 0.000000 0.283657 0.500000
O O13 0.229439 0.500000 0.102085
O O14 0.088678 0.314306 0.105758
O O15 0.249716 0.227737 0.177097
O O16 0.993954 0.500000 0.757139
O O17 0.640216 0.500000 0.296143
O O18 0.653868 0.244944 0.405156
O O19 0.675147 0.764497 0.620799
O O20 0.717651 0.000000 0.497460
O O21 0.662237 0.000000 0.746923
#
# Coordination Sequence:
#
# PCOD8058707 Si02
#       8
#     4   4   4   4   4   4   4   4
#     4   9  18  32  52  82 116 148 183 232 290 340
#     4  10  22  42  66  89 115 150 190 232 288 356
#     4  10  19  33  55  82 114 153 197 243 286 331
#     4  10  18  31  56  85 112 145 190 236 278 338
#     4   9  16  28  49  80 113 146 184 226 277 335
#     4  11  23  39  60  86 117 149 189 242 292 339
#     4  11  23  39  58  81 115 155 195 236 284 346
#     4  10  22  39  59  83 115 153 189 236 292 344
#
# _framework density 20.326568000000002
#
# number of rings (size 3 to 8) (size 9 to 14) (size 15 to 20)
#    0.000    2.000    1.250    2.625    0.000    5.500 
#    0.000    3.125    0.000    3.000    0.000    0.000 
#    0.000    0.000    0.000    0.000    0.000    0.000 
#
# Total GULP energy -396738.430583 kJ/mol
# GULP energy per Si atom -12398.075956 kJ/mol
# Density = 2.028030 g / cm^3
# Si number density = 20.326568 Si / 1000 Ang^3
#
#
#
# Elastic Constant Matrix: (Units=GPa)
#
#
# Indices 1 2 3 4 5 6 
#
# 1 90.0982 24.7424 39.1546 0.0000 4.7823 0.0000
# 2 24.7424 26.9918 30.3131 0.0000 1.2416 0.0000
# 3 39.1546 30.3131 143.1786 0.0000 9.9297 0.0000
# 4 0.0000 0.0000 0.0000 23.8511 0.0000 3.9339
# 5 4.7823 1.2416 9.9297 0.0000 37.4404 0.0000
# 6 0.0000 0.0000 0.0000 3.9339 0.0000 21.5904
#
#
#
# Elastic Compliance Matrix: (Units=1/GPa)
#
#
# Indices 1 2 3 4 5 6 
#
# 1 0.015145 -0.012159 -0.001489 0.000000 -0.001136 0.000000
# 2 -0.012159 0.058414 -0.009184 0.000000 0.002052 0.000000
# 3 -0.001489 -0.009184 0.009476 0.000000 -0.002018 0.000000
# 4 0.000000 0.000000 0.000000 0.043226 0.000000 -0.007876
# 5 -0.001136 0.002052 -0.002018 0.000000 0.027322 0.000000
# 6 0.000000 0.000000 0.000000 -0.007876 0.000000 0.047752
#
#
# Mechanical properties :
#
#
# Convention : Reuss Voigt Hill
#
# Bulk Modulus (GPa) = 26.75860 49.85430 38.30645
# Shear Modulus (GPa) = 19.27110 27.64696 23.45903
#
# Velocity S-wave (km/s) = 3.08242 3.69201 3.40090
# Velocity P-wave (km/s) = 5.08541 6.53869 5.85730
#
# Compressibility (1/GPa) = 0.03737116
#
# Stress axis : x y z
#
# Youngs Moduli (GPa) = 66.02690 17.11913 105.53161
#
# Poissons Ratio (x) = 0.20815 0.15710
# Poissons Ratio (y) = 0.80283 0.96924
# Poissons Ratio (z) = 0.09829 0.15723
#
# Static dielectric constant tensor:
#      x y z
#    x 3.693210 0.000000 -0.091100 
#    y 0.000000 3.292500 0.000000 
#    z -0.091100 0.000000 3.990740 
# 
# 
# High freq. dielectric constant tensor:
#      x y z
#    x 1.795600 0.000000 -0.000510 
#    y 0.000000 1.752220 0.000000 
#    z -0.000510 0.000000 1.814590 
# 
# From -- ./inp_files/49955.got.cif
#   From: 2010.06.25/outbox.cif.g09.slc.cpg/sg10_25_cif.got.tgz:49955.got - 2010.06.27 22:07:45.
