data_PCOD8058062
_publ_section_title
;
Structure prediction by ZEFSAII (Michael W. Deem and Ramdas Pophale) SiO2 
 PCOD8058062
Probable space group: P 2/M
;
_chemical_formula_sum "Si O2"
_cell_formula_units_Z 30
_cell_length_a 27.534892
_cell_length_b 16.435491
_cell_length_c 30.013443
_cell_angle_alpha 90.000000
_cell_angle_beta 9.300880
_cell_angle_gamma 90.000000
_cell_volume 2195.200714
_symmetry_space_group_name_H-M "P 2/M"
_symmetry_group_IT_number 10
_symmetry_cell_setting 'monoclinic'
loop_
_space_group_symop_operation_xyz
x,y,z
-x,y,-z
-x,-y,-z
x,-y,z
loop_
_atom_site_type_symbol
_atom_site_label
_atom_site_fract_x
_atom_site_fract_y
_atom_site_fract_z
Si Si1 0.204297 0.096898 0.444776
Si Si2 0.840120 0.097008 0.689339
Si Si3 0.749133 0.094204 0.425088
Si Si4 0.043518 0.905863 0.066608
Si Si5 0.439323 0.321372 0.622503
Si Si6 0.114406 0.097210 0.177486
Si Si7 0.354554 0.500000 0.679817
Si Si8 0.925132 0.747582 0.132240
O O1 0.023010 0.130071 0.566227
O O2 0.042600 0.130482 0.635514
O O3 0.204022 0.000000 0.445035
O O4 0.544799 0.129702 0.133858
O O5 0.000000 0.130276 0.500000
O O6 0.838437 0.000000 0.690458
O O7 0.500000 0.130248 0.000000
O O8 0.874344 0.124894 0.264235
O O9 0.931826 0.133983 0.300651
O O10 0.823889 0.000000 0.358178
O O11 0.397342 0.109901 0.750835
O O12 0.921768 0.846580 0.137295
O O13 0.971920 0.000000 0.119030
O O14 0.457930 0.418512 0.611185
O O15 0.253238 0.288780 0.748087
O O16 0.776909 0.287737 0.311808
O O17 0.270665 0.283917 0.818086
O O18 0.107706 0.000000 0.183781
O O19 0.500000 0.500000 0.500000
O O20 0.000000 0.500000 0.000000
#
# Coordination Sequence:
#
# PCOD8058062 Si02
#       8
#     4   4   4   4   4   4   2   4
#     4   9  15  21  30  43  56  72  93 122 162 199
#     4   9  15  21  27  36  53  75  95 113 140 191
#     4   9  17  28  40  52  64  83 113 147 182 213
#     4  10  19  30  42  54  71  97 124 148 176 213
#     4  10  19  30  45  64  82 100 116 143 170 203
#     4   9  15  23  34  46  58  70  94 135 173 203
#     4  12  16  30  48  68  84 100 120 136 170 208
#     4  10  18  30  42  59  80  98 121 146 172 200
#
# _framework density 13.666176
#
# number of rings (size 3 to 8) (size 9 to 14) (size 15 to 20)
#    0.000    2.400    2.667    2.400    0.000    6.400 
#    0.000    2.667    0.000    0.000    0.000    0.000 
#    0.000    0.000    0.000    0.000    0.000    0.000 
#
# Total GULP energy -371715.353445 kJ/mol
# GULP energy per Si atom -12390.511782 kJ/mol
# Density = 1.363507 g / cm^3
# Si number density = 13.666176 Si / 1000 Ang^3
#
#
#
# Elastic Constant Matrix: (Units=GPa)
#
#
# Indices 1 2 3 4 5 6 
#
# 1 49.7612 21.7972 20.2896 0.0000 12.4240 0.0000
# 2 21.7972 60.3885 14.8589 0.0000 4.3175 0.0000
# 3 20.2896 14.8589 81.5747 0.0000 31.2448 0.0000
# 4 0.0000 0.0000 0.0000 3.6922 0.0000 2.9634
# 5 12.4240 4.3175 31.2448 0.0000 29.2089 0.0000
# 6 0.0000 0.0000 0.0000 2.9634 0.0000 2.5562
#
#
#
# Elastic Compliance Matrix: (Units=1/GPa)
#
#
# Indices 1 2 3 4 5 6 
#
# 1 0.026644 -0.008549 -0.002055 0.000000 -0.007871 0.000000
# 2 -0.008549 0.020112 -0.003035 0.000000 0.003909 0.000000
# 3 -0.002055 -0.003035 0.021712 0.000000 -0.021902 0.000000
# 4 0.000000 0.000000 0.000000 3.893840 0.000000 -4.514082
# 5 -0.007871 0.003909 -0.021902 0.000000 0.060435 0.000000
# 6 0.000000 0.000000 0.000000 -4.514082 0.000000 5.624324
#
#
# Mechanical properties :
#
#
# Convention : Reuss Voigt Hill
#
# Bulk Modulus (GPa) = 24.27713 33.95733 29.11723
# Shear Modulus (GPa) = 0.51610 16.07671 8.29641
#
# Velocity S-wave (km/s) = 0.61520 3.43357 2.46656
# Velocity P-wave (km/s) = 4.27874 6.37345 5.42810
#
# Compressibility (1/GPa) = 0.04119103
#
# Stress axis : x y z
#
# Youngs Moduli (GPa) = 37.53237 49.72089 46.05828
#
# Poissons Ratio (x) = 0.42505 0.09465
# Poissons Ratio (y) = 0.32085 0.13977
# Poissons Ratio (z) = 0.07713 0.15088
#
# Static dielectric constant tensor:
#      x y z
#    x 3.112070 0.000000 0.940150 
#    y 0.000000 2.189410 0.000000 
#    z 0.940150 0.000000 4.311510 
# 
# 
# High freq. dielectric constant tensor:
#      x y z
#    x 1.503860 0.000000 0.027170 
#    y 0.000000 1.452550 0.000000 
#    z 0.027170 0.000000 1.544510 
# 
# From -- ./inp_files/87560.got.cif
#   From: 2010.06.25/outbox.cif.g09.slc.cpg/sg10_44_cif.got.tgz:87560.got - 2010.06.27 22:07:45.
