data_PCOD8058204
_publ_section_title
;
Structure prediction by ZEFSAII (Michael W. Deem and Ramdas Pophale) SiO2 
 PCOD8058204
Probable space group: P 2/M
;
_chemical_formula_sum "Si O2"
_cell_formula_units_Z 32
_cell_length_a 30.850554
_cell_length_b 8.903799
_cell_length_c 21.386493
_cell_angle_alpha 90.000000
_cell_angle_beta 19.211724
_cell_angle_gamma 90.000000
_cell_volume 1933.093338
_symmetry_space_group_name_H-M "P 2/M"
_symmetry_group_IT_number 10
_symmetry_cell_setting 'monoclinic'
loop_
_space_group_symop_operation_xyz
x,y,z
-x,y,-z
-x,-y,-z
x,-y,z
loop_
_atom_site_type_symbol
_atom_site_label
_atom_site_fract_x
_atom_site_fract_y
_atom_site_fract_z
Si Si1 0.371998 0.669382 0.631543
Si Si2 0.310539 0.324163 0.271010
Si Si3 0.992851 0.674218 0.323590
Si Si4 0.524632 0.820416 0.059130
Si Si5 0.468907 0.824314 0.684018
Si Si6 0.622897 0.177606 0.058357
Si Si7 0.083540 0.825224 0.324539
Si Si8 0.218780 0.176029 0.942130
O O1 0.500000 0.679716 0.500000
O O2 0.324898 0.500000 0.685080
O O3 0.407773 0.740836 0.515788
O O4 0.254460 0.758972 0.825254
O O5 0.343482 0.500000 0.219166
O O6 0.157291 0.295868 0.491262
O O7 0.356472 0.237933 0.146062
O O8 0.387590 0.254674 0.225121
O O9 0.028620 0.500000 0.274704
O O10 0.014755 0.737118 0.362663
O O11 0.081564 0.755576 0.151256
O O12 0.515621 0.000000 0.066109
O O13 0.552494 0.764198 0.091652
O O14 0.461893 0.772414 0.765770
O O15 0.330493 0.780559 0.840381
O O16 0.494756 0.000000 0.641597
O O17 0.634627 0.000000 0.039818
O O18 0.770844 0.241659 0.862238
O O19 0.000000 0.797389 0.500000
O O20 0.089008 0.000000 0.298294
O O21 0.202441 0.000000 0.957675
#
# Coordination Sequence:
#
# PCOD8058204 Si02
#       8
#     4   4   4   4   4   4   4   4
#     4   9  17  28  43  66  97 127 160 196 232 276
#     4  10  21  36  50  67  97 129 160 203 253 291
#     4  11  22  33  47  69  99 131 162 199 242 287
#     4  10  19  33  55  75  91 119 166 212 245 282
#     4   9  16  29  46  66  96 129 160 191 235 287
#     4   9  17  30  47  72  99 124 156 201 245 281
#     4  10  19  32  49  68  95 130 163 195 237 289
#     4  10  18  30  49  69  94 129 164 196 236 285
#
# _framework density 16.553778999999999
#
# number of rings (size 3 to 8) (size 9 to 14) (size 15 to 20)
#    0.000    2.250    1.250    3.375    0.000    5.250 
#    0.000    2.500    0.000    0.000    0.000    0.875 
#    0.000    7.000    0.000    0.000    0.000    0.000 
#
# Total GULP energy -396812.729462 kJ/mol
# GULP energy per Si atom -12400.397796 kJ/mol
# Density = 1.651610 g / cm^3
# Si number density = 16.553779 Si / 1000 Ang^3
#
#
#
# Elastic Constant Matrix: (Units=GPa)
#
#
# Indices 1 2 3 4 5 6 
#
# 1 95.2545 37.6369 58.0646 0.0000 9.3963 0.0000
# 2 37.6369 78.2337 53.0892 0.0000 3.3058 0.0000
# 3 58.0646 53.0892 108.9967 0.0000 11.3327 0.0000
# 4 0.0000 0.0000 0.0000 27.6784 0.0000 0.1881
# 5 9.3963 3.3058 11.3327 0.0000 20.2331 0.0000
# 6 0.0000 0.0000 0.0000 0.1881 0.0000 11.0273
#
#
#
# Elastic Compliance Matrix: (Units=1/GPa)
#
#
# Indices 1 2 3 4 5 6 
#
# 1 0.016153 -0.003020 -0.006801 0.000000 -0.003199 0.000000
# 2 -0.003020 0.019752 -0.008306 0.000000 0.002827 0.000000
# 3 -0.006801 -0.008306 0.017386 0.000000 -0.005223 0.000000
# 4 0.000000 0.000000 0.000000 0.036134 0.000000 -0.000616
# 5 -0.003199 0.002827 -0.005223 0.000000 0.053373 0.000000
# 6 0.000000 0.000000 0.000000 -0.000616 0.000000 0.090695
#
#
# Mechanical properties :
#
#
# Convention : Reuss Voigt Hill
#
# Bulk Modulus (GPa) = 58.69725 64.45181 61.57453
# Shear Modulus (GPa) = 18.15374 20.70070 19.42722
#
# Velocity S-wave (km/s) = 3.31517 3.54009 3.42947
# Velocity P-wave (km/s) = 7.08444 7.46519 7.27730
#
# Compressibility (1/GPa) = 0.01703657
#
# Stress axis : x y z
#
# Youngs Moduli (GPa) = 61.90789 50.62794 57.51699
#
# Poissons Ratio (x) = 0.15292 0.39119
# Poissons Ratio (y) = 0.18699 0.47771
# Poissons Ratio (z) = 0.42105 0.42049
#
# Static dielectric constant tensor:
#      x y z
#    x 3.098520 0.000000 0.153430 
#    y 0.000000 3.118310 0.000000 
#    z 0.153430 0.000000 3.112110 
# 
# 
# High freq. dielectric constant tensor:
#      x y z
#    x 1.616380 0.000000 0.019770 
#    y 0.000000 1.638840 0.000000 
#    z 0.019770 0.000000 1.631050 
# 
# From -- ./inp_files/87178.got.cif
#   From: 2010.06.25/outbox.cif.g09.slc.cpg/sg10_44_cif.got.tgz:87178.got - 2010.06.27 22:07:45.
