data_PCOD8058308
_publ_section_title
;
Structure prediction by ZEFSAII (Michael W. Deem and Ramdas Pophale) SiO2 
 PCOD8058308
Probable space group: P 2/M
;
_chemical_formula_sum "Si O2"
_cell_formula_units_Z 20
_cell_length_a 10.005996
_cell_length_b 11.124950
_cell_length_c 13.710452
_cell_angle_alpha 90.000000
_cell_angle_beta 39.845610
_cell_angle_gamma 90.000000
_cell_volume 977.865629
_symmetry_space_group_name_H-M "P 2/M"
_symmetry_group_IT_number 10
_symmetry_cell_setting 'monoclinic'
loop_
_space_group_symop_operation_xyz
x,y,z
-x,y,-z
-x,-y,-z
x,-y,z
loop_
_atom_site_type_symbol
_atom_site_label
_atom_site_fract_x
_atom_site_fract_y
_atom_site_fract_z
Si Si1 0.215712 0.637346 0.327245
Si Si2 0.980567 0.000000 0.394103
Si Si3 0.980453 0.752522 0.304935
Si Si4 0.466612 0.254550 0.345041
Si Si5 0.116934 0.362778 0.835466
Si Si6 0.492189 0.000000 0.388383
O O1 0.280005 0.500000 0.307692
O O2 0.401462 0.718876 0.268827
O O3 0.000000 0.673275 0.500000
O O4 0.159926 0.662754 0.245837
O O5 0.068583 0.117251 0.289340
O O6 0.739722 0.000000 0.515309
O O7 0.000000 0.000000 0.500000
O O8 0.742772 0.730084 0.473673
O O9 0.974558 0.730445 0.192818
O O10 0.634784 0.350196 0.288195
O O11 0.581787 0.124011 0.292972
O O12 0.073368 0.500000 0.827148
O O13 0.000000 0.329804 0.000000
O O14 0.500000 0.000000 0.500000
#
# Coordination Sequence:
#
# PCOD8058308 Si02
#       6
#     4   2   4   4   4   2
#     4   9  17  29  50  81 108 132 173 223 265 314
#     4  10  18  32  56  87 116 139 170 221 279 324
#     4  10  19  34  57  83 109 142 180 221 271 326
#     4  10  19  34  56  80 107 141 179 224 277 326
#     4  11  24  39  53  75 110 148 187 229 270 317
#     4  10  18  30  50  79 108 135 174 217 259 316
#
# _framework density 20.452708000000001
#
# number of rings (size 3 to 8) (size 9 to 14) (size 15 to 20)
#    0.000    2.000    0.000    7.200    0.000    3.200 
#    0.000    3.000    0.000    3.600    0.000    8.400 
#    0.000    0.000    0.000    0.000    0.000    0.000 
#
# Total GULP energy -247770.256799 kJ/mol
# GULP energy per Si atom -12388.512840 kJ/mol
# Density = 2.040616 g / cm^3
# Si number density = 20.452708 Si / 1000 Ang^3
#
#
#
# Elastic Constant Matrix: (Units=GPa)
#
#
# Indices 1 2 3 4 5 6 
#
# 1 163.5442 65.3373 42.2282 0.0000 36.6170 0.0000
# 2 65.3373 107.2591 36.9717 0.0000 16.9844 0.0000
# 3 42.2282 36.9717 43.1633 0.0000 20.9848 0.0000
# 4 0.0000 0.0000 0.0000 20.0177 0.0000 10.0648
# 5 36.6170 16.9844 20.9848 0.0000 22.7712 0.0000
# 6 0.0000 0.0000 0.0000 10.0648 0.0000 44.4415
#
#
#
# Elastic Compliance Matrix: (Units=1/GPa)
#
#
# Indices 1 2 3 4 5 6 
#
# 1 0.011189 -0.004509 0.000051 0.000000 -0.014676 0.000000
# 2 -0.004509 0.015060 -0.011871 0.000000 0.006958 0.000000
# 3 0.000051 -0.011871 0.052578 0.000000 -0.039681 0.000000
# 4 0.000000 0.000000 0.000000 0.056375 0.000000 -0.012767
# 5 -0.014676 0.006958 -0.039681 0.000000 0.098893 0.000000
# 6 0.000000 0.000000 0.000000 -0.012767 0.000000 0.025393
#
#
# Mechanical properties :
#
#
# Convention : Reuss Voigt Hill
#
# Bulk Modulus (GPa) = 21.65989 67.00456 44.33222
# Shear Modulus (GPa) = 16.25827 28.74138 22.49983
#
# Velocity S-wave (km/s) = 2.82249 3.75275 3.32036
# Velocity P-wave (km/s) = 4.60816 7.18396 6.03508
#
# Compressibility (1/GPa) = 0.04616829
#
# Stress axis : x y z
#
# Youngs Moduli (GPa) = 89.37562 66.40010 19.01939
#
# Poissons Ratio (x) = 0.29943 -0.00097
# Poissons Ratio (y) = 0.40303 0.22578
# Poissons Ratio (z) = -0.00457 0.78824
#
# Static dielectric constant tensor:
#      x y z
#    x 3.979650 0.000000 0.156570 
#    y 0.000000 -1.942710 0.000000 
#    z 0.156570 0.000000 3.094840 
# 
# 
# High freq. dielectric constant tensor:
#      x y z
#    x 1.827230 0.000000 0.015600 
#    y 0.000000 1.809960 0.000000 
#    z 0.015600 0.000000 1.724060 
# 
# From -- ./inp_files/41895.got.cif
#   From: 2010.06.25/outbox.cif.g09.slc.cpg/sg10_21_cif.got.tgz:41895.got - 2010.06.27 22:07:45.
