data_PCOD8058341
_publ_section_title
;
Structure prediction by ZEFSAII (Michael W. Deem and Ramdas Pophale) SiO2 
 PCOD8058341
Probable space group: P 2/M
;
_chemical_formula_sum "Si O2"
_cell_formula_units_Z 32
_cell_length_a 28.829059
_cell_length_b 9.136584
_cell_length_c 12.676863
_cell_angle_alpha 90.000000
_cell_angle_beta 149.659759
_cell_angle_gamma 90.000000
_cell_volume 1686.679732
_symmetry_space_group_name_H-M "P 2/M"
_symmetry_group_IT_number 10
_symmetry_cell_setting 'monoclinic'
loop_
_space_group_symop_operation_xyz
x,y,z
-x,y,-z
-x,-y,-z
x,-y,z
loop_
_atom_site_type_symbol
_atom_site_label
_atom_site_fract_x
_atom_site_fract_y
_atom_site_fract_z
Si Si1 0.193239 0.671310 0.007939
Si Si2 0.990481 0.325610 0.653406
Si Si3 0.485313 0.828489 0.850657
Si Si4 0.348744 0.673339 0.905289
Si Si5 0.280392 0.828625 0.376958
Si Si6 0.235495 0.663362 0.486730
Si Si7 0.793803 0.328078 0.200498
Si Si8 0.961177 0.335164 0.821301
O O1 0.197806 0.500000 0.044977
O O2 0.238415 0.705310 0.982611
O O3 0.086059 0.721900 0.787090
O O4 0.249987 0.757244 0.207408
O O5 0.982043 0.500000 0.637106
O O6 0.897187 0.261833 0.417794
O O7 0.995152 0.259686 0.781024
O O8 0.384541 0.787994 0.610699
O O9 0.504658 0.000000 0.883458
O O10 0.500000 0.772178 0.000000
O O11 0.552095 0.749767 0.897024
O O12 0.359499 0.500000 0.939651
O O13 0.314272 0.717291 0.720501
O O14 0.281393 0.736950 0.865008
O O15 0.220222 0.767532 0.356221
O O16 0.264165 0.000000 0.335473
O O17 0.255435 0.500000 0.483144
O O18 0.148006 0.663528 0.391221
O O19 0.799643 0.500000 0.232646
O O20 0.002081 0.500000 0.902696
O O21 0.000000 0.249933 0.000000
#
# Coordination Sequence:
#
# PCOD8058341 Si02
#       8
#     4   4   4   4   4   4   4   4
#     4  10  20  34  56  82 109 143 183 222 260 308
#     4   9  15  27  50  81 112 142 178 216 256 307
#     4  10  21  38  57  77 103 139 180 219 267 327
#     4  10  19  32  55  85 111 134 168 220 271 313
#     4  11  23  38  55  75 106 142 177 224 274 320
#     4  10  18  30  51  79 108 137 172 214 264 319
#     4   9  17  32  53  83 116 142 175 221 265 305
#     4   9  15  23  40  72 111 142 169 206 251 304
#
# _framework density 18.972185
#
# number of rings (size 3 to 8) (size 9 to 14) (size 15 to 20)
#    0.000    2.250    2.500    1.500    0.000    4.750 
#    0.000    1.250    0.000    9.375    0.000    0.000 
#    0.000    0.000    0.000    0.000    0.000    0.000 
#
# Total GULP energy -396544.436514 kJ/mol
# GULP energy per Si atom -12392.013641 kJ/mol
# Density = 1.892900 g / cm^3
# Si number density = 18.972185 Si / 1000 Ang^3
#
#
#
# Elastic Constant Matrix: (Units=GPa)
#
#
# Indices 1 2 3 4 5 6 
#
# 1 125.9315 33.0928 50.5382 0.0000 -6.5270 0.0000
# 2 33.0928 36.2194 26.1648 0.0000 -4.4426 0.0000
# 3 50.5382 26.1648 70.9670 0.0000 -5.0201 0.0000
# 4 0.0000 0.0000 0.0000 17.5704 0.0000 -5.6813
# 5 -6.5270 -4.4426 -5.0201 0.0000 25.6895 0.0000
# 6 0.0000 0.0000 0.0000 -5.6813 0.0000 5.6702
#
#
#
# Elastic Compliance Matrix: (Units=1/GPa)
#
#
# Indices 1 2 3 4 5 6 
#
# 1 0.012198 -0.006565 -0.006213 0.000000 0.000750 0.000000
# 2 -0.006565 0.041545 -0.010396 0.000000 0.003485 0.000000
# 3 -0.006213 -0.010396 0.022420 0.000000 0.001005 0.000000
# 4 0.000000 0.000000 0.000000 0.084189 0.000000 0.084354
# 5 0.000750 0.003485 0.001005 0.000000 0.039916 0.000000
# 6 0.000000 0.000000 0.000000 0.084354 0.000000 0.260880
#
#
# Mechanical properties :
#
#
# Convention : Reuss Voigt Hill
#
# Bulk Modulus (GPa) = 33.53996 50.30105 41.92050
# Shear Modulus (GPa) = 9.66308 18.00751 13.83529
#
# Velocity S-wave (km/s) = 2.25928 3.08418 2.70338
# Velocity P-wave (km/s) = 4.95204 6.26526 5.64695
#
# Compressibility (1/GPa) = 0.02981519
#
# Stress axis : x y z
#
# Youngs Moduli (GPa) = 81.97822 24.07036 44.60356
#
# Poissons Ratio (x) = 0.15802 0.27714
# Poissons Ratio (y) = 0.53817 0.46368
# Poissons Ratio (z) = 0.50937 0.25023
#
# Static dielectric constant tensor:
#      x y z
#    x 3.589890 0.000000 -0.008790 
#    y 0.000000 2.960000 0.000000 
#    z -0.008790 0.000000 3.495370 
# 
# 
# High freq. dielectric constant tensor:
#      x y z
#    x 1.745760 0.000000 -0.000620 
#    y 0.000000 1.678400 0.000000 
#    z -0.000620 0.000000 1.737630 
# 
# From -- ./inp_files/57674.got.cif
#   From: 2010.06.25/outbox.cif.g09.slc.cpg/sg10_29_cif.got.tgz:57674.got - 2010.06.27 22:07:45.
