data_PCOD8058991
_publ_section_title
;
Structure prediction by ZEFSAII (Michael W. Deem and Ramdas Pophale) SiO2 
 PCOD8058991
Probable space group: P 2/M
;
_chemical_formula_sum "Si O2"
_cell_formula_units_Z 32
_cell_length_a 8.776009
_cell_length_b 14.161083
_cell_length_c 25.520087
_cell_angle_alpha 90.000000
_cell_angle_beta 31.769411
_cell_angle_gamma 90.000000
_cell_volume 1669.843184
_symmetry_space_group_name_H-M "P 2/M"
_symmetry_group_IT_number 10
_symmetry_cell_setting 'monoclinic'
loop_
_space_group_symop_operation_xyz
x,y,z
-x,y,-z
-x,-y,-z
x,-y,z
loop_
_atom_site_type_symbol
_atom_site_label
_atom_site_fract_x
_atom_site_fract_y
_atom_site_fract_z
Si Si1 0.833012 0.735730 0.909572
Si Si2 0.249227 0.773694 0.528488
Si Si3 0.437319 0.107842 0.636665
Si Si4 0.627209 0.243471 0.763056
Si Si5 0.548678 0.398635 0.424931
Si Si6 0.279948 0.891500 0.798693
Si Si7 0.009307 0.266964 0.251148
Si Si8 0.871608 0.389120 0.094928
O O1 0.949586 0.699784 0.819938
O O2 0.980871 0.834446 0.882257
O O3 0.893934 0.652254 0.932965
O O4 0.500000 0.758382 0.000000
O O5 0.500000 0.783247 0.500000
O O6 0.272867 0.860873 0.480195
O O7 0.315762 0.679412 0.474027
O O8 0.933330 0.760400 0.643974
O O9 0.469031 0.120802 0.690113
O O10 0.178463 0.171712 0.690135
O O11 0.365415 0.000000 0.643845
O O12 0.458700 0.149070 0.795522
O O13 0.688508 0.243743 0.807509
O O14 0.434064 0.335635 0.806020
O O15 0.500000 0.415519 0.500000
O O16 0.513304 0.500000 0.406179
O O17 0.867989 0.356581 0.321712
O O18 0.204033 0.000000 0.831933
O O19 0.823222 0.500000 0.119285
O O20 0.000000 0.369909 0.000000
#
# Coordination Sequence:
#
# PCOD8058991 Si02
#       8
#     4   4   4   4   4   4   4   4
#     4  10  21  39  65  86 112 151 189 249 297 347
#     4  10  18  33  50  82 115 151 201 244 285 341
#     4   9  18  34  53  77 114 155 198 244 288 336
#     4  11  20  35  57  83 118 154 188 237 295 344
#     4   9  16  29  49  75 110 145 185 233 277 329
#     4   9  21  38  56  83 117 155 197 239 293 357
#     4  10  19  34  55  85 115 147 199 239 288 343
#     4  10  23  42  62  88 120 151 189 238 296 358
#
# _framework density 19.163475999999999
#
# number of rings (size 3 to 8) (size 9 to 14) (size 15 to 20)
#    0.000    2.250    3.750    0.750    0.000    3.750 
#    0.000    1.250    0.000   12.750    0.000    7.000 
#    0.000    0.000    0.000    0.000    0.000    0.000 
#
# Total GULP energy -396494.071678 kJ/mol
# GULP energy per Si atom -12390.439740 kJ/mol
# Density = 1.911986 g / cm^3
# Si number density = 19.163476 Si / 1000 Ang^3
#
#
#
# Elastic Constant Matrix: (Units=GPa)
#
#
# Indices 1 2 3 4 5 6 
#
# 1 105.9050 54.3159 39.5396 0.0000 -2.6317 0.0000
# 2 54.3159 146.1553 43.7432 0.0000 6.3096 0.0000
# 3 39.5396 43.7432 97.8052 0.0000 -6.7333 0.0000
# 4 0.0000 0.0000 0.0000 37.2426 0.0000 21.1903
# 5 -2.6317 6.3096 -6.7333 0.0000 26.6567 0.0000
# 6 0.0000 0.0000 0.0000 21.1903 0.0000 32.9829
#
#
#
# Elastic Compliance Matrix: (Units=1/GPa)
#
#
# Indices 1 2 3 4 5 6 
#
# 1 0.012650 -0.003756 -0.003345 0.000000 0.001293 0.000000
# 2 -0.003756 0.009227 -0.002834 0.000000 -0.003271 0.000000
# 3 -0.003345 -0.002834 0.013095 0.000000 0.003648 0.000000
# 4 0.000000 0.000000 0.000000 0.042322 0.000000 -0.027190
# 5 0.001293 -0.003271 0.003648 0.000000 0.039337 0.000000
# 6 0.000000 0.000000 0.000000 -0.027190 0.000000 0.047787
#
#
# Mechanical properties :
#
#
# Convention : Reuss Voigt Hill
#
# Bulk Modulus (GPa) = 66.21177 69.45143 67.83160
# Shear Modulus (GPa) = 26.41013 33.52756 29.96885
#
# Velocity S-wave (km/s) = 3.71637 4.18731 3.95885
# Velocity P-wave (km/s) = 7.28294 7.72647 7.50798
#
# Compressibility (1/GPa) = 0.01510305
#
# Stress axis : x y z
#
# Youngs Moduli (GPa) = 79.05372 108.37724 76.36349
#
# Poissons Ratio (x) = 0.40702 0.25545
# Poissons Ratio (y) = 0.29690 0.21639
# Poissons Ratio (z) = 0.26445 0.30710
#
# Static dielectric constant tensor:
#      x y z
#    x 3.569170 0.000000 0.135890 
#    y 0.000000 3.759030 0.000000 
#    z 0.135890 0.000000 3.604800 
# 
# 
# High freq. dielectric constant tensor:
#      x y z
#    x 1.731560 0.000000 0.009590 
#    y 0.000000 1.746660 0.000000 
#    z 0.009590 0.000000 1.740300 
# 
# From -- ./inp_files/92368.got.cif
#   From: 2010.06.25/outbox.cif.g09.slc.cpg/sg10_47_cif.got.tgz:92368.got - 2010.06.27 22:07:45.
