data_PCOD8058590
_publ_section_title
;
Structure prediction by ZEFSAII (Michael W. Deem and Ramdas Pophale) SiO2 
 PCOD8058590
Probable space group: P 2/M
;
_chemical_formula_sum "Si O2"
_cell_formula_units_Z 32
_cell_length_a 12.214849
_cell_length_b 8.532021
_cell_length_c 21.519672
_cell_angle_alpha 90.000000
_cell_angle_beta 51.647971
_cell_angle_gamma 90.000000
_cell_volume 1758.773187
_symmetry_space_group_name_H-M "P 2/M"
_symmetry_group_IT_number 10
_symmetry_cell_setting 'monoclinic'
loop_
_space_group_symop_operation_xyz
x,y,z
-x,y,-z
-x,-y,-z
x,-y,z
loop_
_atom_site_type_symbol
_atom_site_label
_atom_site_fract_x
_atom_site_fract_y
_atom_site_fract_z
Si Si1 0.430893 0.817348 0.174973
Si Si2 0.532278 0.316406 0.704705
Si Si3 0.948492 0.314064 0.870443
Si Si4 0.205026 0.818329 0.436493
Si Si5 0.992326 0.682663 0.596245
Si Si6 0.226739 0.685502 0.833248
Si Si7 0.847013 0.315016 0.772802
Si Si8 0.717713 0.314280 0.047538
O O1 0.418951 0.718593 0.242414
O O2 0.299209 0.775362 0.178662
O O3 0.569937 0.770348 0.088381
O O4 0.431610 0.000000 0.191194
O O5 0.545433 0.500000 0.687789
O O6 0.631321 0.226471 0.620741
O O7 0.373004 0.256308 0.751587
O O8 0.954687 0.500000 0.873947
O O9 0.923494 0.260613 0.808761
O O10 0.095655 0.241447 0.842304
O O11 0.823360 0.252201 0.957921
O O12 0.133569 0.774708 0.527388
O O13 0.131935 0.720598 0.407519
O O14 0.184233 0.000000 0.429877
O O15 0.025530 0.500000 0.581954
O O16 0.947507 0.735313 0.680833
O O17 0.222077 0.500000 0.830756
O O18 0.219396 0.736017 0.907883
O O19 0.817156 0.500000 0.782639
O O20 0.693684 0.500000 0.052550
#
# Coordination Sequence:
#
# PCOD8058590 Si02
#       8
#     4   4   4   4   4   4   4   4
#     4  11  21  32  48  70 101 135 168 204 247 299
#     4  10  18  31  52  77 103 129 161 205 254 297
#     4   9  17  31  52  77  98 127 170 210 250 296
#     4  11  20  30  49  76 103 130 163 202 246 299
#     4  10  19  31  48  71 102 135 165 203 246 294
#     4   8  15  28  51  79 101 123 161 213 256 290
#     4  10  20  33  51  72 101 134 166 204 246 299
#     4   9  17  31  53  76 100 127 163 212 257 295
#
# _framework density 18.194502
#
# number of rings (size 3 to 8) (size 9 to 14) (size 15 to 20)
#    0.000    2.250    1.250    4.875    0.000    2.500 
#    0.000    3.125    0.000   11.250    0.000    5.250 
#    0.000    0.000    0.000    0.000    0.000    0.000 
#
# Total GULP energy -396779.118107 kJ/mol
# GULP energy per Si atom -12399.347441 kJ/mol
# Density = 1.815309 g / cm^3
# Si number density = 18.194502 Si / 1000 Ang^3
#
#
#
# Elastic Constant Matrix: (Units=GPa)
#
#
# Indices 1 2 3 4 5 6 
#
# 1 103.3934 17.2060 80.3402 0.0000 -5.1823 0.0000
# 2 17.2060 32.5983 22.4379 0.0000 -4.4627 0.0000
# 3 80.3402 22.4379 155.9402 0.0000 -18.0870 0.0000
# 4 0.0000 0.0000 0.0000 10.3195 0.0000 -1.7258
# 5 -5.1823 -4.4627 -18.0870 0.0000 24.0519 0.0000
# 6 0.0000 0.0000 0.0000 -1.7258 0.0000 2.3406
#
#
#
# Elastic Compliance Matrix: (Units=1/GPa)
#
#
# Indices 1 2 3 4 5 6 
#
# 1 0.016669 -0.003422 -0.008493 0.000000 -0.003430 0.000000
# 2 -0.003422 0.034935 -0.002846 0.000000 0.003605 0.000000
# 3 -0.008493 -0.002846 0.011968 0.000000 0.006642 0.000000
# 4 0.000000 0.000000 0.000000 0.110534 0.000000 0.081501
# 5 -0.003430 0.003605 0.006642 0.000000 0.046501 0.000000
# 6 0.000000 0.000000 0.000000 0.081501 0.000000 0.487330
#
#
# Mechanical properties :
#
#
# Convention : Reuss Voigt Hill
#
# Bulk Modulus (GPa) = 29.36821 59.10001 44.23411
# Shear Modulus (GPa) = 6.67727 18.80559 12.74143
#
# Velocity S-wave (km/s) = 1.91779 3.21843 2.64917
# Velocity P-wave (km/s) = 4.59131 6.80911 5.80707
#
# Compressibility (1/GPa) = 0.03405042
#
# Stress axis : x y z
#
# Youngs Moduli (GPa) = 59.99203 28.62484 83.55380
#
# Poissons Ratio (x) = 0.09795 0.70965
# Poissons Ratio (y) = 0.20527 0.23777
# Poissons Ratio (z) = 0.50953 0.08146
#
# Static dielectric constant tensor:
#      x y z
#    x 3.358360 0.000000 -0.249270 
#    y 0.000000 3.068700 0.000000 
#    z -0.249270 0.000000 3.615410 
# 
# 
# High freq. dielectric constant tensor:
#      x y z
#    x 1.677730 0.000000 -0.022210 
#    y 0.000000 1.683250 0.000000 
#    z -0.022210 0.000000 1.711530 
# 
# From -- ./inp_files/83530.got.cif
#   From: 2010.06.25/outbox.cif.g09.slc.cpg/sg10_42_cif.got.tgz:83530.got - 2010.06.27 22:07:45.
