data_PCOD8058960
_publ_section_title
;
Structure prediction by ZEFSAII (Michael W. Deem and Ramdas Pophale) SiO2 
 PCOD8058960
Probable space group: P 2/M
;
_chemical_formula_sum "Si O2"
_cell_formula_units_Z 32
_cell_length_a 26.134208
_cell_length_b 8.922224
_cell_length_c 21.126950
_cell_angle_alpha 90.000000
_cell_angle_beta 20.134100
_cell_angle_gamma 90.000000
_cell_volume 1695.717614
_symmetry_space_group_name_H-M "P 2/M"
_symmetry_group_IT_number 10
_symmetry_cell_setting 'monoclinic'
loop_
_space_group_symop_operation_xyz
x,y,z
-x,y,-z
-x,-y,-z
x,-y,z
loop_
_atom_site_type_symbol
_atom_site_label
_atom_site_fract_x
_atom_site_fract_y
_atom_site_fract_z
Si Si1 0.353507 0.826296 0.974451
Si Si2 0.639362 0.322738 0.297922
Si Si3 0.546782 0.827423 0.278719
Si Si4 0.652915 0.321621 0.666077
Si Si5 0.962869 0.674062 0.970353
Si Si6 0.331748 0.327619 0.212670
Si Si7 0.167359 0.329133 0.285988
Si Si8 0.766698 0.177123 0.412692
O O1 0.350792 0.801999 0.901980
O O2 0.484540 0.730415 0.852909
O O3 0.379696 0.000000 0.959422
O O4 0.201452 0.766162 0.182766
O O5 0.500000 0.258128 0.500000
O O6 0.633261 0.500000 0.304264
O O7 0.623459 0.266530 0.244921
O O8 0.795752 0.270056 0.147506
O O9 0.377438 0.771902 0.461145
O O10 0.544121 0.000000 0.302569
O O11 0.658279 0.500000 0.654497
O O12 0.705850 0.263726 0.673837
O O13 0.760690 0.249555 0.489033
O O14 0.982565 0.500000 0.929834
O O15 0.079985 0.771440 0.795732
O O16 0.000000 0.703180 0.000000
O O17 0.283478 0.500000 0.269244
O O18 0.245123 0.248869 0.255941
O O19 0.500000 0.304490 0.000000
O O20 0.221345 0.500000 0.211406
O O21 0.000000 0.323470 0.500000
O O22 0.763976 0.000000 0.423844
#
# Coordination Sequence:
#
# PCOD8058960 Si02
#       8
#     4   4   4   4   4   4   4   4
#     4  10  20  35  54  78 111 143 182 226 273 330
#     4  10  21  37  59  87 113 140 182 230 270 317
#     4   9  20  37  56  79 109 147 185 223 268 326
#     4  10  18  32  57  81 107 142 183 229 277 322
#     4  10  21  38  60  86 115 146 182 225 273 324
#     4   9  16  30  53  79 105 133 176 230 275 319
#     4  10  20  35  54  77 104 140 185 228 276 331
#     4  10  21  37  56  82 116 148 185 226 273 331
#
# _framework density 18.871065999999999
#
# number of rings (size 3 to 8) (size 9 to 14) (size 15 to 20)
#    0.000    2.250    1.250    2.625    0.000    5.250 
#    2.250    1.875    0.000    0.000    0.000    0.000 
#    0.000    0.000    0.000    0.000    0.000    0.000 
#
# Total GULP energy -396668.703022 kJ/mol
# GULP energy per Si atom -12395.896969 kJ/mol
# Density = 1.882811 g / cm^3
# Si number density = 18.871066 Si / 1000 Ang^3
#
#
#
# Elastic Constant Matrix: (Units=GPa)
#
#
# Indices 1 2 3 4 5 6 
#
# 1 133.5892 38.1045 65.1470 0.0000 2.7058 0.0000
# 2 38.1045 53.9235 43.4345 0.0000 6.9364 0.0000
# 3 65.1470 43.4345 107.5321 0.0000 7.2810 0.0000
# 4 0.0000 0.0000 0.0000 25.1440 0.0000 0.6729
# 5 2.7058 6.9364 7.2810 0.0000 29.8949 0.0000
# 6 0.0000 0.0000 0.0000 0.6729 0.0000 16.8016
#
#
#
# Elastic Compliance Matrix: (Units=1/GPa)
#
#
# Indices 1 2 3 4 5 6 
#
# 1 0.011112 -0.003728 -0.005305 0.000000 0.001151 0.000000
# 2 -0.003728 0.029155 -0.009235 0.000000 -0.004178 0.000000
# 3 -0.005305 -0.009235 0.016335 0.000000 -0.001356 0.000000
# 4 0.000000 0.000000 0.000000 0.039814 0.000000 -0.001595
# 5 0.001151 -0.004178 -0.001356 0.000000 0.034646 0.000000
# 6 0.000000 0.000000 0.000000 -0.001595 0.000000 0.059582
#
#
# Mechanical properties :
#
#
# Convention : Reuss Voigt Hill
#
# Bulk Modulus (GPa) = 49.83047 65.37966 57.60506
# Shear Modulus (GPa) = 21.37955 24.25870 22.81912
#
# Velocity S-wave (km/s) = 3.36955 3.58927 3.48115
# Velocity P-wave (km/s) = 6.44993 7.20401 6.83738
#
# Compressibility (1/GPa) = 0.02006804
#
# Stress axis : x y z
#
# Youngs Moduli (GPa) = 89.98876 34.29932 61.21742
#
# Poissons Ratio (x) = 0.12786 0.32473
# Poissons Ratio (y) = 0.33547 0.56534
# Poissons Ratio (z) = 0.47735 0.31675
#
# Static dielectric constant tensor:
#      x y z
#    x 3.594610 0.000000 0.139630 
#    y 0.000000 3.330020 0.000000 
#    z 0.139630 0.000000 3.492130 
# 
# 
# High freq. dielectric constant tensor:
#      x y z
#    x 1.737630 0.000000 0.014380 
#    y 0.000000 1.716610 0.000000 
#    z 0.014380 0.000000 1.731960 
# 
# From -- ./inp_files/86741.got.cif
#   From: 2010.06.25/outbox.cif.g09.slc.cpg/sg10_44_cif.got.tgz:86741.got - 2010.06.27 22:07:45.
