data_PCOD8058185
_publ_section_title
;
Structure prediction by ZEFSAII (Michael W. Deem and Ramdas Pophale) SiO2 
 PCOD8058185
Probable space group: P 2/M
;
_chemical_formula_sum "Si O2"
_cell_formula_units_Z 32
_cell_length_a 15.274974
_cell_length_b 8.867689
_cell_length_c 14.280523
_cell_angle_alpha 90.000000
_cell_angle_beta 93.006535
_cell_angle_gamma 90.000000
_cell_volume 1931.687430
_symmetry_space_group_name_H-M "P 2/M"
_symmetry_group_IT_number 10
_symmetry_cell_setting 'monoclinic'
loop_
_space_group_symop_operation_xyz
x,y,z
-x,y,-z
-x,-y,-z
x,-y,z
loop_
_atom_site_type_symbol
_atom_site_label
_atom_site_fract_x
_atom_site_fract_y
_atom_site_fract_z
Si Si1 0.097362 0.677734 0.904121
Si Si2 0.899255 0.321791 0.888640
Si Si3 0.693075 0.677160 0.582617
Si Si4 0.992059 0.674561 0.392139
Si Si5 0.185696 0.324416 0.723291
Si Si6 0.667661 0.822514 0.382003
Si Si7 0.477217 0.166127 0.390107
Si Si8 0.149518 0.822402 0.296904
O O1 0.089373 0.500000 0.894037
O O2 0.159473 0.738244 0.824770
O O3 0.998829 0.738993 0.885544
O O4 0.135411 0.720082 0.008774
O O5 0.892674 0.500000 0.869936
O O6 0.840901 0.234803 0.809392
O O7 0.705173 0.500000 0.583945
O O8 0.693868 0.733311 0.476486
O O9 0.602741 0.719268 0.631600
O O10 0.774035 0.750766 0.638665
O O11 0.018493 0.500000 0.380757
O O12 0.893052 0.703590 0.353778
O O13 0.000000 0.725502 0.500000
O O14 0.056008 0.773719 0.332728
O O15 0.211363 0.500000 0.727621
O O16 0.269314 0.227539 0.698027
O O17 0.567616 0.782556 0.344574
O O18 0.676233 0.000000 0.402921
O O19 0.500000 0.158824 0.500000
O O20 0.447907 0.000000 0.353500
O O21 0.158705 0.000000 0.300676
#
# Coordination Sequence:
#
# PCOD8058185 Si02
#       8
#     4   4   4   4   4   4   4   4
#     4   8  15  29  52  73  91 123 163 206 246 282
#     4   9  16  32  53  70  91 123 165 204 244 288
#     4  11  21  33  51  72  95 127 167 206 239 281
#     4  10  20  33  48  66  93 131 170 202 233 275
#     4  10  18  30  48  72  99 129 167 203 237 279
#     4  10  20  33  49  72 103 134 160 194 242 290
#     4   8  16  32  50  69  97 128 157 195 243 288
#     4  12  23  33  47  70  99 129 160 198 247 295
#
# _framework density 16.565826999999999
#
# number of rings (size 3 to 8) (size 9 to 14) (size 15 to 20)
#    0.000    2.250    1.250    4.875    0.000    4.500 
#    0.000    1.875    0.000    0.000    0.000    0.875 
#    0.000    7.000    0.000    0.000    0.000    0.000 
#
# Total GULP energy -396716.460501 kJ/mol
# GULP energy per Si atom -12397.389391 kJ/mol
# Density = 1.652812 g / cm^3
# Si number density = 16.565827 Si / 1000 Ang^3
#
#
#
# Elastic Constant Matrix: (Units=GPa)
#
#
# Indices 1 2 3 4 5 6 
#
# 1 77.7984 29.4934 20.1025 0.0000 -21.5435 0.0000
# 2 29.4934 82.6067 24.0892 0.0000 -5.5951 0.0000
# 3 20.1025 24.0892 73.1698 0.0000 -21.3115 0.0000
# 4 0.0000 0.0000 0.0000 7.4812 0.0000 2.7558
# 5 -21.5435 -5.5951 -21.3115 0.0000 17.7610 0.0000
# 6 0.0000 0.0000 0.0000 2.7558 0.0000 25.2491
#
#
#
# Elastic Compliance Matrix: (Units=1/GPa)
#
#
# Indices 1 2 3 4 5 6 
#
# 1 0.023411 -0.007795 0.005672 0.000000 0.032748 0.000000
# 2 -0.007795 0.016018 -0.006788 0.000000 -0.012554 0.000000
# 3 0.005672 -0.006788 0.024172 0.000000 0.033746 0.000000
# 4 0.000000 0.000000 0.000000 0.139267 0.000000 -0.015200
# 5 0.032748 -0.012554 0.033746 0.000000 0.132563 0.000000
# 6 0.000000 0.000000 0.000000 -0.015200 0.000000 0.041264
#
#
# Mechanical properties :
#
#
# Convention : Reuss Voigt Hill
#
# Bulk Modulus (GPa) = 21.84362 42.32723 32.08542
# Shear Modulus (GPa) = 12.20177 20.75761 16.47969
#
# Velocity S-wave (km/s) = 2.71691 3.54367 3.15747
# Velocity P-wave (km/s) = 4.80174 6.50768 5.71868
#
# Compressibility (1/GPa) = 0.04577996
#
# Stress axis : x y z
#
# Youngs Moduli (GPa) = 42.71412 62.43047 41.36970
#
# Poissons Ratio (x) = 0.48663 -0.23467
# Poissons Ratio (y) = 0.33295 0.28084
# Poissons Ratio (z) = -0.24229 0.42381
#
# Static dielectric constant tensor:
#      x y z
#    x 3.373760 0.000000 -0.191300 
#    y 0.000000 3.025740 0.000000 
#    z -0.191300 0.000000 3.222180 
# 
# 
# High freq. dielectric constant tensor:
#      x y z
#    x 1.627900 0.000000 -0.007150 
#    y 0.000000 1.628370 0.000000 
#    z -0.007150 0.000000 1.620170 
# 
# From -- ./inp_files/66141.got.cif
#   From: 2010.06.25/outbox.cif.g09.slc.cpg/sg10_34_cif.got.tgz:66141.got - 2010.06.27 22:07:45.
