data_PCOD8058579
_publ_section_title
;
Structure prediction by ZEFSAII (Michael W. Deem and Ramdas Pophale) SiO2 
 PCOD8058579
Probable space group: P 2/M
;
_chemical_formula_sum "Si O2"
_cell_formula_units_Z 28
_cell_length_a 32.209640
_cell_length_b 9.047331
_cell_length_c 9.979550
_cell_angle_alpha 90.000000
_cell_angle_beta 148.070837
_cell_angle_gamma 90.000000
_cell_volume 1538.036199
_symmetry_space_group_name_H-M "P 2/M"
_symmetry_group_IT_number 10
_symmetry_cell_setting 'monoclinic'
loop_
_space_group_symop_operation_xyz
x,y,z
-x,y,-z
-x,-y,-z
x,-y,z
loop_
_atom_site_type_symbol
_atom_site_label
_atom_site_fract_x
_atom_site_fract_y
_atom_site_fract_z
Si Si1 0.801279 0.672780 0.973277
Si Si2 0.945675 0.825681 0.473102
Si Si3 0.198420 0.169956 0.297022
Si Si4 0.040024 0.826025 0.981561
Si Si5 0.377031 0.172132 0.809582
Si Si6 0.623744 0.672443 0.471793
Si Si7 0.508102 0.326225 0.677367
O O1 0.814338 0.500000 0.021152
O O2 0.822244 0.724958 0.882223
O O3 0.711189 0.717301 0.757500
O O4 0.859473 0.752726 0.235595
O O5 0.000000 0.775800 0.500000
O O6 0.992397 0.761055 0.726781
O O7 0.932949 0.000000 0.441297
O O8 0.285335 0.199790 0.590093
O O9 0.189505 0.000000 0.224156
O O10 0.133460 0.208158 0.231964
O O11 0.026569 0.000000 0.947362
O O12 0.000000 0.750096 0.000000
O O13 0.401562 0.242437 0.733421
O O14 0.398131 0.000000 0.860121
O O15 0.420018 0.244862 0.053656
O O16 0.617936 0.500000 0.420167
O O17 0.569198 0.714651 0.448292
O O18 0.500000 0.272518 0.500000
O O19 0.525026 0.500000 0.726511
#
# Coordination Sequence:
#
# PCOD8058579 Si02
#       7
#     4   4   4   4   4   4   4
#     4  10  19  31  51  78 104 129 166 213 256 292
#     4  10  18  31  52  75  99 132 171 208 248 295
#     4   9  17  33  53  74 103 134 168 207 252 301
#     4   9  17  31  51  72  97 133 174 207 239 295
#     4  10  20  33  55  83 107 132 167 216 265 303
#     4   9  19  36  56  77 102 136 176 212 249 306
#     4  10  21  38  57  75 102 141 177 206 249 312
#
# _framework density 18.205034000000001
#
# number of rings (size 3 to 8) (size 9 to 14) (size 15 to 20)
#    0.000    2.429    1.429    1.286    0.000    4.000 
#    2.571    0.000    0.000    1.714    0.000    0.000 
#    0.000    0.000    0.000    0.000    0.000    0.000 
#
# Total GULP energy -347095.534059 kJ/mol
# GULP energy per Si atom -12396.269074 kJ/mol
# Density = 1.816360 g / cm^3
# Si number density = 18.205034 Si / 1000 Ang^3
#
#
#
# Elastic Constant Matrix: (Units=GPa)
#
#
# Indices 1 2 3 4 5 6 
#
# 1 143.9485 33.5322 81.0950 0.0000 -5.3732 0.0000
# 2 33.5322 42.6080 44.2794 0.0000 -0.8627 0.0000
# 3 81.0950 44.2794 139.3720 0.0000 -1.7796 0.0000
# 4 0.0000 0.0000 0.0000 30.9817 0.0000 4.6985
# 5 -5.3732 -0.8627 -1.7796 0.0000 28.4872 0.0000
# 6 0.0000 0.0000 0.0000 4.6985 0.0000 15.1923
#
#
#
# Elastic Compliance Matrix: (Units=1/GPa)
#
#
# Indices 1 2 3 4 5 6 
#
# 1 0.010637 -0.002878 -0.005254 0.000000 0.001591 0.000000
# 2 -0.002878 0.035821 -0.009707 0.000000 -0.000064 0.000000
# 3 -0.005254 -0.009707 0.013310 0.000000 -0.000454 0.000000
# 4 0.000000 0.000000 0.000000 0.033865 0.000000 -0.010474
# 5 0.001591 -0.000064 -0.000454 0.000000 0.035373 0.000000
# 6 0.000000 0.000000 0.000000 -0.010474 0.000000 0.069062
#
#
# Mechanical properties :
#
#
# Convention : Reuss Voigt Hill
#
# Bulk Modulus (GPa) = 41.51166 71.52684 56.51925
# Shear Modulus (GPa) = 20.68013 26.06704 23.37359
#
# Velocity S-wave (km/s) = 3.37405 3.78810 3.58705
# Velocity P-wave (km/s) = 6.16691 7.64904 6.94761
#
# Compressibility (1/GPa) = 0.02408962
#
# Stress axis : x y z
#
# Youngs Moduli (GPa) = 94.01180 27.91652 75.12924
#
# Poissons Ratio (x) = 0.08036 0.39476
# Poissons Ratio (y) = 0.27061 0.72924
# Poissons Ratio (z) = 0.49397 0.27097
#
# Static dielectric constant tensor:
#      x y z
#    x 3.506470 0.000000 0.101030 
#    y 0.000000 3.195570 0.000000 
#    z 0.101030 0.000000 3.504450 
# 
# 
# High freq. dielectric constant tensor:
#      x y z
#    x 1.697570 0.000000 0.016790 
#    y 0.000000 1.687300 0.000000 
#    z 0.016790 0.000000 1.710810 
# 
# From -- ./inp_files/37239.got.cif
#   From: 2010.06.25/outbox.cif.g09.slc.cpg/sg10_19_cif.got.tgz:37239.got - 2010.06.27 22:07:45.
