data_PCOD8058625
_publ_section_title
;
Structure prediction by ZEFSAII (Michael W. Deem and Ramdas Pophale) SiO2 
 PCOD8058625
Probable space group: P 2/M
;
_chemical_formula_sum "Si O2"
_cell_formula_units_Z 32
_cell_length_a 23.907291
_cell_length_b 8.814365
_cell_length_c 17.797912
_cell_angle_alpha 90.000000
_cell_angle_beta 149.688541
_cell_angle_gamma 90.000000
_cell_volume 1892.884034
_symmetry_space_group_name_H-M "P 2/M"
_symmetry_group_IT_number 10
_symmetry_cell_setting 'monoclinic'
loop_
_space_group_symop_operation_xyz
x,y,z
-x,y,-z
-x,-y,-z
x,-y,z
loop_
_atom_site_type_symbol
_atom_site_label
_atom_site_fract_x
_atom_site_fract_y
_atom_site_fract_z
Si Si1 0.533286 0.822961 0.454205
Si Si2 0.868244 0.324740 0.963999
Si Si3 0.906428 0.178030 0.724323
Si Si4 0.236308 0.675987 0.315856
Si Si5 0.931861 0.681295 0.599212
Si Si6 0.173642 0.680314 0.837067
Si Si7 0.127901 0.666450 0.627000
Si Si8 0.324289 0.321570 0.145527
O O1 0.500000 0.779996 0.500000
O O2 0.639422 0.726409 0.555656
O O3 0.434569 0.775408 0.284307
O O4 0.559205 0.000000 0.475311
O O5 0.897880 0.500000 0.013757
O O6 0.840101 0.293727 0.844983
O O7 0.763845 0.275373 0.892995
O O8 0.973784 0.226549 0.107321
O O9 0.811216 0.229285 0.670503
O O10 0.877070 0.249601 0.609631
O O11 0.903405 0.000000 0.712791
O O12 0.235724 0.500000 0.336584
O O13 0.924889 0.500000 0.593839
O O14 0.865854 0.745146 0.448295
O O15 0.059906 0.736550 0.744082
O O16 0.165229 0.500000 0.819450
O O17 0.187432 0.749539 0.767739
O O18 0.276521 0.726519 0.008634
O O19 0.181277 0.500000 0.680170
O O20 0.000000 0.650413 0.500000
O O21 0.351161 0.500000 0.181169
#
# Coordination Sequence:
#
# PCOD8058625 Si02
#       8
#     4   4   4   4   4   4   4   4
#     4  11  23  37  53  74 102 131 164 208 257 301
#     4  10  20  35  54  75  98 130 171 210 246 292
#     4  12  24  34  48  73 106 137 168 205 252 303
#     4  11  23  39  57  72  93 129 176 217 250 292
#     4   9  15  28  48  70  99 134 170 202 240 291
#     4   8  13  24  45  74 102 127 163 208 246 285
#     4   7  11  20  41  71  98 126 161 203 244 283
#     4  10  18  31  53  77 101 132 171 209 246 291
#
# _framework density 16.905421
#
# number of rings (size 3 to 8) (size 9 to 14) (size 15 to 20)
#    0.000    2.250    2.500    3.750    0.000    3.500 
#    0.000    0.000    0.000    4.125    0.000    0.875 
#    0.000    7.000    0.000    0.000    0.000    0.000 
#
# Total GULP energy -396617.903971 kJ/mol
# GULP energy per Si atom -12394.309499 kJ/mol
# Density = 1.686694 g / cm^3
# Si number density = 16.905421 Si / 1000 Ang^3
#
#
#
# Elastic Constant Matrix: (Units=GPa)
#
#
# Indices 1 2 3 4 5 6 
#
# 1 91.8641 27.7307 42.5470 0.0000 -20.8923 0.0000
# 2 27.7307 41.2767 25.0630 0.0000 -7.6641 0.0000
# 3 42.5470 25.0630 71.4324 0.0000 -20.5023 0.0000
# 4 0.0000 0.0000 0.0000 9.4860 0.0000 4.1334
# 5 -20.8923 -7.6641 -20.5023 0.0000 28.7875 0.0000
# 6 0.0000 0.0000 0.0000 4.1334 0.0000 13.1488
#
#
#
# Elastic Compliance Matrix: (Units=1/GPa)
#
#
# Indices 1 2 3 4 5 6 
#
# 1 0.017146 -0.006665 -0.006048 0.000000 0.006361 0.000000
# 2 -0.006665 0.033386 -0.008272 0.000000 -0.001840 0.000000
# 3 -0.006048 -0.008272 0.023394 0.000000 0.010070 0.000000
# 4 0.000000 0.000000 0.000000 0.122150 0.000000 -0.038398
# 5 0.006361 -0.001840 0.010070 0.000000 0.046036 0.000000
# 6 0.000000 0.000000 0.000000 -0.038398 0.000000 0.088123
#
#
# Mechanical properties :
#
#
# Convention : Reuss Voigt Hill
#
# Bulk Modulus (GPa) = 31.29411 43.91715 37.60563
# Shear Modulus (GPa) = 13.05975 17.56664 15.31320
#
# Velocity S-wave (km/s) = 2.78244 3.22702 3.01294
# Velocity P-wave (km/s) = 5.37346 6.31818 5.86488
#
# Compressibility (1/GPa) = 0.03195489
#
# Stress axis : x y z
#
# Youngs Moduli (GPa) = 58.32427 29.95300 42.74606
#
# Poissons Ratio (x) = 0.19965 0.25852
# Poissons Ratio (y) = 0.38875 0.35359
# Poissons Ratio (z) = 0.35274 0.24777
#
# Static dielectric constant tensor:
#      x y z
#    x 3.292280 0.000000 -0.393050 
#    y 0.000000 2.901340 0.000000 
#    z -0.393050 0.000000 3.258790 
# 
# 
# High freq. dielectric constant tensor:
#      x y z
#    x 1.643510 0.000000 -0.028180 
#    y 0.000000 1.625790 0.000000 
#    z -0.028180 0.000000 1.640690 
# 
# From -- ./inp_files/56408.got.cif
#   From: 2010.06.25/outbox.cif.g09.slc.cpg/sg10_29_cif.got.tgz:56408.got - 2010.06.27 22:07:45.
