data_PCOD8058621
_publ_section_title
;
Structure prediction by ZEFSAII (Michael W. Deem and Ramdas Pophale) SiO2 
 PCOD8058621
Probable space group: P 2/M
;
_chemical_formula_sum "Si O2"
_cell_formula_units_Z 24
_cell_length_a 11.906922
_cell_length_b 8.495383
_cell_length_c 23.460213
_cell_angle_alpha 90.000000
_cell_angle_beta 34.039978
_cell_angle_gamma 90.000000
_cell_volume 1328.388152
_symmetry_space_group_name_H-M "P 2/M"
_symmetry_group_IT_number 10
_symmetry_cell_setting 'monoclinic'
loop_
_space_group_symop_operation_xyz
x,y,z
-x,y,-z
-x,-y,-z
x,-y,z
loop_
_atom_site_type_symbol
_atom_site_label
_atom_site_fract_x
_atom_site_fract_y
_atom_site_fract_z
Si Si1 0.777219 0.181612 0.419026
Si Si2 0.310073 0.183535 0.114927
Si Si3 0.503856 0.685209 0.372712
Si Si4 0.175390 0.316749 0.287126
Si Si5 0.220361 0.315697 0.393449
Si Si6 0.907852 0.320194 0.249930
O O1 0.579415 0.222213 0.537542
O O2 0.791389 0.291590 0.357879
O O3 0.971851 0.216339 0.375672
O O4 0.773018 0.000000 0.402032
O O5 0.309488 0.269650 0.176381
O O6 0.108298 0.214598 0.162947
O O7 0.330418 0.000000 0.118391
O O8 0.500000 0.248027 0.000000
O O9 0.465169 0.500000 0.397637
O O10 0.394137 0.751712 0.362068
O O11 0.745047 0.718358 0.268493
O O12 0.119899 0.500000 0.306166
O O13 0.286618 0.279885 0.300282
O O14 0.207259 0.500000 0.410293
O O15 0.000000 0.242626 0.500000
O O16 0.979210 0.500000 0.216567
#
# Coordination Sequence:
#
# PCOD8058621 Si02
#       6
#     4   4   4   4   4   4
#     4  11  20  29  44  68 102 137 168 202 241 288
#     4  10  21  37  56  75  98 126 157 204 260 304
#     4  10  19  32  48  69  99 135 170 200 239 288
#     4  10  18  31  53  76  99 130 168 207 244 286
#     4   9  16  29  50  72 100 136 169 201 237 281
#     4  10  20  32  50  73  97 126 164 208 247 292
#
# _framework density 18.067008000000001
#
# number of rings (size 3 to 8) (size 9 to 14) (size 15 to 20)
#    0.000    2.000    1.667    5.500    0.000    4.667 
#    0.000    2.500    0.000    1.000    0.000    7.000 
#    0.000    0.000    0.000    0.000    0.000    0.000 
#
# Total GULP energy -297462.125328 kJ/mol
# GULP energy per Si atom -12394.255222 kJ/mol
# Density = 1.802589 g / cm^3
# Si number density = 18.067008 Si / 1000 Ang^3
#
#
#
# Elastic Constant Matrix: (Units=GPa)
#
#
# Indices 1 2 3 4 5 6 
#
# 1 121.9157 3.7829 47.5830 0.0000 -10.8734 0.0000
# 2 3.7829 38.1962 12.3620 0.0000 -2.1639 0.0000
# 3 47.5830 12.3620 98.9110 0.0000 -9.0705 0.0000
# 4 0.0000 0.0000 0.0000 21.7097 0.0000 -6.2941
# 5 -10.8734 -2.1639 -9.0705 0.0000 13.9663 0.0000
# 6 0.0000 0.0000 0.0000 -6.2941 0.0000 6.5200
#
#
#
# Elastic Compliance Matrix: (Units=1/GPa)
#
#
# Indices 1 2 3 4 5 6 
#
# 1 0.010460 0.000765 -0.004647 0.000000 0.005244 0.000000
# 2 0.000765 0.027400 -0.003561 0.000000 0.002528 0.000000
# 3 -0.004647 -0.003561 0.013194 0.000000 0.004400 0.000000
# 4 0.000000 0.000000 0.000000 0.063964 0.000000 0.061748
# 5 0.005244 0.002528 0.004400 0.000000 0.078933 0.000000
# 6 0.000000 0.000000 0.000000 0.061748 0.000000 0.212982
#
#
# Mechanical properties :
#
#
# Convention : Reuss Voigt Hill
#
# Bulk Modulus (GPa) = 27.64744 42.94208 35.29476
# Shear Modulus (GPa) = 11.52406 21.45886 16.49146
#
# Velocity S-wave (km/s) = 2.52831 3.45010 3.02453
# Velocity P-wave (km/s) = 4.88458 6.30006 5.63692
#
# Compressibility (1/GPa) = 0.03616971
#
# Stress axis : x y z
#
# Youngs Moduli (GPa) = 95.60277 36.49570 75.79245
#
# Poissons Ratio (x) = -0.02792 0.35218
# Poissons Ratio (y) = -0.07314 0.26987
# Poissons Ratio (z) = 0.44423 0.12995
#
# Static dielectric constant tensor:
#      x y z
#    x 3.676590 0.000000 -0.050870 
#    y 0.000000 3.208380 0.000000 
#    z -0.050870 0.000000 3.115430 
# 
# 
# High freq. dielectric constant tensor:
#      x y z
#    x 1.706040 0.000000 -0.003380 
#    y 0.000000 1.689730 0.000000 
#    z -0.003380 0.000000 1.659260 
# 
# From -- ./inp_files/56318.got.cif
#   From: 2010.06.25/outbox.cif.g09.slc.cpg/sg10_29_cif.got.tgz:56318.got - 2010.06.27 22:07:45.
