data_PCOD8058593
_publ_section_title
;
Structure prediction by ZEFSAII (Michael W. Deem and Ramdas Pophale) SiO2 
 PCOD8058593
Probable space group: P 2/M
;
_chemical_formula_sum "Si O2"
_cell_formula_units_Z 28
_cell_length_a 9.773096
_cell_length_b 9.189948
_cell_length_c 25.646358
_cell_angle_alpha 90.000000
_cell_angle_beta 40.098275
_cell_angle_gamma 90.000000
_cell_volume 1483.626640
_symmetry_space_group_name_H-M "P 2/M"
_symmetry_group_IT_number 10
_symmetry_cell_setting 'monoclinic'
loop_
_space_group_symop_operation_xyz
x,y,z
-x,y,-z
-x,-y,-z
x,-y,z
loop_
_atom_site_type_symbol
_atom_site_label
_atom_site_fract_x
_atom_site_fract_y
_atom_site_fract_z
Si Si1 0.771859 0.167720 0.588468
Si Si2 0.280266 0.332689 0.585422
Si Si3 0.668077 0.335662 0.997285
Si Si4 0.359148 0.331511 0.681393
Si Si5 0.354106 0.168471 0.154394
Si Si6 0.128422 0.167160 0.323612
Si Si7 0.980675 0.830234 0.838571
O O1 0.596145 0.268220 0.612991
O O2 0.756590 0.191015 0.654976
O O3 0.000000 0.216959 0.500000
O O4 0.728854 0.000000 0.586053
O O5 0.500000 0.265841 0.500000
O O6 0.264769 0.500000 0.573424
O O7 0.263056 0.311509 0.652117
O O8 0.090951 0.252337 0.611725
O O9 0.736917 0.500000 0.991029
O O10 0.873131 0.243330 0.920387
O O11 0.500000 0.333927 0.000000
O O12 0.560784 0.261924 0.078972
O O13 0.364469 0.500000 0.696297
O O14 0.210100 0.242925 0.764399
O O15 0.283796 0.221479 0.232264
O O16 0.160542 0.197695 0.171405
O O17 0.420586 0.000000 0.133879
O O18 0.070184 0.000000 0.330536
O O19 0.011871 0.000000 0.840896
#
# Coordination Sequence:
#
# PCOD8058593 Si02
#       7
#     4   4   4   4   4   4   4
#     4  10  22  39  57  78 106 143 186 227 270 322
#     4  10  21  35  52  77 107 138 174 221 275 324
#     4   9  17  28  46  75 110 142 173 212 260 317
#     4  11  22  35  54  79 109 142 180 224 270 323
#     4   9  17  30  49  76 107 139 176 217 265 317
#     4  10  20  35  55  79 106 139 181 226 267 317
#     4  10  18  31  52  77 108 142 177 218 266 317
#
# _framework density 18.872672999999999
#
# number of rings (size 3 to 8) (size 9 to 14) (size 15 to 20)
#    0.000    2.143    1.429    2.143    0.000    4.571 
#    0.000    0.000    0.000    0.857    0.000    6.000 
#    0.000    0.000    0.000    0.000    0.000    0.000 
#
# Total GULP energy -347292.743663 kJ/mol
# GULP energy per Si atom -12403.312274 kJ/mol
# Density = 1.882972 g / cm^3
# Si number density = 18.872673 Si / 1000 Ang^3
#
#
#
# Elastic Constant Matrix: (Units=GPa)
#
#
# Indices 1 2 3 4 5 6 
#
# 1 24.2918 15.5441 1.7603 0.0000 -0.4761 0.0000
# 2 15.5441 97.2485 49.0622 0.0000 -7.9879 0.0000
# 3 1.7603 49.0622 118.2942 0.0000 4.1488 0.0000
# 4 0.0000 0.0000 0.0000 36.1346 0.0000 -3.9410
# 5 -0.4761 -7.9879 4.1488 0.0000 27.0541 0.0000
# 6 0.0000 0.0000 0.0000 -3.9410 0.0000 16.1288
#
#
#
# Elastic Compliance Matrix: (Units=1/GPa)
#
#
# Indices 1 2 3 4 5 6 
#
# 1 0.046854 -0.009333 0.003259 0.000000 -0.002431 0.000000
# 2 -0.009333 0.015483 -0.006472 0.000000 0.005400 0.000000
# 3 0.003259 -0.006472 0.011215 0.000000 -0.003573 0.000000
# 4 0.000000 0.000000 0.000000 0.028432 0.000000 0.006947
# 5 -0.002431 0.005400 -0.003573 0.000000 0.039063 0.000000
# 6 0.000000 0.000000 0.000000 0.006947 0.000000 0.063698
#
#
# Mechanical properties :
#
#
# Convention : Reuss Voigt Hill
#
# Bulk Modulus (GPa) = 20.63561 41.39641 31.01601
# Shear Modulus (GPa) = 20.32592 27.42804 23.87698
#
# Velocity S-wave (km/s) = 3.28533 3.81638 3.56077
# Velocity P-wave (km/s) = 5.03479 6.43443 5.77715
#
# Compressibility (1/GPa) = 0.04845992
#
# Stress axis : x y z
#
# Youngs Moduli (GPa) = 21.34272 64.58491 89.16893
#
# Poissons Ratio (x) = 0.60276 -0.29058
# Poissons Ratio (y) = 0.19919 0.57712
# Poissons Ratio (z) = -0.06955 0.41801
#
# Static dielectric constant tensor:
#      x y z
#    x 3.061290 0.000000 0.135980 
#    y 0.000000 3.475630 0.000000 
#    z 0.135980 0.000000 3.606650 
# 
# 
# High freq. dielectric constant tensor:
#      x y z
#    x 1.692230 0.000000 0.007650 
#    y 0.000000 1.735680 0.000000 
#    z 0.007650 0.000000 1.748680 
# 
# From -- ./inp_files/36963.got.cif
#   From: 2010.06.25/outbox.cif.g09.slc.cpg/sg10_19_cif.got.tgz:36963.got - 2010.06.27 22:07:45.
