data_PCOD8058977
_publ_section_title
;
Structure prediction by ZEFSAII (Michael W. Deem and Ramdas Pophale) SiO2 
 PCOD8058977
Probable space group: P 2/M
;
_chemical_formula_sum "Si O2"
_cell_formula_units_Z 30
_cell_length_a 13.336817
_cell_length_b 17.316612
_cell_length_c 18.083234
_cell_angle_alpha 90.000000
_cell_angle_beta 21.670691
_cell_angle_gamma 90.000000
_cell_volume 1542.186578
_symmetry_space_group_name_H-M "P 2/M"
_symmetry_group_IT_number 10
_symmetry_cell_setting 'monoclinic'
loop_
_space_group_symop_operation_xyz
x,y,z
-x,y,-z
-x,-y,-z
x,-y,z
loop_
_atom_site_type_symbol
_atom_site_label
_atom_site_fract_x
_atom_site_fract_y
_atom_site_fract_z
Si Si1 0.416253 0.200737 0.265106
Si Si2 0.938689 0.303757 0.280940
Si Si3 0.539681 0.187075 0.391505
Si Si4 0.705817 0.162300 0.925462
Si Si5 0.936786 0.275610 0.967182
Si Si6 0.205594 0.911988 0.520723
Si Si7 0.000000 0.675608 0.500000
Si Si8 0.185969 0.591102 0.226269
O O1 0.200264 0.144503 0.453048
O O2 0.261469 0.272083 0.335289
O O3 0.560567 0.148353 0.103562
O O4 0.635513 0.237916 0.172163
O O5 0.156804 0.245458 0.165519
O O6 0.999976 0.322072 0.151956
O O7 0.988633 0.380638 0.294532
O O8 0.642375 0.265674 0.494637
O O9 0.500000 0.153834 0.500000
O O10 0.462162 0.116243 0.392007
O O11 0.855193 0.204737 0.166001
O O12 0.930459 0.096552 0.756900
O O13 0.500000 0.160703 0.000000
O O14 0.000000 0.325258 0.000000
O O15 0.243588 0.000000 0.469840
O O16 0.068859 0.622877 0.383087
O O17 0.159535 0.500000 0.245976
O O18 0.500000 0.616270 0.000000
#
# Coordination Sequence:
#
# PCOD8058977 Si02
#       8
#     4   4   4   4   4   4   2   4
#     4  11  22  37  61  88 115 148 199 251 289 342
#     4   9  18  34  58  84 112 151 190 242 290 340
#     4   9  18  35  56  79 109 147 200 245 286 338
#     4  10  20  37  58  81 108 148 200 243 288 348
#     4  10  18  32  58  88 111 144 202 254 286 332
#     4  11  23  37  53  79 118 155 191 242 303 353
#     4  12  23  40  69  92 114 156 200 244 291 344
#     4  11  23  39  60  93 130 156 187 234 296 354
#
# _framework density 19.452897
#
# number of rings (size 3 to 8) (size 9 to 14) (size 15 to 20)
#    0.000    1.733    1.333    6.200    0.000    1.067 
#    0.000    3.667    0.000    4.000    0.000    0.000 
#    0.000    0.000    0.000    0.000    0.000    0.000 
#
# Total GULP energy -371828.595495 kJ/mol
# GULP energy per Si atom -12394.286517 kJ/mol
# Density = 1.940862 g / cm^3
# Si number density = 19.452897 Si / 1000 Ang^3
#
#
#
# Elastic Constant Matrix: (Units=GPa)
#
#
# Indices 1 2 3 4 5 6 
#
# 1 126.8751 39.5296 28.2592 0.0000 5.3265 0.0000
# 2 39.5296 76.9992 25.7665 0.0000 7.4576 0.0000
# 3 28.2592 25.7665 87.4256 0.0000 7.1264 0.0000
# 4 0.0000 0.0000 0.0000 18.5058 0.0000 1.5488
# 5 5.3265 7.4576 7.1264 0.0000 40.1033 0.0000
# 6 0.0000 0.0000 0.0000 1.5488 0.0000 16.1004
#
#
#
# Elastic Compliance Matrix: (Units=1/GPa)
#
#
# Indices 1 2 3 4 5 6 
#
# 1 0.009643 -0.004323 -0.001830 0.000000 -0.000152 0.000000
# 2 -0.004323 0.016499 -0.003310 0.000000 -0.001906 0.000000
# 3 -0.001830 -0.003310 0.013126 0.000000 -0.001474 0.000000
# 4 0.000000 0.000000 0.000000 0.054476 0.000000 -0.005240
# 5 -0.000152 -0.001906 -0.001474 0.000000 0.025572 0.000000
# 6 0.000000 0.000000 0.000000 -0.005240 0.000000 0.062614
#
#
# Mechanical properties :
#
#
# Convention : Reuss Voigt Hill
#
# Bulk Modulus (GPa) = 49.16358 53.15669 51.16013
# Shear Modulus (GPa) = 24.08060 28.12488 26.10274
#
# Velocity S-wave (km/s) = 3.52219 3.80648 3.66709
# Velocity P-wave (km/s) = 6.47063 6.83405 6.65482
#
# Compressibility (1/GPa) = 0.02034026
#
# Stress axis : x y z
#
# Youngs Moduli (GPa) = 103.70474 60.61075 76.18716
#
# Poissons Ratio (x) = 0.26203 0.13945
# Poissons Ratio (y) = 0.44833 0.25217
# Poissons Ratio (z) = 0.18982 0.20061
#
# Static dielectric constant tensor:
#      x y z
#    x 4.274180 0.000000 0.314880 
#    y 0.000000 3.058780 0.000000 
#    z 0.314880 0.000000 3.932710 
# 
# 
# High freq. dielectric constant tensor:
#      x y z
#    x 1.783680 0.000000 0.005960 
#    y 0.000000 1.698650 0.000000 
#    z 0.005960 0.000000 1.773440 
# 
# From -- ./inp_files/85346.got.cif
#   From: 2010.06.25/outbox.cif.g09.slc.cpg/sg10_43_cif.got.tgz:85346.got - 2010.06.27 22:07:45.
