data_PCOD8058729
_publ_section_title
;
Structure prediction by ZEFSAII (Michael W. Deem and Ramdas Pophale) SiO2 
 PCOD8058729
Probable space group: P 2/M
;
_chemical_formula_sum "Si O2"
_cell_formula_units_Z 28
_cell_length_a 18.656954
_cell_length_b 14.052624
_cell_length_c 9.551443
_cell_angle_alpha 90.000000
_cell_angle_beta 136.917497
_cell_angle_gamma 90.000000
_cell_volume 1710.488415
_symmetry_space_group_name_H-M "P 2/M"
_symmetry_group_IT_number 10
_symmetry_cell_setting 'monoclinic'
loop_
_space_group_symop_operation_xyz
x,y,z
-x,y,-z
-x,-y,-z
x,-y,z
loop_
_atom_site_type_symbol
_atom_site_label
_atom_site_fract_x
_atom_site_fract_y
_atom_site_fract_z
Si Si1 0.711430 0.711007 0.763719
Si Si2 0.598438 0.107028 0.546651
Si Si3 0.459531 0.892174 0.091414
Si Si4 0.265513 0.608097 0.633589
Si Si5 0.559084 0.390416 0.344987
Si Si6 0.342012 0.286196 0.000807
Si Si7 0.121279 0.610705 0.178065
O O1 0.696622 0.823338 0.711005
O O2 0.611642 0.655625 0.557181
O O3 0.819799 0.674374 0.852970
O O4 0.717144 0.695006 0.938056
O O5 0.500000 0.140382 0.500000
O O6 0.562300 0.113581 0.334992
O O7 0.633170 0.000000 0.637286
O O8 0.415436 0.000000 0.022968
O O9 0.500000 0.855977 0.000000
O O10 0.365220 0.825879 0.012256
O O11 0.260374 0.500000 0.680890
O O12 0.367705 0.623841 0.684799
O O13 0.267151 0.676808 0.769872
O O14 0.163725 0.632812 0.394357
O O15 0.539256 0.500000 0.350910
O O16 0.450991 0.341622 0.152348
O O17 0.141972 0.500000 0.170862
O O18 0.000000 0.637846 0.000000
#
# Coordination Sequence:
#
# PCOD8058729 Si02
#       7
#     4   4   4   4   4   4   4
#     4  11  20  31  48  75  96 131 173 204 248 293
#     4  10  18  32  49  71 107 142 171 200 236 291
#     4  10  20  31  45  68 103 144 176 198 228 278
#     4   9  19  32  48  70  95 130 166 195 244 301
#     4  10  19  30  43  65 103 141 165 188 232 296
#     4  12  20  28  45  73 107 133 159 204 243 289
#     4   9  20  40  59  71  91 126 169 218 265 307
#
# _framework density 16.369592000000001
#
# number of rings (size 3 to 8) (size 9 to 14) (size 15 to 20)
#    0.000    1.857    2.857    3.429    2.000    4.000 
#    0.000    0.714    0.000    3.000    0.000    0.000 
#    0.000    2.286    0.000    0.000    0.000    0.000 
#
# Total GULP energy -347252.534993 kJ/mol
# GULP energy per Si atom -12401.876250 kJ/mol
# Density = 1.633233 g / cm^3
# Si number density = 16.369592 Si / 1000 Ang^3
#
#
#
# Elastic Constant Matrix: (Units=GPa)
#
#
# Indices 1 2 3 4 5 6 
#
# 1 78.0279 44.9064 57.9397 0.0000 -9.0099 0.0000
# 2 44.9064 101.1482 40.6212 0.0000 0.1162 0.0000
# 3 57.9397 40.6212 91.5142 0.0000 -4.7946 0.0000
# 4 0.0000 0.0000 0.0000 21.5064 0.0000 -3.3394
# 5 -9.0099 0.1162 -4.7946 0.0000 32.3954 0.0000
# 6 0.0000 0.0000 0.0000 -3.3394 0.0000 21.5011
#
#
#
# Elastic Compliance Matrix: (Units=1/GPa)
#
#
# Indices 1 2 3 4 5 6 
#
# 1 0.028089 -0.006638 -0.014539 0.000000 0.005684 0.000000
# 2 -0.006638 0.013623 -0.001959 0.000000 -0.002185 0.000000
# 3 -0.014539 -0.001959 0.020953 0.000000 -0.000936 0.000000
# 4 0.000000 0.000000 0.000000 0.047647 0.000000 0.007400
# 5 0.005684 -0.002185 -0.000936 0.000000 0.032319 0.000000
# 6 0.000000 0.000000 0.000000 0.007400 0.000000 0.047659
#
#
# Mechanical properties :
#
#
# Convention : Reuss Voigt Hill
#
# Bulk Modulus (GPa) = 61.00428 61.95834 61.48131
# Shear Modulus (GPa) = 20.65908 23.56212 22.11060
#
# Velocity S-wave (km/s) = 3.55637 3.79804 3.67919
# Velocity P-wave (km/s) = 7.36284 7.56077 7.46246
#
# Compressibility (1/GPa) = 0.01639229
#
# Stress axis : x y z
#
# Youngs Moduli (GPa) = 35.60145 73.40736 47.72623
#
# Poissons Ratio (x) = 0.48728 0.69391
# Poissons Ratio (y) = 0.23632 0.09348
# Poissons Ratio (z) = 0.51762 0.14378
#
# Static dielectric constant tensor:
#      x y z
#    x 2.917290 0.000000 -0.256930 
#    y 0.000000 3.258480 0.000000 
#    z -0.256930 0.000000 3.026470 
# 
# 
# High freq. dielectric constant tensor:
#      x y z
#    x 1.605890 0.000000 -0.036140 
#    y 0.000000 1.638050 0.000000 
#    z -0.036140 0.000000 1.611740 
# 
# From -- ./inp_files/28962.got.cif
#   From: 2010.06.25/outbox.cif.g09.slc.cpg/sg10_15_cif.got.tgz:28962.got - 2010.06.27 22:07:45.
