data_PCOD8058460
_publ_section_title
;
Structure prediction by ZEFSAII (Michael W. Deem and Ramdas Pophale) SiO2 
 PCOD8058460
Probable space group: P 2/M
;
_chemical_formula_sum "Si O2"
_cell_formula_units_Z 32
_cell_length_a 26.467143
_cell_length_b 8.605918
_cell_length_c 14.577537
_cell_angle_alpha 90.000000
_cell_angle_beta 34.841891
_cell_angle_gamma 90.000000
_cell_volume 1896.981626
_symmetry_space_group_name_H-M "P 2/M"
_symmetry_group_IT_number 10
_symmetry_cell_setting 'monoclinic'
loop_
_space_group_symop_operation_xyz
x,y,z
-x,y,-z
-x,-y,-z
x,-y,z
loop_
_atom_site_type_symbol
_atom_site_label
_atom_site_fract_x
_atom_site_fract_y
_atom_site_fract_z
Si Si1 0.086317 0.316423 0.432300
Si Si2 0.147827 0.319444 0.024422
Si Si3 0.910612 0.178596 0.183350
Si Si4 0.238173 0.683471 0.709493
Si Si5 0.767152 0.682878 0.922709
Si Si6 0.587007 0.317629 0.269226
Si Si7 0.598869 0.817777 0.448693
Si Si8 0.036333 0.822463 0.692178
O O1 0.085689 0.500000 0.451863
O O2 0.176896 0.258039 0.247822
O O3 0.091925 0.225776 0.520032
O O4 0.000000 0.270949 0.500000
O O5 0.169659 0.500000 0.990511
O O6 0.191594 0.239261 0.047715
O O7 0.044322 0.294718 0.182615
O O8 0.187286 0.246522 0.873533
O O9 0.821624 0.268543 0.287479
O O10 0.910134 0.199976 0.293574
O O11 0.901227 0.000000 0.168064
O O12 0.000000 0.245099 0.000000
O O13 0.250904 0.500000 0.689883
O O14 0.335013 0.762634 0.568871
O O15 0.782705 0.500000 0.905335
O O16 0.662356 0.721987 0.080398
O O17 0.565786 0.500000 0.302033
O O18 0.500104 0.222938 0.370631
O O19 0.620573 0.270790 0.321037
O O20 0.606300 0.000000 0.420634
O O21 0.004159 0.000000 0.730915
#
# Coordination Sequence:
#
# PCOD8058460 Si02
#       8
#     4   4   4   4   4   4   4   4
#     4  10  19  33  52  71  97 133 170 207 246 291
#     4  10  18  31  49  70  98 131 170 207 244 286
#     4  10  21  36  50  69 101 136 166 204 253 299
#     4  11  21  33  52  75  97 130 174 212 245 290
#     4   9  17  31  50  72  97 132 170 207 248 285
#     4  10  18  32  51  72 100 132 172 211 243 290
#     4  11  21  32  47  72 105 136 164 199 255 307
#     4  11  22  34  48  70 101 134 168 207 250 291
#
# _framework density 16.868905000000002
#
# number of rings (size 3 to 8) (size 9 to 14) (size 15 to 20)
#    0.000    1.750    3.750    3.000    0.000    2.000 
#    0.000    1.250    0.000    0.000    0.000    0.875 
#    0.000    7.000    0.000    0.000    0.000    0.000 
#
# Total GULP energy -396647.806398 kJ/mol
# GULP energy per Si atom -12395.243950 kJ/mol
# Density = 1.683051 g / cm^3
# Si number density = 16.868905 Si / 1000 Ang^3
#
#
#
# Elastic Constant Matrix: (Units=GPa)
#
#
# Indices 1 2 3 4 5 6 
#
# 1 93.1472 26.6099 45.1829 0.0000 -2.5911 0.0000
# 2 26.6099 49.5620 20.6331 0.0000 -0.6322 0.0000
# 3 45.1829 20.6331 105.0730 0.0000 -0.8651 0.0000
# 4 0.0000 0.0000 0.0000 14.7230 0.0000 0.3959
# 5 -2.5911 -0.6322 -0.8651 0.0000 30.2140 0.0000
# 6 0.0000 0.0000 0.0000 0.3959 0.0000 25.2541
#
#
#
# Elastic Compliance Matrix: (Units=1/GPa)
#
#
# Indices 1 2 3 4 5 6 
#
# 1 0.015000 -0.005836 -0.005296 0.000000 0.001013 0.000000
# 2 -0.005836 0.024247 -0.002252 0.000000 -0.000058 0.000000
# 3 -0.005296 -0.002252 0.012236 0.000000 -0.000151 0.000000
# 4 0.000000 0.000000 0.000000 0.067950 0.000000 -0.001065
# 5 0.001013 -0.000058 -0.000151 0.000000 0.033179 0.000000
# 6 0.000000 0.000000 0.000000 -0.001065 0.000000 0.039614
#
#
# Mechanical properties :
#
#
# Convention : Reuss Voigt Hill
#
# Bulk Modulus (GPa) = 40.46237 48.07045 44.26641
# Shear Modulus (GPa) = 22.00405 24.39530 23.19967
#
# Velocity S-wave (km/s) = 3.61559 3.80698 3.71252
# Velocity P-wave (km/s) = 6.43960 6.91972 6.68397
#
# Compressibility (1/GPa) = 0.02471432
#
# Stress axis : x y z
#
# Youngs Moduli (GPa) = 66.66726 41.24231 81.72923
#
# Poissons Ratio (x) = 0.24068 0.43282
# Poissons Ratio (y) = 0.38906 0.18408
# Poissons Ratio (z) = 0.35306 0.09289
#
# Static dielectric constant tensor:
#      x y z
#    x 3.073940 0.000000 0.013730 
#    y 0.000000 3.018060 0.000000 
#    z 0.013730 0.000000 3.291530 
# 
# 
# High freq. dielectric constant tensor:
#      x y z
#    x 1.626830 0.000000 -0.008800 
#    y 0.000000 1.644140 0.000000 
#    z -0.008800 0.000000 1.640750 
# 
# From -- ./inp_files/72196.got.cif
#   From: 2010.06.25/outbox.cif.g09.slc.cpg/sg10_37_cif.got.tgz:72196.got - 2010.06.27 22:07:45.
