data_PCOD8058180
_publ_section_title
;
Structure prediction by ZEFSAII (Michael W. Deem and Ramdas Pophale) SiO2 
 PCOD8058180
Probable space group: P 2/M
;
_chemical_formula_sum "Si O2"
_cell_formula_units_Z 32
_cell_length_a 17.226009
_cell_length_b 8.616451
_cell_length_c 11.738906
_cell_angle_alpha 90.000000
_cell_angle_beta 94.285431
_cell_angle_gamma 90.000000
_cell_volume 1737.499954
_symmetry_space_group_name_H-M "P 2/M"
_symmetry_group_IT_number 10
_symmetry_cell_setting 'monoclinic'
loop_
_space_group_symop_operation_xyz
x,y,z
-x,y,-z
-x,-y,-z
x,-y,z
loop_
_atom_site_type_symbol
_atom_site_label
_atom_site_fract_x
_atom_site_fract_y
_atom_site_fract_z
Si Si1 0.817636 0.323632 0.450383
Si Si2 0.234215 0.822564 0.914761
Si Si3 0.417305 0.820243 0.520693
Si Si4 0.312673 0.822687 0.702922
Si Si5 0.267763 0.818770 0.365389
Si Si6 0.034471 0.181194 0.124633
Si Si7 0.902985 0.319102 0.244565
Si Si8 0.797459 0.679510 0.859894
O O1 0.820940 0.500000 0.494102
O O2 0.745308 0.301452 0.357379
O O3 0.806752 0.215890 0.560476
O O4 0.892552 0.282908 0.379225
O O5 0.309659 0.800288 0.839529
O O6 0.155518 0.781233 0.838899
O O7 0.226908 0.000000 0.954598
O O8 0.246078 0.715366 0.026074
O O9 0.500000 0.737848 0.500000
O O10 0.397189 0.794424 0.653348
O O11 0.346327 0.756118 0.435474
O O12 0.424981 0.000000 0.491749
O O13 0.285841 0.000000 0.669502
O O14 0.260676 0.725092 0.247691
O O15 0.270396 0.000000 0.338989
O O16 0.125055 0.218982 0.140781
O O17 0.990551 0.273521 0.220296
O O18 0.021653 0.000000 0.142280
O O19 0.000000 0.236383 0.000000
O O20 0.887007 0.500000 0.219164
O O21 0.819379 0.500000 0.856027
#
# Coordination Sequence:
#
# PCOD8058180 Si02
#       8
#     4   4   4   4   4   4   4   4
#     4   9  17  30  49  73 101 132 168 209 252 299
#     4  10  18  30  48  72 101 133 173 214 254 299
#     4   8  14  28  54  85 109 130 161 204 251 296
#     4   8  15  27  47  75 104 133 166 208 250 292
#     4  10  20  35  54  76 104 136 170 207 251 305
#     4  11  22  35  52  74 101 133 171 217 261 303
#     4  10  19  31  50  75 101 131 169 215 260 300
#     4  12  24  36  52  72 100 136 173 214 259 307
#
# _framework density 18.417266999999999
#
# number of rings (size 3 to 8) (size 9 to 14) (size 15 to 20)
#    0.000    2.250    1.250    3.750    0.000    2.500 
#    0.000    0.625    0.000   13.875    0.000    5.250 
#    0.000    0.000    0.000    0.000    0.000    0.000 
#
# Total GULP energy -396602.640261 kJ/mol
# GULP energy per Si atom -12393.832508 kJ/mol
# Density = 1.837535 g / cm^3
# Si number density = 18.417267 Si / 1000 Ang^3
#
#
#
# Elastic Constant Matrix: (Units=GPa)
#
#
# Indices 1 2 3 4 5 6 
#
# 1 85.5286 12.6191 47.2769 0.0000 -22.6436 0.0000
# 2 12.6191 47.4868 19.5710 0.0000 -5.1048 0.0000
# 3 47.2769 19.5710 108.3393 0.0000 -17.5833 0.0000
# 4 0.0000 0.0000 0.0000 28.5003 0.0000 -1.7734
# 5 -22.6436 -5.1048 -17.5833 0.0000 28.1193 0.0000
# 6 0.0000 0.0000 0.0000 -1.7734 0.0000 10.9015
#
#
#
# Elastic Compliance Matrix: (Units=1/GPa)
#
#
# Indices 1 2 3 4 5 6 
#
# 1 0.017911 -0.001201 -0.005892 0.000000 0.010521 0.000000
# 2 -0.001201 0.022909 -0.003446 0.000000 0.001037 0.000000
# 3 -0.005892 -0.003446 0.012857 0.000000 0.002670 0.000000
# 4 0.000000 0.000000 0.000000 0.035446 0.000000 0.005766
# 5 0.010521 0.001037 0.002670 0.000000 0.045893 0.000000
# 6 0.000000 0.000000 0.000000 0.005766 0.000000 0.092668
#
#
# Mechanical properties :
#
#
# Convention : Reuss Voigt Hill
#
# Bulk Modulus (GPa) = 30.67398 44.47650 37.57524
# Shear Modulus (GPa) = 19.25824 24.29673 21.77748
#
# Velocity S-wave (km/s) = 3.23718 3.63607 3.44241
# Velocity P-wave (km/s) = 5.53747 6.46759 6.02052
#
# Compressibility (1/GPa) = 0.03260092
#
# Stress axis : x y z
#
# Youngs Moduli (GPa) = 55.83066 43.65035 77.77820
#
# Poissons Ratio (x) = 0.05240 0.45824
# Poissons Ratio (y) = 0.06703 0.26804
# Poissons Ratio (z) = 0.32893 0.15043
#
# Static dielectric constant tensor:
#      x y z
#    x 3.320770 0.000000 -0.422870 
#    y 0.000000 3.273310 0.000000 
#    z -0.422870 0.000000 3.599350 
# 
# 
# High freq. dielectric constant tensor:
#      x y z
#    x 1.673750 0.000000 -0.036700 
#    y 0.000000 1.711100 0.000000 
#    z -0.036700 0.000000 1.713430 
# 
# From -- ./inp_files/52810.got.cif
#   From: 2010.06.25/outbox.cif.g09.slc.cpg/sg10_27_cif.got.tgz:52810.got - 2010.06.27 22:07:45.
