data_PCOD8058298
_publ_section_title
;
Structure prediction by ZEFSAII (Michael W. Deem and Ramdas Pophale) SiO2 
 PCOD8058298
Probable space group: P 2/M
;
_chemical_formula_sum "Si O2"
_cell_formula_units_Z 22
_cell_length_a 24.899499
_cell_length_b 9.335037
_cell_length_c 14.405247
_cell_angle_alpha 90.000000
_cell_angle_beta 20.204021
_cell_angle_gamma 90.000000
_cell_volume 1156.390472
_symmetry_space_group_name_H-M "P 2/M"
_symmetry_group_IT_number 10
_symmetry_cell_setting 'monoclinic'
loop_
_space_group_symop_operation_xyz
x,y,z
-x,y,-z
-x,-y,-z
x,-y,z
loop_
_atom_site_type_symbol
_atom_site_label
_atom_site_fract_x
_atom_site_fract_y
_atom_site_fract_z
Si Si1 0.930459 0.168598 0.014588
Si Si2 0.802297 0.160271 0.922447
Si Si3 0.082519 0.831119 0.582717
Si Si4 0.500000 0.255125 0.500000
Si Si5 0.343840 0.170367 0.026418
Si Si6 0.384808 0.338728 0.493207
O O1 0.776879 0.256207 0.241271
O O2 0.890622 0.000000 0.076608
O O3 0.000000 0.215534 0.000000
O O4 0.059493 0.211310 0.727636
O O5 0.764615 0.226134 0.882682
O O6 0.944709 0.240809 0.743582
O O7 0.856652 0.000000 0.815857
O O8 0.649095 0.157954 0.235527
O O9 0.253020 0.786006 0.268400
O O10 0.065241 0.000000 0.600905
O O11 0.459765 0.348839 0.474457
O O12 0.377793 0.000000 0.964893
O O13 0.506083 0.254508 0.757285
O O14 0.360166 0.500000 0.496844
#
# Coordination Sequence:
#
# PCOD8058298 Si02
#       6
#     4   4   4   2   4   4
#     4  10  21  38  60  83 106 137 182 229 268 312
#     4   9  15  24  47  80 109 137 173 216 266 320
#     4   9  16  30  52  79 108 136 174 223 270 315
#     4  10  18  30  50  76 113 146 175 212 267 322
#     4   9  18  31  52  79 108 140 175 217 268 321
#     4  11  22  36  54  78 112 146 180 219 265 320
#
# _framework density 19.024716000000002
#
# number of rings (size 3 to 8) (size 9 to 14) (size 15 to 20)
#    0.000    2.364    1.818    1.636    0.000    4.000 
#    0.000    1.818    0.000    7.636    0.000    0.000 
#    0.000    0.000    0.000    0.000    0.000    0.000 
#
# Total GULP energy -272605.172630 kJ/mol
# GULP energy per Si atom -12391.144210 kJ/mol
# Density = 1.898142 g / cm^3
# Si number density = 19.024716 Si / 1000 Ang^3
#
#
#
# Elastic Constant Matrix: (Units=GPa)
#
#
# Indices 1 2 3 4 5 6 
#
# 1 73.7839 26.7752 50.7492 0.0000 17.7559 0.0000
# 2 26.7752 56.1793 33.7508 0.0000 3.3472 0.0000
# 3 50.7492 33.7508 143.9095 0.0000 29.4903 0.0000
# 4 0.0000 0.0000 0.0000 2.0260 0.0000 -1.8631
# 5 17.7559 3.3472 29.4903 0.0000 28.0129 0.0000
# 6 0.0000 0.0000 0.0000 -1.8631 0.0000 9.4902
#
#
#
# Elastic Compliance Matrix: (Units=1/GPa)
#
#
# Indices 1 2 3 4 5 6 
#
# 1 0.020829 -0.007019 -0.004036 0.000000 -0.008115 0.000000
# 2 -0.007019 0.023337 -0.004256 0.000000 0.006141 0.000000
# 3 -0.004036 -0.004256 0.011147 0.000000 -0.008668 0.000000
# 4 0.000000 0.000000 0.000000 0.602323 0.000000 0.118246
# 5 -0.008115 0.006141 -0.008668 0.000000 0.049232 0.000000
# 6 0.000000 0.000000 0.000000 0.118246 0.000000 0.128586
#
#
# Mechanical properties :
#
#
# Convention : Reuss Voigt Hill
#
# Bulk Modulus (GPa) = 40.50365 55.15813 47.83089
# Shear Modulus (GPa) = 5.71882 18.74565 12.23223
#
# Velocity S-wave (km/s) = 1.73566 3.14240 2.53843
# Velocity P-wave (km/s) = 5.03517 6.49785 5.81270
#
# Compressibility (1/GPa) = 0.02468913
#
# Stress axis : x y z
#
# Youngs Moduli (GPa) = 48.00972 42.85121 89.71317
#
# Poissons Ratio (x) = 0.30077 0.36211
# Poissons Ratio (y) = 0.33697 0.38186
# Poissons Ratio (z) = 0.19378 0.18239
#
# Static dielectric constant tensor:
#      x y z
#    x 3.455570 0.000000 0.210840 
#    y 0.000000 2.978180 0.000000 
#    z 0.210840 0.000000 3.724780 
# 
# 
# High freq. dielectric constant tensor:
#      x y z
#    x 1.719890 0.000000 0.012470 
#    y 0.000000 1.685820 0.000000 
#    z 0.012470 0.000000 1.751870 
# 
# From -- ./inp_files/72081.got.cif
#   From: 2010.06.25/outbox.cif.g09.slc.cpg/sg10_37_cif.got.tgz:72081.got - 2010.06.27 22:07:45.
