data_PCOD8058072
_publ_section_title
;
Structure prediction by ZEFSAII (Michael W. Deem and Ramdas Pophale) SiO2 
 PCOD8058072
Probable space group: P 2/M
;
_chemical_formula_sum "Si O2"
_cell_formula_units_Z 32
_cell_length_a 15.866123
_cell_length_b 8.845008
_cell_length_c 16.026436
_cell_angle_alpha 90.000000
_cell_angle_beta 109.579731
_cell_angle_gamma 90.000000
_cell_volume 2119.034692
_symmetry_space_group_name_H-M "P 2/M"
_symmetry_group_IT_number 10
_symmetry_cell_setting 'monoclinic'
loop_
_space_group_symop_operation_xyz
x,y,z
-x,y,-z
-x,-y,-z
x,-y,z
loop_
_atom_site_type_symbol
_atom_site_label
_atom_site_fract_x
_atom_site_fract_y
_atom_site_fract_z
Si Si1 0.488732 0.830085 0.094797
Si Si2 0.834462 0.321305 0.328862
Si Si3 0.021792 0.323055 0.318200
Si Si4 0.867870 0.179552 0.979675
Si Si5 0.025355 0.320818 0.128652
Si Si6 0.690624 0.323504 0.980379
Si Si7 0.902146 0.828968 0.506235
Si Si8 0.331867 0.676919 0.834033
O O1 0.578074 0.761082 0.165270
O O2 0.474405 0.000000 0.123479
O O3 0.500000 0.828303 0.000000
O O4 0.403708 0.727542 0.090781
O O5 0.833121 0.500000 0.334692
O O6 0.832801 0.254969 0.421960
O O7 0.747958 0.262114 0.250555
O O8 0.922143 0.265147 0.307854
O O9 0.028143 0.500000 0.336186
O O10 0.043286 0.279829 0.230497
O O11 0.096299 0.245273 0.401518
O O12 0.766034 0.225965 0.960037
O O13 0.928586 0.257076 0.070730
O O14 0.879333 0.000000 0.987215
O O15 0.897560 0.240216 0.899032
O O16 0.026199 0.500000 0.113288
O O17 0.705782 0.500000 0.968023
O O18 0.693838 0.285815 0.079433
O O19 0.000000 0.813555 0.500000
O O20 0.870182 0.000000 0.504854
O O21 0.348564 0.500000 0.828395
#
# Coordination Sequence:
#
# PCOD8058072 Si02
#       8
#     4   4   4   4   4   4   4   4
#     4   9  17  28  41  60  85 110 137 172 213 252
#     4   9  16  27  42  60  83 110 142 175 206 244
#     4   9  17  29  45  61  79 109 145 177 208 244
#     4  11  21  31  43  62  87 112 140 176 217 251
#     4  10  19  32  47  62  82 110 145 179 211 248
#     4  10  18  30  46  61  81 112 148 178 207 247
#     4   9  17  27  39  58  83 109 137 170 209 250
#     4   9  17  28  43  62  83 111 145 177 208 246
#
# _framework density 15.101216000000001
#
# number of rings (size 3 to 8) (size 9 to 14) (size 15 to 20)
#    0.000    2.500    0.000    4.125    0.000    7.000 
#    0.000    2.500    0.000    0.000    0.000    0.000 
#    0.000    1.000    0.000   10.500    0.000    5.000 
#
# Total GULP energy -396795.541600 kJ/mol
# GULP energy per Si atom -12399.860675 kJ/mol
# Density = 1.506684 g / cm^3
# Si number density = 15.101216 Si / 1000 Ang^3
#
#
#
# Elastic Constant Matrix: (Units=GPa)
#
#
# Indices 1 2 3 4 5 6 
#
# 1 80.0094 31.4941 40.4612 0.0000 11.2397 0.0000
# 2 31.4941 64.8610 36.2970 0.0000 2.5649 0.0000
# 3 40.4612 36.2970 98.7670 0.0000 10.0650 0.0000
# 4 0.0000 0.0000 0.0000 14.8040 0.0000 1.1089
# 5 11.2397 2.5649 10.0650 0.0000 20.0080 0.0000
# 6 0.0000 0.0000 0.0000 1.1089 0.0000 22.8867
#
#
#
# Elastic Compliance Matrix: (Units=1/GPa)
#
#
# Indices 1 2 3 4 5 6 
#
# 1 0.018143 -0.006012 -0.004494 0.000000 -0.007161 0.000000
# 2 -0.006012 0.021427 -0.005772 0.000000 0.003534 0.000000
# 3 -0.004494 -0.005772 0.014497 0.000000 -0.004029 0.000000
# 4 0.000000 0.000000 0.000000 0.067796 0.000000 -0.003285
# 5 -0.007161 0.003534 -0.004029 0.000000 0.055576 0.000000
# 6 0.000000 0.000000 0.000000 -0.003285 0.000000 0.043853
#
#
# Mechanical properties :
#
#
# Convention : Reuss Voigt Hill
#
# Bulk Modulus (GPa) = 46.48282 51.12690 48.80486
# Shear Modulus (GPa) = 19.15581 20.56543 19.86062
#
# Velocity S-wave (km/s) = 3.56546 3.69431 3.63046
# Velocity P-wave (km/s) = 6.91358 7.21990 7.06840
#
# Compressibility (1/GPa) = 0.02151332
#
# Stress axis : x y z
#
# Youngs Moduli (GPa) = 55.11655 46.67027 68.97835
#
# Poissons Ratio (x) = 0.28058 0.30995
# Poissons Ratio (y) = 0.33136 0.39812
# Poissons Ratio (z) = 0.24767 0.26937
#
# Static dielectric constant tensor:
#      x y z
#    x 2.796710 0.000000 0.125670 
#    y 0.000000 2.966380 0.000000 
#    z 0.125670 0.000000 2.864440 
# 
# 
# High freq. dielectric constant tensor:
#      x y z
#    x 1.552590 0.000000 0.012420 
#    y 0.000000 1.589620 0.000000 
#    z 0.012420 0.000000 1.557970 
# 
# From -- ./inp_files/66192.got.cif
#   From: 2010.06.25/outbox.cif.g09.slc.cpg/sg10_34_cif.got.tgz:66192.got - 2010.06.27 22:07:45.
