data_PCOD8058170
_publ_section_title
;
Structure prediction by ZEFSAII (Michael W. Deem and Ramdas Pophale) SiO2 
 PCOD8058170
Probable space group: P 2/M
;
_chemical_formula_sum "Si O2"
_cell_formula_units_Z 32
_cell_length_a 21.451586
_cell_length_b 9.017933
_cell_length_c 12.687721
_cell_angle_alpha 90.000000
_cell_angle_beta 52.497277
_cell_angle_gamma 90.000000
_cell_volume 1947.156449
_symmetry_space_group_name_H-M "P 2/M"
_symmetry_group_IT_number 10
_symmetry_cell_setting 'monoclinic'
loop_
_space_group_symop_operation_xyz
x,y,z
-x,y,-z
-x,-y,-z
x,-y,z
loop_
_atom_site_type_symbol
_atom_site_label
_atom_site_fract_x
_atom_site_fract_y
_atom_site_fract_z
Si Si1 0.818493 0.826564 0.392242
Si Si2 0.185311 0.824253 0.007385
Si Si3 0.911810 0.823574 0.094671
Si Si4 0.340164 0.826405 0.548552
Si Si5 0.335913 0.324734 0.776337
Si Si6 0.510687 0.163844 0.364365
Si Si7 0.913371 0.327168 0.715549
Si Si8 0.907935 0.671456 0.478888
O O1 0.869742 0.761462 0.242716
O O2 0.726986 0.788108 0.466992
O O3 0.844446 0.757648 0.475437
O O4 0.832469 0.000000 0.385779
O O5 0.141309 0.776208 0.158174
O O6 0.196639 0.000000 0.994663
O O7 0.135247 0.767399 0.958899
O O8 0.269876 0.746154 0.918718
O O9 0.912773 0.000000 0.094779
O O10 0.000000 0.759121 0.000000
O O11 0.324638 0.733372 0.669660
O O12 0.424767 0.787043 0.408448
O O13 0.337103 0.000000 0.584263
O O14 0.328979 0.500000 0.785262
O O15 0.420866 0.278303 0.736975
O O16 0.500000 0.158974 0.500000
O O17 0.533507 0.000000 0.298791
O O18 0.901031 0.500000 0.755682
O O19 0.890360 0.295028 0.618712
O O20 0.003651 0.279714 0.641907
O O21 0.897635 0.500000 0.465065
#
# Coordination Sequence:
#
# PCOD8058170 Si02
#       8
#     4   4   4   4   4   4   4   4
#     4  10  18  30  48  70  98 127 161 200 237 282
#     4  11  20  32  50  70  96 127 162 200 241 285
#     4   9  17  28  43  65  94 125 154 190 236 279
#     4   9  17  31  47  66  95 131 162 196 238 282
#     4  11  20  29  44  68  99 129 159 195 236 285
#     4   8  15  28  46  64  89 126 164 194 232 281
#     4   9  19  36  52  68  94 127 163 203 246 285
#     4   9  19  35  52  69  95 128 160 201 248 288
#
# _framework density 16.43422
#
# number of rings (size 3 to 8) (size 9 to 14) (size 15 to 20)
#    0.000    2.500    1.250    3.750    0.000    4.750 
#    0.000    1.250    0.000    2.625    0.000    0.875 
#    0.000    7.000    0.000    0.000    0.000    0.000 
#
# Total GULP energy -396735.680265 kJ/mol
# GULP energy per Si atom -12397.990008 kJ/mol
# Density = 1.639681 g / cm^3
# Si number density = 16.434220 Si / 1000 Ang^3
#
#
#
# Elastic Constant Matrix: (Units=GPa)
#
#
# Indices 1 2 3 4 5 6 
#
# 1 126.0384 44.0734 56.6086 0.0000 -17.8323 0.0000
# 2 44.0734 71.6668 40.8098 0.0000 -8.7235 0.0000
# 3 56.6086 40.8098 73.6898 0.0000 -12.0015 0.0000
# 4 0.0000 0.0000 0.0000 26.0247 0.0000 0.2803
# 5 -17.8323 -8.7235 -12.0015 0.0000 25.4951 0.0000
# 6 0.0000 0.0000 0.0000 0.2803 0.0000 21.5414
#
#
#
# Elastic Compliance Matrix: (Units=1/GPa)
#
#
# Indices 1 2 3 4 5 6 
#
# 1 0.013077 -0.003200 -0.007540 0.000000 0.004502 0.000000
# 2 -0.003200 0.021240 -0.009190 0.000000 0.000703 0.000000
# 3 -0.007540 -0.009190 0.024997 0.000000 0.003349 0.000000
# 4 0.000000 0.000000 0.000000 0.038430 0.000000 -0.000500
# 5 0.004502 0.000703 0.003349 0.000000 0.044189 0.000000
# 6 0.000000 0.000000 0.000000 -0.000500 0.000000 0.046429
#
#
# Mechanical properties :
#
#
# Convention : Reuss Voigt Hill
#
# Bulk Modulus (GPa) = 51.40339 61.59764 56.50052
# Shear Modulus (GPa) = 21.30309 23.27245 22.28777
#
# Velocity S-wave (km/s) = 3.60427 3.76719 3.68663
# Velocity P-wave (km/s) = 6.97619 7.51565 7.25094
#
# Compressibility (1/GPa) = 0.01945397
#
# Stress axis : x y z
#
# Youngs Moduli (GPa) = 76.47271 47.08027 40.00406
#
# Poissons Ratio (x) = 0.15067 0.30163
# Poissons Ratio (y) = 0.24474 0.36764
# Poissons Ratio (z) = 0.57659 0.43267
#
# Static dielectric constant tensor:
#      x y z
#    x 3.310680 0.000000 -0.305720 
#    y 0.000000 2.910180 0.000000 
#    z -0.305720 0.000000 3.003480 
# 
# 
# High freq. dielectric constant tensor:
#      x y z
#    x 1.628660 0.000000 -0.023450 
#    y 0.000000 1.620340 0.000000 
#    z -0.023450 0.000000 1.610140 
# 
# From -- ./inp_files/55279.got.cif
#   From: 2010.06.25/outbox.cif.g09.slc.cpg/sg10_28_cif.got.tgz:55279.got - 2010.06.27 22:07:45.
