data_PCOD8058331
_publ_section_title
;
Structure prediction by ZEFSAII (Michael W. Deem and Ramdas Pophale) SiO2 
 PCOD8058331
Probable space group: P 2/M
;
_chemical_formula_sum "Si O2"
_cell_formula_units_Z 32
_cell_length_a 13.290353
_cell_length_b 9.349440
_cell_length_c 31.499230
_cell_angle_alpha 90.000000
_cell_angle_beta 25.033642
_cell_angle_gamma 90.000000
_cell_volume 1656.215126
_symmetry_space_group_name_H-M "P 2/M"
_symmetry_group_IT_number 10
_symmetry_cell_setting 'monoclinic'
loop_
_space_group_symop_operation_xyz
x,y,z
-x,y,-z
-x,-y,-z
x,-y,z
loop_
_atom_site_type_symbol
_atom_site_label
_atom_site_fract_x
_atom_site_fract_y
_atom_site_fract_z
Si Si1 0.398766 0.829942 0.905358
Si Si2 0.821640 0.829050 0.800579
Si Si3 0.906094 0.832916 0.223849
Si Si4 0.902891 0.170347 0.129827
Si Si5 0.253689 0.838724 0.582880
Si Si6 0.540984 0.170391 0.756947
Si Si7 0.992744 0.657911 0.552279
Si Si8 0.623792 0.841091 0.557401
O O1 0.572257 0.772195 0.876854
O O2 0.480162 0.776430 0.827857
O O3 0.400206 0.000000 0.904731
O O4 0.134610 0.772533 0.016226
O O5 0.884102 0.774798 0.824754
O O6 0.025032 0.765753 0.691493
O O7 0.819587 0.000000 0.800243
O O8 0.911204 0.764904 0.174629
O O9 0.653024 0.799767 0.343016
O O10 0.947993 0.000000 0.202433
O O11 0.668695 0.222867 0.194464
O O12 0.902496 0.000000 0.131342
O O13 0.500000 0.757107 0.500000
O O14 0.225207 0.839954 0.543475
O O15 0.270630 0.000000 0.595187
O O16 0.784432 0.241579 0.649096
O O17 0.573223 0.000000 0.742978
O O18 0.970594 0.500000 0.581737
O O19 0.000000 0.641492 0.500000
O O20 0.251075 0.725749 0.461271
O O21 0.636554 0.000000 0.573271
#
# Coordination Sequence:
#
# PCOD8058331 Si02
#       8
#     4   4   4   4   4   4   4   4
#     4   9  17  28  45  71  99 129 164 207 255 295
#     4   9  15  23  36  62 100 135 166 197 242 299
#     4   9  16  25  40  67 100 134 168 203 242 291
#     4   9  17  28  44  68  99 130 163 208 257 297
#     4   9  14  23  41  69 100 129 163 204 243 281
#     4  10  19  34  55  76  97 127 170 210 247 298
#     4  11  24  38  51  72 104 136 163 201 257 309
#     4  10  18  30  51  76 101 133 174 210 241 289
#
# _framework density 19.321161
#
# number of rings (size 3 to 8) (size 9 to 14) (size 15 to 20)
#    0.000    2.500    1.250    2.250    0.000    6.000 
#    0.000    2.500    0.000    1.875    0.000    0.000 
#    0.000    0.000    0.000    8.500    0.000    8.750 
#
# Total GULP energy -396506.730835 kJ/mol
# GULP energy per Si atom -12390.835339 kJ/mol
# Density = 1.927719 g / cm^3
# Si number density = 19.321161 Si / 1000 Ang^3
#
#
#
# Elastic Constant Matrix: (Units=GPa)
#
#
# Indices 1 2 3 4 5 6 
#
# 1 129.3044 20.0137 30.0223 0.0000 -7.2191 0.0000
# 2 20.0137 31.9910 14.8034 0.0000 -4.7703 0.0000
# 3 30.0223 14.8034 77.8199 0.0000 -1.4637 0.0000
# 4 0.0000 0.0000 0.0000 1.6836 0.0000 5.3652
# 5 -7.2191 -4.7703 -1.4637 0.0000 36.7599 0.0000
# 6 0.0000 0.0000 0.0000 5.3652 0.0000 2.1503
#
#
#
# Elastic Compliance Matrix: (Units=1/GPa)
#
#
# Indices 1 2 3 4 5 6 
#
# 1 0.009078 -0.004278 -0.002667 0.000000 0.001121 0.000000
# 2 -0.004278 0.036949 -0.005308 0.000000 0.003743 0.000000
# 3 -0.002667 -0.005308 0.014877 0.000000 -0.000620 0.000000
# 4 0.000000 0.000000 0.000000 -0.085446 0.000000 0.213198
# 5 0.001121 0.003743 -0.000620 0.000000 0.027885 0.000000
# 6 0.000000 0.000000 0.000000 0.213198 0.000000 -0.066901
#
#
# Mechanical properties :
#
#
# Convention : Reuss Voigt Hill
#
# Bulk Modulus (GPa) = 27.47379 40.97714 34.22546
# Shear Modulus (GPa) = -185.74199 19.73715 -83.00242
#
# Velocity S-wave (km/s) = -9.81543 3.19961 -6.56145
# Velocity P-wave (km/s) = 10.68674 5.90800 6.29691
#
# Compressibility (1/GPa) = 0.03639833
#
# Stress axis : x y z
#
# Youngs Moduli (GPa) = 110.16035 27.06417 67.21660
#
# Poissons Ratio (x) = 0.11577 0.17929
# Poissons Ratio (y) = 0.47121 0.35679
# Poissons Ratio (z) = 0.29383 0.14366
#
# Static dielectric constant tensor:
#      x y z
#    x 3.882610 0.000000 -0.074980 
#    y 0.000000 2.888280 0.000000 
#    z -0.074980 0.000000 3.664480 
# 
# 
# High freq. dielectric constant tensor:
#      x y z
#    x 1.770990 0.000000 -0.003470 
#    y 0.000000 1.655740 0.000000 
#    z -0.003470 0.000000 1.759510 
# 
# From -- ./inp_files/94946.got.cif
#   From: 2010.06.25/outbox.cif.g09.slc.cpg/sg10_48_cif.got.tgz:94946.got - 2010.06.27 22:07:45.
