data_PCOD8058997
_publ_section_title
;
Structure prediction by ZEFSAII (Michael W. Deem and Ramdas Pophale) SiO2 
 PCOD8058997
Probable space group: P 2/M
;
_chemical_formula_sum "Si O2"
_cell_formula_units_Z 28
_cell_length_a 15.684945
_cell_length_b 13.247820
_cell_length_c 12.301316
_cell_angle_alpha 90.000000
_cell_angle_beta 37.654142
_cell_angle_gamma 90.000000
_cell_volume 1561.509202
_symmetry_space_group_name_H-M "P 2/M"
_symmetry_group_IT_number 10
_symmetry_cell_setting 'monoclinic'
loop_
_space_group_symop_operation_xyz
x,y,z
-x,y,-z
-x,-y,-z
x,-y,z
loop_
_atom_site_type_symbol
_atom_site_label
_atom_site_fract_x
_atom_site_fract_y
_atom_site_fract_z
Si Si1 0.963380 0.296198 0.785449
Si Si2 0.637321 0.759713 0.298619
Si Si3 0.238832 0.383003 0.432429
Si Si4 0.902060 0.115584 0.993974
Si Si5 0.217352 0.615607 0.207299
Si Si6 0.546797 0.615133 0.198894
Si Si7 0.856118 0.613924 0.100096
O O1 0.896558 0.310944 0.733884
O O2 0.125589 0.325097 0.619877
O O3 0.955260 0.182294 0.838889
O O4 0.869835 0.371253 0.956104
O O5 0.500000 0.796294 0.500000
O O6 0.739593 0.855125 0.179285
O O7 0.597214 0.702166 0.228950
O O8 0.726103 0.677155 0.278911
O O9 0.201850 0.500000 0.475603
O O10 0.234713 0.345342 0.312343
O O11 0.387958 0.359838 0.332499
O O12 0.907211 0.000000 0.951883
O O13 0.000000 0.133634 0.000000
O O14 0.162417 0.500000 0.259409
O O15 0.367652 0.624064 0.998909
O O16 0.562697 0.500000 0.230973
O O17 0.834267 0.500000 0.158771
O O18 0.000000 0.660017 0.000000
#
# Coordination Sequence:
#
# PCOD8058997 Si02
#       7
#     4   4   4   4   4   4   4
#     4  11  19  33  55  78 102 137 182 224 269 311
#     4  11  22  34  55  81 107 137 177 222 274 330
#     4  10  21  31  50  82 117 151 185 215 245 302
#     4  10  23  43  63  79 100 132 175 233 289 335
#     4  10  18  33  52  77 113 153 188 215 249 300
#     4  10  20  33  49  77 117 155 179 208 253 311
#     4  10  20  32  47  71 108 148 178 209 255 316
#
# _framework density 17.931370000000001
#
# number of rings (size 3 to 8) (size 9 to 14) (size 15 to 20)
#    0.000    1.714    2.857    4.286    4.000    4.286 
#    0.000    0.000    0.000    1.714    0.000    1.000 
#    0.000    0.000    0.000    0.000    0.000    0.000 
#
# Total GULP energy -347071.164317 kJ/mol
# GULP energy per Si atom -12395.398726 kJ/mol
# Density = 1.789056 g / cm^3
# Si number density = 17.931370 Si / 1000 Ang^3
#
#
#
# Elastic Constant Matrix: (Units=GPa)
#
#
# Indices 1 2 3 4 5 6 
#
# 1 83.3951 37.3071 26.9739 0.0000 -12.8293 0.0000
# 2 37.3071 98.4384 30.0974 0.0000 -6.9214 0.0000
# 3 26.9739 30.0974 95.4702 0.0000 -23.1518 0.0000
# 4 0.0000 0.0000 0.0000 4.1501 0.0000 -17.5533
# 5 -12.8293 -6.9214 -23.1518 0.0000 29.9048 0.0000
# 6 0.0000 0.0000 0.0000 -17.5533 0.0000 2.1534
#
#
#
# Elastic Compliance Matrix: (Units=1/GPa)
#
#
# Indices 1 2 3 4 5 6 
#
# 1 0.015443 -0.005018 -0.001793 0.000000 0.004076 0.000000
# 2 -0.005018 0.012874 -0.003004 0.000000 -0.001499 0.000000
# 3 -0.001793 -0.003004 0.014248 0.000000 0.009566 0.000000
# 4 0.000000 0.000000 0.000000 -0.007197 0.000000 -0.058671
# 5 0.004076 -0.001499 0.009566 0.000000 0.042247 0.000000
# 6 0.000000 0.000000 0.000000 -0.058671 0.000000 -0.013871
#
#
# Mechanical properties :
#
#
# Convention : Reuss Voigt Hill
#
# Bulk Modulus (GPa) = 43.60295 51.78450 47.69372
# Shear Modulus (GPa) = 54.93487 19.43667 37.18577
#
# Velocity S-wave (km/s) = 5.54100 3.29591 4.55882
# Velocity P-wave (km/s) = 8.08123 6.58984 7.37334
#
# Compressibility (1/GPa) = 0.02293423
#
# Stress axis : x y z
#
# Youngs Moduli (GPa) = 64.75520 77.67892 70.18572
#
# Poissons Ratio (x) = 0.38979 0.12583
# Poissons Ratio (y) = 0.32494 0.21085
# Poissons Ratio (z) = 0.11610 0.23336
#
# Static dielectric constant tensor:
#      x y z
#    x 3.481270 0.000000 -0.202210 
#    y 0.000000 2.973380 0.000000 
#    z -0.202210 0.000000 3.410470 
# 
# 
# High freq. dielectric constant tensor:
#      x y z
#    x 1.706210 0.000000 -0.016860 
#    y 0.000000 1.647570 0.000000 
#    z -0.016860 0.000000 1.699550 
# 
# From -- ./inp_files/29199.got.cif
#   From: 2010.06.25/outbox.cif.g09.slc.cpg/sg10_15_cif.got.tgz:29199.got - 2010.06.27 22:07:45.
