data_PCOD8058478
_publ_section_title
;
Structure prediction by ZEFSAII (Michael W. Deem and Ramdas Pophale) SiO2 
 PCOD8058478
Probable space group: P 2/M
;
_chemical_formula_sum "Si O2"
_cell_formula_units_Z 32
_cell_length_a 16.163461
_cell_length_b 13.481625
_cell_length_c 18.705099
_cell_angle_alpha 90.000000
_cell_angle_beta 23.626411
_cell_angle_gamma 90.000000
_cell_volume 1633.553380
_symmetry_space_group_name_H-M "P 2/M"
_symmetry_group_IT_number 10
_symmetry_cell_setting 'monoclinic'
loop_
_space_group_symop_operation_xyz
x,y,z
-x,y,-z
-x,-y,-z
x,-y,z
loop_
_atom_site_type_symbol
_atom_site_label
_atom_site_fract_x
_atom_site_fract_y
_atom_site_fract_z
Si Si1 0.669774 0.611211 0.457797
Si Si2 0.085313 0.736471 0.630388
Si Si3 0.264167 0.753403 0.979805
Si Si4 0.834323 0.611193 0.731263
Si Si5 0.488058 0.610030 0.125873
Si Si6 0.455105 0.113661 0.325334
Si Si7 0.956537 0.324149 0.110071
Si Si8 0.605593 0.798997 0.347211
O O1 0.584447 0.500000 0.537624
O O2 0.810563 0.643145 0.412934
O O3 0.809878 0.609295 0.275552
O O4 0.485169 0.688849 0.596617
O O5 0.242153 0.825285 0.491108
O O6 0.902833 0.777706 0.826560
O O7 0.004125 0.693232 0.619024
O O8 0.164935 0.703639 0.987671
O O9 0.447429 0.681060 0.860810
O O10 0.382962 0.853561 0.863837
O O11 0.928769 0.500000 0.648778
O O12 0.727789 0.643497 0.740602
O O13 0.665462 0.609428 0.926677
O O14 0.461474 0.500000 0.178830
O O15 0.568569 0.127067 0.311449
O O16 0.397593 0.000000 0.358300
O O17 0.845034 0.219699 0.176210
O O18 0.000000 0.380158 0.000000
O O19 0.500000 0.848201 0.500000
#
# Coordination Sequence:
#
# PCOD8058478 Si02
#       8
#     4   4   4   4   4   4   4   4
#     4   9  18  31  49  74 106 145 176 208 259 316
#     4   9  19  35  58  81 109 143 178 222 268 325
#     4  10  20  36  56  78 112 144 173 224 276 316
#     4   8  13  27  56  88 115 147 181 214 258 314
#     4   8  15  29  53  86 118 147 182 217 256 315
#     4  11  23  39  58  79 104 137 181 232 285 331
#     4  10  18  31  50  69 103 140 177 217 255 313
#     4   9  19  36  54  72 103 136 177 231 273 318
#
# _framework density 19.589198
#
# number of rings (size 3 to 8) (size 9 to 14) (size 15 to 20)
#    0.000    2.750    1.250    1.875    0.000    6.250 
#    0.000    5.000    0.000    3.000    0.000    3.500 
#    0.000    0.000    0.000    0.000    0.000    0.000 
#
# Total GULP energy -396589.978740 kJ/mol
# GULP energy per Si atom -12393.436836 kJ/mol
# Density = 1.954461 g / cm^3
# Si number density = 19.589198 Si / 1000 Ang^3
#
#
#
# Elastic Constant Matrix: (Units=GPa)
#
#
# Indices 1 2 3 4 5 6 
#
# 1 125.3960 46.9928 30.5123 0.0000 -22.8792 0.0000
# 2 46.9928 97.3511 28.0672 0.0000 -3.8574 0.0000
# 3 30.5123 28.0672 50.4288 0.0000 -0.5110 0.0000
# 4 0.0000 0.0000 0.0000 20.8620 0.0000 0.3315
# 5 -22.8792 -3.8574 -0.5110 0.0000 22.4488 0.0000
# 6 0.0000 0.0000 0.0000 0.3315 0.0000 19.0857
#
#
#
# Elastic Compliance Matrix: (Units=1/GPa)
#
#
# Indices 1 2 3 4 5 6 
#
# 1 0.013221 -0.004303 -0.005476 0.000000 0.012610 0.000000
# 2 -0.004303 0.013722 -0.005055 0.000000 -0.002143 0.000000
# 3 -0.005476 -0.005055 0.025898 0.000000 -0.005861 0.000000
# 4 0.000000 0.000000 0.000000 0.047947 0.000000 -0.000833
# 5 0.012610 -0.002143 -0.005861 0.000000 0.056896 0.000000
# 6 0.000000 0.000000 0.000000 -0.000833 0.000000 0.052410
#
#
# Mechanical properties :
#
#
# Convention : Reuss Voigt Hill
#
# Bulk Modulus (GPa) = 43.15832 53.81337 48.48584
# Shear Modulus (GPa) = 20.20310 23.65288 21.92799
#
# Velocity S-wave (km/s) = 3.21493 3.47860 3.34936
# Velocity P-wave (km/s) = 5.98837 6.60793 6.30577
#
# Compressibility (1/GPa) = 0.02317051
#
# Stress axis : x y z
#
# Youngs Moduli (GPa) = 75.63854 72.87626 38.61347
#
# Poissons Ratio (x) = 0.31361 0.21147
# Poissons Ratio (y) = 0.32549 0.19520
# Poissons Ratio (z) = 0.41423 0.36840
#
# Static dielectric constant tensor:
#      x y z
#    x 3.942510 0.000000 -0.135160 
#    y 0.000000 3.103790 0.000000 
#    z -0.135160 0.000000 3.551810 
# 
# 
# High freq. dielectric constant tensor:
#      x y z
#    x 1.771460 0.000000 -0.005370 
#    y 0.000000 1.709080 0.000000 
#    z -0.005370 0.000000 1.765430 
# 
# From -- ./inp_files/78181.got.cif
#   From: 2010.06.25/outbox.cif.g09.slc.cpg/sg10_40_cif.got.tgz:78181.got - 2010.06.27 22:07:45.
