data_PCOD8058197
_publ_section_title
;
Structure prediction by ZEFSAII (Michael W. Deem and Ramdas Pophale) SiO2 
 PCOD8058197
Probable space group: P 2/M
;
_chemical_formula_sum "Si O2"
_cell_formula_units_Z 24
_cell_length_a 23.058092
_cell_length_b 13.554562
_cell_length_c 11.836473
_cell_angle_alpha 90.000000
_cell_angle_beta 157.639840
_cell_angle_gamma 90.000000
_cell_volume 1407.352762
_symmetry_space_group_name_H-M "P 2/M"
_symmetry_group_IT_number 10
_symmetry_cell_setting 'monoclinic'
loop_
_space_group_symop_operation_xyz
x,y,z
-x,y,-z
-x,-y,-z
x,-y,z
loop_
_atom_site_type_symbol
_atom_site_label
_atom_site_fract_x
_atom_site_fract_y
_atom_site_fract_z
Si Si1 0.867565 0.285342 0.351735
Si Si2 0.913722 0.613626 0.650637
Si Si3 0.743650 0.383315 0.744176
Si Si4 0.650198 0.383300 0.329874
Si Si5 0.670282 0.768777 0.799917
Si Si6 0.040617 0.107402 0.703576
O O1 0.844797 0.373177 0.399842
O O2 0.919602 0.191040 0.524664
O O3 0.000000 0.311431 0.500000
O O4 0.713734 0.267120 0.004836
O O5 0.926771 0.500000 0.703163
O O6 0.800213 0.662176 0.538480
O O7 0.084267 0.656884 0.964420
O O8 0.739112 0.500000 0.763815
O O9 0.650151 0.357370 0.462293
O O10 0.670448 0.324933 0.716519
O O11 0.651703 0.500000 0.314296
O O12 0.500000 0.337670 0.000000
O O13 0.500000 0.812690 0.500000
O O14 0.785744 0.854461 0.966915
O O15 0.000000 0.094124 0.500000
O O16 0.022871 0.000000 0.732287
#
# Coordination Sequence:
#
# PCOD8058197 Si02
#       6
#     4   4   4   4   4   4
#     4   9  17  31  45  70  95 121 150 186 225 282
#     4  10  18  30  49  66  89 125 161 194 222 262
#     4  10  19  32  46  64  94 129 160 191 224 262
#     4   9  19  32  45  65  89 121 164 198 225 260
#     4  10  20  30  44  71 100 122 150 187 227 280
#     4   8  15  31  50  66  91 121 149 186 229 274
#
# _framework density 17.053294000000001
#
# number of rings (size 3 to 8) (size 9 to 14) (size 15 to 20)
#    0.000    3.000    3.333    0.500    2.333    3.667 
#    0.000    0.000    0.000    0.000    0.000    2.333 
#    0.000    1.333    0.000    0.000    0.000    0.000 
#
# Total GULP energy -297318.178708 kJ/mol
# GULP energy per Si atom -12388.257446 kJ/mol
# Density = 1.701448 g / cm^3
# Si number density = 17.053294 Si / 1000 Ang^3
#
#
#
# Elastic Constant Matrix: (Units=GPa)
#
#
# Indices 1 2 3 4 5 6 
#
# 1 48.3412 21.6089 26.4086 0.0000 -3.8632 0.0000
# 2 21.6089 37.3301 16.5504 0.0000 -0.7298 0.0000
# 3 26.4086 16.5504 116.1424 0.0000 -4.1436 0.0000
# 4 0.0000 0.0000 0.0000 6.4583 0.0000 1.0199
# 5 -3.8632 -0.7298 -4.1436 0.0000 23.9648 0.0000
# 6 0.0000 0.0000 0.0000 1.0199 0.0000 3.7955
#
#
#
# Elastic Compliance Matrix: (Units=1/GPa)
#
#
# Indices 1 2 3 4 5 6 
#
# 1 0.030405 -0.015501 -0.004575 0.000000 0.003638 0.000000
# 2 -0.015501 0.036498 -0.001737 0.000000 -0.001688 0.000000
# 3 -0.004575 -0.001737 0.009931 0.000000 0.000927 0.000000
# 4 0.000000 0.000000 0.000000 0.161700 0.000000 -0.043450
# 5 0.003638 -0.001688 0.000927 0.000000 0.042423 0.000000
# 6 0.000000 0.000000 0.000000 -0.043450 0.000000 0.275142
#
#
# Mechanical properties :
#
#
# Convention : Reuss Voigt Hill
#
# Bulk Modulus (GPa) = 30.11215 36.77217 33.44216
# Shear Modulus (GPa) = 8.18606 15.99344 12.08975
#
# Velocity S-wave (km/s) = 2.19333 3.06576 2.66548
# Velocity P-wave (km/s) = 4.91022 5.84309 5.39685
#
# Compressibility (1/GPa) = 0.03320918
#
# Stress axis : x y z
#
# Youngs Moduli (GPa) = 32.88897 27.39884 100.69592
#
# Poissons Ratio (x) = 0.42471 0.46067
# Poissons Ratio (y) = 0.50981 0.17486
# Poissons Ratio (z) = 0.15046 0.04758
#
# Static dielectric constant tensor:
#      x y z
#    x 3.012550 0.000000 0.011410 
#    y 0.000000 3.463240 0.000000 
#    z 0.011410 0.000000 3.395720 
# 
# 
# High freq. dielectric constant tensor:
#      x y z
#    x 1.629790 0.000000 -0.004900 
#    y 0.000000 1.614580 0.000000 
#    z -0.004900 0.000000 1.668650 
# 
# From -- ./inp_files/24557.got.cif
#   From: 2010.06.25/outbox.cif.g09.slc.cpg/sg10_13_cif.got.tgz:24557.got - 2010.06.27 22:07:45.
