data_PCOD8058828
_publ_section_title
;
Structure prediction by ZEFSAII (Michael W. Deem and Ramdas Pophale) SiO2 
 PCOD8058828
Probable space group: P 2/M
;
_chemical_formula_sum "Si O2"
_cell_formula_units_Z 28
_cell_length_a 20.880135
_cell_length_b 9.149869
_cell_length_c 16.144160
_cell_angle_alpha 90.000000
_cell_angle_beta 152.533185
_cell_angle_gamma 90.000000
_cell_volume 1422.609451
_symmetry_space_group_name_H-M "P 2/M"
_symmetry_group_IT_number 10
_symmetry_cell_setting 'monoclinic'
loop_
_space_group_symop_operation_xyz
x,y,z
-x,y,-z
-x,-y,-z
x,-y,z
loop_
_atom_site_type_symbol
_atom_site_label
_atom_site_fract_x
_atom_site_fract_y
_atom_site_fract_z
Si Si1 0.459271 0.331989 0.717750
Si Si2 0.821412 0.327736 0.516860
Si Si3 0.271508 0.827076 0.997976
Si Si4 0.255029 0.164600 0.166159
Si Si5 0.007857 0.829181 0.412616
Si Si6 0.934742 0.166148 0.799399
Si Si7 0.708525 0.328937 0.636294
O O1 0.501588 0.500000 0.773190
O O2 0.339132 0.293474 0.646067
O O3 0.594087 0.237145 0.894291
O O4 0.408422 0.294673 0.566280
O O5 0.849727 0.500000 0.554023
O O6 0.920760 0.246228 0.695529
O O7 0.861818 0.262691 0.473718
O O8 0.272166 0.770591 0.093554
O O9 0.278827 0.000000 0.003040
O O10 0.133804 0.773263 0.792910
O O11 0.337860 0.264393 0.327706
O O12 0.314232 0.000000 0.238486
O O13 0.094519 0.165879 0.007921
O O14 0.000000 0.794281 0.500000
O O15 0.033277 0.000000 0.424525
O O16 0.850931 0.251947 0.773088
O O17 0.878802 0.000000 0.727899
O O18 0.736803 0.500000 0.676446
#
# Coordination Sequence:
#
# PCOD8058828 Si02
#       7
#     4   4   4   4   4   4   4
#     4   9  21  39  55  78 114 155 192 229 274 331
#     4  10  20  36  59  86 116 149 189 230 276 337
#     4  10  21  38  58  84 112 145 189 234 280 338
#     4  10  20  33  50  76 111 146 189 237 284 331
#     4  10  21  40  65  91 117 143 179 230 284 339
#     4  10  18  32  53  77 111 149 189 236 284 329
#     4  10  21  34  49  76 112 149 196 238 275 328
#
# _framework density 19.682141000000001
#
# number of rings (size 3 to 8) (size 9 to 14) (size 15 to 20)
#    0.000    2.143    1.429    2.571    0.000    8.286 
#    0.000    3.571    0.000    4.286    0.000    0.000 
#    0.000    0.000    0.000    0.000    0.000    0.000 
#
# Total GULP energy -347218.937029 kJ/mol
# GULP energy per Si atom -12400.676322 kJ/mol
# Density = 1.963734 g / cm^3
# Si number density = 19.682141 Si / 1000 Ang^3
#
#
#
# Elastic Constant Matrix: (Units=GPa)
#
#
# Indices 1 2 3 4 5 6 
#
# 1 111.9890 49.8319 60.2411 0.0000 -11.0139 0.0000
# 2 49.8319 80.5798 34.7423 0.0000 -3.5633 0.0000
# 3 60.2411 34.7423 63.1160 0.0000 4.6027 0.0000
# 4 0.0000 0.0000 0.0000 12.1390 0.0000 7.5066
# 5 -11.0139 -3.5633 4.6027 0.0000 26.2668 0.0000
# 6 0.0000 0.0000 0.0000 7.5066 0.0000 29.8458
#
#
#
# Elastic Compliance Matrix: (Units=1/GPa)
#
#
# Indices 1 2 3 4 5 6 
#
# 1 0.023529 -0.005116 -0.020573 0.000000 0.012777 0.000000
# 2 -0.005116 0.017773 -0.004984 0.000000 0.001139 0.000000
# 3 -0.020573 -0.004984 0.039405 0.000000 -0.016208 0.000000
# 4 0.000000 0.000000 0.000000 0.097551 0.000000 -0.024535
# 5 0.012777 0.001139 -0.016208 0.000000 0.046423 0.000000
# 6 0.000000 0.000000 0.000000 -0.024535 0.000000 0.039677
#
#
# Mechanical properties :
#
#
# Convention : Reuss Voigt Hill
#
# Bulk Modulus (GPa) = 51.64703 60.59061 56.11882
# Shear Modulus (GPa) = 15.05313 21.04161 18.04737
#
# Velocity S-wave (km/s) = 2.76852 3.27321 3.03139
# Velocity P-wave (km/s) = 6.04294 6.71838 6.38959
#
# Compressibility (1/GPa) = 0.01936220
#
# Stress axis : x y z
#
# Youngs Moduli (GPa) = 42.50053 56.26620 25.37734
#
# Poissons Ratio (x) = 0.28783 0.52210
# Poissons Ratio (y) = 0.21741 0.12647
# Poissons Ratio (z) = 0.87438 0.28041
#
# Static dielectric constant tensor:
#      x y z
#    x 3.617820 0.000000 -0.031650 
#    y 0.000000 3.525930 0.000000 
#    z -0.031650 0.000000 3.350140 
# 
# 
# High freq. dielectric constant tensor:
#      x y z
#    x 1.768140 0.000000 0.005560 
#    y 0.000000 1.765010 0.000000 
#    z 0.005560 0.000000 1.744580 
# 
# From -- ./inp_files/70173.got.cif
#   From: 2010.06.25/outbox.cif.g09.slc.cpg/sg10_36_cif.got.tgz:70173.got - 2010.06.27 22:07:45.
