data_PCOD8058952
_publ_section_title
;
Structure prediction by ZEFSAII (Michael W. Deem and Ramdas Pophale) SiO2 
 PCOD8058952
Probable space group: P 2/M
;
_chemical_formula_sum "Si O2"
_cell_formula_units_Z 30
_cell_length_a 11.063908
_cell_length_b 9.913687
_cell_length_c 15.233329
_cell_angle_alpha 90.000000
_cell_angle_beta 111.000774
_cell_angle_gamma 90.000000
_cell_volume 1559.868781
_symmetry_space_group_name_H-M "P 2/M"
_symmetry_group_IT_number 10
_symmetry_cell_setting 'monoclinic'
loop_
_space_group_symop_operation_xyz
x,y,z
-x,y,-z
-x,-y,-z
x,-y,z
loop_
_atom_site_type_symbol
_atom_site_label
_atom_site_fract_x
_atom_site_fract_y
_atom_site_fract_z
Si Si1 0.354767 0.158361 0.945126
Si Si2 0.154417 0.156578 0.046684
Si Si3 0.248484 0.351858 0.398260
Si Si4 0.239915 0.154309 0.729810
Si Si5 0.500000 0.792445 0.500000
Si Si6 0.511460 0.855166 0.307633
Si Si7 0.984584 0.657257 0.393704
Si Si8 0.302038 0.347131 0.209253
O O1 0.308464 0.204566 0.837025
O O2 0.370006 0.000000 0.952361
O O3 0.500000 0.221102 0.000000
O O4 0.241882 0.200933 0.985210
O O5 0.193563 0.259701 0.133048
O O6 0.182811 0.000000 0.078107
O O7 0.000000 0.177334 0.000000
O O8 0.235249 0.500000 0.435370
O O9 0.371391 0.293692 0.480350
O O10 0.262146 0.355229 0.298684
O O11 0.114820 0.278352 0.386111
O O12 0.338219 0.165873 0.673865
O O13 0.126282 0.255578 0.678935
O O14 0.189316 0.000000 0.726833
O O15 0.486567 0.873149 0.405668
O O16 0.437241 0.733535 0.240344
O O17 0.466569 0.000000 0.255014
O O18 0.960248 0.500000 0.364002
O O19 0.000000 0.680983 0.500000
O O20 0.316472 0.500000 0.174606
#
# Coordination Sequence:
#
# PCOD8058952 Si02
#       8
#     4   4   4   4   2   4   4   4
#     4   9  18  35  58  82 111 148 187 230 285 345
#     4  10  21  36  57  83 110 142 185 233 283 337
#     4   9  19  34  53  78 110 146 184 225 275 330
#     4  10  21  36  58  84 111 146 189 231 279 336
#     4  10  18  32  56  82 109 142 187 232 273 324
#     4  10  20  35  55  81 112 143 180 228 278 326
#     4  10  21  37  55  78 111 150 188 227 276 331
#     4  10  21  36  55  80 109 144 183 224 275 332
#
# _framework density 19.232386000000002
#
# number of rings (size 3 to 8) (size 9 to 14) (size 15 to 20)
#    0.000    2.267    0.000    2.400    1.867    3.733 
#    0.000    4.000    0.000    1.600    0.000    0.000 
#    0.000    0.000    0.000    0.000    0.000    0.000 
#
# Total GULP energy -371700.445990 kJ/mol
# GULP energy per Si atom -12390.014866 kJ/mol
# Density = 1.918861 g / cm^3
# Si number density = 19.232386 Si / 1000 Ang^3
#
#
#
# Elastic Constant Matrix: (Units=GPa)
#
#
# Indices 1 2 3 4 5 6 
#
# 1 145.1724 51.8566 33.8431 0.0000 22.8057 0.0000
# 2 51.8566 105.0017 40.0981 0.0000 24.9520 0.0000
# 3 33.8431 40.0981 66.2276 0.0000 28.5029 0.0000
# 4 0.0000 0.0000 0.0000 481.2507 0.0000 66.6595
# 5 22.8057 24.9520 28.5029 0.0000 28.6154 0.0000
# 6 0.0000 0.0000 0.0000 66.6595 0.0000 33.3700
#
#
#
# Elastic Compliance Matrix: (Units=1/GPa)
#
#
# Indices 1 2 3 4 5 6 
#
# 1 0.008778 -0.003129 -0.001321 0.000000 -0.002951 0.000000
# 2 -0.003129 0.014085 -0.004755 0.000000 -0.005052 0.000000
# 3 -0.001321 -0.004755 0.028733 0.000000 -0.023422 0.000000
# 4 0.000000 0.000000 0.000000 0.002873 0.000000 -0.005739
# 5 -0.002951 -0.005052 -0.023422 0.000000 0.065034 0.000000
# 6 0.000000 0.000000 0.000000 -0.005739 0.000000 0.041430
#
#
# Mechanical properties :
#
#
# Convention : Reuss Voigt Hill
#
# Bulk Modulus (GPa) = 30.13198 63.11082 46.62140
# Shear Modulus (GPa) = 26.25981 121.35415 73.80698
#
# Velocity S-wave (km/s) = 3.69913 7.95210 6.20159
# Velocity P-wave (km/s) = 5.82633 10.82592 8.69329
#
# Compressibility (1/GPa) = 0.03318733
#
# Stress axis : x y z
#
# Youngs Moduli (GPa) = 113.92514 70.99548 34.80281
#
# Poissons Ratio (x) = 0.22217 0.04596
# Poissons Ratio (y) = 0.35651 0.16548
# Poissons Ratio (z) = 0.15045 0.33756
#
# Static dielectric constant tensor:
#      x y z
#    x 3.730240 0.000000 0.029560 
#    y 0.000000 3.562650 0.000000 
#    z 0.029560 0.000000 3.309550 
# 
# 
# High freq. dielectric constant tensor:
#      x y z
#    x 1.760840 0.000000 -0.002560 
#    y 0.000000 1.730610 0.000000 
#    z -0.002560 0.000000 1.745020 
# 
# From -- ./inp_files/63883.got.cif
#   From: 2010.06.25/outbox.cif.g09.slc.cpg/sg10_32_cif.got.tgz:63883.got - 2010.06.27 22:07:45.
