data_PCOD8058301
_publ_section_title
;
Structure prediction by ZEFSAII (Michael W. Deem and Ramdas Pophale) SiO2 
 PCOD8058301
Probable space group: P 2/M
;
_chemical_formula_sum "Si O2"
_cell_formula_units_Z 28
_cell_length_a 11.807922
_cell_length_b 8.989951
_cell_length_c 14.266556
_cell_angle_alpha 90.000000
_cell_angle_beta 71.037349
_cell_angle_gamma 90.000000
_cell_volume 1432.245239
_symmetry_space_group_name_H-M "P 2/M"
_symmetry_group_IT_number 10
_symmetry_cell_setting 'monoclinic'
loop_
_space_group_symop_operation_xyz
x,y,z
-x,y,-z
-x,-y,-z
x,-y,z
loop_
_atom_site_type_symbol
_atom_site_label
_atom_site_fract_x
_atom_site_fract_y
_atom_site_fract_z
Si Si1 0.025139 0.676221 0.386956
Si Si2 0.361636 0.834796 0.517425
Si Si3 0.560297 0.830812 0.691727
Si Si4 0.813882 0.325482 0.307787
Si Si5 0.307010 0.822654 0.820276
Si Si6 0.633138 0.176947 0.988757
Si Si7 0.763455 0.831154 0.774697
O O1 0.027042 0.500000 0.391186
O O2 0.150267 0.730407 0.310882
O O3 0.000000 0.738169 0.500000
O O4 0.925678 0.732890 0.339510
O O5 0.500000 0.848210 0.500000
O O6 0.355639 0.764165 0.413718
O O7 0.303105 0.717890 0.602647
O O8 0.301171 0.000000 0.542721
O O9 0.428626 0.760805 0.738702
O O10 0.629374 0.821746 0.770342
O O11 0.537994 0.000000 0.666438
O O12 0.821289 0.500000 0.289793
O O13 0.804951 0.248269 0.207079
O O14 0.295989 0.000000 0.818684
O O15 0.315108 0.767038 0.925436
O O16 0.737683 0.226674 0.887131
O O17 0.622021 0.000000 0.991193
O O18 0.500000 0.242456 0.000000
O O19 0.812901 0.000000 0.759405
#
# Coordination Sequence:
#
# PCOD8058301 Si02
#       7
#     4   4   4   4   4   4   4
#     4  10  23  43  60  75 106 152 194 232 279 330
#     4  10  18  30  50  77 108 141 175 214 272 339
#     4   9  16  28  50  81 112 139 171 216 270 329
#     4  11  23  37  53  76 108 146 189 234 277 324
#     4  10  18  33  56  81 113 148 176 214 275 335
#     4   9  16  30  57  89 118 145 177 223 278 331
#     4  10  19  33  58  89 112 138 185 234 274 324
#
# _framework density 19.549723
#
# number of rings (size 3 to 8) (size 9 to 14) (size 15 to 20)
#    0.000    2.143    2.857    1.286    0.000    1.714 
#    0.000    2.143    0.000    5.143    0.000    0.000 
#    0.000    0.000    0.000    0.000    0.000    0.000 
#
# Total GULP energy -346869.554033 kJ/mol
# GULP energy per Si atom -12388.198358 kJ/mol
# Density = 1.950523 g / cm^3
# Si number density = 19.549723 Si / 1000 Ang^3
#
#
#
# Elastic Constant Matrix: (Units=GPa)
#
#
# Indices 1 2 3 4 5 6 
#
# 1 88.0775 21.2687 48.4437 0.0000 17.8555 0.0000
# 2 21.2687 22.5078 17.8201 0.0000 6.1974 0.0000
# 3 48.4437 17.8201 138.2416 0.0000 21.3302 0.0000
# 4 0.0000 0.0000 0.0000 14.6291 0.0000 10.3605
# 5 17.8555 6.1974 21.3302 0.0000 36.3689 0.0000
# 6 0.0000 0.0000 0.0000 10.3605 0.0000 8.0066
#
#
#
# Elastic Compliance Matrix: (Units=1/GPa)
#
#
# Indices 1 2 3 4 5 6 
#
# 1 0.017226 -0.012098 -0.003837 0.000000 -0.004145 0.000000
# 2 -0.012098 0.058871 -0.002988 0.000000 -0.002340 0.000000
# 3 -0.003837 -0.002988 0.009449 0.000000 -0.003149 0.000000
# 4 0.000000 0.000000 0.000000 0.817821 0.000000 -1.058251
# 5 -0.004145 -0.002340 -0.003149 0.000000 0.031776 0.000000
# 6 0.000000 0.000000 0.000000 -1.058251 0.000000 1.494261
#
#
# Mechanical properties :
#
#
# Convention : Reuss Voigt Hill
#
# Bulk Modulus (GPa) = 20.96480 47.09911 34.03196
# Shear Modulus (GPa) = 2.01357 22.55391 12.28374
#
# Velocity S-wave (km/s) = 1.01598 3.40025 2.50938
# Velocity P-wave (km/s) = 3.48187 6.28967 5.08347
#
# Compressibility (1/GPa) = 0.04769899
#
# Stress axis : x y z
#
# Youngs Moduli (GPa) = 58.05186 16.98623 105.82574
#
# Poissons Ratio (x) = 0.20550 0.40609
# Poissons Ratio (y) = 0.70232 0.31624
# Poissons Ratio (z) = 0.22277 0.05076
#
# Static dielectric constant tensor:
#      x y z
#    x 3.564380 0.000000 0.380980 
#    y 0.000000 3.100440 0.000000 
#    z 0.380980 0.000000 4.120390 
# 
# 
# High freq. dielectric constant tensor:
#      x y z
#    x 1.750730 0.000000 0.022050 
#    y 0.000000 1.709340 0.000000 
#    z 0.022050 0.000000 1.777610 
# 
# From -- ./inp_files/63373.got.cif
#   From: 2010.06.25/outbox.cif.g09.slc.cpg/sg10_32_cif.got.tgz:63373.got - 2010.06.27 22:07:45.
