data_PCOD8058501
_publ_section_title
;
Structure prediction by ZEFSAII (Michael W. Deem and Ramdas Pophale) SiO2 
 PCOD8058501
Probable space group: P 2/M
;
_chemical_formula_sum "Si O2"
_cell_formula_units_Z 32
_cell_length_a 20.297019
_cell_length_b 8.894794
_cell_length_c 25.214440
_cell_angle_alpha 90.000000
_cell_angle_beta 156.667211
_cell_angle_gamma 90.000000
_cell_volume 1802.978598
_symmetry_space_group_name_H-M "P 2/M"
_symmetry_group_IT_number 10
_symmetry_cell_setting 'monoclinic'
loop_
_space_group_symop_operation_xyz
x,y,z
-x,y,-z
-x,-y,-z
x,-y,z
loop_
_atom_site_type_symbol
_atom_site_label
_atom_site_fract_x
_atom_site_fract_y
_atom_site_fract_z
Si Si1 0.409938 0.177947 0.123265
Si Si2 0.266413 0.677886 0.186720
Si Si3 0.553959 0.177632 0.341229
Si Si4 0.238597 0.178528 0.816982
Si Si5 0.035207 0.677061 0.106591
Si Si6 0.459957 0.822684 0.889771
Si Si7 0.946426 0.321800 0.155700
Si Si8 0.920051 0.178639 0.640827
O O1 0.489627 0.236665 0.236730
O O2 0.539720 0.221789 0.172001
O O3 0.376173 0.000000 0.099257
O O4 0.239500 0.261116 0.985087
O O5 0.292030 0.500000 0.202532
O O6 0.442549 0.755716 0.306115
O O7 0.198615 0.729752 0.194659
O O8 0.134317 0.738774 0.045500
O O9 0.742019 0.233903 0.488168
O O10 0.544173 0.000000 0.336523
O O11 0.295891 0.236354 0.800488
O O12 0.056917 0.238913 0.699588
O O13 0.232261 0.000000 0.813325
O O14 0.372483 0.239790 0.958600
O O15 0.023532 0.500000 0.092192
O O16 0.044515 0.727140 0.174572
O O17 0.463387 0.000000 0.898725
O O18 0.940442 0.500000 0.157777
O O19 0.047832 0.249771 0.278315
O O20 0.927861 0.000000 0.652885
#
# Coordination Sequence:
#
# PCOD8058501 Si02
#       8
#     4   4   4   4   4   4   4   4
#     4  10  18  31  50  74 102 130 161 203 248 290
#     4   9  16  32  54  72  96 130 162 200 248 289
#     4  10  21  33  48  74 106 134 163 197 244 302
#     4   8  13  24  45  70  94 126 165 201 238 284
#     4   8  16  30  51  76  97 121 161 209 247 283
#     4   8  13  23  45  73  94 120 165 207 239 282
#     4  11  20  32  52  78  99 122 166 212 243 288
#     4  10  20  35  50  69 103 140 164 196 247 296
#
# _framework density 17.748408000000001
#
# number of rings (size 3 to 8) (size 9 to 14) (size 15 to 20)
#    0.000    2.750    2.500    1.875    0.000    0.500 
#    0.000    3.750    0.000    9.000    0.000    0.000 
#    0.000    3.000    0.000    0.000    0.000    0.000 
#
# Total GULP energy -396540.246662 kJ/mol
# GULP energy per Si atom -12391.882708 kJ/mol
# Density = 1.770801 g / cm^3
# Si number density = 17.748408 Si / 1000 Ang^3
#
#
#
# Elastic Constant Matrix: (Units=GPa)
#
#
# Indices 1 2 3 4 5 6 
#
# 1 151.9843 20.1703 67.4723 0.0000 19.5459 0.0000
# 2 20.1703 16.3873 20.6873 0.0000 0.3668 0.0000
# 3 67.4723 20.6873 103.7531 0.0000 14.1465 0.0000
# 4 0.0000 0.0000 0.0000 5.6145 0.0000 -8.2401
# 5 19.5459 0.3668 14.1465 0.0000 31.2297 0.0000
# 6 0.0000 0.0000 0.0000 -8.2401 0.0000 12.1864
#
#
#
# Elastic Compliance Matrix: (Units=1/GPa)
#
#
# Indices 1 2 3 4 5 6 
#
# 1 0.010032 -0.006310 -0.004711 0.000000 -0.004071 0.000000
# 2 -0.006310 0.086908 -0.014521 0.000000 0.009506 0.000000
# 3 -0.004711 -0.014521 0.016171 0.000000 -0.004206 0.000000
# 4 0.000000 0.000000 0.000000 23.375843 0.000000 15.806141
# 5 -0.004071 0.009506 -0.004206 0.000000 0.036362 0.000000
# 6 0.000000 0.000000 0.000000 15.806141 0.000000 10.769762
#
#
# Mechanical properties :
#
#
# Convention : Reuss Voigt Hill
#
# Bulk Modulus (GPa) = 16.12208 54.30938 35.21573
# Shear Modulus (GPa) = 0.14549 20.72577 10.43563
#
# Velocity S-wave (km/s) = 0.28662 3.42095 2.42745
# Velocity P-wave (km/s) = 3.03528 6.80220 5.26701
#
# Compressibility (1/GPa) = 0.06202674
#
# Stress axis : x y z
#
# Youngs Moduli (GPa) = 99.68290 11.50643 61.84047
#
# Poissons Ratio (x) = 0.07260 0.29131
# Poissons Ratio (y) = 0.62897 0.89801
# Poissons Ratio (z) = 0.46958 0.16709
#
# Static dielectric constant tensor:
#      x y z
#    x 3.945980 0.000000 0.156990 
#    y 0.000000 2.887180 0.000000 
#    z 0.156990 0.000000 3.211590 
# 
# 
# High freq. dielectric constant tensor:
#      x y z
#    x 1.707960 0.000000 0.013570 
#    y 0.000000 1.644250 0.000000 
#    z 0.013570 0.000000 1.659910 
# 
# From -- ./inp_files/86136.got.cif
#   From: 2010.06.25/outbox.cif.g09.slc.cpg/sg10_44_cif.got.tgz:86136.got - 2010.06.27 22:07:45.
