data_PCOD8058736
_publ_section_title
;
Structure prediction by ZEFSAII (Michael W. Deem and Ramdas Pophale) SiO2 
 PCOD8058736
Probable space group: P 2/M
;
_chemical_formula_sum "Si O2"
_cell_formula_units_Z 32
_cell_length_a 11.667618
_cell_length_b 9.336362
_cell_length_c 21.965821
_cell_angle_alpha 90.000000
_cell_angle_beta 133.590708
_cell_angle_gamma 90.000000
_cell_volume 1733.069706
_symmetry_space_group_name_H-M "P 2/M"
_symmetry_group_IT_number 10
_symmetry_cell_setting 'monoclinic'
loop_
_space_group_symop_operation_xyz
x,y,z
-x,y,-z
-x,-y,-z
x,-y,z
loop_
_atom_site_type_symbol
_atom_site_label
_atom_site_fract_x
_atom_site_fract_y
_atom_site_fract_z
Si Si1 0.290423 0.160583 0.765413
Si Si2 0.057753 0.250860 0.349947
Si Si3 0.307940 0.671033 0.270704
Si Si4 0.644771 0.328973 0.094477
Si Si5 0.849604 0.662724 0.484055
Si Si6 0.414432 0.829891 0.679685
Si Si7 0.018803 0.342461 0.807169
Si Si8 0.362720 0.842810 0.404658
O O1 0.372439 0.263620 0.844732
O O2 0.347273 0.213238 0.720523
O O3 0.100559 0.161030 0.695921
O O4 0.348937 0.000000 0.800135
O O5 0.108150 0.334917 0.429061
O O6 0.026592 0.355406 0.281080
O O7 0.198362 0.146205 0.381226
O O8 0.320984 0.500000 0.266573
O O9 0.411121 0.756624 0.258936
O O10 0.123205 0.726923 0.204283
O O11 0.375573 0.715898 0.360862
O O12 0.650463 0.500000 0.103123
O O13 0.808381 0.267646 0.123790
O O14 0.500000 0.277198 0.000000
O O15 0.805197 0.500000 0.449813
O O16 0.700779 0.764596 0.414278
O O17 0.000000 0.716072 0.500000
O O18 0.426357 0.000000 0.674575
O O19 0.037777 0.500000 0.840777
O O20 0.500000 0.801688 0.500000
O O21 0.390262 0.000000 0.384581
#
# Coordination Sequence:
#
# PCOD8058736 Si02
#       8
#     4   4   4   4   4   4   4   4
#     4  10  21  35  52  76 105 141 175 210 258 311
#     4  10  18  32  50  73 103 136 175 218 261 311
#     4  10  20  34  52  73  98 133 177 218 261 310
#     4   9  18  34  59  88 112 133 161 205 262 321
#     4  11  22  34  50  74 103 140 184 227 268 311
#     4  11  23  37  51  71 105 145 185 224 261 307
#     4   8  16  31  52  77 105 133 163 209 262 311
#     4  10  20  32  48  69  95 129 171 219 267 311
#
# _framework density 18.464347
#
# number of rings (size 3 to 8) (size 9 to 14) (size 15 to 20)
#    0.000    2.125    1.250    2.250    0.000    4.750 
#    0.000    0.625    0.000    0.750    0.000    5.250 
#    0.000    0.000    0.000    0.000    0.000    0.000 
#
# Total GULP energy -396500.450240 kJ/mol
# GULP energy per Si atom -12390.639070 kJ/mol
# Density = 1.842232 g / cm^3
# Si number density = 18.464347 Si / 1000 Ang^3
#
#
#
# Elastic Constant Matrix: (Units=GPa)
#
#
# Indices 1 2 3 4 5 6 
#
# 1 118.7372 21.8860 43.4716 0.0000 14.8715 0.0000
# 2 21.8860 63.9591 23.8435 0.0000 5.3857 0.0000
# 3 43.4716 23.8435 99.2485 0.0000 17.5666 0.0000
# 4 0.0000 0.0000 0.0000 8.6137 0.0000 -4.4329
# 5 14.8715 5.3857 17.5666 0.0000 23.4559 0.0000
# 6 0.0000 0.0000 0.0000 -4.4329 0.0000 24.0196
#
#
#
# Elastic Compliance Matrix: (Units=1/GPa)
#
#
# Indices 1 2 3 4 5 6 
#
# 1 0.010518 -0.001995 -0.003491 0.000000 -0.003596 0.000000
# 2 -0.001995 0.017571 -0.003294 0.000000 -0.000303 0.000000
# 3 -0.003491 -0.003294 0.013685 0.000000 -0.007279 0.000000
# 4 0.000000 0.000000 0.000000 0.128277 0.000000 0.023674
# 5 -0.003596 -0.000303 -0.007279 0.000000 0.050434 0.000000
# 6 0.000000 0.000000 0.000000 0.023674 0.000000 0.046002
#
#
# Mechanical properties :
#
#
# Convention : Reuss Voigt Hill
#
# Bulk Modulus (GPa) = 41.29901 51.14966 46.22433
# Shear Modulus (GPa) = 17.11636 24.06743 20.59189
#
# Velocity S-wave (km/s) = 3.04796 3.61425 3.34312
# Velocity P-wave (km/s) = 5.89934 6.72154 6.32382
#
# Compressibility (1/GPa) = 0.02421366
#
# Stress axis : x y z
#
# Youngs Moduli (GPa) = 95.07244 56.91178 73.07473
#
# Poissons Ratio (x) = 0.11353 0.25513
# Poissons Ratio (y) = 0.18966 0.24070
# Poissons Ratio (z) = 0.33193 0.18746
#
# Static dielectric constant tensor:
#      x y z
#    x 3.726900 0.000000 0.270780 
#    y 0.000000 3.205430 0.000000 
#    z 0.270780 0.000000 3.194900 
# 
# 
# High freq. dielectric constant tensor:
#      x y z
#    x 1.730340 0.000000 0.018300 
#    y 0.000000 1.705760 0.000000 
#    z 0.018300 0.000000 1.680380 
# 
# From -- ./inp_files/88561.got.cif
#   From: 2010.06.25/outbox.cif.g09.slc.cpg/sg10_45_cif.got.tgz:88561.got - 2010.06.27 22:07:45.
