data_PCOD8058833
_publ_section_title
;
Structure prediction by ZEFSAII (Michael W. Deem and Ramdas Pophale) SiO2 
 PCOD8058833
Probable space group: P 2/M
;
_chemical_formula_sum "Si O2"
_cell_formula_units_Z 28
_cell_length_a 10.332822
_cell_length_b 8.963001
_cell_length_c 31.199588
_cell_angle_alpha 90.000000
_cell_angle_beta 147.492226
_cell_angle_gamma 90.000000
_cell_volume 1552.852685
_symmetry_space_group_name_H-M "P 2/M"
_symmetry_group_IT_number 10
_symmetry_cell_setting 'monoclinic'
loop_
_space_group_symop_operation_xyz
x,y,z
-x,y,-z
-x,-y,-z
x,-y,z
loop_
_atom_site_type_symbol
_atom_site_label
_atom_site_fract_x
_atom_site_fract_y
_atom_site_fract_z
Si Si1 0.605254 0.322487 0.736771
Si Si2 0.862055 0.676815 0.241962
Si Si3 0.332396 0.173336 0.335339
Si Si4 0.124013 0.322901 0.905413
Si Si5 0.667969 0.172342 0.508724
Si Si6 0.152617 0.676507 0.665232
Si Si7 0.543695 0.323511 0.077962
O O1 0.606278 0.500000 0.731269
O O2 0.576586 0.249121 0.682512
O O3 0.385731 0.266943 0.704759
O O4 0.849871 0.264366 0.828348
O O5 0.901066 0.500000 0.251285
O O6 0.826659 0.735534 0.280238
O O7 0.623971 0.724734 0.148189
O O8 0.091666 0.751409 0.284936
O O9 0.542211 0.198266 0.428321
O O10 0.281295 0.000000 0.313231
O O11 0.118341 0.500000 0.903584
O O12 0.258380 0.262533 0.900446
O O13 0.275654 0.265420 0.989630
O O14 0.500000 0.236026 0.500000
O O15 0.917187 0.260063 0.576748
O O16 0.724534 0.000000 0.533635
O O17 0.136618 0.500000 0.660087
O O18 0.541648 0.500000 0.073743
#
# Coordination Sequence:
#
# PCOD8058833 Si02
#       7
#     4   4   4   4   4   4   4
#     4  10  20  36  53  76 110 142 169 209 260 308
#     4  10  18  32  53  79 106 135 171 214 257 303
#     4  11  22  35  55  79 100 132 178 217 255 308
#     4   8  13  24  46  74 103 135 170 206 249 301
#     4  10  21  38  56  75 102 135 173 216 259 305
#     4  10  22  35  53  80 108 137 171 210 262 314
#     4   8  13  23  46  77 101 131 173 210 248 296
#
# _framework density 18.031330000000001
#
# number of rings (size 3 to 8) (size 9 to 14) (size 15 to 20)
#    0.000    2.429    2.857    1.286    0.000    2.571 
#    0.000    3.571    0.000    6.000    0.000    0.000 
#    0.000    3.429    0.000    0.000    0.000    0.000 
#
# Total GULP energy -347067.753158 kJ/mol
# GULP energy per Si atom -12395.276898 kJ/mol
# Density = 1.799029 g / cm^3
# Si number density = 18.031330 Si / 1000 Ang^3
#
#
#
# Elastic Constant Matrix: (Units=GPa)
#
#
# Indices 1 2 3 4 5 6 
#
# 1 117.3982 23.7592 73.5842 0.0000 0.7905 0.0000
# 2 23.7592 19.4076 23.4550 0.0000 -3.8124 0.0000
# 3 73.5842 23.4550 142.6366 0.0000 1.7614 0.0000
# 4 0.0000 0.0000 0.0000 1.9273 0.0000 -6.9405
# 5 0.7905 -3.8124 1.7614 0.0000 30.3499 0.0000
# 6 0.0000 0.0000 0.0000 -6.9405 0.0000 10.5334
#
#
#
# Elastic Compliance Matrix: (Units=1/GPa)
#
#
# Indices 1 2 3 4 5 6 
#
# 1 0.014205 -0.011029 -0.005497 0.000000 -0.001436 0.000000
# 2 -0.011029 0.075248 -0.006809 0.000000 0.010135 0.000000
# 3 -0.005497 -0.006809 0.010983 0.000000 -0.001350 0.000000
# 4 0.000000 0.000000 0.000000 -0.377939 0.000000 -0.249027
# 5 -0.001436 0.010135 -0.001350 0.000000 0.034338 0.000000
# 6 0.000000 0.000000 0.000000 -0.249027 0.000000 -0.069150
#
#
# Mechanical properties :
#
#
# Convention : Reuss Voigt Hill
#
# Bulk Modulus (GPa) = 18.59908 57.89323 38.24616
# Shear Modulus (GPa) = -20.18390 19.13838 -0.52276
#
# Velocity S-wave (km/s) = -3.34934 3.26144 -0.53902
# Velocity P-wave (km/s) = 2.14946 6.80877 4.56833
#
# Compressibility (1/GPa) = 0.05376609
#
# Stress axis : x y z
#
# Youngs Moduli (GPa) = 70.39691 13.28933 91.05027
#
# Poissons Ratio (x) = 0.14657 0.50049
# Poissons Ratio (y) = 0.77642 0.61997
# Poissons Ratio (z) = 0.38696 0.09049
#
# Static dielectric constant tensor:
#      x y z
#    x 3.359870 0.000000 -0.107030 
#    y 0.000000 3.014510 0.000000 
#    z -0.107030 0.000000 3.882140 
# 
# 
# High freq. dielectric constant tensor:
#      x y z
#    x 1.681650 0.000000 -0.004870 
#    y 0.000000 1.660920 0.000000 
#    z -0.004870 0.000000 1.720460 
# 
# From -- ./inp_files/92087.got.cif
#   From: 2010.06.25/outbox.cif.g09.slc.cpg/sg10_47_cif.got.tgz:92087.got - 2010.06.27 22:07:45.
