data_PCOD8058636
_publ_section_title
;
Structure prediction by ZEFSAII (Michael W. Deem and Ramdas Pophale) SiO2 
 PCOD8058636
Probable space group: P 2/M
;
_chemical_formula_sum "Si O2"
_cell_formula_units_Z 24
_cell_length_a 13.488398
_cell_length_b 11.825234
_cell_length_c 13.488398
_cell_angle_alpha 90.000000
_cell_angle_beta 38.327359
_cell_angle_gamma 90.000000
_cell_volume 1334.227303
_symmetry_space_group_name_H-M "P 2/M"
_symmetry_group_IT_number 10
_symmetry_cell_setting 'monoclinic'
loop_
_space_group_symop_operation_xyz
x,y,z
-x,y,-z
-x,-y,-z
x,-y,z
loop_
_atom_site_type_symbol
_atom_site_label
_atom_site_fract_x
_atom_site_fract_y
_atom_site_fract_z
Si Si1 0.262271 0.000000 0.119696
Si Si2 0.017116 0.371260 0.872499
Si Si3 0.578031 0.238903 0.719924
Si Si4 0.679455 0.626178 0.820545
Si Si5 0.380303 0.000000 0.237729
Si Si6 0.780076 0.238904 0.921969
Si Si7 0.372499 0.371260 0.517116
O O1 0.177705 0.890119 0.139433
O O2 0.251836 0.000000 0.248164
O O3 0.447104 0.000000 0.947103
O O4 0.957321 0.500000 0.901436
O O5 0.199477 0.356876 0.699477
O O6 0.911757 0.284461 0.893254
O O7 0.000000 0.337741 0.000000
O O8 0.686771 0.310730 0.710028
O O9 0.639433 0.109881 0.677705
O O10 0.606746 0.284461 0.588243
O O11 0.392034 0.249760 0.892034
O O12 0.746202 0.500000 0.753797
O O13 0.789972 0.689269 0.813230
O O14 0.500000 0.625730 0.000000
O O15 0.500000 0.337742 0.500000
O O16 0.401436 0.500000 0.457321
#
# Coordination Sequence:
#
# PCOD8058636 Si02
#       7
#     2   4   4   4   2   4   4
#     4   9  16  30  52  79 108 143 182 218 255 300
#     4  10  21  37  56  78 105 137 174 218 269 321
#     4  10  18  31  53  79 108 140 178 218 258 308
#     4   9  16  25  44  76 107 135 170 211 254 306
#     4   9  16  30  52  79 108 143 182 218 255 300
#     4  10  18  31  53  79 108 140 178 218 258 308
#     4  10  21  37  56  78 105 137 174 218 269 321
#
# _framework density 17.987939999999998
#
# number of rings (size 3 to 8) (size 9 to 14) (size 15 to 20)
#    0.000    2.333    1.667    2.000    0.000    3.333 
#    0.000    2.500    0.000    4.000    0.000    0.000 
#    0.000    0.000    0.000    0.000    0.000    0.000 
#
# Total GULP energy -297610.967953 kJ/mol
# GULP energy per Si atom -12400.456998 kJ/mol
# Density = 1.794700 g / cm^3
# Si number density = 17.987940 Si / 1000 Ang^3
#
#
#
# Elastic Constant Matrix: (Units=GPa)
#
#
# Indices 1 2 3 4 5 6 
#
# 1 141.5136 90.3175 47.0916 0.0000 23.2055 0.0000
# 2 90.3175 171.4892 49.1058 0.0000 24.5572 0.0000
# 3 47.0916 49.1058 65.3415 0.0000 22.1832 0.0000
# 4 0.0000 0.0000 0.0000 17.1256 0.0000 -3.4591
# 5 23.2055 24.5572 22.1832 0.0000 28.3478 0.0000
# 6 0.0000 0.0000 0.0000 -3.4591 0.0000 11.3202
#
#
#
# Elastic Compliance Matrix: (Units=1/GPa)
#
#
# Indices 1 2 3 4 5 6 
#
# 1 0.011852 -0.004701 -0.004219 0.000000 -0.002329 0.000000
# 2 -0.004701 0.009463 -0.003060 0.000000 -0.001955 0.000000
# 3 -0.004219 -0.003060 0.025291 0.000000 -0.013687 0.000000
# 4 0.000000 0.000000 0.000000 0.062233 0.000000 0.019017
# 5 -0.002329 -0.001955 -0.013687 0.000000 0.049586 0.000000
# 6 0.000000 0.000000 0.000000 0.019017 0.000000 0.094148
#
#
# Mechanical properties :
#
#
# Convention : Reuss Voigt Hill
#
# Bulk Modulus (GPa) = 44.15531 83.48599 63.82065
# Shear Modulus (GPa) = 17.60049 24.14736 20.87392
#
# Velocity S-wave (km/s) = 3.13143 3.66788 3.41022
# Velocity P-wave (km/s) = 6.13799 8.02812 7.14583
#
# Compressibility (1/GPa) = 0.02264733
#
# Stress axis : x y z
#
# Youngs Moduli (GPa) = 84.37194 105.67183 39.53961
#
# Poissons Ratio (x) = 0.49673 0.16680
# Poissons Ratio (y) = 0.39661 0.12101
# Poissons Ratio (z) = 0.35593 0.32340
#
# Static dielectric constant tensor:
#      x y z
#    x 3.270250 0.000000 0.147700 
#    y 0.000000 3.571500 0.000000 
#    z 0.147700 0.000000 3.022390 
# 
# 
# High freq. dielectric constant tensor:
#      x y z
#    x 1.694120 0.000000 0.015050 
#    y 0.000000 1.702550 0.000000 
#    z 0.015050 0.000000 1.668860 
# 
# From -- ./inp_files/46552.got.cif
#   From: 2010.06.25/outbox.cif.g09.slc.cpg/sg10_24_cif.got.tgz:46552.got - 2010.06.27 22:07:45.
