data_PCOD8058748
_publ_section_title
;
Structure prediction by ZEFSAII (Michael W. Deem and Ramdas Pophale) SiO2 
 PCOD8058748
Probable space group: P 2/M
;
_chemical_formula_sum "Si O2"
_cell_formula_units_Z 24
_cell_length_a 31.231848
_cell_length_b 7.944025
_cell_length_c 17.659688
_cell_angle_alpha 90.000000
_cell_angle_beta 18.245467
_cell_angle_gamma 90.000000
_cell_volume 1371.793251
_symmetry_space_group_name_H-M "P 2/M"
_symmetry_group_IT_number 10
_symmetry_cell_setting 'monoclinic'
loop_
_space_group_symop_operation_xyz
x,y,z
-x,y,-z
-x,-y,-z
x,-y,z
loop_
_atom_site_type_symbol
_atom_site_label
_atom_site_fract_x
_atom_site_fract_y
_atom_site_fract_z
Si Si1 0.499906 0.306634 0.914123
Si Si2 0.893659 0.500000 0.783531
Si Si3 0.003503 0.310938 0.720303
Si Si4 0.946077 0.694145 0.980513
Si Si5 0.210178 0.192693 0.619415
Si Si6 0.265805 0.186278 0.203512
Si Si7 0.795024 0.500000 0.791171
O O1 0.453277 0.500000 0.990170
O O2 0.647963 0.288556 0.627903
O O3 0.500000 0.239081 0.000000
O O4 0.392775 0.198373 0.046747
O O5 0.780107 0.500000 0.908366
O O6 0.887211 0.332940 0.848955
O O7 0.046253 0.500000 0.493540
O O8 0.063719 0.500000 0.636130
O O9 0.126953 0.195173 0.485442
O O10 0.937174 0.238896 0.908783
O O11 0.903815 0.500000 0.057484
O O12 0.100406 0.717058 0.750271
O O13 0.839429 0.799385 0.209965
O O14 0.226536 0.000000 0.567348
O O15 0.275184 0.331221 0.123612
O O16 0.270186 0.000000 0.158236
#
# Coordination Sequence:
#
# PCOD8058748 Si02
#       7
#     4   2   4   4   4   4   2
#     4  11  22  36  51  69  99 135 171 210 244 289
#     4   7  14  30  54  68  99 135 152 203 257 294
#     4   8  16  31  50  72  98 129 162 207 246 292
#     4  10  18  32  51  69  94 132 170 207 245 291
#     4  11  22  32  45  69 102 134 169 209 248 288
#     4  11  20  31  51  75 102 137 169 202 251 296
#     4   9  16  34  49  71 107 130 162 206 247 302
#
# _framework density 17.495349000000001
#
# number of rings (size 3 to 8) (size 9 to 14) (size 15 to 20)
#    0.500    1.667    1.667    4.500    0.000    6.667 
#    0.000    6.667    0.000    0.000    0.000    2.333 
#    0.000    2.667    0.000    0.000    0.000    0.000 
#
# Total GULP energy -297428.288233 kJ/mol
# GULP energy per Si atom -12392.845343 kJ/mol
# Density = 1.745553 g / cm^3
# Si number density = 17.495349 Si / 1000 Ang^3
#
#
#
# Elastic Constant Matrix: (Units=GPa)
#
#
# Indices 1 2 3 4 5 6 
#
# 1 146.5005 29.5452 40.8622 0.0000 5.1870 0.0000
# 2 29.5452 83.0848 15.6426 0.0000 -3.6240 0.0000
# 3 40.8622 15.6426 52.6674 0.0000 1.4780 0.0000
# 4 0.0000 0.0000 0.0000 -3.0129 0.0000 17.6639
# 5 5.1870 -3.6240 1.4780 0.0000 17.1349 0.0000
# 6 0.0000 0.0000 0.0000 17.6639 0.0000 -8.1071
#
#
#
# Elastic Compliance Matrix: (Units=1/GPa)
#
#
# Indices 1 2 3 4 5 6 
#
# 1 0.009133 -0.002166 -0.006368 0.000000 -0.002674 0.000000
# 2 -0.002166 0.013421 -0.002410 0.000000 0.003702 0.000000
# 3 -0.006368 -0.002410 0.024663 0.000000 -0.000709 0.000000
# 4 0.000000 0.000000 0.000000 0.028190 0.000000 0.061421
# 5 -0.002674 0.003702 -0.000709 0.000000 0.060014 0.000000
# 6 0.000000 0.000000 0.000000 0.061421 0.000000 0.010476
#
#
# Mechanical properties :
#
#
# Convention : Reuss Voigt Hill
#
# Bulk Modulus (GPa) = 39.47725 50.48363 44.98044
# Shear Modulus (GPa) = 28.37219 14.28318 21.32769
#
# Velocity S-wave (km/s) = 4.03140 2.86037 3.49528
# Velocity P-wave (km/s) = 6.65455 6.31087 6.48498
#
# Compressibility (1/GPa) = 0.02533104
#
# Stress axis : x y z
#
# Youngs Moduli (GPa) = 109.48706 74.50916 40.54595
#
# Poissons Ratio (x) = 0.16136 0.25820
# Poissons Ratio (y) = 0.23710 0.09771
# Poissons Ratio (z) = 0.69722 0.17956
#
# Static dielectric constant tensor:
#      x y z
#    x 3.642150 0.000000 0.151020 
#    y 0.000000 3.165700 0.000000 
#    z 0.151020 0.000000 2.921090 
# 
# 
# High freq. dielectric constant tensor:
#      x y z
#    x 1.668640 0.000000 0.011750 
#    y 0.000000 1.672620 0.000000 
#    z 0.011750 0.000000 1.637640 
# 
# From -- ./inp_files/80588.got.cif
#   From: 2010.06.25/outbox.cif.g09.slc.cpg/sg10_41_cif.got.tgz:80588.got - 2010.06.27 22:07:45.
