data_PCOD8058150
_publ_section_title
;
Structure prediction by ZEFSAII (Michael W. Deem and Ramdas Pophale) SiO2 
 PCOD8058150
Probable space group: P 2/M
;
_chemical_formula_sum "Si O2"
_cell_formula_units_Z 32
_cell_length_a 16.752011
_cell_length_b 9.285978
_cell_length_c 16.959439
_cell_angle_alpha 90.000000
_cell_angle_beta 129.856058
_cell_angle_gamma 90.000000
_cell_volume 2025.224748
_symmetry_space_group_name_H-M "P 2/M"
_symmetry_group_IT_number 10
_symmetry_cell_setting 'monoclinic'
loop_
_space_group_symop_operation_xyz
x,y,z
-x,y,-z
-x,-y,-z
x,-y,z
loop_
_atom_site_type_symbol
_atom_site_label
_atom_site_fract_x
_atom_site_fract_y
_atom_site_fract_z
Si Si1 0.187754 0.334148 0.474579
Si Si2 0.346257 0.670603 0.449000
Si Si3 0.529744 0.332399 0.798339
Si Si4 0.678730 0.162842 0.325798
Si Si5 0.601667 0.331022 0.015054
Si Si6 0.966789 0.334836 0.391342
Si Si7 0.232599 0.836502 0.787101
Si Si8 0.564910 0.331083 0.651348
O O1 0.218940 0.500000 0.509569
O O2 0.242629 0.274398 0.429053
O O3 0.225337 0.242507 0.572797
O O4 0.063438 0.318015 0.392058
O O5 0.341666 0.500000 0.444978
O O6 0.353526 0.730243 0.362724
O O7 0.448209 0.727244 0.560310
O O8 0.498850 0.500000 0.781898
O O9 0.426233 0.243432 0.720958
O O10 0.598438 0.296538 0.763104
O O11 0.589335 0.289050 0.915369
O O12 0.694979 0.167600 0.243123
O O13 0.672158 0.000000 0.352909
O O14 0.620263 0.500000 0.039345
O O15 0.704988 0.248008 0.106092
O O16 0.500000 0.281451 0.000000
O O17 0.927861 0.500000 0.370578
O O18 0.877465 0.236273 0.299295
O O19 0.000000 0.283855 0.500000
O O20 0.212447 0.000000 0.802070
O O21 0.560154 0.500000 0.635010
#
# Coordination Sequence:
#
# PCOD8058150 Si02
#       8
#     4   4   4   4   4   4   4   4
#     4  10  18  30  48  68  91 124 158 187 223 269
#     4   8  13  22  41  69  95 118 147 184 223 267
#     4  10  18  30  48  68  91 124 158 187 223 269
#     4  11  21  29  42  66  95 125 155 188 225 266
#     4  10  20  32  49  70  91 119 155 194 230 267
#     4  10  20  32  49  70  91 119 155 194 230 267
#     4  11  23  35  47  64  93 128 156 191 231 270
#     4   8  13  22  41  69  95 118 147 184 223 267
#
# _framework density 15.800716
#
# number of rings (size 3 to 8) (size 9 to 14) (size 15 to 20)
#    0.000    2.250    3.750    1.500    0.000    2.500 
#    0.000    0.000    0.000    1.500    0.000    0.875 
#    0.000    7.000    0.000    0.000    0.000    0.000 
#
# Total GULP energy -396564.094602 kJ/mol
# GULP energy per Si atom -12392.627956 kJ/mol
# Density = 1.576475 g / cm^3
# Si number density = 15.800716 Si / 1000 Ang^3
#
#
#
# Elastic Constant Matrix: (Units=GPa)
#
#
# Indices 1 2 3 4 5 6 
#
# 1 94.0006 17.0808 43.9562 0.0000 -13.3600 0.0000
# 2 17.0808 51.2625 39.5622 0.0000 2.5862 0.0000
# 3 43.9562 39.5622 97.5144 0.0000 -8.0695 0.0000
# 4 0.0000 0.0000 0.0000 5.7561 0.0000 -3.6111
# 5 -13.3600 2.5862 -8.0695 0.0000 26.5381 0.0000
# 6 0.0000 0.0000 0.0000 -3.6111 0.0000 5.0029
#
#
#
# Elastic Compliance Matrix: (Units=1/GPa)
#
#
# Indices 1 2 3 4 5 6 
#
# 1 0.014190 -0.000607 -0.005698 0.000000 0.005470 0.000000
# 2 -0.000607 0.029538 -0.012283 0.000000 -0.006919 0.000000
# 3 -0.005698 -0.012283 0.018124 0.000000 0.003840 0.000000
# 4 0.000000 0.000000 0.000000 0.317497 0.000000 0.229168
# 5 0.005470 -0.006919 0.003840 0.000000 0.042278 0.000000
# 6 0.000000 0.000000 0.000000 0.229168 0.000000 0.365297
#
#
# Mechanical properties :
#
#
# Convention : Reuss Voigt Hill
#
# Bulk Modulus (GPa) = 40.52225 49.33066 44.92646
# Shear Modulus (GPa) = 6.00727 16.93796 11.47262
#
# Velocity S-wave (km/s) = 1.95196 3.27765 2.69751
# Velocity P-wave (km/s) = 5.54813 6.75369 6.18037
#
# Compressibility (1/GPa) = 0.02467780
#
# Stress axis : x y z
#
# Youngs Moduli (GPa) = 70.47064 33.85462 55.17532
#
# Poissons Ratio (x) = 0.02055 0.31436
# Poissons Ratio (y) = 0.04278 0.67770
# Poissons Ratio (z) = 0.40151 0.41583
#
# Static dielectric constant tensor:
#      x y z
#    x 3.278740 0.000000 -0.255620 
#    y 0.000000 2.859220 0.000000 
#    z -0.255620 0.000000 2.891610 
# 
# 
# High freq. dielectric constant tensor:
#      x y z
#    x 1.601980 0.000000 -0.014270 
#    y 0.000000 1.585320 0.000000 
#    z -0.014270 0.000000 1.581780 
# 
# From -- ./inp_files/78536.got.cif
#   From: 2010.06.25/outbox.cif.g09.slc.cpg/sg10_40_cif.got.tgz:78536.got - 2010.06.27 22:07:45.
