data_PCOD8058769
_publ_section_title
;
Structure prediction by ZEFSAII (Michael W. Deem and Ramdas Pophale) SiO2 
 PCOD8058769
Probable space group: P 2/M
;
_chemical_formula_sum "Si O2"
_cell_formula_units_Z 32
_cell_length_a 14.652462
_cell_length_b 9.249843
_cell_length_c 14.146010
_cell_angle_alpha 90.000000
_cell_angle_beta 59.799419
_cell_angle_gamma 90.000000
_cell_volume 1657.021769
_symmetry_space_group_name_H-M "P 2/M"
_symmetry_group_IT_number 10
_symmetry_cell_setting 'monoclinic'
loop_
_space_group_symop_operation_xyz
x,y,z
-x,y,-z
-x,-y,-z
x,-y,z
loop_
_atom_site_type_symbol
_atom_site_label
_atom_site_fract_x
_atom_site_fract_y
_atom_site_fract_z
Si Si1 0.183745 0.827591 0.640812
Si Si2 0.005300 0.829361 0.392039
Si Si3 0.911836 0.663625 0.975504
Si Si4 0.404570 0.172067 0.987028
Si Si5 0.829177 0.829873 0.845354
Si Si6 0.429011 0.166362 0.761960
Si Si7 0.414607 0.166291 0.472801
Si Si8 0.755930 0.663764 0.218176
O O1 0.296807 0.769479 0.542439
O O2 0.166402 0.748305 0.750318
O O3 0.093386 0.770858 0.617168
O O4 0.177513 0.000000 0.657245
O O5 0.116863 0.789377 0.283196
O O6 0.000000 0.760274 0.500000
O O7 0.994486 0.000000 0.406048
O O8 0.942654 0.500000 0.929526
O O9 0.801871 0.666702 0.088675
O O10 0.901740 0.760334 0.888197
O O11 0.000000 0.727699 0.000000
O O12 0.424330 0.229021 0.870392
O O13 0.408068 0.000000 0.987761
O O14 0.500000 0.236399 0.000000
O O15 0.291758 0.227429 0.086753
O O16 0.831796 0.000000 0.861927
O O17 0.546301 0.182761 0.656552
O O18 0.354761 0.253508 0.728953
O O19 0.391663 0.000000 0.781125
O O20 0.500000 0.239083 0.500000
O O21 0.404795 0.000000 0.507548
O O22 0.739462 0.500000 0.262028
#
# Coordination Sequence:
#
# PCOD8058769 Si02
#       8
#     4   4   4   4   4   4   4   4
#     4  10  19  33  53  75 103 140 177 212 254 310
#     4   9  19  34  53  80 109 135 169 217 264 301
#     4  10  21  35  51  74 106 141 174 212 263 318
#     4   9  18  31  50  78 106 132 169 217 260 301
#     4  10  19  33  55  80 105 136 175 216 259 310
#     4  10  18  32  52  72 101 137 172 211 256 308
#     4   9  16  27  47  73  99 132 174 208 245 304
#     4  11  21  32  50  76 106 135 169 215 266 311
#
# _framework density 19.311757
#
# number of rings (size 3 to 8) (size 9 to 14) (size 15 to 20)
#    0.000    2.250    2.500    1.125    0.000    1.750 
#    0.000    6.250    0.000    3.000    0.000    0.000 
#    0.000    0.000    0.000    0.000    0.000    0.000 
#
# Total GULP energy -396660.303111 kJ/mol
# GULP energy per Si atom -12395.634472 kJ/mol
# Density = 1.926780 g / cm^3
# Si number density = 19.311757 Si / 1000 Ang^3
#
#
#
# Elastic Constant Matrix: (Units=GPa)
#
#
# Indices 1 2 3 4 5 6 
#
# 1 116.4347 19.8467 50.1128 0.0000 8.6195 0.0000
# 2 19.8467 39.8425 20.2097 0.0000 7.6963 0.0000
# 3 50.1128 20.2097 123.2130 0.0000 8.0163 0.0000
# 4 0.0000 0.0000 0.0000 10.0462 0.0000 -0.2991
# 5 8.6195 7.6963 8.0163 0.0000 33.3157 0.0000
# 6 0.0000 0.0000 0.0000 -0.2991 0.0000 9.6033
#
#
#
# Elastic Compliance Matrix: (Units=1/GPa)
#
#
# Indices 1 2 3 4 5 6 
#
# 1 0.010869 -0.003260 -0.003812 0.000000 -0.001142 0.000000
# 2 -0.003260 0.029318 -0.003146 0.000000 -0.005172 0.000000
# 3 -0.003812 -0.003146 0.010231 0.000000 -0.000749 0.000000
# 4 0.000000 0.000000 0.000000 0.099633 0.000000 0.003103
# 5 -0.001142 -0.005172 -0.000749 0.000000 0.031686 0.000000
# 6 0.000000 0.000000 0.000000 0.003103 0.000000 0.104228
#
#
# Mechanical properties :
#
#
# Convention : Reuss Voigt Hill
#
# Bulk Modulus (GPa) = 33.35362 51.09207 42.22284
# Shear Modulus (GPa) = 15.80302 23.21443 19.50873
#
# Velocity S-wave (km/s) = 2.86372 3.47088 3.18181
# Velocity P-wave (km/s) = 5.31443 6.52507 5.95062
#
# Compressibility (1/GPa) = 0.02998176
#
# Stress axis : x y z
#
# Youngs Moduli (GPa) = 92.00245 34.10884 97.74145
#
# Poissons Ratio (x) = 0.11121 0.37256
# Poissons Ratio (y) = 0.29996 0.30752
# Poissons Ratio (z) = 0.35068 0.10732
#
# Static dielectric constant tensor:
#      x y z
#    x 3.619670 0.000000 -0.076880 
#    y 0.000000 3.047140 0.000000 
#    z -0.076880 0.000000 3.722080 
# 
# 
# High freq. dielectric constant tensor:
#      x y z
#    x 1.745620 0.000000 -0.009700 
#    y 0.000000 1.696070 0.000000 
#    z -0.009700 0.000000 1.764590 
# 
# From -- ./inp_files/66506.got.cif
#   From: 2010.06.25/outbox.cif.g09.slc.cpg/sg10_34_cif.got.tgz:66506.got - 2010.06.27 22:07:45.
