data_PCOD8058878
_publ_section_title
;
Structure prediction by ZEFSAII (Michael W. Deem and Ramdas Pophale) SiO2 
 PCOD8058878
Probable space group: P 2/M
;
_chemical_formula_sum "Si O2"
_cell_formula_units_Z 32
_cell_length_a 25.529557
_cell_length_b 8.958917
_cell_length_c 20.833926
_cell_angle_alpha 90.000000
_cell_angle_beta 21.971915
_cell_angle_gamma 90.000000
_cell_volume 1782.863345
_symmetry_space_group_name_H-M "P 2/M"
_symmetry_group_IT_number 10
_symmetry_cell_setting 'monoclinic'
loop_
_space_group_symop_operation_xyz
x,y,z
-x,y,-z
-x,-y,-z
x,-y,z
loop_
_atom_site_type_symbol
_atom_site_label
_atom_site_fract_x
_atom_site_fract_y
_atom_site_fract_z
Si Si1 0.147426 0.671505 0.657781
Si Si2 0.866886 0.175797 0.829938
Si Si3 0.421167 0.824443 0.898551
Si Si4 0.425062 0.176756 0.150336
Si Si5 0.572926 0.175266 0.350786
Si Si6 0.832657 0.674196 0.003153
Si Si7 0.152409 0.323636 0.504764
Si Si8 0.402770 0.823608 0.420589
O O1 0.188123 0.500000 0.619329
O O2 0.173862 0.723629 0.554429
O O3 0.244082 0.764787 0.596233
O O4 0.985819 0.700479 0.859873
O O5 0.005467 0.257324 0.646987
O O6 0.894398 0.000000 0.803541
O O7 0.742913 0.214792 0.920798
O O8 0.816967 0.233726 0.955646
O O9 0.480669 0.761811 0.897953
O O10 0.507809 0.755849 0.740320
O O11 0.442660 0.000000 0.872022
O O12 0.274327 0.254474 0.323138
O O13 0.403317 0.000000 0.178359
O O14 0.500000 0.226061 0.000000
O O15 0.500000 0.217472 0.500000
O O16 0.718417 0.265307 0.182898
O O17 0.471888 0.230280 0.408351
O O18 0.605555 0.000000 0.308610
O O19 0.810602 0.500000 0.012859
O O20 0.147493 0.500000 0.502054
O O21 0.398197 0.000000 0.423589
#
# Coordination Sequence:
#
# PCOD8058878 Si02
#       8
#     4   4   4   4   4   4   4   4
#     4   9  19  33  50  77 106 134 169 214 258 304
#     4  10  18  32  55  79 105 136 173 219 265 302
#     4   9  17  31  52  80 105 128 173 221 256 303
#     4  10  20  35  55  78 105 139 176 215 262 314
#     4  10  21  37  55  77 106 139 175 214 259 311
#     4  10  20  34  52  78 110 138 173 214 260 313
#     4  10  20  34  51  77 110 139 174 215 260 312
#     4  10  18  32  54  79 103 131 173 219 256 301
#
# _framework density 17.948656
#
# number of rings (size 3 to 8) (size 9 to 14) (size 15 to 20)
#    0.000    2.250    2.500    1.875    0.000    3.500 
#    0.000    2.500    0.000    7.500    0.000    0.000 
#    0.000    0.000    0.000    0.000    0.000    0.000 
#
# Total GULP energy -396834.224052 kJ/mol
# GULP energy per Si atom -12401.069502 kJ/mol
# Density = 1.790780 g / cm^3
# Si number density = 17.948656 Si / 1000 Ang^3
#
#
#
# Elastic Constant Matrix: (Units=GPa)
#
#
# Indices 1 2 3 4 5 6 
#
# 1 110.0902 28.4627 69.9057 0.0000 -2.1754 0.0000
# 2 28.4627 49.0056 47.6512 0.0000 -2.0017 0.0000
# 3 69.9057 47.6512 149.9363 0.0000 -6.0130 0.0000
# 4 0.0000 0.0000 0.0000 27.6415 0.0000 -1.8686
# 5 -2.1754 -2.0017 -6.0130 0.0000 26.1501 0.0000
# 6 0.0000 0.0000 0.0000 -1.8686 0.0000 12.8537
#
#
#
# Elastic Compliance Matrix: (Units=1/GPa)
#
#
# Indices 1 2 3 4 5 6 
#
# 1 0.013101 -0.002417 -0.005353 0.000000 -0.000326 0.000000
# 2 -0.002417 0.029978 -0.008394 0.000000 0.000164 0.000000
# 3 -0.005353 -0.008394 0.011899 0.000000 0.001648 0.000000
# 4 0.000000 0.000000 0.000000 0.036537 0.000000 0.005311
# 5 -0.000326 0.000164 0.001648 0.000000 0.038605 0.000000
# 6 0.000000 0.000000 0.000000 0.005311 0.000000 0.078571
#
#
# Mechanical properties :
#
#
# Convention : Reuss Voigt Hill
#
# Bulk Modulus (GPa) = 44.15002 66.78570 55.46786
# Shear Modulus (GPa) = 20.11511 24.19655 22.15583
#
# Velocity S-wave (km/s) = 3.35132 3.67563 3.51722
# Velocity P-wave (km/s) = 6.29496 7.43665 6.88949
#
# Compressibility (1/GPa) = 0.02265004
#
# Stress axis : x y z
#
# Youngs Moduli (GPa) = 76.32942 33.35742 84.04089
#
# Poissons Ratio (x) = 0.08064 0.44987
# Poissons Ratio (y) = 0.18452 0.70542
# Poissons Ratio (z) = 0.40859 0.27999
#
# Static dielectric constant tensor:
#      x y z
#    x 3.296010 0.000000 -0.142220 
#    y 0.000000 3.144210 0.000000 
#    z -0.142220 0.000000 3.341470 
# 
# 
# High freq. dielectric constant tensor:
#      x y z
#    x 1.677450 0.000000 -0.019830 
#    y 0.000000 1.684450 0.000000 
#    z -0.019830 0.000000 1.697480 
# 
# From -- ./inp_files/86728.got.cif
#   From: 2010.06.25/outbox.cif.g09.slc.cpg/sg10_44_cif.got.tgz:86728.got - 2010.06.27 22:07:45.
