data_PCOD8058391
_publ_section_title
;
Structure prediction by ZEFSAII (Michael W. Deem and Ramdas Pophale) SiO2 
 PCOD8058391
Probable space group: P 2/M
;
_chemical_formula_sum "Si O2"
_cell_formula_units_Z 32
_cell_length_a 14.293895
_cell_length_b 8.804643
_cell_length_c 14.317479
_cell_angle_alpha 90.000000
_cell_angle_beta 118.579967
_cell_angle_gamma 90.000000
_cell_volume 1582.332485
_symmetry_space_group_name_H-M "P 2/M"
_symmetry_group_IT_number 10
_symmetry_cell_setting 'monoclinic'
loop_
_space_group_symop_operation_xyz
x,y,z
-x,y,-z
-x,-y,-z
x,-y,z
loop_
_atom_site_type_symbol
_atom_site_label
_atom_site_fract_x
_atom_site_fract_y
_atom_site_fract_z
Si Si1 0.115971 0.325779 0.080837
Si Si2 0.186819 0.680055 0.820555
Si Si3 0.034495 0.672565 0.237054
Si Si4 0.785777 0.677825 0.552617
Si Si5 0.390405 0.820425 0.404722
Si Si6 0.114507 0.678092 0.585959
Si Si7 0.335389 0.820308 0.170169
Si Si8 0.599088 0.319724 0.983556
O O1 0.125512 0.500000 0.049079
O O2 0.118132 0.312335 0.193215
O O3 0.214376 0.230940 0.088287
O O4 0.000000 0.257990 0.000000
O O5 0.203160 0.500000 0.826751
O O6 0.160960 0.745212 0.704776
O O7 0.294984 0.747749 0.915643
O O8 0.085119 0.739293 0.834778
O O9 0.007498 0.500000 0.247308
O O10 0.098428 0.737073 0.355936
O O11 0.768141 0.500000 0.566968
O O12 0.696484 0.773041 0.561361
O O13 0.791757 0.710173 0.445068
O O14 0.500000 0.756248 0.500000
O O15 0.370340 0.757113 0.289511
O O16 0.391799 0.000000 0.398795
O O17 0.096210 0.500000 0.590283
O O18 0.000000 0.749377 0.500000
O O19 0.342389 0.000000 0.170467
O O20 0.410891 0.751354 0.125384
O O21 0.601487 0.500000 0.972662
O O22 0.500000 0.268066 0.000000
#
# Coordination Sequence:
#
# PCOD8058391 Si02
#       8
#     4   4   4   4   4   4   4   4
#     4  10  19  32  54  83 115 151 186 224 277 339
#     4   9  16  29  50  79 114 148 181 220 274 334
#     4   9  15  25  46  77 111 141 173 217 270 325
#     4  10  18  30  53  84 111 139 180 231 277 318
#     4  10  23  42  59  77 108 152 191 224 277 342
#     4   9  15  25  46  79 114 142 173 220 274 326
#     4  11  23  39  60  83 109 145 189 237 283 331
#     4  10  22  39  59  82 111 148 189 232 278 333
#
# _framework density 20.223310000000001
#
# number of rings (size 3 to 8) (size 9 to 14) (size 15 to 20)
#    0.000    2.250    2.500    1.125    0.000    4.250 
#    0.000    1.250    0.000    1.125    0.000    0.000 
#    0.000    0.000    0.000    0.000    0.000    0.000 
#
# Total GULP energy -396448.883022 kJ/mol
# GULP energy per Si atom -12389.027594 kJ/mol
# Density = 2.017728 g / cm^3
# Si number density = 20.223310 Si / 1000 Ang^3
#
#
#
# Elastic Constant Matrix: (Units=GPa)
#
#
# Indices 1 2 3 4 5 6 
#
# 1 139.1728 20.1622 47.7346 0.0000 -6.0102 0.0000
# 2 20.1622 20.7652 15.2545 0.0000 -0.5995 0.0000
# 3 47.7346 15.2545 89.0104 0.0000 3.0165 0.0000
# 4 0.0000 0.0000 0.0000 16.5840 0.0000 -0.2141
# 5 -6.0102 -0.5995 3.0165 0.0000 19.5243 0.0000
# 6 0.0000 0.0000 0.0000 -0.2141 0.0000 10.6861
#
#
#
# Elastic Compliance Matrix: (Units=1/GPa)
#
#
# Indices 1 2 3 4 5 6 
#
# 1 0.009689 -0.006183 -0.004253 0.000000 0.003450 0.000000
# 2 -0.006183 0.059236 -0.006869 0.000000 0.000977 0.000000
# 3 -0.004253 -0.006869 0.014822 0.000000 -0.003810 0.000000
# 4 0.000000 0.000000 0.000000 0.060315 0.000000 0.001209
# 5 0.003450 0.000977 -0.003810 0.000000 0.052899 0.000000
# 6 0.000000 0.000000 0.000000 0.001209 0.000000 0.093604
#
#
# Mechanical properties :
#
#
# Convention : Reuss Voigt Hill
#
# Bulk Modulus (GPa) = 20.35188 46.13900 33.24544
# Shear Modulus (GPa) = 14.63902 20.41201 17.52551
#
# Velocity S-wave (km/s) = 2.69340 3.18044 2.94700
# Velocity P-wave (km/s) = 4.44499 6.02920 5.29666
#
# Compressibility (1/GPa) = 0.04913550
#
# Stress axis : x y z
#
# Youngs Moduli (GPa) = 103.21100 16.88175 67.46810
#
# Poissons Ratio (x) = 0.10439 0.28695
# Poissons Ratio (y) = 0.63820 0.46342
# Poissons Ratio (z) = 0.43897 0.11596
#
# Static dielectric constant tensor:
#      x y z
#    x 3.836840 0.000000 -0.000350 
#    y 0.000000 3.031790 0.000000 
#    z -0.000350 0.000000 4.052800 
# 
# 
# High freq. dielectric constant tensor:
#      x y z
#    x 1.798170 0.000000 -0.010470 
#    y 0.000000 1.720620 0.000000 
#    z -0.010470 0.000000 1.803060 
# 
# From -- ./inp_files/66594.got.cif
#   From: 2010.06.25/outbox.cif.g09.slc.cpg/sg10_34_cif.got.tgz:66594.got - 2010.06.27 22:07:45.
