data_PCOD8058624
_publ_section_title
;
Structure prediction by ZEFSAII (Michael W. Deem and Ramdas Pophale) SiO2 
 PCOD8058624
Probable space group: P 2/M
;
_chemical_formula_sum "Si O2"
_cell_formula_units_Z 32
_cell_length_a 11.908684
_cell_length_b 8.821569
_cell_length_c 23.783580
_cell_angle_alpha 90.000000
_cell_angle_beta 135.249259
_cell_angle_gamma 90.000000
_cell_volume 1759.034033
_symmetry_space_group_name_H-M "P 2/M"
_symmetry_group_IT_number 10
_symmetry_cell_setting 'monoclinic'
loop_
_space_group_symop_operation_xyz
x,y,z
-x,y,-z
-x,-y,-z
x,-y,z
loop_
_atom_site_type_symbol
_atom_site_label
_atom_site_fract_x
_atom_site_fract_y
_atom_site_fract_z
Si Si1 0.400771 0.178300 0.720246
Si Si2 0.646118 0.166460 0.009873
Si Si3 0.444969 0.677659 0.851309
Si Si4 0.839241 0.819608 0.181157
Si Si5 0.934385 0.325299 0.414898
Si Si6 0.223148 0.824126 0.462248
Si Si7 0.484479 0.179991 0.359355
Si Si8 0.192022 0.175384 0.323912
O O1 0.478341 0.263681 0.800462
O O2 0.496168 0.230692 0.698333
O O3 0.216980 0.220100 0.648144
O O4 0.415494 0.000000 0.735019
O O5 0.601120 0.280136 0.943685
O O6 0.683561 0.000000 0.997523
O O7 0.500000 0.152161 0.000000
O O8 0.793768 0.225480 0.100508
O O9 0.423309 0.500000 0.843404
O O10 0.282224 0.749036 0.817089
O O11 0.015716 0.751936 0.255120
O O12 0.828632 0.000000 0.185756
O O13 0.887971 0.500000 0.388179
O O14 0.066983 0.274908 0.417788
O O15 0.000000 0.296108 0.500000
O O16 0.367706 0.758518 0.551042
O O17 0.265235 0.802399 0.411840
O O18 0.187905 0.000000 0.463879
O O19 0.318714 0.247661 0.324988
O O20 0.483903 0.000000 0.365405
O O21 0.170651 0.000000 0.301739
#
# Coordination Sequence:
#
# PCOD8058624 Si02
#       8
#     4   4   4   4   4   4   4   4
#     4  11  21  34  52  72 100 134 172 209 247 297
#     4   8  15  29  49  74 104 133 163 199 247 302
#     4  11  21  32  50  77 106 132 165 204 250 303
#     4   9  17  31  52  78 106 135 164 201 251 303
#     4  11  22  34  49  71 102 134 165 206 251 294
#     4  10  18  31  53  77 100 130 169 209 251 299
#     4   9  18  31  49  74  99 129 170 213 250 291
#     4   9  17  30  51  77 101 125 163 214 256 290
#
# _framework density 18.191803
#
# number of rings (size 3 to 8) (size 9 to 14) (size 15 to 20)
#    0.000    2.250    1.250    3.750    0.000    5.250 
#    0.000    0.000    0.000    6.000    0.000    5.250 
#    0.000    0.000    0.000    0.000    0.000    0.000 
#
# Total GULP energy -396731.878395 kJ/mol
# GULP energy per Si atom -12397.871200 kJ/mol
# Density = 1.815040 g / cm^3
# Si number density = 18.191803 Si / 1000 Ang^3
#
#
#
# Elastic Constant Matrix: (Units=GPa)
#
#
# Indices 1 2 3 4 5 6 
#
# 1 101.4494 25.7890 46.5422 0.0000 -12.9962 0.0000
# 2 25.7890 51.1300 36.3775 0.0000 -8.5806 0.0000
# 3 46.5422 36.3775 113.6585 0.0000 -15.3471 0.0000
# 4 0.0000 0.0000 0.0000 14.3659 0.0000 -3.1976
# 5 -12.9962 -8.5806 -15.3471 0.0000 21.0696 0.0000
# 6 0.0000 0.0000 0.0000 -3.1976 0.0000 4.0156
#
#
#
# Elastic Compliance Matrix: (Units=1/GPa)
#
#
# Indices 1 2 3 4 5 6 
#
# 1 0.012879 -0.003187 -0.003723 0.000000 0.003935 0.000000
# 2 -0.003187 0.026576 -0.006660 0.000000 0.004006 0.000000
# 3 -0.003723 -0.006660 0.013063 0.000000 0.004506 0.000000
# 4 0.000000 0.000000 0.000000 0.084605 0.000000 0.067371
# 5 0.003935 0.004006 0.004506 0.000000 0.054803 0.000000
# 6 0.000000 0.000000 0.000000 0.067371 0.000000 0.302679
#
#
# Mechanical properties :
#
#
# Convention : Reuss Voigt Hill
#
# Bulk Modulus (GPa) = 39.40301 53.73949 46.57125
# Shear Modulus (GPa) = 9.43034 18.39215 13.91125
#
# Velocity S-wave (km/s) = 2.27928 3.18309 2.76832
# Velocity P-wave (km/s) = 5.35103 6.56613 5.98948
#
# Compressibility (1/GPa) = 0.02537877
#
# Stress axis : x y z
#
# Youngs Moduli (GPa) = 77.64467 37.62769 76.55388
#
# Poissons Ratio (x) = 0.11993 0.28497
# Poissons Ratio (y) = 0.24747 0.50984
# Poissons Ratio (z) = 0.28903 0.25060
#
# Static dielectric constant tensor:
#      x y z
#    x 3.350250 0.000000 0.007800 
#    y 0.000000 3.086290 0.000000 
#    z 0.007800 0.000000 3.799170 
# 
# 
# High freq. dielectric constant tensor:
#      x y z
#    x 1.682430 0.000000 -0.007450 
#    y 0.000000 1.675620 0.000000 
#    z -0.007450 0.000000 1.713670 
# 
# From -- ./inp_files/83607.got.cif
#   From: 2010.06.25/outbox.cif.g09.slc.cpg/sg10_42_cif.got.tgz:83607.got - 2010.06.27 22:07:45.
