data_PCOD8058600
_publ_section_title
;
Structure prediction by ZEFSAII (Michael W. Deem and Ramdas Pophale) SiO2 
 PCOD8058600
Probable space group: P 2/M
;
_chemical_formula_sum "Si O2"
_cell_formula_units_Z 24
_cell_length_a 22.276970
_cell_length_b 12.363275
_cell_length_c 16.260596
_cell_angle_alpha 90.000000
_cell_angle_beta 15.872491
_cell_angle_gamma 90.000000
_cell_volume 1224.840010
_symmetry_space_group_name_H-M "P 2/M"
_symmetry_group_IT_number 10
_symmetry_cell_setting 'monoclinic'
loop_
_space_group_symop_operation_xyz
x,y,z
-x,y,-z
-x,-y,-z
x,-y,z
loop_
_atom_site_type_symbol
_atom_site_label
_atom_site_fract_x
_atom_site_fract_y
_atom_site_fract_z
Si Si1 0.730490 0.776624 0.696961
Si Si2 0.621067 0.381563 0.561171
Si Si3 0.383197 0.742261 0.736194
Si Si4 0.756507 0.681732 0.828884
Si Si5 0.828467 0.877442 0.851870
Si Si6 0.934316 0.628064 0.291244
O O1 0.681600 0.692084 0.834577
O O2 0.791495 0.702738 0.539191
O O3 0.911718 0.866088 0.477458
O O4 0.500000 0.841093 0.000000
O O5 0.668146 0.500000 0.463570
O O6 0.568720 0.308650 0.551281
O O7 0.837163 0.343622 0.328077
O O8 0.409558 0.391405 0.900411
O O9 0.500000 0.783723 0.500000
O O10 0.286420 0.845688 0.910758
O O11 0.191144 0.657461 0.964344
O O12 0.757644 0.799769 0.871247
O O13 0.000000 0.630374 0.500000
O O14 0.767672 0.000000 0.909044
O O15 0.904719 0.500000 0.348620
#
# Coordination Sequence:
#
# PCOD8058600 Si02
#       6
#     4   4   4   4   4   4
#     4  10  18  31  52  78 112 143 174 212 254 309
#     4  10  20  34  53  79 111 146 180 215 261 314
#     4  10  22  39  58  78 104 137 178 233 281 320
#     4   9  18  31  50  75 109 145 176 214 255 306
#     4   9  20  37  55  77 102 134 180 226 273 326
#     4  10  21  35  54  82 114 146 182 218 254 312
#
# _framework density 19.594394999999999
#
# number of rings (size 3 to 8) (size 9 to 14) (size 15 to 20)
#    0.000    2.333    1.667    1.500    0.000    7.000 
#    0.000    1.667    0.000    0.000    0.000    4.667 
#    0.000    0.000    0.000    0.000    0.000    0.000 
#
# Total GULP energy -297313.455885 kJ/mol
# GULP energy per Si atom -12388.060662 kJ/mol
# Density = 1.954980 g / cm^3
# Si number density = 19.594395 Si / 1000 Ang^3
#
#
#
# Elastic Constant Matrix: (Units=GPa)
#
#
# Indices 1 2 3 4 5 6 
#
# 1 97.6725 11.4526 20.3758 0.0000 -5.7376 0.0000
# 2 11.4526 68.0515 5.7701 0.0000 -8.5646 0.0000
# 3 20.3758 5.7701 53.7234 0.0000 1.7653 0.0000
# 4 0.0000 0.0000 0.0000 -32.2692 0.0000 9.4906
# 5 -5.7376 -8.5646 1.7653 0.0000 38.2324 0.0000
# 6 0.0000 0.0000 0.0000 9.4906 0.0000 14.8865
#
#
#
# Elastic Compliance Matrix: (Units=1/GPa)
#
#
# Indices 1 2 3 4 5 6 
#
# 1 0.011371 -0.001355 -0.004220 0.000000 0.001598 0.000000
# 2 -0.001355 0.015446 -0.001254 0.000000 0.003315 0.000000
# 3 -0.004220 -0.001254 0.020410 0.000000 -0.001857 0.000000
# 4 0.000000 0.000000 0.000000 -0.026096 0.000000 0.016637
# 5 0.001598 0.003315 -0.001857 0.000000 0.027224 0.000000
# 6 0.000000 0.000000 0.000000 0.016637 0.000000 0.056568
#
#
# Mechanical properties :
#
#
# Convention : Reuss Voigt Hill
#
# Bulk Modulus (GPa) = 29.78831 32.73827 31.26329
# Shear Modulus (GPa) = 38.52939 16.29321 27.41130
#
# Velocity S-wave (km/s) = 4.43916 2.88674 3.74429
# Velocity P-wave (km/s) = 6.44285 5.27781 5.88921
#
# Compressibility (1/GPa) = 0.03357022
#
# Stress axis : x y z
#
# Youngs Moduli (GPa) = 87.94044 64.74057 48.99555
#
# Poissons Ratio (x) = 0.08771 0.20675
# Poissons Ratio (y) = 0.11914 0.06144
# Poissons Ratio (z) = 0.37109 0.08119
#
# Static dielectric constant tensor:
#      x y z
#    x 3.871870 0.000000 -0.281400 
#    y 0.000000 3.056190 0.000000 
#    z -0.281400 0.000000 3.849590 
# 
# 
# High freq. dielectric constant tensor:
#      x y z
#    x 1.776660 0.000000 -0.006620 
#    y 0.000000 1.720910 0.000000 
#    z -0.006620 0.000000 1.764790 
# 
# From -- ./inp_files/34491.got.cif
#   From: 2010.06.25/outbox.cif.g09.slc.cpg/sg10_18_cif.got.tgz:34491.got - 2010.06.27 22:07:45.
