data_PCOD8058919
_publ_section_title
;
Structure prediction by ZEFSAII (Michael W. Deem and Ramdas Pophale) SiO2 
 PCOD8058919
Probable space group: P 2/M
;
_chemical_formula_sum "Si O2"
_cell_formula_units_Z 32
_cell_length_a 26.390381
_cell_length_b 9.024249
_cell_length_c 15.513392
_cell_angle_alpha 90.000000
_cell_angle_beta 26.940446
_cell_angle_gamma 90.000000
_cell_volume 1673.875593
_symmetry_space_group_name_H-M "P 2/M"
_symmetry_group_IT_number 10
_symmetry_cell_setting 'monoclinic'
loop_
_space_group_symop_operation_xyz
x,y,z
-x,y,-z
-x,-y,-z
x,-y,z
loop_
_atom_site_type_symbol
_atom_site_label
_atom_site_fract_x
_atom_site_fract_y
_atom_site_fract_z
Si Si1 0.274037 0.323917 0.936881
Si Si2 0.874196 0.676640 0.682720
Si Si3 0.743022 0.324469 0.229080
Si Si4 0.273678 0.175500 0.433403
Si Si5 0.872062 0.825833 0.182482
Si Si6 0.256700 0.673340 0.286976
Si Si7 0.494026 0.675640 0.348300
Si Si8 0.495570 0.326988 0.149854
O O1 0.277882 0.500000 0.938596
O O2 0.229181 0.276606 0.911031
O O3 0.399504 0.261175 0.761007
O O4 0.193043 0.258898 0.133307
O O5 0.871335 0.500000 0.688550
O O6 0.817007 0.733080 0.681284
O O7 0.000000 0.737418 0.500000
O O8 0.748117 0.500000 0.233761
O O9 0.833084 0.251537 0.154350
O O10 0.619730 0.262055 0.438215
O O11 0.200807 0.230206 0.625649
O O12 0.217493 0.240474 0.431986
O O13 0.399544 0.235718 0.247959
O O14 0.275115 0.000000 0.425270
O O15 0.858582 0.000000 0.191210
O O16 0.000000 0.778753 0.000000
O O17 0.235514 0.500000 0.333026
O O18 0.386933 0.706551 0.073222
O O19 0.494272 0.500000 0.353196
O O20 0.503220 0.728376 0.236135
O O21 0.464813 0.500000 0.190516
#
# Coordination Sequence:
#
# PCOD8058919 Si02
#       8
#     4   4   4   4   4   4   4   4
#     4   9  16  28  48  78 109 135 167 207 257 312
#     4   9  17  30  48  73 107 141 171 208 255 305
#     4  10  19  31  55  85 106 129 169 222 264 300
#     4  11  23  37  55  78 104 137 176 222 268 309
#     4  10  23  42  57  70  99 144 183 215 263 322
#     4  10  20  34  55  81 109 143 176 210 258 315
#     4   9  15  27  49  77 108 136 163 203 257 313
#     4  10  18  32  55  80 108 141 174 209 257 319
#
# _framework density 19.117311000000001
#
# number of rings (size 3 to 8) (size 9 to 14) (size 15 to 20)
#    0.000    2.250    2.500    1.125    0.000    5.250 
#    0.000    1.250    0.000    3.375    0.000    0.000 
#    0.000    0.000    0.000    0.000    0.000    0.000 
#
# Total GULP energy -396797.614977 kJ/mol
# GULP energy per Si atom -12399.925468 kJ/mol
# Density = 1.907380 g / cm^3
# Si number density = 19.117311 Si / 1000 Ang^3
#
#
#
# Elastic Constant Matrix: (Units=GPa)
#
#
# Indices 1 2 3 4 5 6 
#
# 1 179.4841 37.9636 76.0929 0.0000 3.1382 0.0000
# 2 37.9636 25.1835 23.5809 0.0000 -2.1359 0.0000
# 3 76.0929 23.5809 93.5974 0.0000 -14.3108 0.0000
# 4 0.0000 0.0000 0.0000 16.6367 0.0000 4.4639
# 5 3.1382 -2.1359 -14.3108 0.0000 30.1916 0.0000
# 6 0.0000 0.0000 0.0000 4.4639 0.0000 1.0532
#
#
#
# Elastic Compliance Matrix: (Units=1/GPa)
#
#
# Indices 1 2 3 4 5 6 
#
# 1 0.010765 -0.010121 -0.006989 0.000000 -0.005148 0.000000
# 2 -0.010121 0.061692 -0.006994 0.000000 0.002101 0.000000
# 3 -0.006989 -0.006994 0.019583 0.000000 0.009514 0.000000
# 4 0.000000 0.000000 0.000000 -0.437938 0.000000 1.856202
# 5 -0.005148 0.002101 0.009514 0.000000 0.038315 0.000000
# 6 0.000000 0.000000 0.000000 1.856202 0.000000 -6.918007
#
#
# Mechanical properties :
#
#
# Convention : Reuss Voigt Hill
#
# Bulk Modulus (GPa) = 22.81373 63.72666 43.27020
# Shear Modulus (GPa) = -0.69805 20.28480 9.79337
#
# Velocity S-wave (km/s) = -0.60493 3.26094 2.26581
# Velocity P-wave (km/s) = 3.38697 6.89820 5.43400
#
# Compressibility (1/GPa) = 0.04383324
#
# Stress axis : x y z
#
# Youngs Moduli (GPa) = 92.89063 16.20957 51.06500
#
# Poissons Ratio (x) = 0.16405 0.35691
# Poissons Ratio (y) = 0.94011 0.35713
# Poissons Ratio (z) = 0.64924 0.11336
#
# Static dielectric constant tensor:
#      x y z
#    x 3.691720 0.000000 0.080230 
#    y 0.000000 2.961970 0.000000 
#    z 0.080230 0.000000 3.647460 
# 
# 
# High freq. dielectric constant tensor:
#      x y z
#    x 1.761190 0.000000 0.005980 
#    y 0.000000 1.687150 0.000000 
#    z 0.005980 0.000000 1.746160 
# 
# From -- ./inp_files/71438.got.cif
#   From: 2010.06.25/outbox.cif.g09.slc.cpg/sg10_36_cif.got.tgz:71438.got - 2010.06.27 22:07:45.
