data_PCOD8058457
_publ_section_title
;
Structure prediction by ZEFSAII (Michael W. Deem and Ramdas Pophale) SiO2 
 PCOD8058457
Probable space group: P 2/M
;
_chemical_formula_sum "Si O2"
_cell_formula_units_Z 28
_cell_length_a 11.789671
_cell_length_b 8.796618
_cell_length_c 19.445578
_cell_angle_alpha 90.000000
_cell_angle_beta 52.012482
_cell_angle_gamma 90.000000
_cell_volume 1589.440672
_symmetry_space_group_name_H-M "P 2/M"
_symmetry_group_IT_number 10
_symmetry_cell_setting 'monoclinic'
loop_
_space_group_symop_operation_xyz
x,y,z
-x,y,-z
-x,-y,-z
x,-y,z
loop_
_atom_site_type_symbol
_atom_site_label
_atom_site_fract_x
_atom_site_fract_y
_atom_site_fract_z
Si Si1 0.140191 0.334036 0.993307
Si Si2 0.301781 0.178467 0.818306
Si Si3 0.584902 0.835911 0.401287
Si Si4 0.891310 0.178347 0.339193
Si Si5 0.138257 0.823525 0.494741
Si Si6 0.943647 0.680298 0.184817
Si Si7 0.431757 0.323290 0.343733
O O1 0.213484 0.500000 0.974433
O O2 0.251494 0.223564 0.913743
O O3 0.000000 0.352158 0.000000
O O4 0.084286 0.271009 0.087635
O O5 0.201937 0.244929 0.793628
O O6 0.466367 0.237660 0.749405
O O7 0.295540 0.000000 0.815751
O O8 0.500000 0.875134 0.500000
O O9 0.737575 0.775342 0.367224
O O10 0.504462 0.704377 0.390253
O O11 0.595449 0.000000 0.356523
O O12 0.900540 0.240028 0.414208
O O13 0.987442 0.264718 0.245922
O O14 0.926198 0.000000 0.324717
O O15 0.269358 0.739798 0.407813
O O16 0.000000 0.796736 0.500000
O O17 0.181223 0.000000 0.485501
O O18 0.920270 0.500000 0.190935
O O19 0.425701 0.500000 0.327896
#
# Coordination Sequence:
#
# PCOD8058457 Si02
#       7
#     4   4   4   4   4   4   4
#     4   8  16  30  44  64 100 138 169 201 242 295
#     4  11  20  30  47  71 101 136 173 208 245 295
#     4  10  18  31  49  70 100 131 165 206 249 297
#     4  10  19  31  51  76 101 132 169 209 248 296
#     4  10  22  41  59  73  96 132 172 213 257 301
#     4  10  19  30  46  71 104 139 169 202 248 299
#     4  12  23  33  50  74 103 134 168 208 252 302
#
# _framework density 17.616261000000002
#
# number of rings (size 3 to 8) (size 9 to 14) (size 15 to 20)
#    0.000    1.857    2.857    3.857    0.000    4.286 
#    0.000    0.000    0.000    0.000    0.000    1.000 
#    0.000    8.000    0.000    0.000    0.000    0.000 
#
# Total GULP energy -346881.511990 kJ/mol
# GULP energy per Si atom -12388.625428 kJ/mol
# Density = 1.757617 g / cm^3
# Si number density = 17.616261 Si / 1000 Ang^3
#
#
#
# Elastic Constant Matrix: (Units=GPa)
#
#
# Indices 1 2 3 4 5 6 
#
# 1 50.7173 27.8941 39.0133 0.0000 -1.0786 0.0000
# 2 27.8941 98.7584 56.9361 0.0000 -4.1662 0.0000
# 3 39.0133 56.9361 152.7365 0.0000 4.8233 0.0000
# 4 0.0000 0.0000 0.0000 26.7723 0.0000 -0.7388
# 5 -1.0786 -4.1662 4.8233 0.0000 11.1434 0.0000
# 6 0.0000 0.0000 0.0000 -0.7388 0.0000 9.9698
#
#
#
# Elastic Compliance Matrix: (Units=1/GPa)
#
#
# Indices 1 2 3 4 5 6 
#
# 1 0.026112 -0.004252 -0.005185 0.000000 0.003182 0.000000
# 2 -0.004252 0.014152 -0.004404 0.000000 0.006785 0.000000
# 3 -0.005185 -0.004404 0.009714 0.000000 -0.006353 0.000000
# 4 0.000000 0.000000 0.000000 0.037429 0.000000 0.002774
# 5 0.003182 0.006785 -0.006353 0.000000 0.095334 0.000000
# 6 0.000000 0.000000 0.000000 0.002774 0.000000 0.100509
#
#
# Mechanical properties :
#
#
# Convention : Reuss Voigt Hill
#
# Bulk Modulus (GPa) = 44.85058 61.09990 52.97524
# Shear Modulus (GPa) = 15.70539 21.46833 18.58686
#
# Velocity S-wave (km/s) = 2.98909 3.49473 3.25175
# Velocity P-wave (km/s) = 6.11783 7.14446 6.65098
#
# Compressibility (1/GPa) = 0.02229625
#
# Stress axis : x y z
#
# Youngs Moduli (GPa) = 38.29679 70.66341 102.94538
#
# Poissons Ratio (x) = 0.30043 0.53381
# Poissons Ratio (y) = 0.16282 0.45334
# Poissons Ratio (z) = 0.19858 0.31118
#
# Static dielectric constant tensor:
#      x y z
#    x 2.830900 0.000000 0.135140 
#    y 0.000000 3.242070 0.000000 
#    z 0.135140 0.000000 3.833310 
# 
# 
# High freq. dielectric constant tensor:
#      x y z
#    x 1.614700 0.000000 0.006770 
#    y 0.000000 1.680320 0.000000 
#    z 0.006770 0.000000 1.705740 
# 
# From -- ./inp_files/83316.got.cif
#   From: 2010.06.25/outbox.cif.g09.slc.cpg/sg10_42_cif.got.tgz:83316.got - 2010.06.27 22:07:45.
