data_PCOD8058499
_publ_section_title
;
Structure prediction by ZEFSAII (Michael W. Deem and Ramdas Pophale) SiO2 
 PCOD8058499
Probable space group: P 2/M
;
_chemical_formula_sum "Si O2"
_cell_formula_units_Z 30
_cell_length_a 15.869864
_cell_length_b 20.539251
_cell_length_c 15.884346
_cell_angle_alpha 90.000000
_cell_angle_beta 161.827287
_cell_angle_gamma 90.000000
_cell_volume 1614.797610
_symmetry_space_group_name_H-M "P 2/M"
_symmetry_group_IT_number 10
_symmetry_cell_setting 'monoclinic'
loop_
_space_group_symop_operation_xyz
x,y,z
-x,y,-z
-x,-y,-z
x,-y,z
loop_
_atom_site_type_symbol
_atom_site_label
_atom_site_fract_x
_atom_site_fract_y
_atom_site_fract_z
Si Si1 0.522188 0.342954 0.242647
Si Si2 0.536511 0.792342 0.718385
Si Si3 0.716796 0.730527 0.274518
Si Si4 0.122511 0.924950 0.705712
Si Si5 0.964953 0.618967 0.778506
Si Si6 0.790584 0.500000 0.728394
Si Si7 0.072392 0.244410 0.165636
Si Si8 0.622252 0.138725 0.274982
O O1 0.496747 0.274319 0.263689
O O2 0.585276 0.328942 0.204007
O O3 0.778223 0.381311 0.519697
O O4 0.262805 0.387608 0.019858
O O5 0.355080 0.789312 0.460727
O O6 0.478900 0.852096 0.725877
O O7 0.846712 0.802466 0.990040
O O8 0.759247 0.794417 0.372174
O O9 0.000000 0.709754 0.500000
O O10 0.500000 0.750055 0.000000
O O11 0.862346 0.913581 0.517615
O O12 0.000000 0.899371 0.500000
O O13 0.209002 0.000000 0.783622
O O14 0.385799 0.885661 0.987170
O O15 0.853285 0.562237 0.731351
O O16 0.942229 0.683230 0.812530
O O17 0.500000 0.500000 0.500000
O O18 0.000000 0.500000 0.000000
O O19 0.000000 0.249757 0.000000
#
# Coordination Sequence:
#
# PCOD8058499 Si02
#       8
#     4   4   4   4   4   2   4   4
#     4   9  19  34  50  71 102 135 168 204 256 311
#     4   9  19  31  48  72  98 132 166 201 249 308
#     4  11  20  31  52  80 102 129 171 216 260 301
#     4  11  22  34  49  71 101 140 178 206 239 290
#     4  10  20  35  51  72 104 141 168 201 249 300
#     4  12  24  36  54  82 106 132 178 214 236 288
#     4  10  18  31  50  73 103 132 160 198 252 307
#     4  11  20  34  50  70 106 137 166 210 254 297
#
# _framework density 18.578178000000001
#
# number of rings (size 3 to 8) (size 9 to 14) (size 15 to 20)
#    0.000    1.733    0.000    6.000    0.000    7.467 
#    0.000    0.000    0.000    0.000    0.000    9.333 
#    0.000   37.333    0.000    0.000    0.000    0.000 
#
# Total GULP energy -371673.272599 kJ/mol
# GULP energy per Si atom -12389.109087 kJ/mol
# Density = 1.853589 g / cm^3
# Si number density = 18.578178 Si / 1000 Ang^3
#
#
#
# Elastic Constant Matrix: (Units=GPa)
#
#
# Indices 1 2 3 4 5 6 
#
# 1 81.9053 35.6362 28.2313 0.0000 9.2352 0.0000
# 2 35.6362 46.7924 21.8545 0.0000 6.3731 0.0000
# 3 28.2313 21.8545 96.1984 0.0000 9.4250 0.0000
# 4 0.0000 0.0000 0.0000 19.6304 0.0000 3.9139
# 5 9.2352 6.3731 9.4250 0.0000 36.6622 0.0000
# 6 0.0000 0.0000 0.0000 3.9139 0.0000 23.0789
#
#
#
# Elastic Compliance Matrix: (Units=1/GPa)
#
#
# Indices 1 2 3 4 5 6 
#
# 1 0.018920 -0.013028 -0.002408 0.000000 -0.001882 0.000000
# 2 -0.013028 0.033168 -0.003558 0.000000 -0.001569 0.000000
# 3 -0.002408 -0.003558 0.012095 0.000000 -0.001884 0.000000
# 4 0.000000 0.000000 0.000000 0.052724 0.000000 -0.008941
# 5 -0.001882 -0.001569 -0.001884 0.000000 0.028507 0.000000
# 6 0.000000 0.000000 0.000000 -0.008941 0.000000 0.044846
#
#
# Mechanical properties :
#
#
# Convention : Reuss Voigt Hill
#
# Bulk Modulus (GPa) = 38.17615 44.03780 41.10697
# Shear Modulus (GPa) = 21.09875 25.15256 23.12566
#
# Velocity S-wave (km/s) = 3.37363 3.68350 3.53196
# Velocity P-wave (km/s) = 5.98070 6.46888 6.22957
#
# Compressibility (1/GPa) = 0.02619437
#
# Stress axis : x y z
#
# Youngs Moduli (GPa) = 52.85449 30.14920 82.67944
#
# Poissons Ratio (x) = 0.39278 0.19912
# Poissons Ratio (y) = 0.68858 0.29419
# Poissons Ratio (z) = 0.12729 0.10728
#
# Static dielectric constant tensor:
#      x y z
#    x 3.649890 0.000000 0.215570 
#    y 0.000000 3.107050 0.000000 
#    z 0.215570 0.000000 3.849310 
# 
# 
# High freq. dielectric constant tensor:
#      x y z
#    x 1.719280 0.000000 0.007560 
#    y 0.000000 1.674310 0.000000 
#    z 0.007560 0.000000 1.744110 
# 
# From -- ./inp_files/67863.got.cif
#   From: 2010.06.25/outbox.cif.g09.slc.cpg/sg10_34_cif.got.tgz:67863.got - 2010.06.27 22:07:45.
