data_PCOD8058095
_publ_section_title
;
Structure prediction by ZEFSAII (Michael W. Deem and Ramdas Pophale) SiO2 
 PCOD8058095
Probable space group: P 2/M
;
_chemical_formula_sum "Si O2"
_cell_formula_units_Z 30
_cell_length_a 11.810808
_cell_length_b 9.448405
_cell_length_c 30.461398
_cell_angle_alpha 90.000000
_cell_angle_beta 150.975294
_cell_angle_gamma 90.000000
_cell_volume 1649.289293
_symmetry_space_group_name_H-M "P 2/M"
_symmetry_group_IT_number 10
_symmetry_cell_setting 'monoclinic'
loop_
_space_group_symop_operation_xyz
x,y,z
-x,y,-z
-x,-y,-z
x,-y,z
loop_
_atom_site_type_symbol
_atom_site_label
_atom_site_fract_x
_atom_site_fract_y
_atom_site_fract_z
Si Si1 0.000000 0.738565 0.500000
Si Si2 0.227851 0.154941 0.490391
Si Si3 0.745214 0.162855 0.106916
Si Si4 0.757392 0.163083 0.282074
Si Si5 0.418755 0.657513 0.700631
Si Si6 0.340205 0.656384 0.371790
Si Si7 0.146994 0.658781 0.210064
Si Si8 0.164763 0.330360 0.775806
O O1 0.867029 0.827861 0.492194
O O2 0.798334 0.649733 0.407179
O O3 0.432022 0.253445 0.542100
O O4 0.025317 0.175713 0.386465
O O5 0.335939 0.000000 0.524830
O O6 0.728975 0.259348 0.144703
O O7 0.937816 0.227803 0.138981
O O8 0.811226 0.000000 0.140885
O O9 0.500000 0.169502 0.000000
O O10 0.604757 0.226330 0.269633
O O11 0.709792 0.257779 0.222983
O O12 0.684396 0.000000 0.248965
O O13 0.435321 0.500000 0.726558
O O14 0.662157 0.701226 0.761118
O O15 0.409525 0.500000 0.410341
O O16 0.282949 0.662588 0.301499
O O17 0.111116 0.706228 0.320721
O O18 0.047624 0.500000 0.168204
O O19 0.207180 0.500000 0.791581
#
# Coordination Sequence:
#
# PCOD8058095 Si02
#       8
#     2   4   4   4   4   4   4   4
#     4  10  18  30  46  72 104 142 186 234 264 300
#     4  10  20  31  45  68 101 141 184 225 267 312
#     4  10  21  37  60  89 113 135 165 207 267 330
#     4  10  22  36  49  72 105 144 185 222 264 315
#     4  10  19  32  52  76 105 144 187 227 265 309
#     4   9  18  32  49  72 100 133 178 226 268 309
#     4   9  18  33  52  80 111 140 178 221 267 316
#     4  10  21  38  57  77 103 137 176 217 264 319
#
# _framework density 18.189653
#
# number of rings (size 3 to 8) (size 9 to 14) (size 15 to 20)
#    0.000    2.267    1.333    2.400    0.000    8.000 
#    0.000    2.667    0.000    0.800    0.000    5.600 
#    0.000    0.000    0.000    0.000    0.000    0.000 
#
# Total GULP energy -371828.701281 kJ/mol
# GULP energy per Si atom -12394.290043 kJ/mol
# Density = 1.814825 g / cm^3
# Si number density = 18.189653 Si / 1000 Ang^3
#
#
#
# Elastic Constant Matrix: (Units=GPa)
#
#
# Indices 1 2 3 4 5 6 
#
# 1 94.2926 64.2414 34.2732 0.0000 -1.8293 0.0000
# 2 64.2414 122.9531 42.8962 0.0000 0.3651 0.0000
# 3 34.2732 42.8962 49.9366 0.0000 6.0401 0.0000
# 4 0.0000 0.0000 0.0000 21.0429 0.0000 9.9862
# 5 -1.8293 0.3651 6.0401 0.0000 17.7184 0.0000
# 6 0.0000 0.0000 0.0000 9.9862 0.0000 18.5711
#
#
#
# Elastic Compliance Matrix: (Units=1/GPa)
#
#
# Indices 1 2 3 4 5 6 
#
# 1 0.017942 -0.007009 -0.006815 0.000000 0.004320 0.000000
# 2 -0.007009 0.014540 -0.007880 0.000000 0.001663 0.000000
# 3 -0.006815 -0.007880 0.032894 0.000000 -0.011755 0.000000
# 4 0.000000 0.000000 0.000000 0.063804 0.000000 -0.034309
# 5 0.004320 0.001663 -0.011755 0.000000 0.060857 0.000000
# 6 0.000000 0.000000 0.000000 -0.034309 0.000000 0.072296
#
#
# Mechanical properties :
#
#
# Convention : Reuss Voigt Hill
#
# Bulk Modulus (GPa) = 45.52595 61.11157 53.31876
# Shear Modulus (GPa) = 15.97110 19.85125 17.91117
#
# Velocity S-wave (km/s) = 2.96637 3.30714 3.14138
# Velocity P-wave (km/s) = 6.06756 6.94642 6.52181
#
# Compressibility (1/GPa) = 0.02196550
#
# Stress axis : x y z
#
# Youngs Moduli (GPa) = 55.73555 68.77639 30.40055
#
# Poissons Ratio (x) = 0.48208 0.20719
# Poissons Ratio (y) = 0.39067 0.23957
# Poissons Ratio (z) = 0.37986 0.54198
#
# Static dielectric constant tensor:
#      x y z
#    x 3.400990 0.000000 0.094870 
#    y 0.000000 3.513880 0.000000 
#    z 0.094870 0.000000 3.008290 
# 
# 
# High freq. dielectric constant tensor:
#      x y z
#    x 1.707250 0.000000 0.004910 
#    y 0.000000 1.715000 0.000000 
#    z 0.004910 0.000000 1.667380 
# 
# From -- ./inp_files/76185.got.cif
#   From: 2010.06.25/outbox.cif.g09.slc.cpg/sg10_39_cif.got.tgz:76185.got - 2010.06.27 22:07:45.
