data_PCOD8058355
_publ_section_title
;
Structure prediction by ZEFSAII (Michael W. Deem and Ramdas Pophale) SiO2 
 PCOD8058355
Probable space group: P 2/M
;
_chemical_formula_sum "Si O2"
_cell_formula_units_Z 32
_cell_length_a 20.915479
_cell_length_b 9.107114
_cell_length_c 27.323032
_cell_angle_alpha 90.000000
_cell_angle_beta 19.525845
_cell_angle_gamma 90.000000
_cell_volume 1739.504468
_symmetry_space_group_name_H-M "P 2/M"
_symmetry_group_IT_number 10
_symmetry_cell_setting 'monoclinic'
loop_
_space_group_symop_operation_xyz
x,y,z
-x,y,-z
-x,-y,-z
x,-y,z
loop_
_atom_site_type_symbol
_atom_site_label
_atom_site_fract_x
_atom_site_fract_y
_atom_site_fract_z
Si Si1 0.341269 0.664948 0.823392
Si Si2 0.674151 0.337814 0.662492
Si Si3 0.671273 0.173855 0.409202
Si Si4 0.386148 0.173026 0.439770
Si Si5 0.356951 0.327736 0.961160
Si Si6 0.684960 0.672276 0.896488
Si Si7 0.090727 0.174197 0.076858
Si Si8 0.067226 0.828496 0.591503
O O1 0.277337 0.500000 0.855423
O O2 0.503677 0.661818 0.746825
O O3 0.421991 0.747148 0.717392
O O4 0.161806 0.753748 0.974927
O O5 0.766851 0.500000 0.599163
O O6 0.574121 0.292765 0.786038
O O7 0.837907 0.224585 0.528055
O O8 0.500000 0.240402 0.500000
O O9 0.655767 0.233250 0.475764
O O10 0.871005 0.222045 0.241418
O O11 0.655996 0.000000 0.422048
O O12 0.203427 0.215117 0.538521
O O13 0.424615 0.000000 0.410192
O O14 0.311934 0.500000 0.985340
O O15 0.344325 0.280448 0.026402
O O16 0.203459 0.232123 0.042722
O O17 0.719574 0.500000 0.866546
O O18 0.865510 0.752158 0.743357
O O19 0.500000 0.723470 0.000000
O O20 0.117751 0.000000 0.054350
O O21 0.034105 0.000000 0.611869
#
# Coordination Sequence:
#
# PCOD8058355 Si02
#       8
#     4   4   4   4   4   4   4   4
#     4   9  17  30  49  74 102 129 160 201 247 293
#     4   8  15  29  49  72  96 123 157 197 240 288
#     4   9  18  32  49  71 100 132 167 207 247 290
#     4   9  17  31  52  76  99 126 165 207 245 291
#     4   9  18  33  53  76 100 127 162 203 245 289
#     4  10  21  36  52  71  98 133 169 201 237 288
#     4  10  18  30  52  78 100 126 162 203 247 293
#     4  10  19  31  50  76 101 125 158 203 250 291
#
# _framework density 18.396044
#
# number of rings (size 3 to 8) (size 9 to 14) (size 15 to 20)
#    0.000    2.750    0.000    2.625    0.000    5.250 
#    0.000    2.500    0.000   10.875    0.000    0.000 
#    0.000    0.000    0.000    0.000    0.000    0.000 
#
# Total GULP energy -396757.934610 kJ/mol
# GULP energy per Si atom -12398.685457 kJ/mol
# Density = 1.835417 g / cm^3
# Si number density = 18.396044 Si / 1000 Ang^3
#
#
#
# Elastic Constant Matrix: (Units=GPa)
#
#
# Indices 1 2 3 4 5 6 
#
# 1 42.3022 27.1560 61.5819 0.0000 -8.5556 0.0000
# 2 27.1560 64.0429 59.8307 0.0000 -1.8975 0.0000
# 3 61.5819 59.8307 172.3577 0.0000 11.5328 0.0000
# 4 0.0000 0.0000 0.0000 27.5364 0.0000 4.1944
# 5 -8.5556 -1.8975 11.5328 0.0000 17.7109 0.0000
# 6 0.0000 0.0000 0.0000 4.1944 0.0000 15.5656
#
#
#
# Elastic Compliance Matrix: (Units=1/GPa)
#
#
# Indices 1 2 3 4 5 6 
#
# 1 0.092864 -0.003071 -0.036692 0.000000 0.068424 0.000000
# 2 -0.003071 0.024363 -0.007774 0.000000 0.006189 0.000000
# 3 -0.036692 -0.007774 0.023893 0.000000 -0.034116 0.000000
# 4 0.000000 0.000000 0.000000 0.037870 0.000000 -0.010205
# 5 0.068424 0.006189 -0.034116 0.000000 0.112394 0.000000
# 6 0.000000 0.000000 0.000000 -0.010205 0.000000 0.066994
#
#
# Mechanical properties :
#
#
# Convention : Reuss Voigt Hill
#
# Bulk Modulus (GPa) = 21.71740 63.98223 42.84982
# Shear Modulus (GPa) = 10.66551 20.83818 15.75184
#
# Velocity S-wave (km/s) = 2.41046 3.36929 2.92937
# Velocity P-wave (km/s) = 4.42472 7.07051 5.89789
#
# Compressibility (1/GPa) = 0.04604603
#
# Stress axis : x y z
#
# Youngs Moduli (GPa) = 10.76841 41.04637 41.85346
#
# Poissons Ratio (x) = 0.12606 1.53568
# Poissons Ratio (y) = 0.03307 0.32536
# Poissons Ratio (z) = 0.39511 0.31909
#
# Static dielectric constant tensor:
#      x y z
#    x 3.293910 0.000000 0.262150 
#    y 0.000000 3.309520 0.000000 
#    z 0.262150 0.000000 3.579440 
# 
# 
# High freq. dielectric constant tensor:
#      x y z
#    x 1.686070 0.000000 0.021990 
#    y 0.000000 1.702570 0.000000 
#    z 0.021990 0.000000 1.723840 
# 
# From -- ./inp_files/86939.got.cif
#   From: 2010.06.25/outbox.cif.g09.slc.cpg/sg10_44_cif.got.tgz:86939.got - 2010.06.27 22:07:45.
