data_PCOD8058644
_publ_section_title
;
Structure prediction by ZEFSAII (Michael W. Deem and Ramdas Pophale) SiO2 
 PCOD8058644
Probable space group: P 2/M
;
_chemical_formula_sum "Si O2"
_cell_formula_units_Z 24
_cell_length_a 13.068774
_cell_length_b 12.907011
_cell_length_c 13.696825
_cell_angle_alpha 90.000000
_cell_angle_beta 31.924068
_cell_angle_gamma 90.000000
_cell_volume 1221.708802
_symmetry_space_group_name_H-M "P 2/M"
_symmetry_group_IT_number 10
_symmetry_cell_setting 'monoclinic'
loop_
_space_group_symop_operation_xyz
x,y,z
-x,y,-z
-x,-y,-z
x,-y,z
loop_
_atom_site_type_symbol
_atom_site_label
_atom_site_fract_x
_atom_site_fract_y
_atom_site_fract_z
Si Si1 0.608968 0.117624 0.548578
Si Si2 0.716640 0.382646 0.789148
Si Si3 0.267615 0.618942 0.867169
Si Si4 0.338204 0.693132 0.374716
Si Si5 0.213159 0.812725 0.789829
Si Si6 0.964902 0.620430 0.764209
O O1 0.634629 0.184879 0.625887
O O2 0.756182 0.168118 0.349971
O O3 0.382666 0.119323 0.702597
O O4 0.671558 0.000000 0.518509
O O5 0.783293 0.500000 0.711307
O O6 0.739073 0.316818 0.672478
O O7 0.848656 0.330483 0.766345
O O8 0.500000 0.379993 0.000000
O O9 0.234519 0.500000 0.860919
O O10 0.467565 0.628377 0.764116
O O11 0.253520 0.691482 0.783099
O O12 0.104442 0.662568 0.074246
O O13 0.189279 0.643440 0.571926
O O14 0.000000 0.848431 0.000000
O O15 0.912687 0.500000 0.806692
#
# Coordination Sequence:
#
# PCOD8058644 Si02
#       6
#     4   4   4   4   4   4
#     4  10  23  40  57  78 100 130 179 233 273 306
#     4  10  18  31  53  80 111 145 174 204 245 303
#     4  10  20  33  50  79 116 144 169 206 252 310
#     4  11  20  34  54  77 106 142 180 216 259 306
#     4  10  20  37  59  81 103 136 175 214 265 318
#     4  10  19  31  52  81 112 146 177 202 242 307
#
# _framework density 19.644615999999999
#
# number of rings (size 3 to 8) (size 9 to 14) (size 15 to 20)
#    0.000    1.833    1.667    4.000    0.000    3.000 
#    0.000    8.333    0.000    2.500    0.000    0.000 
#    0.000    0.000    0.000    0.000    0.000    0.000 
#
# Total GULP energy -297556.167782 kJ/mol
# GULP energy per Si atom -12398.173658 kJ/mol
# Density = 1.959990 g / cm^3
# Si number density = 19.644616 Si / 1000 Ang^3
#
#
#
# Elastic Constant Matrix: (Units=GPa)
#
#
# Indices 1 2 3 4 5 6 
#
# 1 27.9579 23.5840 2.3443 0.0000 14.9423 0.0000
# 2 23.5840 97.3237 28.0082 0.0000 25.6977 0.0000
# 3 2.3443 28.0082 111.0370 0.0000 -8.6319 0.0000
# 4 0.0000 0.0000 0.0000 17.7443 0.0000 2.9446
# 5 14.9423 25.6977 -8.6319 0.0000 26.8006 0.0000
# 6 0.0000 0.0000 0.0000 2.9446 0.0000 15.7549
#
#
#
# Elastic Compliance Matrix: (Units=1/GPa)
#
#
# Indices 1 2 3 4 5 6 
#
# 1 0.054416 -0.006166 -0.001531 0.000000 -0.024920 0.000000
# 2 -0.006166 0.017222 -0.005365 0.000000 -0.014803 0.000000
# 3 -0.001531 -0.005365 0.011137 0.000000 0.009584 0.000000
# 4 0.000000 0.000000 0.000000 0.058160 0.000000 -0.010870
# 5 -0.024920 -0.014803 0.009584 0.000000 0.068487 0.000000
# 6 0.000000 0.000000 0.000000 -0.010870 0.000000 0.065504
#
#
# Mechanical properties :
#
#
# Convention : Reuss Voigt Hill
#
# Bulk Modulus (GPa) = 17.65168 38.24350 27.94759
# Shear Modulus (GPa) = 15.62830 24.21877 19.92354
#
# Velocity S-wave (km/s) = 2.82361 3.51500 3.18810
# Velocity P-wave (km/s) = 4.43118 5.99863 5.27347
#
# Compressibility (1/GPa) = 0.05665184
#
# Stress axis : x y z
#
# Youngs Moduli (GPa) = 18.37681 58.06647 89.79433
#
# Poissons Ratio (x) = 0.35804 0.13746
# Poissons Ratio (y) = 0.11331 0.48171
# Poissons Ratio (z) = 0.02813 0.31150
#
# Static dielectric constant tensor:
#      x y z
#    x 3.540770 0.000000 0.014390 
#    y 0.000000 3.262840 0.000000 
#    z 0.014390 0.000000 3.786460 
# 
# 
# High freq. dielectric constant tensor:
#      x y z
#    x 1.757040 0.000000 -0.005690 
#    y 0.000000 1.725580 0.000000 
#    z -0.005690 0.000000 1.784420 
# 
# From -- ./inp_files/67227.got.cif
#   From: 2010.06.25/outbox.cif.g09.slc.cpg/sg10_34_cif.got.tgz:67227.got - 2010.06.27 22:07:45.
