data_PCOD8058812
_publ_section_title
;
Structure prediction by ZEFSAII (Michael W. Deem and Ramdas Pophale) SiO2 
 PCOD8058812
Probable space group: P 2/M
;
_chemical_formula_sum "Si O2"
_cell_formula_units_Z 32
_cell_length_a 20.027111
_cell_length_b 9.021357
_cell_length_c 28.844379
_cell_angle_alpha 90.000000
_cell_angle_beta 20.440254
_cell_angle_gamma 90.000000
_cell_volume 1819.966889
_symmetry_space_group_name_H-M "P 2/M"
_symmetry_group_IT_number 10
_symmetry_cell_setting 'monoclinic'
loop_
_space_group_symop_operation_xyz
x,y,z
-x,y,-z
-x,-y,-z
x,-y,z
loop_
_atom_site_type_symbol
_atom_site_label
_atom_site_fract_x
_atom_site_fract_y
_atom_site_fract_z
Si Si1 0.962994 0.170869 0.906892
Si Si2 0.081203 0.828524 0.166932
Si Si3 0.476997 0.327217 0.899549
Si Si4 0.437985 0.822958 0.349379
Si Si5 0.568831 0.673038 0.175403
Si Si6 0.668166 0.175492 0.855980
Si Si7 0.938624 0.174527 0.356235
Si Si8 0.176779 0.173652 0.855810
O O1 0.023493 0.201247 0.814200
O O2 0.142369 0.208575 0.823596
O O3 0.900163 0.000000 0.954645
O O4 0.785690 0.270679 0.037338
O O5 0.939102 0.783924 0.301148
O O6 0.143541 0.000000 0.131222
O O7 0.270613 0.732661 0.048299
O O8 0.481216 0.500000 0.907451
O O9 0.517994 0.293717 0.818854
O O10 0.638770 0.247211 0.824620
O O11 0.438666 0.759200 0.296997
O O12 0.250478 0.758168 0.497071
O O13 0.621670 0.759843 0.258186
O O14 0.435775 0.000000 0.348663
O O15 0.567913 0.500000 0.187393
O O16 0.869467 0.236318 0.744503
O O17 0.668555 0.000000 0.850167
O O18 0.500000 0.226944 0.000000
O O19 0.933858 0.000000 0.365722
O O20 0.185319 0.000000 0.859789
O O21 0.000000 0.242150 0.000000
#
# Coordination Sequence:
#
# PCOD8058812 Si02
#       8
#     4   4   4   4   4   4   4   4
#     4   9  16  28  50  74  97 129 165 198 241 291
#     4   9  16  30  50  72  99 130 163 199 241 288
#     4  10  20  32  49  75 101 126 160 204 248 288
#     4  10  19  33  52  70  98 134 164 197 241 294
#     4  10  20  33  48  71 102 128 161 206 246 285
#     4  10  18  32  53  75  99 126 161 204 241 282
#     4   9  18  32  50  74  99 127 162 200 242 286
#     4   9  15  26  46  75 100 122 162 207 239 276
#
# _framework density 17.582737999999999
#
# number of rings (size 3 to 8) (size 9 to 14) (size 15 to 20)
#    0.000    2.500    2.500    0.750    0.000    1.750 
#    0.000    3.750    0.000    7.500    0.000    0.000 
#    0.000    5.000    0.000    0.000    0.000    0.000 
#
# Total GULP energy -396694.539860 kJ/mol
# GULP energy per Si atom -12396.704371 kJ/mol
# Density = 1.754272 g / cm^3
# Si number density = 17.582738 Si / 1000 Ang^3
#
#
#
# Elastic Constant Matrix: (Units=GPa)
#
#
# Indices 1 2 3 4 5 6 
#
# 1 146.7262 32.5828 77.1385 0.0000 6.8284 0.0000
# 2 32.5828 30.7316 25.2403 0.0000 3.4498 0.0000
# 3 77.1385 25.2403 131.6042 0.0000 7.1071 0.0000
# 4 0.0000 0.0000 0.0000 6.7826 0.0000 3.3101
# 5 6.8284 3.4498 7.1071 0.0000 27.6333 0.0000
# 6 0.0000 0.0000 0.0000 3.3101 0.0000 18.1325
#
#
#
# Elastic Compliance Matrix: (Units=1/GPa)
#
#
# Indices 1 2 3 4 5 6 
#
# 1 0.011206 -0.007658 -0.005072 0.000000 -0.000509 0.000000
# 2 -0.007658 0.044097 -0.003827 0.000000 -0.002629 0.000000
# 3 -0.005072 -0.003827 0.011370 0.000000 -0.001193 0.000000
# 4 0.000000 0.000000 0.000000 0.161855 0.000000 -0.029547
# 5 -0.000509 -0.002629 -0.001193 0.000000 0.036949 0.000000
# 6 0.000000 0.000000 0.000000 -0.029547 0.000000 0.060544
#
#
# Mechanical properties :
#
#
# Convention : Reuss Voigt Hill
#
# Bulk Modulus (GPa) = 29.79804 64.33168 47.06486
# Shear Modulus (GPa) = 13.50174 22.11638 17.80906
#
# Velocity S-wave (km/s) = 2.77410 3.55046 3.18602
# Velocity P-wave (km/s) = 5.21967 7.31267 6.35295
#
# Compressibility (1/GPa) = 0.03355926
#
# Stress axis : x y z
#
# Youngs Moduli (GPa) = 89.23481 22.67706 87.95142
#
# Poissons Ratio (x) = 0.17367 0.44611
# Poissons Ratio (y) = 0.68340 0.33655
# Poissons Ratio (z) = 0.45262 0.08677
#
# Static dielectric constant tensor:
#      x y z
#    x 3.579770 0.000000 0.048950 
#    y 0.000000 2.996580 0.000000 
#    z 0.048950 0.000000 3.230140 
# 
# 
# High freq. dielectric constant tensor:
#      x y z
#    x 1.698080 0.000000 0.007860 
#    y 0.000000 1.649330 0.000000 
#    z 0.007860 0.000000 1.649990 
# 
# From -- ./inp_files/52768.got.cif
#   From: 2010.06.25/outbox.cif.g09.slc.cpg/sg10_27_cif.got.tgz:52768.got - 2010.06.27 22:07:45.
