data_PCOD8058435
_publ_section_title
;
Structure prediction by ZEFSAII (Michael W. Deem and Ramdas Pophale) SiO2 
 PCOD8058435
Probable space group: P 2/M
;
_chemical_formula_sum "Si O2"
_cell_formula_units_Z 32
_cell_length_a 13.803863
_cell_length_b 8.572783
_cell_length_c 18.560390
_cell_angle_alpha 90.000000
_cell_angle_beta 68.587460
_cell_angle_gamma 90.000000
_cell_volume 2044.786756
_symmetry_space_group_name_H-M "P 2/M"
_symmetry_group_IT_number 10
_symmetry_cell_setting 'monoclinic'
loop_
_space_group_symop_operation_xyz
x,y,z
-x,y,-z
-x,-y,-z
x,-y,z
loop_
_atom_site_type_symbol
_atom_site_label
_atom_site_fract_x
_atom_site_fract_y
_atom_site_fract_z
Si Si1 0.630588 0.684380 0.030926
Si Si2 0.774567 0.817432 0.738500
Si Si3 0.842629 0.316252 0.038478
Si Si4 0.401384 0.315369 0.121075
Si Si5 0.011168 0.180946 0.891120
Si Si6 0.947263 0.321782 0.420620
Si Si7 0.979610 0.321098 0.749878
Si Si8 0.852416 0.178275 0.569076
O O1 0.636080 0.500000 0.024930
O O2 0.727799 0.748803 0.050389
O O3 0.522348 0.733715 0.097862
O O4 0.636604 0.744662 0.946975
O O5 0.662834 0.773877 0.800593
O O6 0.863741 0.722486 0.755963
O O7 0.770618 0.773167 0.654033
O O8 0.798422 0.000000 0.741396
O O9 0.841961 0.500000 0.053133
O O10 0.880579 0.228954 0.100242
O O11 0.918102 0.280505 0.951002
O O12 0.386393 0.500000 0.133883
O O13 0.018319 0.214574 0.804598
O O14 0.989169 0.000000 0.910595
O O15 0.980050 0.500000 0.426642
O O16 0.844220 0.278652 0.496426
O O17 0.936320 0.295909 0.337713
O O18 0.035530 0.205343 0.424791
O O19 0.977639 0.500000 0.775786
O O20 0.837446 0.000000 0.551214
#
# Coordination Sequence:
#
# PCOD8058435 Si02
#       8
#     4   4   4   4   4   4   4   4
#     4   8  16  29  46  64  81 106 142 177 209 244
#     4  10  19  28  39  61  88 114 142 173 206 245
#     4  10  18  31  48  63  83 113 144 174 209 249
#     4   9  16  29  46  63  83 109 141 175 207 245
#     4  11  21  31  43  63  87 110 140 177 211 249
#     4   9  16  25  39  57  77 102 139 175 202 238
#     4  10  19  30  43  60  82 112 144 176 211 247
#     4   9  16  25  37  53  80 112 138 163 200 245
#
# _framework density 15.649552999999999
#
# number of rings (size 3 to 8) (size 9 to 14) (size 15 to 20)
#    0.000    2.500    0.000    6.000    0.000    4.000 
#    0.000    3.125    0.000    0.000    0.000    0.000 
#    0.000    1.000    0.000   11.250    0.000    5.625 
#
# Total GULP energy -396571.692013 kJ/mol
# GULP energy per Si atom -12392.865375 kJ/mol
# Density = 1.561393 g / cm^3
# Si number density = 15.649553 Si / 1000 Ang^3
#
#
#
# Elastic Constant Matrix: (Units=GPa)
#
#
# Indices 1 2 3 4 5 6 
#
# 1 80.8686 12.7119 40.4699 0.0000 -1.1720 0.0000
# 2 12.7119 40.9882 22.5617 0.0000 -0.4655 0.0000
# 3 40.4699 22.5617 120.5627 0.0000 -6.2529 0.0000
# 4 0.0000 0.0000 0.0000 24.5649 0.0000 0.4837
# 5 -1.1720 -0.4655 -6.2529 0.0000 19.0509 0.0000
# 6 0.0000 0.0000 0.0000 0.4837 0.0000 9.2227
#
#
#
# Elastic Compliance Matrix: (Units=1/GPa)
#
#
# Indices 1 2 3 4 5 6 
#
# 1 0.015031 -0.002088 -0.004689 0.000000 -0.000665 0.000000
# 2 -0.002088 0.027509 -0.004495 0.000000 -0.000932 0.000000
# 3 -0.004689 -0.004495 0.010874 0.000000 0.003171 0.000000
# 4 0.000000 0.000000 0.000000 0.040751 0.000000 -0.002137
# 5 -0.000665 -0.000932 0.003171 0.000000 0.053468 0.000000
# 6 0.000000 0.000000 0.000000 -0.002137 0.000000 0.108540
#
#
# Mechanical properties :
#
#
# Convention : Reuss Voigt Hill
#
# Bulk Modulus (GPa) = 32.39532 43.76740 38.08136
# Shear Modulus (GPa) = 17.30060 21.67943 19.49001
#
# Velocity S-wave (km/s) = 3.32852 3.72601 3.53286
# Velocity P-wave (km/s) = 5.95965 6.82193 6.40532
#
# Compressibility (1/GPa) = 0.03086865
#
# Stress axis : x y z
#
# Youngs Moduli (GPa) = 66.52902 36.35216 91.96062
#
# Poissons Ratio (x) = 0.07590 0.43123
# Poissons Ratio (y) = 0.13891 0.41339
# Poissons Ratio (z) = 0.31198 0.16341
#
# Static dielectric constant tensor:
#      x y z
#    x 2.848200 0.000000 -0.043000 
#    y 0.000000 2.912440 0.000000 
#    z -0.043000 0.000000 3.373440 
# 
# 
# High freq. dielectric constant tensor:
#      x y z
#    x 1.546970 0.000000 -0.002690 
#    y 0.000000 1.604160 0.000000 
#    z -0.002690 0.000000 1.607820 
# 
# From -- ./inp_files/77391.got.cif
#   From: 2010.06.25/outbox.cif.g09.slc.cpg/sg10_39_cif.got.tgz:77391.got - 2010.06.27 22:07:45.
