data_PCOD8058862
_publ_section_title
;
Structure prediction by ZEFSAII (Michael W. Deem and Ramdas Pophale) SiO2 
 PCOD8058862
Probable space group: P 2/M
;
_chemical_formula_sum "Si O2"
_cell_formula_units_Z 24
_cell_length_a 15.205570
_cell_length_b 8.620146
_cell_length_c 14.928181
_cell_angle_alpha 90.000000
_cell_angle_beta 40.106110
_cell_angle_gamma 90.000000
_cell_volume 1260.516232
_symmetry_space_group_name_H-M "P 2/M"
_symmetry_group_IT_number 10
_symmetry_cell_setting 'monoclinic'
loop_
_space_group_symop_operation_xyz
x,y,z
-x,y,-z
-x,-y,-z
x,-y,z
loop_
_atom_site_type_symbol
_atom_site_label
_atom_site_fract_x
_atom_site_fract_y
_atom_site_fract_z
Si Si1 0.858659 0.685051 0.151040
Si Si2 0.170905 0.683916 0.151950
Si Si3 0.336081 0.315741 0.850138
Si Si4 0.867061 0.315675 0.344826
Si Si5 0.364494 0.315648 0.342723
Si Si6 0.358386 0.817403 0.153100
O O1 0.862165 0.500000 0.149310
O O2 0.734071 0.746093 0.186387
O O3 0.840227 0.750271 0.265860
O O4 0.000000 0.748290 0.000000
O O5 0.184923 0.500000 0.153401
O O6 0.232184 0.769426 0.189809
O O7 0.014451 0.737632 0.265473
O O8 0.250359 0.742779 0.002127
O O9 0.336355 0.500000 0.849499
O O10 0.489635 0.250273 0.737091
O O11 0.861268 0.500000 0.346282
O O12 0.751432 0.248616 0.500881
O O13 0.364543 0.500000 0.343956
O O14 0.333352 0.261025 0.267525
O O15 0.363222 0.000000 0.162293
O O16 0.500000 0.755641 0.000000
#
# Coordination Sequence:
#
# PCOD8058862 Si02
#       6
#     4   4   4   4   4   4
#     4   9  14  24  44  74 109 138 165 203 249 297
#     4  10  18  32  54  78 102 134 172 207 250 304
#     4   9  16  26  47  75 103 136 169 201 247 301
#     4   9  18  30  48  77 111 138 164 206 256 300
#     4  10  20  34  51  77 108 135 168 212 256 299
#     4  11  23  37  54  76  99 131 174 217 260 305
#
# _framework density 19.039818
#
# number of rings (size 3 to 8) (size 9 to 14) (size 15 to 20)
#    0.000    2.333    3.333    0.500    0.000    2.000 
#    0.000    7.500    0.000    0.000    0.000    7.000 
#    0.000    0.000    0.000    0.000    0.000    0.000 
#
# Total GULP energy -297588.249039 kJ/mol
# GULP energy per Si atom -12399.510377 kJ/mol
# Density = 1.899648 g / cm^3
# Si number density = 19.039818 Si / 1000 Ang^3
#
#
#
# Elastic Constant Matrix: (Units=GPa)
#
#
# Indices 1 2 3 4 5 6 
#
# 1 175.4126 -0.1113 91.1492 0.0000 -1.6284 0.0000
# 2 -0.1113 5.2536 8.4127 0.0000 -2.6236 0.0000
# 3 91.1492 8.4127 183.2655 0.0000 -1.2301 0.0000
# 4 0.0000 0.0000 0.0000 8.3007 0.0000 -4.7425
# 5 -1.6284 -2.6236 -1.2301 0.0000 37.3400 0.0000
# 6 0.0000 0.0000 0.0000 -4.7425 0.0000 -2.1697
#
#
#
# Elastic Compliance Matrix: (Units=1/GPa)
#
#
# Indices 1 2 3 4 5 6 
#
# 1 0.007937 0.007386 -0.004282 0.000000 0.000724 0.000000
# 2 0.007386 0.220052 -0.013672 0.000000 0.015333 0.000000
# 3 -0.004282 -0.013672 0.008208 0.000000 -0.000877 0.000000
# 4 0.000000 0.000000 0.000000 0.053572 0.000000 -0.117094
# 5 0.000724 0.015333 -0.000877 0.000000 0.027861 0.000000
# 6 0.000000 0.000000 0.000000 -0.117094 0.000000 -0.204947
#
#
# Mechanical properties :
#
#
# Convention : Reuss Voigt Hill
#
# Bulk Modulus (GPa) = 4.64981 62.53698 33.59340
# Shear Modulus (GPa) = 24.33013 26.32626 25.32820
#
# Velocity S-wave (km/s) = 3.57859 3.72249 3.65125
# Velocity P-wave (km/s) = 4.41843 7.16887 5.95463
#
# Compressibility (1/GPa) = 0.21506233
#
# Stress axis : x y z
#
# Youngs Moduli (GPa) = 125.98840 4.54437 121.83344
#
# Poissons Ratio (x) = -0.03357 0.52168
# Poissons Ratio (y) = -0.93059 1.66572
# Poissons Ratio (z) = 0.53947 0.06213
#
# Static dielectric constant tensor:
#      x y z
#    x 3.727780 0.000000 -0.062250 
#    y 0.000000 2.841700 0.000000 
#    z -0.062250 0.000000 3.730810 
# 
# 
# High freq. dielectric constant tensor:
#      x y z
#    x 1.759520 0.000000 -0.000420 
#    y 0.000000 1.677800 0.000000 
#    z -0.000420 0.000000 1.742690 
# 
# From -- ./inp_files/27775.got.cif
#   From: 2010.06.25/outbox.cif.g09.slc.cpg/sg10_14_cif.got.tgz:27775.got - 2010.06.27 22:07:45.
