data_PCOD8058094
_publ_section_title
;
Structure prediction by ZEFSAII (Michael W. Deem and Ramdas Pophale) SiO2 
 PCOD8058094
Probable space group: P 2/M
;
_chemical_formula_sum "Si O2"
_cell_formula_units_Z 30
_cell_length_a 15.379209
_cell_length_b 9.167259
_cell_length_c 11.736647
_cell_angle_alpha 90.000000
_cell_angle_beta 79.313405
_cell_angle_gamma 90.000000
_cell_volume 1625.994774
_symmetry_space_group_name_H-M "P 2/M"
_symmetry_group_IT_number 10
_symmetry_cell_setting 'monoclinic'
loop_
_space_group_symop_operation_xyz
x,y,z
-x,y,-z
-x,-y,-z
x,-y,z
loop_
_atom_site_type_symbol
_atom_site_label
_atom_site_fract_x
_atom_site_fract_y
_atom_site_fract_z
Si Si1 0.018958 0.164863 0.242661
Si Si2 0.260870 0.329897 0.388553
Si Si3 0.400464 0.669422 0.549458
Si Si4 0.198134 0.663396 0.963464
Si Si5 0.000000 0.260545 0.000000
Si Si6 0.216015 0.825606 0.184491
Si Si7 0.137342 0.163493 0.573430
Si Si8 0.721227 0.162915 0.263966
O O1 0.116368 0.229327 0.237079
O O2 0.948649 0.239401 0.346009
O O3 0.018252 0.000000 0.282438
O O4 0.989729 0.166315 0.117215
O O5 0.248976 0.500000 0.365835
O O6 0.343492 0.298196 0.450258
O O7 0.278896 0.243597 0.265970
O O8 0.169971 0.268632 0.465025
O O9 0.500000 0.718564 0.500000
O O10 0.394190 0.500000 0.584123
O O11 0.367428 0.761148 0.666337
O O12 0.236023 0.500000 0.962912
O O13 0.234336 0.738060 0.841953
O O14 0.090913 0.648607 0.989236
O O15 0.238721 0.758896 0.056240
O O16 0.225642 0.000000 0.177122
O O17 0.211386 0.150554 0.650085
O O18 0.119472 0.000000 0.528289
O O19 0.699098 0.000000 0.223087
#
# Coordination Sequence:
#
# PCOD8058094 Si02
#       8
#     4   4   4   4   2   4   4   4
#     4   9  17  29  47  69  97 137 184 224 259 302
#     4  10  20  35  53  75 103 134 168 212 262 316
#     4   9  19  37  61  86 109 135 167 208 266 331
#     4  11  21  33  50  75 108 144 182 224 267 310
#     4  10  18  30  46  72 103 142 183 232 267 300
#     4  10  21  35  51  71  99 142 185 219 256 306
#     4   9  17  31  49  71  98 135 177 219 260 304
#     4  10  19  32  53  81 110 139 175 220 267 313
#
# _framework density 18.450241999999999
#
# number of rings (size 3 to 8) (size 9 to 14) (size 15 to 20)
#    0.000    2.267    1.333    2.000    0.000    2.933 
#    0.000    4.000    0.000    0.800    0.000    5.600 
#    0.000    0.000    0.000    0.000    0.000    0.000 
#
# Total GULP energy -371806.053763 kJ/mol
# GULP energy per Si atom -12393.535125 kJ/mol
# Density = 1.840825 g / cm^3
# Si number density = 18.450242 Si / 1000 Ang^3
#
#
#
# Elastic Constant Matrix: (Units=GPa)
#
#
# Indices 1 2 3 4 5 6 
#
# 1 46.8373 28.3309 27.7695 0.0000 -6.9527 0.0000
# 2 28.3309 113.0480 50.9813 0.0000 -1.5403 0.0000
# 3 27.7695 50.9813 90.4438 0.0000 2.5530 0.0000
# 4 0.0000 0.0000 0.0000 29.0679 0.0000 -1.1120
# 5 -6.9527 -1.5403 2.5530 0.0000 25.6962 0.0000
# 6 0.0000 0.0000 0.0000 -1.1120 0.0000 18.2870
#
#
#
# Elastic Compliance Matrix: (Units=1/GPa)
#
#
# Indices 1 2 3 4 5 6 
#
# 1 0.029135 -0.004087 -0.006877 0.000000 0.008321 0.000000
# 2 -0.004087 0.012483 -0.005788 0.000000 0.000217 0.000000
# 3 -0.006877 -0.005788 0.016539 0.000000 -0.003851 0.000000
# 4 0.000000 0.000000 0.000000 0.034482 0.000000 0.002097
# 5 0.008321 0.000217 -0.003851 0.000000 0.041563 0.000000
# 6 0.000000 0.000000 0.000000 0.002097 0.000000 0.054811
#
#
# Mechanical properties :
#
#
# Convention : Reuss Voigt Hill
#
# Bulk Modulus (GPa) = 40.56060 51.61027 46.08544
# Shear Modulus (GPa) = 21.66989 24.16006 22.91497
#
# Velocity S-wave (km/s) = 3.43082 3.62259 3.52801
# Velocity P-wave (km/s) = 6.14211 6.74766 6.45199
#
# Compressibility (1/GPa) = 0.02465446
#
# Stress axis : x y z
#
# Youngs Moduli (GPa) = 34.32302 80.10829 60.46282
#
# Poissons Ratio (x) = 0.32740 0.41578
# Poissons Ratio (y) = 0.14028 0.34994
# Poissons Ratio (z) = 0.23603 0.46365
#
# Static dielectric constant tensor:
#      x y z
#    x 3.208250 0.000000 -0.061100 
#    y 0.000000 3.398490 0.000000 
#    z -0.061100 0.000000 3.492370 
# 
# 
# High freq. dielectric constant tensor:
#      x y z
#    x 1.679790 0.000000 0.004030 
#    y 0.000000 1.710580 0.000000 
#    z 0.004030 0.000000 1.720960 
# 
# From -- ./inp_files/49726.got.cif
#   From: 2010.06.25/outbox.cif.g09.slc.cpg/sg10_25_cif.got.tgz:49726.got - 2010.06.27 22:07:45.
