data_PCOD8058330
_publ_section_title
;
Structure prediction by ZEFSAII (Michael W. Deem and Ramdas Pophale) SiO2 
 PCOD8058330
Probable space group: P 2/M
;
_chemical_formula_sum "Si O2"
_cell_formula_units_Z 28
_cell_length_a 30.653512
_cell_length_b 8.820688
_cell_length_c 9.970837
_cell_angle_alpha 90.000000
_cell_angle_beta 35.422653
_cell_angle_gamma 90.000000
_cell_volume 1562.590731
_symmetry_space_group_name_H-M "P 2/M"
_symmetry_group_IT_number 10
_symmetry_cell_setting 'monoclinic'
loop_
_space_group_symop_operation_xyz
x,y,z
-x,y,-z
-x,-y,-z
x,-y,z
loop_
_atom_site_type_symbol
_atom_site_label
_atom_site_fract_x
_atom_site_fract_y
_atom_site_fract_z
Si Si1 0.503993 0.667063 0.831120
Si Si2 0.943174 0.178735 0.526651
Si Si3 0.340030 0.679631 0.258660
Si Si4 0.654178 0.821034 0.466921
Si Si5 0.064624 0.323762 0.731655
Si Si6 0.221995 0.179350 0.354702
Si Si7 0.773964 0.178266 0.956650
O O1 0.520337 0.500000 0.729614
O O2 0.570938 0.779190 0.620137
O O3 0.500000 0.655154 0.000000
O O4 0.421600 0.727524 0.991846
O O5 0.965637 0.267201 0.336052
O O6 0.858920 0.225314 0.783443
O O7 0.000000 0.230040 0.500000
O O8 0.948146 0.000000 0.484603
O O9 0.336148 0.500000 0.283954
O O10 0.327370 0.749755 0.436322
O O11 0.276128 0.737561 0.321332
O O12 0.660056 0.000000 0.465634
O O13 0.714771 0.751928 0.210232
O O14 0.086147 0.500000 0.669478
O O15 0.136828 0.228587 0.598122
O O16 0.000000 0.291954 0.000000
O O17 0.244103 0.232970 0.149163
O O18 0.228946 0.000000 0.355727
O O19 0.765428 0.000000 0.983157
#
# Coordination Sequence:
#
# PCOD8058330 Si02
#       7
#     4   4   4   4   4   4   4
#     4   8  16  31  48  68  99 134 166 206 252 295
#     4   9  18  34  55  76 100 133 172 210 248 294
#     4  10  20  34  51  74 104 133 165 208 254 299
#     4  10  18  30  51  76 101 131 169 211 252 297
#     4  10  21  36  53  76 106 135 165 205 252 299
#     4  10  20  36  56  75  99 133 171 207 247 298
#     4   8  17  33  50  73 103 130 162 208 255 295
#
# _framework density 17.918959999999998
#
# number of rings (size 3 to 8) (size 9 to 14) (size 15 to 20)
#    0.000    2.714    0.000    3.429    0.000    5.714 
#    0.000    9.286    0.000    4.286    0.000    0.000 
#    0.000    0.000    0.000    0.000    0.000    0.000 
#
# Total GULP energy -347107.760696 kJ/mol
# GULP energy per Si atom -12396.705739 kJ/mol
# Density = 1.787818 g / cm^3
# Si number density = 17.918960 Si / 1000 Ang^3
#
#
#
# Elastic Constant Matrix: (Units=GPa)
#
#
# Indices 1 2 3 4 5 6 
#
# 1 109.4504 26.4064 63.8164 0.0000 -4.1004 0.0000
# 2 26.4064 53.3827 43.1673 0.0000 1.7038 0.0000
# 3 63.8164 43.1673 140.7228 0.0000 -1.9087 0.0000
# 4 0.0000 0.0000 0.0000 20.2223 0.0000 -8.7949
# 5 -4.1004 1.7038 -1.9087 0.0000 13.7612 0.0000
# 6 0.0000 0.0000 0.0000 -8.7949 0.0000 22.2831
#
#
#
# Elastic Compliance Matrix: (Units=1/GPa)
#
#
# Indices 1 2 3 4 5 6 
#
# 1 0.012758 -0.002365 -0.005014 0.000000 0.003399 0.000000
# 2 -0.002365 0.025590 -0.006843 0.000000 -0.004822 0.000000
# 3 -0.005014 -0.006843 0.011492 0.000000 0.000947 0.000000
# 4 0.000000 0.000000 0.000000 0.059698 0.000000 0.023562
# 5 0.003399 -0.004822 0.000947 0.000000 0.074409 0.000000
# 6 0.000000 0.000000 0.000000 0.023562 0.000000 0.054177
#
#
# Mechanical properties :
#
#
# Convention : Reuss Voigt Hill
#
# Bulk Modulus (GPa) = 46.73711 63.37068 55.05389
# Shear Modulus (GPa) = 18.26828 22.59770 20.43299
#
# Velocity S-wave (km/s) = 3.19642 3.55506 3.38050
# Velocity P-wave (km/s) = 6.30570 7.23140 6.78436
#
# Compressibility (1/GPa) = 0.02139628
#
# Stress axis : x y z
#
# Youngs Moduli (GPa) = 78.38248 39.07842 87.01783
#
# Poissons Ratio (x) = 0.09241 0.43632
# Poissons Ratio (y) = 0.18535 0.59544
# Poissons Ratio (z) = 0.39302 0.26740
#
# Static dielectric constant tensor:
#      x y z
#    x 3.420850 0.000000 -0.205600 
#    y 0.000000 3.253880 0.000000 
#    z -0.205600 0.000000 3.567120 
# 
# 
# High freq. dielectric constant tensor:
#      x y z
#    x 1.689800 0.000000 -0.013550 
#    y 0.000000 1.688540 0.000000 
#    z -0.013550 0.000000 1.691580 
# 
# From -- ./inp_files/37967.got.cif
#   From: 2010.06.25/outbox.cif.g09.slc.cpg/sg10_19_cif.got.tgz:37967.got - 2010.06.27 22:07:45.
