data_PCOD8058939
_publ_section_title
;
Structure prediction by ZEFSAII (Michael W. Deem and Ramdas Pophale) SiO2 
 PCOD8058939
Probable space group: P 2/M
;
_chemical_formula_sum "Si O2"
_cell_formula_units_Z 32
_cell_length_a 26.202518
_cell_length_b 8.823589
_cell_length_c 20.255448
_cell_angle_alpha 90.000000
_cell_angle_beta 21.040202
_cell_angle_gamma 90.000000
_cell_volume 1681.327515
_symmetry_space_group_name_H-M "P 2/M"
_symmetry_group_IT_number 10
_symmetry_cell_setting 'monoclinic'
loop_
_space_group_symop_operation_xyz
x,y,z
-x,y,-z
-x,-y,-z
x,-y,z
loop_
_atom_site_type_symbol
_atom_site_label
_atom_site_fract_x
_atom_site_fract_y
_atom_site_fract_z
Si Si1 0.840725 0.680886 0.688786
Si Si2 0.366479 0.679954 0.948376
Si Si3 0.131546 0.821918 0.720539
Si Si4 0.674548 0.679864 0.621289
Si Si5 0.653880 0.680122 0.794451
Si Si6 0.685565 0.674624 0.388934
Si Si7 0.830559 0.324978 0.076072
Si Si8 0.629387 0.320225 0.204075
O O1 0.842285 0.500000 0.688717
O O2 0.770162 0.739894 0.706169
O O3 0.000000 0.746470 0.500000
O O4 0.750868 0.744816 0.859378
O O5 0.368360 0.500000 0.950688
O O6 0.522467 0.740585 0.779318
O O7 0.327729 0.734056 0.921244
O O8 0.200577 0.750057 0.572356
O O9 0.206030 0.767344 0.697252
O O10 0.144906 0.000000 0.699503
O O11 0.967938 0.775838 0.921437
O O12 0.682938 0.500000 0.605289
O O13 0.696798 0.734937 0.669657
O O14 0.645965 0.500000 0.806118
O O15 0.500000 0.746603 0.000000
O O16 0.692670 0.500000 0.403570
O O17 0.726008 0.692428 0.264082
O O18 0.527368 0.741730 0.589177
O O19 0.875940 0.500000 0.011584
O O20 0.746518 0.259530 0.113963
O O21 0.624700 0.500000 0.215267
#
# Coordination Sequence:
#
# PCOD8058939 Si02
#       8
#     4   4   4   4   4   4   4   4
#     4   9  16  24  37  69 112 140 163 206 265 320
#     4   9  15  26  48  76 108 140 169 214 268 318
#     4  12  25  38  53  77 111 148 186 225 270 322
#     4  10  18  32  56  79 103 138 183 229 270 315
#     4   9  15  25  45  74 103 133 170 213 265 318
#     4  10  19  36  61  85 107 137 179 227 273 324
#     4  10  21  36  57  84 112 140 176 223 276 327
#     4   9  17  31  55  85 112 138 176 222 271 324
#
# _framework density 19.032581
#
# number of rings (size 3 to 8) (size 9 to 14) (size 15 to 20)
#    0.000    2.250    2.500    1.875    0.000    4.500 
#    0.000    4.375    0.000    1.875    0.000    0.000 
#    0.000    2.000    0.000    0.000    0.000    0.000 
#
# Total GULP energy -396795.528253 kJ/mol
# GULP energy per Si atom -12399.860258 kJ/mol
# Density = 1.898926 g / cm^3
# Si number density = 19.032581 Si / 1000 Ang^3
#
#
#
# Elastic Constant Matrix: (Units=GPa)
#
#
# Indices 1 2 3 4 5 6 
#
# 1 151.0396 18.4283 38.4653 0.0000 -2.9899 0.0000
# 2 18.4283 29.1434 11.8340 0.0000 0.7805 0.0000
# 3 38.4653 11.8340 80.8628 0.0000 -4.3603 0.0000
# 4 0.0000 0.0000 0.0000 -0.1036 0.0000 2.8547
# 5 -2.9899 0.7805 -4.3603 0.0000 39.7490 0.0000
# 6 0.0000 0.0000 0.0000 2.8547 0.0000 -0.4675
#
#
#
# Elastic Compliance Matrix: (Units=1/GPa)
#
#
# Indices 1 2 3 4 5 6 
#
# 1 0.007892 -0.003702 -0.003196 0.000000 0.000316 0.000000
# 2 -0.003702 0.038285 -0.003921 0.000000 -0.001460 0.000000
# 3 -0.003196 -0.003921 0.014538 0.000000 0.001431 0.000000
# 4 0.000000 0.000000 0.000000 0.057718 0.000000 0.352401
# 5 0.000316 -0.001460 0.001431 0.000000 0.025367 0.000000
# 6 0.000000 0.000000 0.000000 0.352401 0.000000 0.012794
#
#
# Mechanical properties :
#
#
# Convention : Reuss Voigt Hill
#
# Bulk Modulus (GPa) = 25.58909 44.27789 34.93349
# Shear Modulus (GPa) = 26.14287 20.65678 23.39982
#
# Velocity S-wave (km/s) = 3.71021 3.29802 3.51017
# Velocity P-wave (km/s) = 5.64166 6.14958 5.90109
#
# Compressibility (1/GPa) = 0.03907915
#
# Stress axis : x y z
#
# Youngs Moduli (GPa) = 126.70289 26.11993 68.78663
#
# Poissons Ratio (x) = 0.09668 0.21981
# Poissons Ratio (y) = 0.46899 0.26970
# Poissons Ratio (z) = 0.40489 0.10241
#
# Static dielectric constant tensor:
#      x y z
#    x 3.778400 0.000000 0.030390 
#    y 0.000000 2.854730 0.000000 
#    z 0.030390 0.000000 3.605770 
# 
# 
# High freq. dielectric constant tensor:
#      x y z
#    x 1.758050 0.000000 0.005120 
#    y 0.000000 1.669440 0.000000 
#    z 0.005120 0.000000 1.748190 
# 
# From -- ./inp_files/86875.got.cif
#   From: 2010.06.25/outbox.cif.g09.slc.cpg/sg10_44_cif.got.tgz:86875.got - 2010.06.27 22:07:45.
