data_PCOD8058693
_publ_section_title
;
Structure prediction by ZEFSAII (Michael W. Deem and Ramdas Pophale) SiO2 
 PCOD8058693
Probable space group: P 2/M
;
_chemical_formula_sum "Si O2"
_cell_formula_units_Z 24
_cell_length_a 25.109100
_cell_length_b 8.647431
_cell_length_c 17.531065
_cell_angle_alpha 90.000000
_cell_angle_beta 160.732021
_cell_angle_gamma 90.000000
_cell_volume 1256.097124
_symmetry_space_group_name_H-M "P 2/M"
_symmetry_group_IT_number 10
_symmetry_cell_setting 'monoclinic'
loop_
_space_group_symop_operation_xyz
x,y,z
-x,y,-z
-x,-y,-z
x,-y,z
loop_
_atom_site_type_symbol
_atom_site_label
_atom_site_fract_x
_atom_site_fract_y
_atom_site_fract_z
Si Si1 0.455115 0.682942 0.666153
Si Si2 0.902489 0.323794 0.790858
Si Si3 0.266659 0.820377 0.663122
Si Si4 0.056357 0.178280 0.854820
Si Si5 0.601679 0.682581 0.708714
Si Si6 0.557018 0.681036 0.966664
O O1 0.444059 0.500000 0.642823
O O2 0.274507 0.747169 0.433382
O O3 0.533032 0.754705 0.694879
O O4 0.562839 0.728593 0.885417
O O5 0.893148 0.500000 0.747319
O O6 0.992127 0.217066 0.851572
O O7 0.000000 0.316822 0.000000
O O8 0.381159 0.721753 0.762428
O O9 0.081274 0.782584 0.393563
O O10 0.305809 0.000000 0.703256
O O11 0.302269 0.773475 0.798898
O O12 0.106243 0.000000 0.919378
O O13 0.210865 0.279967 0.044517
O O14 0.500000 0.751767 0.500000
O O15 0.580625 0.500000 0.681484
O O16 0.586650 0.500000 0.017819
#
# Coordination Sequence:
#
# PCOD8058693 Si02
#       6
#     4   4   4   4   4   4
#     4   9  18  33  54  84 111 136 181 234 279 326
#     4  10  19  34  58  83 108 140 182 233 280 325
#     4  10  20  34  52  78 113 147 182 220 271 335
#     4  11  23  37  54  81 115 149 184 225 274 331
#     4  10  21  39  61  81 108 148 189 229 276 329
#     4  10  18  31  55  83 110 139 179 232 283 323
#
# _framework density 19.106804
#
# number of rings (size 3 to 8) (size 9 to 14) (size 15 to 20)
#    0.000    2.000    1.667    3.500    0.000    5.333 
#    0.000    3.333    0.000    5.000    0.000    0.000 
#    0.000    0.000    0.000    0.000    0.000    0.000 
#
# Total GULP energy -297616.863101 kJ/mol
# GULP energy per Si atom -12400.702629 kJ/mol
# Density = 1.906332 g / cm^3
# Si number density = 19.106804 Si / 1000 Ang^3
#
#
#
# Elastic Constant Matrix: (Units=GPa)
#
#
# Indices 1 2 3 4 5 6 
#
# 1 136.6570 11.0158 56.8493 0.0000 -9.9852 0.0000
# 2 11.0158 22.8856 19.1843 0.0000 -11.1043 0.0000
# 3 56.8493 19.1843 119.2209 0.0000 -8.0169 0.0000
# 4 0.0000 0.0000 0.0000 23.2621 0.0000 -4.3031
# 5 -9.9852 -11.1043 -8.0169 0.0000 32.5717 0.0000
# 6 0.0000 0.0000 0.0000 -4.3031 0.0000 10.5931
#
#
#
# Elastic Compliance Matrix: (Units=1/GPa)
#
#
# Indices 1 2 3 4 5 6 
#
# 1 0.009228 0.000011 -0.004283 0.000000 0.001779 0.000000
# 2 0.000011 0.059553 -0.008361 0.000000 0.018248 0.000000
# 3 -0.004283 -0.008361 0.011689 0.000000 -0.001286 0.000000
# 4 0.000000 0.000000 0.000000 0.046481 0.000000 0.018881
# 5 0.001779 0.018248 -0.001286 0.000000 0.037151 0.000000
# 6 0.000000 0.000000 0.000000 0.018881 0.000000 0.102071
#
#
# Mechanical properties :
#
#
# Convention : Reuss Voigt Hill
#
# Bulk Modulus (GPa) = 18.11430 50.31805 34.21617
# Shear Modulus (GPa) = 16.13734 26.06632 21.10183
#
# Velocity S-wave (km/s) = 2.90933 3.69757 3.32688
# Velocity P-wave (km/s) = 4.55925 6.67995 5.71876
#
# Compressibility (1/GPa) = 0.05520500
#
# Stress axis : x y z
#
# Youngs Moduli (GPa) = 108.36343 16.79170 85.55200
#
# Poissons Ratio (x) = -0.00019 0.36638
# Poissons Ratio (y) = -0.00120 0.71531
# Poissons Ratio (z) = 0.46407 0.14040
#
# Static dielectric constant tensor:
#      x y z
#    x 3.632330 0.000000 -0.232740 
#    y 0.000000 3.360160 0.000000 
#    z -0.232740 0.000000 3.642170 
# 
# 
# High freq. dielectric constant tensor:
#      x y z
#    x 1.734810 0.000000 -0.018240 
#    y 0.000000 1.724150 0.000000 
#    z -0.018240 0.000000 1.751720 
# 
# From -- ./inp_files/80126.got.cif
#   From: 2010.06.25/outbox.cif.g09.slc.cpg/sg10_41_cif.got.tgz:80126.got - 2010.06.27 22:07:45.
