data_PCOD8058797
_publ_section_title
;
Structure prediction by ZEFSAII (Michael W. Deem and Ramdas Pophale) SiO2 
 PCOD8058797
Probable space group: P 2/M
;
_chemical_formula_sum "Si O2"
_cell_formula_units_Z 32
_cell_length_a 11.347459
_cell_length_b 8.988322
_cell_length_c 21.075643
_cell_angle_alpha 90.000000
_cell_angle_beta 115.768615
_cell_angle_gamma 90.000000
_cell_volume 1935.839313
_symmetry_space_group_name_H-M "P 2/M"
_symmetry_group_IT_number 10
_symmetry_cell_setting 'monoclinic'
loop_
_space_group_symop_operation_xyz
x,y,z
-x,y,-z
-x,-y,-z
x,-y,z
loop_
_atom_site_type_symbol
_atom_site_label
_atom_site_fract_x
_atom_site_fract_y
_atom_site_fract_z
Si Si1 0.204659 0.177203 0.701552
Si Si2 0.535782 0.177796 0.599301
Si Si3 0.692866 0.677644 0.531281
Si Si4 0.516047 0.823592 0.272164
Si Si5 0.960134 0.172186 0.563136
Si Si6 0.279044 0.164978 0.853115
Si Si7 0.649729 0.334260 0.013383
Si Si8 0.422404 0.165098 0.120276
O O1 0.335830 0.240618 0.698281
O O2 0.199531 0.231589 0.774009
O O3 0.078167 0.233494 0.634230
O O4 0.209690 0.000000 0.701396
O O5 0.400083 0.243955 0.541844
O O6 0.656410 0.256567 0.591950
O O7 0.548040 0.221390 0.676095
O O8 0.537368 0.000000 0.589115
O O9 0.674186 0.500000 0.525767
O O10 0.840083 0.720716 0.549876
O O11 0.426061 0.764524 0.192500
O O12 0.524978 0.000000 0.266891
O O13 0.000000 0.190334 0.500000
O O14 0.925375 0.000000 0.570065
O O15 0.257823 0.260408 0.911666
O O16 0.430340 0.159766 0.870225
O O17 0.228133 0.000000 0.856884
O O18 0.700550 0.500000 0.017643
O O19 0.500000 0.326339 0.000000
O O20 0.667243 0.259237 0.948589
O O21 0.362118 0.000000 0.107373
#
# Coordination Sequence:
#
# PCOD8058797 Si02
#       8
#     4   4   4   4   4   4   4   4
#     4   8  14  25  42  65  88 109 141 183 221 257
#     4  10  18  32  53  70  85 111 150 188 221 258
#     4  11  22  34  46  65  93 119 145 179 222 267
#     4   8  14  25  44  68  88 108 140 183 222 255
#     4  10  19  32  51  70  88 114 149 186 221 259
#     4   8  13  22  36  52  74 107 141 172 208 249
#     4   9  15  21  30  48  76 109 143 174 202 238
#     4   8  13  22  36  55  79 106 136 169 209 254
#
# _framework density 16.530297000000001
#
# number of rings (size 3 to 8) (size 9 to 14) (size 15 to 20)
#    0.000    3.000    0.000    4.875    0.000    3.750 
#    0.000    1.875    0.000    5.250    0.000    0.000 
#    0.000    1.000    0.000   11.500    0.000    7.500 
#
# Total GULP energy -396543.229121 kJ/mol
# GULP energy per Si atom -12391.975910 kJ/mol
# Density = 1.649267 g / cm^3
# Si number density = 16.530297 Si / 1000 Ang^3
#
#
#
# Elastic Constant Matrix: (Units=GPa)
#
#
# Indices 1 2 3 4 5 6 
#
# 1 52.8762 25.4161 38.7965 0.0000 -10.1068 0.0000
# 2 25.4161 78.7289 46.6772 0.0000 -9.5600 0.0000
# 3 38.7965 46.6772 140.5968 0.0000 -22.4603 0.0000
# 4 0.0000 0.0000 0.0000 4.3694 0.0000 1.6485
# 5 -10.1068 -9.5600 -22.4603 0.0000 21.0716 0.0000
# 6 0.0000 0.0000 0.0000 1.6485 0.0000 13.2619
#
#
#
# Elastic Compliance Matrix: (Units=1/GPa)
#
#
# Indices 1 2 3 4 5 6 
#
# 1 0.025651 -0.004914 -0.004625 0.000000 0.005144 0.000000
# 2 -0.004914 0.016820 -0.004080 0.000000 0.000925 0.000000
# 3 -0.004625 -0.004080 0.010959 0.000000 0.007612 0.000000
# 4 0.000000 0.000000 0.000000 0.240123 0.000000 -0.029848
# 5 0.005144 0.000925 0.007612 0.000000 0.058458 0.000000
# 6 0.000000 0.000000 0.000000 -0.029848 0.000000 0.079114
#
#
# Mechanical properties :
#
#
# Convention : Reuss Voigt Hill
#
# Bulk Modulus (GPa) = 38.18076 54.88683 46.53380
# Shear Modulus (GPa) = 10.70449 18.49474 14.59961
#
# Velocity S-wave (km/s) = 2.54750 3.34853 2.97510
# Velocity P-wave (km/s) = 5.63920 6.94450 6.32561
#
# Compressibility (1/GPa) = 0.02619120
#
# Stress axis : x y z
#
# Youngs Moduli (GPa) = 38.98511 59.45417 91.24588
#
# Poissons Ratio (x) = 0.29217 0.42200
# Poissons Ratio (y) = 0.19158 0.37231
# Poissons Ratio (z) = 0.18030 0.24259
#
# Static dielectric constant tensor:
#      x y z
#    x 2.728790 0.000000 -0.175110 
#    y 0.000000 2.980040 0.000000 
#    z -0.175110 0.000000 3.523010 
# 
# 
# High freq. dielectric constant tensor:
#      x y z
#    x 1.578950 0.000000 -0.019090 
#    y 0.000000 1.615520 0.000000 
#    z -0.019090 0.000000 1.651260 
# 
# From -- ./inp_files/52775.got.cif
#   From: 2010.06.25/outbox.cif.g09.slc.cpg/sg10_27_cif.got.tgz:52775.got - 2010.06.27 22:07:45.
