data_PCOD8058203
_publ_section_title
;
Structure prediction by ZEFSAII (Michael W. Deem and Ramdas Pophale) SiO2 
 PCOD8058203
Probable space group: P 2/M
;
_chemical_formula_sum "Si O2"
_cell_formula_units_Z 32
_cell_length_a 24.380183
_cell_length_b 9.577177
_cell_length_c 18.298662
_cell_angle_alpha 90.000000
_cell_angle_beta 26.088017
_cell_angle_gamma 90.000000
_cell_volume 1878.888403
_symmetry_space_group_name_H-M "P 2/M"
_symmetry_group_IT_number 10
_symmetry_cell_setting 'monoclinic'
loop_
_space_group_symop_operation_xyz
x,y,z
-x,y,-z
-x,-y,-z
x,-y,z
loop_
_atom_site_type_symbol
_atom_site_label
_atom_site_fract_x
_atom_site_fract_y
_atom_site_fract_z
Si Si1 0.226932 0.159201 0.553040
Si Si2 0.321572 0.660771 0.028672
Si Si3 0.497443 0.839951 0.281383
Si Si4 0.406437 0.165856 0.548545
Si Si5 0.368140 0.334106 0.133900
Si Si6 0.163351 0.665428 0.492260
Si Si7 0.964161 0.660305 0.621036
Si Si8 0.860473 0.835401 0.182085
O O1 0.375833 0.177676 0.376487
O O2 0.168165 0.260584 0.564039
O O3 0.169273 0.203638 0.699230
O O4 0.191530 0.000000 0.576748
O O5 0.365443 0.500000 0.972262
O O6 0.341738 0.725634 0.084992
O O7 0.176727 0.677488 0.186035
O O8 0.393488 0.745720 0.881189
O O9 0.468315 0.788379 0.398138
O O10 0.542348 0.000000 0.228399
O O11 0.500000 0.225944 0.500000
O O12 0.259088 0.218856 0.725063
O O13 0.401759 0.000000 0.559754
O O14 0.362274 0.500000 0.136579
O O15 0.273529 0.280893 0.308104
O O16 0.500000 0.274779 0.000000
O O17 0.167625 0.500000 0.501077
O O18 0.040519 0.720994 0.597873
O O19 0.006083 0.500000 0.562669
O O20 0.000000 0.732242 0.500000
O O21 0.866839 0.000000 0.162815
O O22 0.000000 0.771066 0.000000
#
# Coordination Sequence:
#
# PCOD8058203 Si02
#       8
#     4   4   4   4   4   4   4   4
#     4   9  18  32  48  69  99 126 148 186 239 282
#     4  10  18  30  49  69  91 121 159 195 229 274
#     4   9  18  32  48  69  99 126 148 186 239 282
#     4   8  14  27  47  68  91 121 155 189 227 275
#     4   9  16  25  42  68  89 109 150 199 224 252
#     4  10  18  30  49  69  91 121 159 195 229 274
#     4   9  16  30  49  67  89 123 161 197 235 271
#     4   8  14  27  47  68  91 121 155 189 227 275
#
# _framework density 17.031345999999999
#
# number of rings (size 3 to 8) (size 9 to 14) (size 15 to 20)
#    0.000    3.000    1.250    2.250    0.000    1.500 
#    2.250    1.250    0.000    3.750    0.000    0.000 
#    0.000    0.000    0.000    0.000    0.000    0.000 
#
# Total GULP energy -396460.205152 kJ/mol
# GULP energy per Si atom -12389.381411 kJ/mol
# Density = 1.699258 g / cm^3
# Si number density = 17.031346 Si / 1000 Ang^3
#
#
#
# Elastic Constant Matrix: (Units=GPa)
#
#
# Indices 1 2 3 4 5 6 
#
# 1 139.1707 28.8691 52.1429 0.0000 -12.2324 0.0000
# 2 28.8691 29.7634 26.7643 0.0000 1.7756 0.0000
# 3 52.1429 26.7643 97.7578 0.0000 -5.5599 0.0000
# 4 0.0000 0.0000 0.0000 50.3645 0.0000 21.5758
# 5 -12.2324 1.7756 -5.5599 0.0000 24.3913 0.0000
# 6 0.0000 0.0000 0.0000 21.5758 0.0000 31.2281
#
#
#
# Elastic Compliance Matrix: (Units=1/GPa)
#
#
# Indices 1 2 3 4 5 6 
#
# 1 0.010379 -0.007489 -0.003200 0.000000 0.005021 0.000000
# 2 -0.007489 0.050891 -0.010499 0.000000 -0.009854 0.000000
# 3 -0.003200 -0.010499 0.014957 0.000000 0.002569 0.000000
# 4 0.000000 0.000000 0.000000 0.028203 0.000000 -0.019486
# 5 0.005021 -0.009854 0.002569 0.000000 0.044819 0.000000
# 6 0.000000 0.000000 0.000000 -0.019486 0.000000 0.045485
#
#
# Mechanical properties :
#
#
# Convention : Reuss Voigt Hill
#
# Bulk Modulus (GPa) = 29.54146 53.58275 41.56210
# Shear Modulus (GPa) = 20.12928 31.79117 25.96023
#
# Velocity S-wave (km/s) = 3.44160 4.32514 3.90841
# Velocity P-wave (km/s) = 5.75985 7.51478 6.69506
#
# Compressibility (1/GPa) = 0.03385074
#
# Stress axis : x y z
#
# Youngs Moduli (GPa) = 96.34571 19.64977 66.85910
#
# Poissons Ratio (x) = 0.14716 0.21396
# Poissons Ratio (y) = 0.72155 0.70195
# Poissons Ratio (z) = 0.30833 0.20630
#
# Static dielectric constant tensor:
#      x y z
#    x 3.418320 0.000000 -0.198010 
#    y 0.000000 2.643720 0.000000 
#    z -0.198010 0.000000 3.281690 
# 
# 
# High freq. dielectric constant tensor:
#      x y z
#    x 1.666230 0.000000 -0.008570 
#    y 0.000000 1.595820 0.000000 
#    z -0.008570 0.000000 1.661290 
# 
# From -- ./inp_files/79925.got.cif
#   From: 2010.06.25/outbox.cif.g09.slc.cpg/sg10_40_cif.got.tgz:79925.got - 2010.06.27 22:07:45.
