data_PCOD8058803
_publ_section_title
;
Structure prediction by ZEFSAII (Michael W. Deem and Ramdas Pophale) SiO2 
 PCOD8058803
Probable space group: P 2/M
;
_chemical_formula_sum "Si O2"
_cell_formula_units_Z 28
_cell_length_a 17.728886
_cell_length_b 8.797162
_cell_length_c 14.277422
_cell_angle_alpha 90.000000
_cell_angle_beta 43.615953
_cell_angle_gamma 90.000000
_cell_volume 1536.067636
_symmetry_space_group_name_H-M "P 2/M"
_symmetry_group_IT_number 10
_symmetry_cell_setting 'monoclinic'
loop_
_space_group_symop_operation_xyz
x,y,z
-x,y,-z
-x,-y,-z
x,-y,z
loop_
_atom_site_type_symbol
_atom_site_label
_atom_site_fract_x
_atom_site_fract_y
_atom_site_fract_z
Si Si1 0.861234 0.679298 0.370272
Si Si2 0.288173 0.322948 0.159439
Si Si3 0.899267 0.323254 0.805121
Si Si4 0.880426 0.680276 0.141953
Si Si5 0.573550 0.680330 0.138650
Si Si6 0.244719 0.821000 0.908842
Si Si7 0.671490 0.681264 0.671626
O O1 0.847556 0.500000 0.378777
O O2 0.862367 0.741949 0.263526
O O3 0.760955 0.750048 0.519514
O O4 0.974374 0.722756 0.320979
O O5 0.311199 0.500000 0.149440
O O6 0.164535 0.291115 0.234614
O O7 0.305871 0.248025 0.245394
O O8 0.374295 0.258677 0.005862
O O9 0.887505 0.500000 0.844990
O O10 0.848393 0.226307 0.934282
O O11 0.868939 0.500000 0.145559
O O12 0.786282 0.756397 0.164685
O O13 0.000000 0.732577 0.000000
O O14 0.587269 0.500000 0.133286
O O15 0.637314 0.754438 0.168118
O O16 0.447845 0.732023 0.256138
O O17 0.253413 0.000000 0.895921
O O18 0.680544 0.500000 0.667283
#
# Coordination Sequence:
#
# PCOD8058803 Si02
#       7
#     4   4   4   4   4   4   4
#     4   9  17  28  46  73 103 130 159 195 241 293
#     4   8  14  24  45  74 102 129 159 197 241 282
#     4   9  16  30  49  73 103 132 158 192 246 296
#     4  10  18  32  53  73  98 129 158 195 245 297
#     4   9  17  31  51  72  99 132 164 198 242 286
#     4  11  21  32  50  75  98 122 164 212 245 280
#     4   9  16  27  46  76 104 127 162 205 237 278
#
# _framework density 18.228363000000002
#
# number of rings (size 3 to 8) (size 9 to 14) (size 15 to 20)
#    0.000    2.714    1.429    2.571    0.000    2.571 
#    0.000    3.571    0.000   12.857    0.000    4.000 
#    0.000    0.000    0.000    0.000    0.000    0.000 
#
# Total GULP energy -347106.989502 kJ/mol
# GULP energy per Si atom -12396.678197 kJ/mol
# Density = 1.818687 g / cm^3
# Si number density = 18.228363 Si / 1000 Ang^3
#
#
#
# Elastic Constant Matrix: (Units=GPa)
#
#
# Indices 1 2 3 4 5 6 
#
# 1 159.8346 30.4586 82.4314 0.0000 -15.1118 0.0000
# 2 30.4586 31.5211 16.9227 0.0000 -1.2843 0.0000
# 3 82.4314 16.9227 126.5853 0.0000 -17.3939 0.0000
# 4 0.0000 0.0000 0.0000 5.5372 0.0000 -0.9487
# 5 -15.1118 -1.2843 -17.3939 0.0000 26.6822 0.0000
# 6 0.0000 0.0000 0.0000 -0.9487 0.0000 3.3053
#
#
#
# Elastic Compliance Matrix: (Units=1/GPa)
#
#
# Indices 1 2 3 4 5 6 
#
# 1 0.010821 -0.007260 -0.005801 0.000000 0.001997 0.000000
# 2 -0.007260 0.039101 -0.000885 0.000000 -0.002807 0.000000
# 3 -0.005801 -0.000885 0.012454 0.000000 0.004791 0.000000
# 4 0.000000 0.000000 0.000000 0.189936 0.000000 0.054516
# 5 0.001997 -0.002807 0.004791 0.000000 0.041597 0.000000
# 6 0.000000 0.000000 0.000000 0.054516 0.000000 0.318187
#
#
# Mechanical properties :
#
#
# Convention : Reuss Voigt Hill
#
# Bulk Modulus (GPa) = 29.00017 64.17406 46.58712
# Shear Modulus (GPa) = 7.67478 19.64683 13.66081
#
# Velocity S-wave (km/s) = 2.05414 3.28657 2.74053
# Velocity P-wave (km/s) = 4.64434 7.04870 5.96884
#
# Compressibility (1/GPa) = 0.03448256
#
# Stress axis : x y z
#
# Youngs Moduli (GPa) = 92.41517 25.57481 80.29391
#
# Poissons Ratio (x) = 0.18567 0.46582
# Poissons Ratio (y) = 0.67094 0.07108
# Poissons Ratio (z) = 0.53614 0.02264
#
# Static dielectric constant tensor:
#      x y z
#    x 3.627950 0.000000 0.001230 
#    y 0.000000 2.795450 0.000000 
#    z 0.001230 0.000000 3.472340 
# 
# 
# High freq. dielectric constant tensor:
#      x y z
#    x 1.723750 0.000000 -0.005410 
#    y 0.000000 1.648440 0.000000 
#    z -0.005410 0.000000 1.690010 
# 
# From -- ./inp_files/68574.got.cif
#   From: 2010.06.25/outbox.cif.g09.slc.cpg/sg10_35_cif.got.tgz:68574.got - 2010.06.27 22:07:45.
