data_PCOD8058463
_publ_section_title
;
Structure prediction by ZEFSAII (Michael W. Deem and Ramdas Pophale) SiO2 
 PCOD8058463
Probable space group: P 2/M
;
_chemical_formula_sum "Si O2"
_cell_formula_units_Z 32
_cell_length_a 28.297763
_cell_length_b 8.736414
_cell_length_c 21.843430
_cell_angle_alpha 90.000000
_cell_angle_beta 18.850501
_cell_angle_gamma 90.000000
_cell_volume 1744.789518
_symmetry_space_group_name_H-M "P 2/M"
_symmetry_group_IT_number 10
_symmetry_cell_setting 'monoclinic'
loop_
_space_group_symop_operation_xyz
x,y,z
-x,y,-z
-x,-y,-z
x,-y,z
loop_
_atom_site_type_symbol
_atom_site_label
_atom_site_fract_x
_atom_site_fract_y
_atom_site_fract_z
Si Si1 0.324189 0.682352 0.603031
Si Si2 0.328965 0.678435 0.964419
Si Si3 0.839932 0.317503 0.075997
Si Si4 0.171483 0.318196 0.666615
Si Si5 0.452281 0.681948 0.991730
Si Si6 0.347788 0.319466 0.805345
Si Si7 0.842034 0.320519 0.708853
Si Si8 0.402529 0.820063 0.300252
O O1 0.324344 0.500000 0.603582
O O2 0.237945 0.746683 0.767597
O O3 0.245557 0.741273 0.638215
O O4 0.489019 0.747763 0.402120
O O5 0.372873 0.500000 0.915828
O O6 0.282049 0.721469 0.952911
O O7 0.471725 0.774242 0.806176
O O8 0.196535 0.717230 0.173089
O O9 0.835724 0.500000 0.081453
O O10 0.756527 0.249500 0.118889
O O11 0.005478 0.259156 0.870873
O O12 0.181953 0.500000 0.647660
O O13 0.248738 0.242513 0.513485
O O14 0.456960 0.500000 0.981881
O O15 0.288420 0.741982 0.175196
O O16 0.500000 0.741133 0.000000
O O17 0.569103 0.747211 0.800821
O O18 0.355536 0.500000 0.787127
O O19 0.854406 0.500000 0.682643
O O20 0.000000 0.243793 0.500000
O O21 0.395794 0.000000 0.301277
#
# Coordination Sequence:
#
# PCOD8058463 Si02
#       8
#     4   4   4   4   4   4   4   4
#     4   9  15  25  45  69  99 131 160 201 255 304
#     4   9  16  30  51  72  97 128 165 204 247 290
#     4   9  17  26  41  73 105 127 157 206 261 304
#     4  10  18  31  49  72 100 129 165 207 250 294
#     4   9  18  34  55  79 103 128 161 201 245 289
#     4   9  15  25  43  71 101 126 156 203 256 301
#     4   8  14  26  46  73 101 125 152 191 235 283
#     4  11  21  33  52  74  98 133 174 205 240 289
#
# _framework density 18.340322
#
# number of rings (size 3 to 8) (size 9 to 14) (size 15 to 20)
#    0.000    2.750    1.250    2.625    0.000    3.250 
#    2.250    0.000    0.000    8.250    0.000    0.875 
#    0.000    0.000    0.000    0.000    0.000    0.000 
#
# Total GULP energy -396694.918051 kJ/mol
# GULP energy per Si atom -12396.716189 kJ/mol
# Density = 1.829858 g / cm^3
# Si number density = 18.340322 Si / 1000 Ang^3
#
#
#
# Elastic Constant Matrix: (Units=GPa)
#
#
# Indices 1 2 3 4 5 6 
#
# 1 165.7746 16.6521 93.6179 0.0000 6.8745 0.0000
# 2 16.6521 17.4297 13.7309 0.0000 2.4784 0.0000
# 3 93.6179 13.7309 167.2234 0.0000 6.9519 0.0000
# 4 0.0000 0.0000 0.0000 3.5670 0.0000 -0.3178
# 5 6.8745 2.4784 6.9519 0.0000 31.4185 0.0000
# 6 0.0000 0.0000 0.0000 -0.3178 0.0000 4.6264
#
#
#
# Elastic Compliance Matrix: (Units=1/GPa)
#
#
# Indices 1 2 3 4 5 6 
#
# 1 0.009233 -0.005010 -0.004733 0.000000 -0.000578 0.000000
# 2 -0.005010 0.064503 -0.002347 0.000000 -0.003473 0.000000
# 3 -0.004733 -0.002347 0.008853 0.000000 -0.000738 0.000000
# 4 0.000000 0.000000 0.000000 0.282075 0.000000 0.019377
# 5 -0.000578 -0.003473 -0.000738 0.000000 0.032392 0.000000
# 6 0.000000 0.000000 0.000000 0.019377 0.000000 0.217484
#
#
# Mechanical properties :
#
#
# Convention : Reuss Voigt Hill
#
# Bulk Modulus (GPa) = 17.12101 66.49217 41.80659
# Shear Modulus (GPa) = 7.59659 23.01747 15.30703
#
# Velocity S-wave (km/s) = 2.03740 3.54647 2.89210
# Velocity P-wave (km/s) = 3.85877 7.28720 5.83067
#
# Compressibility (1/GPa) = 0.05840778
#
# Stress axis : x y z
#
# Youngs Moduli (GPa) = 108.31272 15.50321 112.95131
#
# Poissons Ratio (x) = 0.07767 0.53464
# Poissons Ratio (y) = 0.54261 0.26515
# Poissons Ratio (z) = 0.51268 0.03639
#
# Static dielectric constant tensor:
#      x y z
#    x 3.595450 0.000000 0.028750 
#    y 0.000000 2.742310 0.000000 
#    z 0.028750 0.000000 3.616910 
# 
# 
# High freq. dielectric constant tensor:
#      x y z
#    x 1.715500 0.000000 0.010250 
#    y 0.000000 1.646720 0.000000 
#    z 0.010250 0.000000 1.716990 
# 
# From -- ./inp_files/86877.got.cif
#   From: 2010.06.25/outbox.cif.g09.slc.cpg/sg10_44_cif.got.tgz:86877.got - 2010.06.27 22:07:45.
