data_PCOD8058087
_publ_section_title
;
Structure prediction by ZEFSAII (Michael W. Deem and Ramdas Pophale) SiO2 
 PCOD8058087
Probable space group: P 2/M
;
_chemical_formula_sum "Si O2"
_cell_formula_units_Z 32
_cell_length_a 15.833700
_cell_length_b 9.332800
_cell_length_c 21.595386
_cell_angle_alpha 90.000000
_cell_angle_beta 33.740607
_cell_angle_gamma 90.000000
_cell_volume 1772.506094
_symmetry_space_group_name_H-M "P 2/M"
_symmetry_group_IT_number 10
_symmetry_cell_setting 'monoclinic'
loop_
_space_group_symop_operation_xyz
x,y,z
-x,y,-z
-x,-y,-z
x,-y,z
loop_
_atom_site_type_symbol
_atom_site_label
_atom_site_fract_x
_atom_site_fract_y
_atom_site_fract_z
Si Si1 0.362035 0.666547 0.042944
Si Si2 0.343129 0.663358 0.914024
Si Si3 0.512732 0.665080 0.690347
Si Si4 0.670996 0.653063 0.409630
Si Si5 0.043472 0.168838 0.093860
Si Si6 0.221388 0.666506 0.790213
Si Si7 0.250104 0.833600 0.526888
Si Si8 0.062089 0.834318 0.224589
O O1 0.336422 0.500000 0.072043
O O2 0.207852 0.745034 0.156795
O O3 0.500000 0.727462 0.000000
O O4 0.403234 0.696688 0.946198
O O5 0.281587 0.500000 0.947050
O O6 0.483560 0.685338 0.781251
O O7 0.209366 0.770276 0.976478
O O8 0.539831 0.500000 0.655391
O O9 0.362847 0.722236 0.745155
O O10 0.667058 0.750506 0.579706
O O11 0.500000 0.619273 0.500000
O O12 0.740963 0.500000 0.391825
O O13 0.748995 0.698536 0.299185
O O14 0.676142 0.782409 0.454349
O O15 0.007356 0.208891 0.188352
O O16 0.931869 0.239370 0.110118
O O17 0.041404 0.000000 0.084935
O O18 0.189014 0.500000 0.825008
O O19 0.069732 0.802105 0.644246
O O20 0.282682 0.000000 0.497639
O O21 0.107897 0.000000 0.197020
#
# Coordination Sequence:
#
# PCOD8058087 Si02
#       8
#     4   4   4   4   4   4   4   4
#     4   9  18  34  59  88 106 119 151 201 253 302
#     4   9  19  36  55  73  99 133 165 203 252 306
#     4  10  21  36  50  68  97 138 182 210 243 299
#     4  10  18  30  46  66  94 131 178 223 254 288
#     4  10  19  32  49  70 100 132 170 217 258 296
#     4  10  19  30  46  67  94 132 178 220 251 288
#     4  11  21  32  48  72 103 134 170 214 254 292
#     4   9  19  33  49  75 106 133 161 198 247 300
#
# _framework density 18.053535
#
# number of rings (size 3 to 8) (size 9 to 14) (size 15 to 20)
#    0.000    2.250    2.500    0.750    0.000    3.500 
#    0.000    2.500    0.000    0.750    0.000    5.250 
#    0.000    0.000    0.000    0.000    0.000    0.000 
#
# Total GULP energy -396581.080827 kJ/mol
# GULP energy per Si atom -12393.158776 kJ/mol
# Density = 1.801244 g / cm^3
# Si number density = 18.053535 Si / 1000 Ang^3
#
#
#
# Elastic Constant Matrix: (Units=GPa)
#
#
# Indices 1 2 3 4 5 6 
#
# 1 76.1460 41.7960 48.4922 0.0000 -14.2838 0.0000
# 2 41.7960 67.3008 50.7542 0.0000 -5.8032 0.0000
# 3 48.4922 50.7542 105.5701 0.0000 0.5557 0.0000
# 4 0.0000 0.0000 0.0000 30.3170 0.0000 -3.7742
# 5 -14.2838 -5.8032 0.5557 0.0000 19.5555 0.0000
# 6 0.0000 0.0000 0.0000 -3.7742 0.0000 15.0202
#
#
#
# Elastic Compliance Matrix: (Units=1/GPa)
#
#
# Indices 1 2 3 4 5 6 
#
# 1 0.026107 -0.008892 -0.007805 0.000000 0.016653 0.000000
# 2 -0.008892 0.027409 -0.009103 0.000000 0.001898 0.000000
# 3 -0.007805 -0.009103 0.017481 0.000000 -0.008899 0.000000
# 4 0.000000 0.000000 0.000000 0.034050 0.000000 0.008556
# 5 0.016653 0.001898 -0.008899 0.000000 0.064116 0.000000
# 6 0.000000 0.000000 0.000000 0.008556 0.000000 0.068727
#
#
# Mechanical properties :
#
#
# Convention : Reuss Voigt Hill
#
# Bulk Modulus (GPa) = 51.55148 59.01130 55.28139
# Shear Modulus (GPa) = 16.89441 20.17684 18.53563
#
# Velocity S-wave (km/s) = 3.06240 3.34670 3.20770
# Velocity P-wave (km/s) = 6.41258 6.90591 6.66381
#
# Compressibility (1/GPa) = 0.01939808
#
# Stress axis : x y z
#
# Youngs Moduli (GPa) = 38.30319 36.48385 57.20565
#
# Poissons Ratio (x) = 0.32440 0.44649
# Poissons Ratio (y) = 0.34058 0.52075
# Poissons Ratio (z) = 0.29896 0.33212
#
# Static dielectric constant tensor:
#      x y z
#    x 3.082710 0.000000 0.022040 
#    y 0.000000 3.358990 0.000000 
#    z 0.022040 0.000000 3.404350 
# 
# 
# High freq. dielectric constant tensor:
#      x y z
#    x 1.656760 0.000000 0.000860 
#    y 0.000000 1.698550 0.000000 
#    z 0.000860 0.000000 1.702790 
# 
# From -- ./inp_files/84729.got.cif
#   From: 2010.06.25/outbox.cif.g09.slc.cpg/sg10_43_cif.got.tgz:84729.got - 2010.06.27 22:07:45.
