data_PCOD8058089
_publ_section_title
;
Structure prediction by ZEFSAII (Michael W. Deem and Ramdas Pophale) SiO2 
 PCOD8058089
Probable space group: P 2/M
;
_chemical_formula_sum "Si O2"
_cell_formula_units_Z 32
_cell_length_a 14.245076
_cell_length_b 9.109241
_cell_length_c 15.271367
_cell_angle_alpha 90.000000
_cell_angle_beta 87.713040
_cell_angle_gamma 90.000000
_cell_volume 1980.062163
_symmetry_space_group_name_H-M "P 2/M"
_symmetry_group_IT_number 10
_symmetry_cell_setting 'monoclinic'
loop_
_space_group_symop_operation_xyz
x,y,z
-x,y,-z
-x,-y,-z
x,-y,z
loop_
_atom_site_type_symbol
_atom_site_label
_atom_site_fract_x
_atom_site_fract_y
_atom_site_fract_z
Si Si1 0.609978 0.326559 0.398909
Si Si2 0.091253 0.171190 0.817867
Si Si3 0.219477 0.670946 0.314079
Si Si4 0.107586 0.669848 0.492507
Si Si5 0.208789 0.826883 0.645148
Si Si6 0.597883 0.326990 0.597047
Si Si7 0.111334 0.334344 0.987701
Si Si8 0.125075 0.172438 0.159640
O O1 0.628024 0.500000 0.391662
O O2 0.688564 0.241687 0.340257
O O3 0.616103 0.267742 0.498502
O O4 0.506478 0.284542 0.365358
O O5 0.141429 0.220100 0.726975
O O6 0.981987 0.213067 0.812352
O O7 0.103661 0.000000 0.837228
O O8 0.140249 0.257878 0.895662
O O9 0.221984 0.500000 0.287762
O O10 0.144769 0.698414 0.393747
O O11 0.322107 0.730234 0.340041
O O12 0.192121 0.766169 0.231964
O O13 0.118831 0.500000 0.518865
O O14 0.167421 0.765338 0.556970
O O15 0.000000 0.721126 0.500000
O O16 0.217732 0.000000 0.637171
O O17 0.606558 0.500000 0.588676
O O18 0.150199 0.500000 0.987120
O O19 0.155865 0.246139 0.067083
O O20 0.000000 0.330377 0.000000
O O21 0.139767 0.000000 0.150160
#
# Coordination Sequence:
#
# PCOD8058089 Si02
#       8
#     4   4   4   4   4   4   4   4
#     4   9  16  31  51  67  86 118 160 199 239 282
#     4   9  19  33  46  64  95 130 158 185 226 280
#     4  10  18  30  46  67  93 121 157 197 233 271
#     4  10  20  32  46  64  90 127 166 198 227 265
#     4  11  21  31  45  68  97 127 156 191 235 279
#     4   8  15  29  50  68  86 118 157 200 243 277
#     4   9  17  30  49  71  91 115 153 199 236 265
#     4  10  19  31  47  67  94 128 158 186 227 279
#
# _framework density 16.161107999999999
#
# number of rings (size 3 to 8) (size 9 to 14) (size 15 to 20)
#    0.000    2.500    1.250    2.625    0.000    3.750 
#    0.000    1.875    0.000    0.000    0.000    0.875 
#    0.000    7.000    0.000    0.000    0.000    0.000 
#
# Total GULP energy -396775.929411 kJ/mol
# GULP energy per Si atom -12399.247794 kJ/mol
# Density = 1.612432 g / cm^3
# Si number density = 16.161108 Si / 1000 Ang^3
#
#
#
# Elastic Constant Matrix: (Units=GPa)
#
#
# Indices 1 2 3 4 5 6 
#
# 1 89.5945 28.4374 29.5361 0.0000 16.7267 0.0000
# 2 28.4374 59.0885 36.9083 0.0000 9.1445 0.0000
# 3 29.5361 36.9083 77.1266 0.0000 21.6339 0.0000
# 4 0.0000 0.0000 0.0000 29.2068 0.0000 1.2656
# 5 16.7267 9.1445 21.6339 0.0000 17.3561 0.0000
# 6 0.0000 0.0000 0.0000 1.2656 0.0000 17.2860
#
#
#
# Elastic Compliance Matrix: (Units=1/GPa)
#
#
# Indices 1 2 3 4 5 6 
#
# 1 0.015067 -0.005548 0.000212 0.000000 -0.011862 0.000000
# 2 -0.005548 0.026258 -0.012393 0.000000 0.006960 0.000000
# 3 0.000212 -0.012393 0.026202 0.000000 -0.026335 0.000000
# 4 0.000000 0.000000 0.000000 0.034348 0.000000 -0.002515
# 5 -0.011862 0.006960 -0.026335 0.000000 0.098207 0.000000
# 6 0.000000 0.000000 0.000000 -0.002515 0.000000 0.058035
#
#
# Mechanical properties :
#
#
# Convention : Reuss Voigt Hill
#
# Bulk Modulus (GPa) = 31.18279 46.17480 38.67879
# Shear Modulus (GPa) = 16.43314 21.49829 18.96571
#
# Velocity S-wave (km/s) = 3.19224 3.65121 3.42941
# Velocity P-wave (km/s) = 5.73795 6.81240 6.29813
#
# Compressibility (1/GPa) = 0.03206898
#
# Stress axis : x y z
#
# Youngs Moduli (GPa) = 66.37041 38.08388 38.16521
#
# Poissons Ratio (x) = 0.21129 -0.00810
# Poissons Ratio (y) = 0.36823 0.47298
# Poissons Ratio (z) = -0.01409 0.47198
#
# Static dielectric constant tensor:
#      x y z
#    x 3.220930 0.000000 0.057700 
#    y 0.000000 2.959100 0.000000 
#    z 0.057700 0.000000 2.996460 
# 
# 
# High freq. dielectric constant tensor:
#      x y z
#    x 1.606040 0.000000 0.004880 
#    y 0.000000 1.614760 0.000000 
#    z 0.004880 0.000000 1.607280 
# 
# From -- ./inp_files/66035.got.cif
#   From: 2010.06.25/outbox.cif.g09.slc.cpg/sg10_34_cif.got.tgz:66035.got - 2010.06.27 22:07:45.
