data_PCOD8058731
_publ_section_title
;
Structure prediction by ZEFSAII (Michael W. Deem and Ramdas Pophale) SiO2 
 PCOD8058731
Probable space group: P 2/M
;
_chemical_formula_sum "Si O2"
_cell_formula_units_Z 32
_cell_length_a 21.031450
_cell_length_b 13.016846
_cell_length_c 21.008691
_cell_angle_alpha 90.000000
_cell_angle_beta 159.509694
_cell_angle_gamma 90.000000
_cell_volume 2013.273104
_symmetry_space_group_name_H-M "P 2/M"
_symmetry_group_IT_number 10
_symmetry_cell_setting 'monoclinic'
loop_
_space_group_symop_operation_xyz
x,y,z
-x,y,-z
-x,-y,-z
x,-y,z
loop_
_atom_site_type_symbol
_atom_site_label
_atom_site_fract_x
_atom_site_fract_y
_atom_site_fract_z
Si Si1 0.742789 0.877582 0.382603
Si Si2 0.212751 0.887880 0.710909
Si Si3 0.706949 0.117014 0.711143
Si Si4 0.565943 0.617564 0.491789
Si Si5 0.302042 0.234877 0.172602
Si Si6 0.142352 0.122635 0.779057
Si Si7 0.391640 0.121783 0.127540
Si Si8 0.067162 0.704192 0.131488
O O1 0.705504 0.831811 0.275747
O O2 0.588646 0.843789 0.287157
O O3 0.935063 0.837629 0.590219
O O4 0.746356 0.000000 0.378871
O O5 0.237905 0.832265 0.803576
O O6 0.000000 0.900477 0.500000
O O7 0.304575 0.000000 0.801963
O O8 0.500000 0.138833 0.500000
O O9 0.728687 0.144599 0.805346
O O10 0.840400 0.184284 0.792493
O O11 0.763426 0.000000 0.752189
O O12 0.500000 0.650848 0.500000
O O13 0.517967 0.500000 0.431669
O O14 0.461351 0.686857 0.342297
O O15 0.784054 0.631895 0.695023
O O16 0.355796 0.184515 0.157131
O O17 0.106315 0.291468 0.984122
O O18 0.146653 0.000000 0.777788
O O19 0.246853 0.159301 0.939514
O O20 0.380033 0.000000 0.129710
O O21 0.000000 0.659256 0.000000
#
# Coordination Sequence:
#
# PCOD8058731 Si02
#       8
#     4   4   4   4   4   4   4   4
#     4   8  14  25  39  56  80 116 159 197 228 252
#     4   7  10  19  37  55  75 107 153 202 232 250
#     4  10  18  32  50  66  90 122 156 189 216 249
#     4  11  21  37  57  76  92 105 135 188 245 291
#     4  11  21  34  48  68  95 121 151 184 225 275
#     4   8  14  25  37  55  82 115 157 199 228 250
#     4  10  20  29  40  61  92 128 162 187 212 259
#     4  10  19  34  51  73  92 113 145 182 228 274
#
# _framework density 15.894515
#
# number of rings (size 3 to 8) (size 9 to 14) (size 15 to 20)
#    0.000    2.625    3.750    1.875    0.000    5.000 
#    0.000    2.500    0.000    0.000    0.000    0.000 
#    0.000    0.000    0.000    2.250    0.000   15.750 
#
# Total GULP energy -396458.055877 kJ/mol
# GULP energy per Si atom -12389.314246 kJ/mol
# Density = 1.585834 g / cm^3
# Si number density = 15.894515 Si / 1000 Ang^3
#
#
#
# Elastic Constant Matrix: (Units=GPa)
#
#
# Indices 1 2 3 4 5 6 
#
# 1 129.6416 29.1606 59.2014 0.0000 6.5060 0.0000
# 2 29.1606 41.5355 25.0039 0.0000 -5.5504 0.0000
# 3 59.2014 25.0039 113.3190 0.0000 7.0660 0.0000
# 4 0.0000 0.0000 0.0000 11.7121 0.0000 -0.5369
# 5 6.5060 -5.5504 7.0660 0.0000 25.6660 0.0000
# 6 0.0000 0.0000 0.0000 -0.5369 0.0000 7.6517
#
#
#
# Elastic Compliance Matrix: (Units=1/GPa)
#
#
# Indices 1 2 3 4 5 6 
#
# 1 0.011110 -0.005517 -0.004413 0.000000 -0.002794 0.000000
# 2 -0.005517 0.032139 -0.004812 0.000000 0.009673 0.000000
# 3 -0.004413 -0.004812 0.012400 0.000000 -0.003336 0.000000
# 4 0.000000 0.000000 0.000000 0.085657 0.000000 0.006011
# 5 -0.002794 0.009673 -0.003336 0.000000 0.042681 0.000000
# 6 0.000000 0.000000 0.000000 0.006011 0.000000 0.131112
#
#
# Mechanical properties :
#
#
# Convention : Reuss Voigt Hill
#
# Bulk Modulus (GPa) = 38.21967 56.80309 47.51138
# Shear Modulus (GPa) = 14.15214 20.41464 17.28339
#
# Velocity S-wave (km/s) = 2.98716 3.58772 3.30112
# Velocity P-wave (km/s) = 5.99963 7.27856 6.66982
#
# Compressibility (1/GPa) = 0.02616454
#
# Stress axis : x y z
#
# Youngs Moduli (GPa) = 90.01118 31.11518 80.64668
#
# Poissons Ratio (x) = 0.17166 0.35586
# Poissons Ratio (y) = 0.49658 0.38811
# Poissons Ratio (z) = 0.39718 0.14974
#
# Static dielectric constant tensor:
#      x y z
#    x 3.048700 0.000000 0.047640 
#    y 0.000000 2.499220 0.000000 
#    z 0.047640 0.000000 3.336760 
# 
# 
# High freq. dielectric constant tensor:
#      x y z
#    x 1.599740 0.000000 0.005290 
#    y 0.000000 1.538820 0.000000 
#    z 0.005290 0.000000 1.629210 
# 
# From -- ./inp_files/86372.got.cif
#   From: 2010.06.25/outbox.cif.g09.slc.cpg/sg10_44_cif.got.tgz:86372.got - 2010.06.27 22:07:45.
