data_PCOD8058882
_publ_section_title
;
Structure prediction by ZEFSAII (Michael W. Deem and Ramdas Pophale) SiO2 
 PCOD8058882
Probable space group: P 2/M
;
_chemical_formula_sum "Si O2"
_cell_formula_units_Z 32
_cell_length_a 9.050723
_cell_length_b 24.071853
_cell_length_c 15.263518
_cell_angle_alpha 90.000000
_cell_angle_beta 150.787397
_cell_angle_gamma 90.000000
_cell_volume 1622.980240
_symmetry_space_group_name_H-M "P 2/M"
_symmetry_group_IT_number 10
_symmetry_cell_setting 'monoclinic'
loop_
_space_group_symop_operation_xyz
x,y,z
-x,y,-z
-x,-y,-z
x,-y,z
loop_
_atom_site_type_symbol
_atom_site_label
_atom_site_fract_x
_atom_site_fract_y
_atom_site_fract_z
Si Si1 0.279624 0.869263 0.967642
Si Si2 0.644773 0.148864 0.805561
Si Si3 0.143644 0.758928 0.829236
Si Si4 0.303185 0.064464 0.313818
Si Si5 0.850827 0.364135 0.163741
Si Si6 0.691016 0.562890 0.687554
Si Si7 0.218468 0.757061 0.536351
Si Si8 0.794172 0.369572 0.473671
O O1 0.075795 0.812100 0.855360
O O2 0.046826 0.920243 0.849972
O O3 0.500000 0.878367 0.000000
O O4 0.478080 0.865269 0.159878
O O5 0.563774 0.097733 0.700214
O O6 0.514275 0.205099 0.696005
O O7 0.000000 0.157053 0.000000
O O8 0.077618 0.698109 0.835913
O O9 0.951543 0.766378 0.642369
O O10 0.500000 0.761890 0.000000
O O11 0.500000 0.079849 0.500000
O O12 0.323717 0.000000 0.301065
O O13 0.988892 0.406089 0.163278
O O14 0.004435 0.372641 0.336218
O O15 0.500000 0.375909 0.000000
O O16 0.500000 0.565410 0.500000
O O17 0.761086 0.500000 0.752229
O O18 0.502869 0.592077 0.668406
O O19 0.317246 0.693195 0.601402
O O20 0.000000 0.776927 0.500000
O O21 0.000000 0.391559 0.500000
#
# Coordination Sequence:
#
# PCOD8058882 Si02
#       8
#     4   4   4   4   4   4   4   4
#     4  10  20  35  56  82 110 140 179 221 267 321
#     4  10  22  36  55  83 113 144 179 220 273 327
#     4   9  17  30  51  79 109 138 173 218 271 327
#     4  10  22  40  58  77 106 145 186 225 268 317
#     4   9  18  33  54  78 105 139 176 220 271 323
#     4   9  18  33  52  74 102 139 183 223 264 323
#     4  10  18  32  54  79 110 141 176 222 270 325
#     4   9  19  34  52  77 105 139 178 219 272 324
#
# _framework density 19.716813999999999
#
# number of rings (size 3 to 8) (size 9 to 14) (size 15 to 20)
#    0.000    2.500    0.000    2.250    0.000    6.000 
#    0.000    4.375    0.000    2.625    0.000    0.000 
#    0.000    0.000    0.000    0.000    0.000    0.000 
#
# Total GULP energy -396642.226922 kJ/mol
# GULP energy per Si atom -12395.069591 kJ/mol
# Density = 1.967194 g / cm^3
# Si number density = 19.716814 Si / 1000 Ang^3
#
#
#
# Elastic Constant Matrix: (Units=GPa)
#
#
# Indices 1 2 3 4 5 6 
#
# 1 116.1976 61.6408 26.8913 0.0000 -1.5487 0.0000
# 2 61.6408 127.7745 48.6491 0.0000 -0.9856 0.0000
# 3 26.8913 48.6491 78.3519 0.0000 -2.2600 0.0000
# 4 0.0000 0.0000 0.0000 27.0689 0.0000 4.6330
# 5 -1.5487 -0.9856 -2.2600 0.0000 24.6114 0.0000
# 6 0.0000 0.0000 0.0000 4.6330 0.0000 22.9005
#
#
#
# Elastic Compliance Matrix: (Units=1/GPa)
#
#
# Indices 1 2 3 4 5 6 
#
# 1 0.011597 -0.005344 -0.000649 0.000000 0.000456 0.000000
# 2 -0.005344 0.012713 -0.006070 0.000000 -0.000385 0.000000
# 3 -0.000649 -0.006070 0.016791 0.000000 0.001258 0.000000
# 4 0.000000 0.000000 0.000000 0.038268 0.000000 -0.007742
# 5 0.000456 -0.000385 0.001258 0.000000 0.040760 0.000000
# 6 0.000000 0.000000 0.000000 -0.007742 0.000000 0.045234
#
#
# Mechanical properties :
#
#
# Convention : Reuss Voigt Hill
#
# Bulk Modulus (GPa) = 58.91300 66.29851 62.60575
# Shear Modulus (GPa) = 25.62165 27.25900 26.44032
#
# Velocity S-wave (km/s) = 3.60874 3.72227 3.66594
# Velocity P-wave (km/s) = 6.87812 7.22302 7.05268
#
# Compressibility (1/GPa) = 0.01697418
#
# Stress axis : x y z
#
# Youngs Moduli (GPa) = 86.22719 78.66188 59.55571
#
# Poissons Ratio (x) = 0.42038 0.03865
# Poissons Ratio (y) = 0.46081 0.36152
# Poissons Ratio (z) = 0.05596 0.47750
#
# Static dielectric constant tensor:
#      x y z
#    x 3.707620 0.000000 -0.124950 
#    y 0.000000 3.905720 0.000000 
#    z -0.124950 0.000000 3.523440 
# 
# 
# High freq. dielectric constant tensor:
#      x y z
#    x 1.762850 0.000000 -0.004400 
#    y 0.000000 1.768730 0.000000 
#    z -0.004400 0.000000 1.758770 
# 
# From -- ./inp_files/62703.got.cif
#   From: 2010.06.25/outbox.cif.g09.slc.cpg/sg10_32_cif.got.tgz:62703.got - 2010.06.27 22:07:45.
