data_PCOD8058714
_publ_section_title
;
Structure prediction by ZEFSAII (Michael W. Deem and Ramdas Pophale) SiO2 
 PCOD8058714
Probable space group: P 2/M
;
_chemical_formula_sum "Si O2"
_cell_formula_units_Z 24
_cell_length_a 26.032035
_cell_length_b 10.304232
_cell_length_c 10.094789
_cell_angle_alpha 90.000000
_cell_angle_beta 149.834606
_cell_angle_gamma 90.000000
_cell_volume 1360.677474
_symmetry_space_group_name_H-M "P 2/M"
_symmetry_group_IT_number 10
_symmetry_cell_setting 'monoclinic'
loop_
_space_group_symop_operation_xyz
x,y,z
-x,y,-z
-x,-y,-z
x,-y,z
loop_
_atom_site_type_symbol
_atom_site_label
_atom_site_fract_x
_atom_site_fract_y
_atom_site_fract_z
Si Si1 0.061610 0.151322 0.505412
Si Si2 0.597439 0.500000 0.122219
Si Si3 0.727002 0.248955 0.409685
Si Si4 0.270420 0.751952 0.890297
Si Si5 0.407142 0.000000 0.891617
Si Si6 0.593889 0.000000 0.806775
Si Si7 0.927242 0.851035 0.961780
Si Si8 0.400633 0.500000 0.185562
O O1 0.165537 0.235377 0.739184
O O2 0.000000 0.178736 0.500000
O O3 0.090477 0.000000 0.551124
O O4 0.988216 0.198851 0.224741
O O5 0.664565 0.376009 0.309435
O O6 0.500000 0.500000 0.000000
O O7 0.566668 0.500000 0.897248
O O8 0.761123 0.251167 0.333339
O O9 0.828313 0.240018 0.724750
O O10 0.657823 0.125972 0.285384
O O11 0.340659 0.873836 0.079384
O O12 0.332061 0.624024 0.068984
O O13 0.500000 0.000000 0.000000
O O14 0.445201 0.000000 0.128671
O O15 0.500000 0.000000 0.500000
O O16 0.891255 0.000000 0.897729
O O17 0.000000 0.835796 0.000000
O O18 0.500000 0.500000 0.500000
#
# Coordination Sequence:
#
# PCOD8058714 Si02
#       8
#     4   2   4   4   2   2   4   2
#     4  10  20  35  54  84 118 143 174 223 281 318
#     4  10  22  40  58  77 114 146 176 231 281 316
#     4  10  19  35  57  82 105 145 183 216 274 323
#     4  10  19  36  58  78 108 144 181 224 268 323
#     4  10  20  34  52  79 110 130 178 237 267 312
#     4  10  20  34  54  78 104 138 180 226 273 318
#     4  10  18  31  58  83 109 142 182 219 264 335
#     4  10  22  40  60  78 104 150 192 218 267 336
#
# _framework density 17.638272000000001
#
# number of rings (size 3 to 8) (size 9 to 14) (size 15 to 20)
#    0.000    2.000    3.333    1.000    0.000    0.000 
#    6.000    1.667    0.000    0.000    0.000    0.000 
#    0.000    0.000    0.000    0.000    0.000    0.000 
#
# Total GULP energy -297632.131098 kJ/mol
# GULP energy per Si atom -12401.338796 kJ/mol
# Density = 1.759813 g / cm^3
# Si number density = 17.638272 Si / 1000 Ang^3
#
#
#
# Elastic Constant Matrix: (Units=GPa)
#
#
# Indices 1 2 3 4 5 6 
#
# 1 93.6054 43.0169 64.9483 0.0000 13.4101 0.0000
# 2 43.0169 131.2511 66.5263 0.0000 14.7123 0.0000
# 3 64.9483 66.5263 160.2110 0.0000 5.5834 0.0000
# 4 0.0000 0.0000 0.0000 5.2427 0.0000 16.1327
# 5 13.4101 14.7123 5.5834 0.0000 26.5989 0.0000
# 6 0.0000 0.0000 0.0000 16.1327 0.0000 13.3809
#
#
#
# Elastic Compliance Matrix: (Units=1/GPa)
#
#
# Indices 1 2 3 4 5 6 
#
# 1 0.016293 -0.001802 -0.005647 0.000000 -0.006033 0.000000
# 2 -0.001802 0.010423 -0.003454 0.000000 -0.004132 0.000000
# 3 -0.005647 -0.003454 0.009872 0.000000 0.002685 0.000000
# 4 0.000000 0.000000 0.000000 -0.070384 0.000000 0.084859
# 5 -0.006033 -0.004132 0.002685 0.000000 0.042359 0.000000
# 6 0.000000 0.000000 0.000000 0.084859 0.000000 -0.027577
#
#
# Mechanical properties :
#
#
# Convention : Reuss Voigt Hill
#
# Bulk Modulus (GPa) = 67.64270 81.56118 74.60194
# Shear Modulus (GPa) = 647.77655 23.08288 335.42971
#
# Velocity S-wave (km/s) = 19.18472 3.62149 13.80523
# Velocity P-wave (km/s) = 23.00372 7.98927 17.21917
#
# Compressibility (1/GPa) = 0.01478356
#
# Stress axis : x y z
#
# Youngs Moduli (GPa) = 61.37430 95.93963 101.30139
#
# Poissons Ratio (x) = 0.17285 0.57204
# Poissons Ratio (y) = 0.11058 0.34987
# Poissons Ratio (z) = 0.34657 0.33135
#
# Static dielectric constant tensor:
#      x y z
#    x 3.141370 0.000000 0.051630 
#    y 0.000000 3.435170 0.000000 
#    z 0.051630 0.000000 3.277870 
# 
# 
# High freq. dielectric constant tensor:
#      x y z
#    x 1.673970 0.000000 0.007560 
#    y 0.000000 1.674800 0.000000 
#    z 0.007560 0.000000 1.687920 
# 
# From -- ./inp_files/36231.got.cif
#   From: 2010.06.25/outbox.cif.g09.slc.cpg/sg10_19_cif.got.tgz:36231.got - 2010.06.27 22:07:45.
