data_PCOD8058115
_publ_section_title
;
Structure prediction by ZEFSAII (Michael W. Deem and Ramdas Pophale) SiO2 
 PCOD8058115
Probable space group: P 2/M
;
_chemical_formula_sum "Si O2"
_cell_formula_units_Z 32
_cell_length_a 25.869361
_cell_length_b 8.832472
_cell_length_c 21.488267
_cell_angle_alpha 90.000000
_cell_angle_beta 20.782326
_cell_angle_gamma 90.000000
_cell_volume 1742.110572
_symmetry_space_group_name_H-M "P 2/M"
_symmetry_group_IT_number 10
_symmetry_cell_setting 'monoclinic'
loop_
_space_group_symop_operation_xyz
x,y,z
-x,y,-z
-x,-y,-z
x,-y,z
loop_
_atom_site_type_symbol
_atom_site_label
_atom_site_fract_x
_atom_site_fract_y
_atom_site_fract_z
Si Si1 0.968632 0.681697 0.103859
Si Si2 0.853264 0.668563 0.984134
Si Si3 0.648319 0.820575 0.864583
Si Si4 0.135333 0.330600 0.583983
Si Si5 0.245486 0.820740 0.121378
Si Si6 0.916661 0.177747 0.483720
Si Si7 0.700535 0.679771 0.482702
Si Si8 0.375767 0.318754 0.850973
O O1 0.973208 0.500000 0.099319
O O2 0.091444 0.746370 0.013826
O O3 0.000000 0.747132 0.000000
O O4 0.810162 0.739745 0.305541
O O5 0.803360 0.500000 0.058185
O O6 0.718169 0.749183 0.101165
O O7 0.979977 0.663828 0.791222
O O8 0.660401 0.775577 0.923646
O O9 0.793162 0.753241 0.668266
O O10 0.647029 0.000000 0.858103
O O11 0.500000 0.753821 0.000000
O O12 0.177033 0.500000 0.514122
O O13 0.131994 0.215779 0.531058
O O14 0.251284 0.264734 0.503026
O O15 0.078872 0.759158 0.316104
O O16 0.243896 0.000000 0.112773
O O17 0.321700 0.743878 0.977229
O O18 0.920642 0.000000 0.488274
O O19 0.709556 0.500000 0.472777
O O20 0.538380 0.738774 0.653144
O O21 0.364532 0.500000 0.866741
#
# Coordination Sequence:
#
# PCOD8058115 Si02
#       8
#     4   4   4   4   4   4   4   4
#     4   8  13  24  42  64  93 128 159 185 220 268
#     4   8  14  25  42  63  89 122 153 180 219 271
#     4   9  19  34  49  65  89 121 151 187 237 285
#     4   9  16  29  46  65  90 122 152 180 224 278
#     4  10  20  33  49  69  92 119 154 192 231 274
#     4  10  19  31  49  70  90 114 151 192 232 274
#     4   8  16  27  42  65  94 125 153 185 228 271
#     4  10  18  30  47  68  96 125 153 187 232 277
#
# _framework density 18.368524000000001
#
# number of rings (size 3 to 8) (size 9 to 14) (size 15 to 20)
#    0.000    3.000    1.250    1.875    1.750    1.500 
#    0.000    1.250    0.000    6.000    0.000    0.000 
#    0.000   19.000    0.000    0.000    0.000    0.000 
#
# Total GULP energy -396484.209799 kJ/mol
# GULP energy per Si atom -12390.131556 kJ/mol
# Density = 1.832672 g / cm^3
# Si number density = 18.368524 Si / 1000 Ang^3
#
#
#
# Elastic Constant Matrix: (Units=GPa)
#
#
# Indices 1 2 3 4 5 6 
#
# 1 169.2242 9.0479 97.1537 0.0000 -8.7682 0.0000
# 2 9.0479 5.7419 10.9086 0.0000 -1.4961 0.0000
# 3 97.1537 10.9086 125.6201 0.0000 -17.2580 0.0000
# 4 0.0000 0.0000 0.0000 4.3627 0.0000 -13.3110
# 5 -8.7682 -1.4961 -17.2580 0.0000 31.3258 0.0000
# 6 0.0000 0.0000 0.0000 -13.3110 0.0000 -13.0038
#
#
#
# Elastic Compliance Matrix: (Units=1/GPa)
#
#
# Indices 1 2 3 4 5 6 
#
# 1 0.010720 -0.001366 -0.008405 0.000000 -0.001695 0.000000
# 2 -0.001366 0.208739 -0.017043 0.000000 0.000198 0.000000
# 3 -0.008405 -0.017043 0.016776 0.000000 0.006075 0.000000
# 4 0.000000 0.000000 0.000000 0.055592 0.000000 -0.056905
# 5 -0.001695 0.000198 0.006075 0.000000 0.034805 0.000000
# 6 0.000000 0.000000 0.000000 -0.056905 0.000000 -0.018651
#
#
# Mechanical properties :
#
#
# Convention : Reuss Voigt Hill
#
# Bulk Modulus (GPa) = 5.47624 59.42294 32.44959
# Shear Modulus (GPa) = 11.83497 16.76869 14.30183
#
# Velocity S-wave (km/s) = 2.54107 3.02471 2.79338
# Velocity P-wave (km/s) = 3.40547 6.67975 5.30171
#
# Compressibility (1/GPa) = 0.18260705
#
# Stress axis : x y z
#
# Youngs Moduli (GPa) = 93.28433 4.79067 59.61069
#
# Poissons Ratio (x) = 0.00654 0.50103
# Poissons Ratio (y) = 0.12740 1.01595
# Poissons Ratio (z) = 0.78405 0.08165
#
# Static dielectric constant tensor:
#      x y z
#    x 3.731440 0.000000 -0.217310 
#    y 0.000000 2.835760 0.000000 
#    z -0.217310 0.000000 3.611280 
# 
# 
# High freq. dielectric constant tensor:
#      x y z
#    x 1.725180 0.000000 -0.011170 
#    y 0.000000 1.646190 0.000000 
#    z -0.011170 0.000000 1.708490 
# 
# From -- ./inp_files/32188.got.cif
#   From: 2010.06.25/outbox.cif.g09.slc.cpg/sg10_17_cif.got.tgz:32188.got - 2010.06.27 22:07:45.
