data_PCOD8058269
_publ_section_title
;
Structure prediction by ZEFSAII (Michael W. Deem and Ramdas Pophale) SiO2 
 PCOD8058269
Probable space group: P 2/M
;
_chemical_formula_sum "Si O2"
_cell_formula_units_Z 28
_cell_length_a 9.241212
_cell_length_b 9.063940
_cell_length_c 29.251747
_cell_angle_alpha 90.000000
_cell_angle_beta 38.214547
_cell_angle_gamma 90.000000
_cell_volume 1515.699911
_symmetry_space_group_name_H-M "P 2/M"
_symmetry_group_IT_number 10
_symmetry_cell_setting 'monoclinic'
loop_
_space_group_symop_operation_xyz
x,y,z
-x,y,-z
-x,-y,-z
x,-y,z
loop_
_atom_site_type_symbol
_atom_site_label
_atom_site_fract_x
_atom_site_fract_y
_atom_site_fract_z
Si Si1 0.922121 0.325097 0.291668
Si Si2 0.406556 0.174895 0.698571
Si Si3 0.020503 0.162867 0.861436
Si Si4 0.690272 0.834943 0.856015
Si Si5 0.331450 0.665163 0.998278
Si Si6 0.104619 0.671828 0.424383
Si Si7 0.759408 0.325815 0.431581
O O1 0.923407 0.500000 0.283806
O O2 0.712257 0.257152 0.314368
O O3 0.878303 0.278987 0.354707
O O4 0.174727 0.260074 0.215587
O O5 0.270761 0.215508 0.779500
O O6 0.668407 0.229430 0.639055
O O7 0.394359 0.000000 0.692675
O O8 0.844134 0.158812 0.863006
O O9 0.039643 0.000000 0.878386
O O10 0.923034 0.271108 0.924720
O O11 0.442214 0.759584 0.929484
O O12 0.644481 0.000000 0.848709
O O13 0.294355 0.500000 0.989585
O O14 0.500000 0.668347 0.000000
O O15 0.167801 0.500000 0.401365
O O16 0.000000 0.699826 0.500000
O O17 0.916916 0.730808 0.434347
O O18 0.500000 0.255367 0.500000
O O19 0.736820 0.500000 0.440539
#
# Coordination Sequence:
#
# PCOD8058269 Si02
#       7
#     4   4   4   4   4   4   4
#     4  10  18  30  50  73  99 131 168 209 249 293
#     4  10  20  33  49  72 103 135 167 204 248 298
#     4   8  15  26  39  58  89 128 162 196 242 290
#     4   9  16  26  40  61  94 131 164 200 245 295
#     4   9  15  22  36  61  91 123 162 204 243 286
#     4  10  20  35  56  78  99 128 166 205 247 296
#     4   9  18  33  53  77 101 126 161 205 250 294
#
# _framework density 18.473313999999998
#
# number of rings (size 3 to 8) (size 9 to 14) (size 15 to 20)
#    0.000    2.714    0.000    3.429    0.000    8.286 
#    0.000    1.429    0.000    3.000    0.000    1.000 
#    0.000    8.000    0.000    0.000    0.000    0.000 
#
# Total GULP energy -347135.399863 kJ/mol
# GULP energy per Si atom -12397.692852 kJ/mol
# Density = 1.843127 g / cm^3
# Si number density = 18.473314 Si / 1000 Ang^3
#
#
#
# Elastic Constant Matrix: (Units=GPa)
#
#
# Indices 1 2 3 4 5 6 
#
# 1 71.9711 33.1531 59.2768 0.0000 5.3022 0.0000
# 2 33.1531 106.9513 75.4925 0.0000 0.6472 0.0000
# 3 59.2768 75.4925 166.9840 0.0000 -0.1668 0.0000
# 4 0.0000 0.0000 0.0000 31.0156 0.0000 -7.4628
# 5 5.3022 0.6472 -0.1668 0.0000 15.4451 0.0000
# 6 0.0000 0.0000 0.0000 -7.4628 0.0000 7.8965
#
#
#
# Elastic Compliance Matrix: (Units=1/GPa)
#
#
# Indices 1 2 3 4 5 6 
#
# 1 0.020595 -0.001727 -0.006537 0.000000 -0.007068 0.000000
# 2 -0.001727 0.013883 -0.005664 0.000000 -0.000050 0.000000
# 3 -0.006537 -0.005664 0.010872 0.000000 0.002599 0.000000
# 4 0.000000 0.000000 0.000000 0.041731 0.000000 0.039439
# 5 -0.007068 -0.000050 0.002599 0.000000 0.067202 0.000000
# 6 0.000000 0.000000 0.000000 0.039439 0.000000 0.163911
#
#
# Mechanical properties :
#
#
# Convention : Reuss Voigt Hill
#
# Bulk Modulus (GPa) = 57.15909 75.75014 66.45462
# Shear Modulus (GPa) = 14.20931 22.73705 18.47318
#
# Velocity S-wave (km/s) = 2.77642 3.51209 3.16570
# Velocity P-wave (km/s) = 6.42547 7.58555 7.02948
#
# Compressibility (1/GPa) = 0.01749503
#
# Stress axis : x y z
#
# Youngs Moduli (GPa) = 48.55582 72.02853 91.97706
#
# Poissons Ratio (x) = 0.12439 0.60127
# Poissons Ratio (y) = 0.08385 0.52092
# Poissons Ratio (z) = 0.31742 0.40794
#
# Static dielectric constant tensor:
#      x y z
#    x 2.979920 0.000000 -0.020070 
#    y 0.000000 3.404460 0.000000 
#    z -0.020070 0.000000 3.702390 
# 
# 
# High freq. dielectric constant tensor:
#      x y z
#    x 1.661030 0.000000 -0.000410 
#    y 0.000000 1.711650 0.000000 
#    z -0.000410 0.000000 1.736890 
# 
# From -- ./inp_files/94504.got.cif
#   From: 2010.06.25/outbox.cif.g09.slc.cpg/sg10_48_cif.got.tgz:94504.got - 2010.06.27 22:07:45.
