data_PCOD8058504
_publ_section_title
;
Structure prediction by ZEFSAII (Michael W. Deem and Ramdas Pophale) SiO2 
 PCOD8058504
Probable space group: P 2/M
;
_chemical_formula_sum "Si O2"
_cell_formula_units_Z 32
_cell_length_a 9.380078
_cell_length_b 13.952880
_cell_length_c 26.752681
_cell_angle_alpha 90.000000
_cell_angle_beta 31.424465
_cell_angle_gamma 90.000000
_cell_volume 1825.521820
_symmetry_space_group_name_H-M "P 2/M"
_symmetry_group_IT_number 10
_symmetry_cell_setting 'monoclinic'
loop_
_space_group_symop_operation_xyz
x,y,z
-x,y,-z
-x,-y,-z
x,-y,z
loop_
_atom_site_type_symbol
_atom_site_label
_atom_site_fract_x
_atom_site_fract_y
_atom_site_fract_z
Si Si1 0.434434 0.112428 0.576654
Si Si2 0.438356 0.889060 0.276051
Si Si3 0.675057 0.608850 0.901871
Si Si4 0.167287 0.264410 0.876090
Si Si5 0.710272 0.389230 0.251738
Si Si6 0.594155 0.740181 0.089642
Si Si7 0.311014 0.228990 0.409640
Si Si8 0.187978 0.109397 0.247513
O O1 0.500000 0.140011 0.500000
O O2 0.610724 0.178430 0.561317
O O3 0.114590 0.135400 0.680913
O O4 0.500553 0.000000 0.566451
O O5 0.718551 0.835851 0.178434
O O6 0.331598 0.850437 0.360431
O O7 0.214491 0.869989 0.299298
O O8 0.508230 0.000000 0.261131
O O9 0.582706 0.500000 0.924739
O O10 0.601447 0.657715 0.871874
O O11 0.997382 0.621228 0.810110
O O12 0.500000 0.654863 0.000000
O O13 0.252286 0.353207 0.815980
O O14 0.294931 0.293699 0.890510
O O15 0.844096 0.245811 0.976425
O O16 0.610511 0.500000 0.281618
O O17 0.496671 0.322843 0.345402
O O18 0.414862 0.835856 0.147458
O O19 0.000000 0.265752 0.500000
O O20 0.254866 0.000000 0.216796
#
# Coordination Sequence:
#
# PCOD8058504 Si02
#       8
#     4   4   4   4   4   4   4   4
#     4  10  20  34  54  79 105 133 168 209 254 300
#     4   9  18  33  51  74 106 137 171 210 247 296
#     4  10  19  32  52  74  95 128 167 206 255 302
#     4   9  19  31  49  77 103 137 172 206 254 300
#     4  10  21  38  55  74 103 133 169 212 255 306
#     4  10  18  31  50  74 106 135 170 213 251 295
#     4  11  22  35  55  79 101 132 170 209 258 306
#     4   9  18  32  50  73 103 140 174 205 247 299
#
# _framework density 17.529233000000001
#
# number of rings (size 3 to 8) (size 9 to 14) (size 15 to 20)
#    0.000    2.250    1.250    1.875    0.000    3.250 
#    0.000    3.750    0.000    0.750    0.000    0.000 
#    0.000    0.000    0.000    0.000    0.000    0.000 
#
# Total GULP energy -396721.629613 kJ/mol
# GULP energy per Si atom -12397.550925 kJ/mol
# Density = 1.748934 g / cm^3
# Si number density = 17.529233 Si / 1000 Ang^3
#
#
#
# Elastic Constant Matrix: (Units=GPa)
#
#
# Indices 1 2 3 4 5 6 
#
# 1 82.5327 55.4537 49.5106 0.0000 -3.7374 0.0000
# 2 55.4537 106.9321 57.4785 0.0000 -3.4681 0.0000
# 3 49.5106 57.4785 97.1826 0.0000 -3.4579 0.0000
# 4 0.0000 0.0000 0.0000 10.2550 0.0000 0.4254
# 5 -3.7374 -3.4681 -3.4579 0.0000 26.0072 0.0000
# 6 0.0000 0.0000 0.0000 0.4254 0.0000 27.6974
#
#
#
# Elastic Compliance Matrix: (Units=1/GPa)
#
#
# Indices 1 2 3 4 5 6 
#
# 1 0.020905 -0.007478 -0.006185 0.000000 0.001185 0.000000
# 2 -0.007478 0.016400 -0.005878 0.000000 0.000331 0.000000
# 3 -0.006185 -0.005878 0.016938 0.000000 0.000579 0.000000
# 4 0.000000 0.000000 0.000000 0.097576 0.000000 -0.001499
# 5 0.001185 0.000331 0.000579 0.000000 0.038742 0.000000
# 6 0.000000 0.000000 0.000000 -0.001499 0.000000 0.036127
#
#
# Mechanical properties :
#
#
# Convention : Reuss Voigt Hill
#
# Bulk Modulus (GPa) = 65.96132 67.94812 66.95472
# Shear Modulus (GPa) = 18.46204 21.07222 19.76713
#
# Velocity S-wave (km/s) = 3.24885 3.47092 3.36172
# Velocity P-wave (km/s) = 7.19614 7.41012 7.30391
#
# Compressibility (1/GPa) = 0.01516040
#
# Stress axis : x y z
#
# Youngs Moduli (GPa) = 47.83557 60.97488 59.03732
#
# Poissons Ratio (x) = 0.45596 0.36516
# Poissons Ratio (y) = 0.35771 0.34705
# Poissons Ratio (z) = 0.29588 0.35844
#
# Static dielectric constant tensor:
#      x y z
#    x 3.355890 0.000000 -0.053380 
#    y 0.000000 3.166790 0.000000 
#    z -0.053380 0.000000 3.344070 
# 
# 
# High freq. dielectric constant tensor:
#      x y z
#    x 1.683560 0.000000 -0.006090 
#    y 0.000000 1.665940 0.000000 
#    z -0.006090 0.000000 1.679270 
# 
# From -- ./inp_files/35114.got.cif
#   From: 2010.06.25/outbox.cif.g09.slc.cpg/sg10_18_cif.got.tgz:35114.got - 2010.06.27 22:07:45.
