data_PCOD8058274
_publ_section_title
;
Structure prediction by ZEFSAII (Michael W. Deem and Ramdas Pophale) SiO2 
 PCOD8058274
Probable space group: P 2/M
;
_chemical_formula_sum "Si O2"
_cell_formula_units_Z 30
_cell_length_a 24.163846
_cell_length_b 9.555500
_cell_length_c 11.280900
_cell_angle_alpha 90.000000
_cell_angle_beta 40.296856
_cell_angle_gamma 90.000000
_cell_volume 1684.605723
_symmetry_space_group_name_H-M "P 2/M"
_symmetry_group_IT_number 10
_symmetry_cell_setting 'monoclinic'
loop_
_space_group_symop_operation_xyz
x,y,z
-x,y,-z
-x,-y,-z
x,-y,z
loop_
_atom_site_type_symbol
_atom_site_label
_atom_site_fract_x
_atom_site_fract_y
_atom_site_fract_z
Si Si1 0.614652 0.154460 0.519000
Si Si2 0.768892 0.836496 0.107438
Si Si3 0.500000 0.248565 0.500000
Si Si4 0.660651 0.656099 0.111923
Si Si5 0.105386 0.334510 0.441882
Si Si6 0.716448 0.336593 0.765475
Si Si7 0.415039 0.334167 0.207981
Si Si8 0.918171 0.334817 0.789952
O O1 0.711714 0.186923 0.318262
O O2 0.552808 0.153956 0.505663
O O3 0.585644 0.267833 0.661269
O O4 0.610062 0.000000 0.583197
O O5 0.720446 0.770269 0.074747
O O6 0.784918 0.000000 0.056700
O O7 0.858960 0.754703 0.976356
O O8 0.435205 0.344701 0.680561
O O9 0.699659 0.500000 0.067747
O O10 0.658473 0.691883 0.976117
O O11 0.111015 0.500000 0.432922
O O12 0.188246 0.269973 0.374273
O O13 0.106718 0.288520 0.302645
O O14 0.017133 0.289783 0.650331
O O15 0.726602 0.500000 0.727190
O O16 0.666342 0.275119 0.733751
O O17 0.412071 0.500000 0.229534
O O18 0.500000 0.288442 0.000000
O O19 0.905070 0.500000 0.833369
#
# Coordination Sequence:
#
# PCOD8058274 Si02
#       8
#     4   4   2   4   4   4   4   4
#     4  10  22  38  53  71  99 137 172 204 252 306
#     4  10  20  32  47  71 105 137 166 205 252 302
#     4  10  20  32  52  78 100 124 166 218 254 292
#     4  10  18  30  50  74 100 132 167 203 251 303
#     4   8  14  25  47  76 102 130 166 206 251 305
#     4   9  16  29  50  73 101 133 163 204 255 299
#     4  10  21  36  54  77 103 131 169 215 254 291
#     4   9  15  27  49  75 101 131 168 206 251 307
#
# _framework density 17.808322
#
# number of rings (size 3 to 8) (size 9 to 14) (size 15 to 20)
#    0.000    2.533    1.333    2.400    0.000    5.067 
#    0.000    2.000    0.000    0.800    0.000    5.600 
#    0.000    0.000    0.000    0.000    0.000    0.000 
#
# Total GULP energy -371800.875310 kJ/mol
# GULP energy per Si atom -12393.362510 kJ/mol
# Density = 1.776779 g / cm^3
# Si number density = 17.808322 Si / 1000 Ang^3
#
#
#
# Elastic Constant Matrix: (Units=GPa)
#
#
# Indices 1 2 3 4 5 6 
#
# 1 91.4135 21.4416 51.6530 0.0000 -12.7575 0.0000
# 2 21.4416 65.5690 46.6352 0.0000 -0.6631 0.0000
# 3 51.6530 46.6352 128.1733 0.0000 -18.0379 0.0000
# 4 0.0000 0.0000 0.0000 17.6102 0.0000 2.8450
# 5 -12.7575 -0.6631 -18.0379 0.0000 29.2585 0.0000
# 6 0.0000 0.0000 0.0000 2.8450 0.0000 12.4034
#
#
#
# Elastic Compliance Matrix: (Units=1/GPa)
#
#
# Indices 1 2 3 4 5 6 
#
# 1 0.014460 -0.001180 -0.004943 0.000000 0.003231 0.000000
# 2 -0.001180 0.021239 -0.007946 0.000000 -0.004932 0.000000
# 3 -0.004943 -0.007946 0.013530 0.000000 0.006006 0.000000
# 4 0.000000 0.000000 0.000000 0.058970 0.000000 -0.013526
# 5 0.003231 -0.004932 0.006006 0.000000 0.039178 0.000000
# 6 0.000000 0.000000 0.000000 -0.013526 0.000000 0.083726
#
#
# Mechanical properties :
#
#
# Convention : Reuss Voigt Hill
#
# Bulk Modulus (GPa) = 47.41506 58.29060 52.85283
# Shear Modulus (GPa) = 18.77776 22.88282 20.83029
#
# Velocity S-wave (km/s) = 3.25073 3.58851 3.42379
# Velocity P-wave (km/s) = 6.38535 7.06917 6.73594
#
# Compressibility (1/GPa) = 0.02109035
#
# Stress axis : x y z
#
# Youngs Moduli (GPa) = 69.15539 47.08379 73.90713
#
# Poissons Ratio (x) = 0.05556 0.36535
# Poissons Ratio (y) = 0.08160 0.58728
# Poissons Ratio (z) = 0.34186 0.37414
#
# Static dielectric constant tensor:
#      x y z
#    x 3.391820 0.000000 -0.387860 
#    y 0.000000 2.982550 0.000000 
#    z -0.387860 0.000000 3.596560 
# 
# 
# High freq. dielectric constant tensor:
#      x y z
#    x 1.664410 0.000000 -0.020270 
#    y 0.000000 1.657200 0.000000 
#    z -0.020270 0.000000 1.697570 
# 
# From -- ./inp_files/56637.got.cif
#   From: 2010.06.25/outbox.cif.g09.slc.cpg/sg10_29_cif.got.tgz:56637.got - 2010.06.27 22:07:45.
