data_PCOD8058482
_publ_section_title
;
Structure prediction by ZEFSAII (Michael W. Deem and Ramdas Pophale) SiO2 
 PCOD8058482
Probable space group: P 2/M
;
_chemical_formula_sum "Si O2"
_cell_formula_units_Z 32
_cell_length_a 12.167295
_cell_length_b 9.054416
_cell_length_c 21.385838
_cell_angle_alpha 90.000000
_cell_angle_beta 51.924529
_cell_angle_gamma 90.000000
_cell_volume 1854.664456
_symmetry_space_group_name_H-M "P 2/M"
_symmetry_group_IT_number 10
_symmetry_cell_setting 'monoclinic'
loop_
_space_group_symop_operation_xyz
x,y,z
-x,y,-z
-x,-y,-z
x,-y,z
loop_
_atom_site_type_symbol
_atom_site_label
_atom_site_fract_x
_atom_site_fract_y
_atom_site_fract_z
Si Si1 0.239881 0.671872 0.322740
Si Si2 0.982233 0.674272 0.102118
Si Si3 0.712285 0.672032 0.550630
Si Si4 0.153616 0.324678 0.724794
Si Si5 0.519299 0.172936 0.206795
Si Si6 0.224239 0.674749 0.932279
Si Si7 0.947789 0.675004 0.374212
Si Si8 0.567701 0.173552 0.332929
O O1 0.260953 0.500000 0.300214
O O2 0.230675 0.700038 0.399899
O O3 0.367703 0.759133 0.246861
O O4 0.098452 0.736441 0.342006
O O5 0.974610 0.500000 0.101111
O O6 0.949252 0.730512 0.183555
O O7 0.864233 0.733413 0.096139
O O8 0.137405 0.721922 0.025074
O O9 0.679959 0.500000 0.550528
O O10 0.828166 0.734813 0.462453
O O11 0.571978 0.762996 0.586658
O O12 0.175523 0.500000 0.719221
O O13 0.083637 0.272210 0.685013
O O14 0.303076 0.249441 0.678476
O O15 0.627693 0.242868 0.119507
O O16 0.569097 0.214178 0.259162
O O17 0.510986 0.000000 0.198658
O O18 0.250687 0.500000 0.920253
O O19 0.950929 0.500000 0.378638
O O20 0.574034 0.000000 0.342011
#
# Coordination Sequence:
#
# PCOD8058482 Si02
#       8
#     4   4   4   4   4   4   4   4
#     4   9  17  31  51  71  92 120 154 195 238 274
#     4   8  15  26  45  71  96 121 150 186 226 275
#     4   9  17  31  51  71  92 119 153 196 239 274
#     4  10  18  31  50  69  95 126 154 187 230 278
#     4  10  19  30  46  71  98 122 153 195 233 269
#     4   9  15  27  47  71  95 120 153 186 227 278
#     4   9  18  31  50  74  92 115 158 201 231 270
#     4  10  20  32  45  67  98 127 156 189 228 276
#
# _framework density 17.253795
#
# number of rings (size 3 to 8) (size 9 to 14) (size 15 to 20)
#    0.000    2.750    1.250    1.875    0.000    3.000 
#    0.000    6.250    0.000    3.750    0.000    5.250 
#    0.000    0.000    0.000    0.000    0.000    0.000 
#
# Total GULP energy -396752.042300 kJ/mol
# GULP energy per Si atom -12398.501322 kJ/mol
# Density = 1.721453 g / cm^3
# Si number density = 17.253795 Si / 1000 Ang^3
#
#
#
# Elastic Constant Matrix: (Units=GPa)
#
#
# Indices 1 2 3 4 5 6 
#
# 1 112.8623 37.3995 84.5170 0.0000 -12.4189 0.0000
# 2 37.3995 44.7609 39.6908 0.0000 -9.5858 0.0000
# 3 84.5170 39.6908 148.0874 0.0000 -26.8841 0.0000
# 4 0.0000 0.0000 0.0000 5.0119 0.0000 5.0299
# 5 -12.4189 -9.5858 -26.8841 0.0000 24.5933 0.0000
# 6 0.0000 0.0000 0.0000 5.0299 0.0000 8.3640
#
#
#
# Elastic Compliance Matrix: (Units=1/GPa)
#
#
# Indices 1 2 3 4 5 6 
#
# 1 0.017405 -0.007768 -0.008491 0.000000 -0.003520 0.000000
# 2 -0.007768 0.033021 -0.003484 0.000000 0.005140 0.000000
# 3 -0.008491 -0.003484 0.014357 0.000000 0.010048 0.000000
# 4 0.000000 0.000000 0.000000 0.503239 0.000000 -0.302633
# 5 -0.003520 0.005140 0.010048 0.000000 0.051872 0.000000
# 6 0.000000 0.000000 0.000000 -0.302633 0.000000 0.301554
#
#
# Mechanical properties :
#
#
# Convention : Reuss Voigt Hill
#
# Bulk Modulus (GPa) = 39.52868 69.88056 54.70462
# Shear Modulus (GPa) = 5.15801 17.20073 11.17937
#
# Velocity S-wave (km/s) = 1.73089 3.16084 2.54822
# Velocity P-wave (km/s) = 5.19177 7.34239 6.35866
#
# Compressibility (1/GPa) = 0.02529809
#
# Stress axis : x y z
#
# Youngs Moduli (GPa) = 57.45364 30.28338 69.65394
#
# Poissons Ratio (x) = 0.23523 0.59142
# Poissons Ratio (y) = 0.44628 0.24269
# Poissons Ratio (z) = 0.48783 0.10551
#
# Static dielectric constant tensor:
#      x y z
#    x 3.115030 0.000000 -0.088700 
#    y 0.000000 2.896830 0.000000 
#    z -0.088700 0.000000 3.479470 
# 
# 
# High freq. dielectric constant tensor:
#      x y z
#    x 1.644950 0.000000 -0.017730 
#    y 0.000000 1.637560 0.000000 
#    z -0.017730 0.000000 1.672120 
# 
# From -- ./inp_files/54808.got.cif
#   From: 2010.06.25/outbox.cif.g09.slc.cpg/sg10_28_cif.got.tgz:54808.got - 2010.06.27 22:07:45.
