data_PCOD8058277
_publ_section_title
;
Structure prediction by ZEFSAII (Michael W. Deem and Ramdas Pophale) SiO2 
 PCOD8058277
Probable space group: P 2/M
;
_chemical_formula_sum "Si O2"
_cell_formula_units_Z 28
_cell_length_a 28.993227
_cell_length_b 8.623990
_cell_length_c 9.662992
_cell_angle_alpha 90.000000
_cell_angle_beta 141.504084
_cell_angle_gamma 90.000000
_cell_volume 1503.928076
_symmetry_space_group_name_H-M "P 2/M"
_symmetry_group_IT_number 10
_symmetry_cell_setting 'monoclinic'
loop_
_space_group_symop_operation_xyz
x,y,z
-x,y,-z
-x,-y,-z
x,-y,z
loop_
_atom_site_type_symbol
_atom_site_label
_atom_site_fract_x
_atom_site_fract_y
_atom_site_fract_z
Si Si1 0.306183 0.320674 0.249953
Si Si2 0.804498 0.680156 0.244141
Si Si3 0.917217 0.816749 0.307176
Si Si4 0.543489 0.321282 0.284008
Si Si5 0.402586 0.819580 0.870273
Si Si6 0.194166 0.818733 0.185807
Si Si7 0.751752 0.317969 0.417653
O O1 0.291517 0.500000 0.255525
O O2 0.394547 0.287333 0.452200
O O3 0.270897 0.214176 0.286709
O O4 0.269978 0.279494 0.017309
O O5 0.822623 0.500000 0.278545
O O6 0.875526 0.767158 0.348903
O O7 0.792274 0.734763 0.372173
O O8 0.000000 0.746146 0.500000
O O9 0.920028 0.000000 0.310567
O O10 0.873410 0.756758 0.068234
O O11 0.519462 0.500000 0.229467
O O12 0.582320 0.283119 0.229214
O O13 0.469926 0.217845 0.135778
O O14 0.324795 0.774993 0.754507
O O15 0.402962 0.000000 0.832591
O O16 0.193358 0.726543 0.328292
O O17 0.187661 0.000000 0.202183
O O18 0.734718 0.500000 0.377197
#
# Coordination Sequence:
#
# PCOD8058277 Si02
#       7
#     4   4   4   4   4   4   4
#     4   9  17  32  53  75 100 132 174 220 262 307
#     4   9  20  36  55  79 105 137 175 214 258 307
#     4   9  19  37  59  83 109 136 167 206 255 311
#     4  10  18  30  50  74 101 134 174 219 271 313
#     4  11  21  31  47  72 104 137 176 221 263 308
#     4  10  19  31  53  80 104 134 173 212 253 306
#     4  11  21  35  52  74 107 141 175 216 261 310
#
# _framework density 18.617910999999999
#
# number of rings (size 3 to 8) (size 9 to 14) (size 15 to 20)
#    0.000    2.143    1.429    3.429    0.000    2.571 
#    0.000    1.429    0.000    8.571    0.000    0.000 
#    0.000    0.000    0.000    0.000    0.000    0.000 
#
# Total GULP energy -347166.135301 kJ/mol
# GULP energy per Si atom -12398.790546 kJ/mol
# Density = 1.857554 g / cm^3
# Si number density = 18.617911 Si / 1000 Ang^3
#
#
#
# Elastic Constant Matrix: (Units=GPa)
#
#
# Indices 1 2 3 4 5 6 
#
# 1 94.1888 17.1845 65.5998 0.0000 0.2175 0.0000
# 2 17.1845 41.0130 20.8163 0.0000 0.6992 0.0000
# 3 65.5998 20.8163 116.1946 0.0000 8.0741 0.0000
# 4 0.0000 0.0000 0.0000 22.6116 0.0000 4.8574
# 5 0.2175 0.6992 8.0741 0.0000 35.1810 0.0000
# 6 0.0000 0.0000 0.0000 4.8574 0.0000 20.4974
#
#
#
# Elastic Compliance Matrix: (Units=1/GPa)
#
#
# Indices 1 2 3 4 5 6 
#
# 1 0.017907 -0.002565 -0.009802 0.000000 0.002190 0.000000
# 2 -0.002565 0.027200 -0.003443 0.000000 0.000265 0.000000
# 3 -0.009802 -0.003443 0.014987 0.000000 -0.003311 0.000000
# 4 0.000000 0.000000 0.000000 0.046597 0.000000 -0.011042
# 5 0.002190 0.000265 -0.003311 0.000000 0.029165 0.000000
# 6 0.000000 0.000000 0.000000 -0.011042 0.000000 0.051403
#
#
# Mechanical properties :
#
#
# Convention : Reuss Voigt Hill
#
# Bulk Modulus (GPa) = 35.12076 50.95531 43.03803
# Shear Modulus (GPa) = 21.89399 25.51104 23.70251
#
# Velocity S-wave (km/s) = 3.43295 3.70569 3.57193
# Velocity P-wave (km/s) = 5.88375 6.76298 6.33863
#
# Compressibility (1/GPa) = 0.02847319
#
# Stress axis : x y z
#
# Youngs Moduli (GPa) = 55.84417 36.76418 66.72350
#
# Poissons Ratio (x) = 0.09431 0.65405
# Poissons Ratio (y) = 0.14325 0.22974
# Poissons Ratio (z) = 0.54740 0.12659
#
# Static dielectric constant tensor:
#      x y z
#    x 3.185170 0.000000 0.127630 
#    y 0.000000 3.348050 0.000000 
#    z 0.127630 0.000000 3.846810 
# 
# 
# High freq. dielectric constant tensor:
#      x y z
#    x 1.687330 0.000000 0.007770 
#    y 0.000000 1.722650 0.000000 
#    z 0.007770 0.000000 1.729900 
# 
# From -- ./inp_files/38043.got.cif
#   From: 2010.06.25/outbox.cif.g09.slc.cpg/sg10_20_cif.got.tgz:38043.got - 2010.06.27 22:07:45.
