data_PCOD8058299
_publ_section_title
;
Structure prediction by ZEFSAII (Michael W. Deem and Ramdas Pophale) SiO2 
 PCOD8058299
Probable space group: P 2/M
;
_chemical_formula_sum "Si O2"
_cell_formula_units_Z 24
_cell_length_a 14.917188
_cell_length_b 9.397249
_cell_length_c 14.917253
_cell_angle_alpha 90.000000
_cell_angle_beta 40.882737
_cell_angle_gamma 90.000000
_cell_volume 1368.657754
_symmetry_space_group_name_H-M "P 2/M"
_symmetry_group_IT_number 10
_symmetry_cell_setting 'monoclinic'
loop_
_space_group_symop_operation_xyz
x,y,z
-x,y,-z
-x,-y,-z
x,-y,z
loop_
_atom_site_type_symbol
_atom_site_label
_atom_site_fract_x
_atom_site_fract_y
_atom_site_fract_z
Si Si1 0.895851 0.668846 0.884612
Si Si2 0.800024 0.668946 0.300006
Si Si3 0.384601 0.668846 0.395868
Si Si4 0.906511 0.164437 0.702332
Si Si5 0.797670 0.164437 0.593483
Si Si6 0.307242 0.668995 0.807236
O O1 0.891393 0.500000 0.876149
O O2 0.851669 0.739386 0.824596
O O3 0.046332 0.723176 0.798868
O O4 0.790770 0.722927 0.039415
O O5 0.797662 0.500000 0.297645
O O6 0.701151 0.723176 0.453649
O O7 0.746431 0.732487 0.246413
O O8 0.376141 0.500000 0.391409
O O9 0.324593 0.739386 0.351678
O O10 0.539404 0.722926 0.290797
O O11 0.808833 0.192535 0.691164
O O12 0.061129 0.209045 0.561134
O O13 0.900987 0.000000 0.734762
O O14 0.765241 0.000000 0.599005
O O15 0.304309 0.500000 0.804307
#
# Coordination Sequence:
#
# PCOD8058299 Si02
#       6
#     4   4   4   4   4   4
#     4  10  18  30  50  76  99 125 162 200 236 276
#     4   9  16  28  48  73  98 128 165 197 230 279
#     4  10  18  30  50  76  99 125 162 200 236 276
#     4   9  18  33  52  72  95 125 159 198 246 291
#     4   9  18  33  52  72  95 125 159 198 246 291
#     4   9  18  30  46  71 106 134 153 191 244 287
#
# _framework density 17.535428
#
# number of rings (size 3 to 8) (size 9 to 14) (size 15 to 20)
#    0.000    2.667    1.667    2.000    0.000    4.667 
#    0.000    3.333    0.000   11.000    0.000    0.000 
#    0.000    0.000    0.000    0.000    0.000    0.000 
#
# Total GULP energy -297608.908096 kJ/mol
# GULP energy per Si atom -12400.371171 kJ/mol
# Density = 1.749552 g / cm^3
# Si number density = 17.535428 Si / 1000 Ang^3
#
#
#
# Elastic Constant Matrix: (Units=GPa)
#
#
# Indices 1 2 3 4 5 6 
#
# 1 137.3066 38.8942 76.4440 0.0000 9.1093 0.0000
# 2 38.8942 29.1394 27.4158 0.0000 4.8191 0.0000
# 3 76.4440 27.4158 129.2068 0.0000 -5.6868 0.0000
# 4 0.0000 0.0000 0.0000 13.1220 0.0000 -2.1689
# 5 9.1093 4.8191 -5.6868 0.0000 25.7965 0.0000
# 6 0.0000 0.0000 0.0000 -2.1689 0.0000 7.9541
#
#
#
# Elastic Compliance Matrix: (Units=1/GPa)
#
#
# Indices 1 2 3 4 5 6 
#
# 1 0.014660 -0.013208 -0.006049 0.000000 -0.004043 0.000000
# 2 -0.013208 0.057560 -0.004713 0.000000 -0.007128 0.000000
# 3 -0.006049 -0.004713 0.012573 0.000000 0.005788 0.000000
# 4 0.000000 0.000000 0.000000 0.079805 0.000000 0.021761
# 5 -0.004043 -0.007128 0.005788 0.000000 0.042800 0.000000
# 6 0.000000 0.000000 0.000000 0.021761 0.000000 0.131655
#
#
# Mechanical properties :
#
#
# Convention : Reuss Voigt Hill
#
# Bulk Modulus (GPa) = 27.13410 64.57342 45.85376
# Shear Modulus (GPa) = 12.52260 19.56776 16.04518
#
# Velocity S-wave (km/s) = 2.67522 3.34413 3.02820
# Velocity P-wave (km/s) = 5.00499 7.19829 6.19941
#
# Compressibility (1/GPa) = 0.03685399
#
# Stress axis : x y z
#
# Youngs Moduli (GPa) = 68.21114 17.37304 79.53505
#
# Poissons Ratio (x) = 0.22947 0.48111
# Poissons Ratio (y) = 0.90095 0.37482
# Poissons Ratio (z) = 0.41261 0.08187
#
# Static dielectric constant tensor:
#      x y z
#    x 3.352640 0.000000 0.032740 
#    y 0.000000 2.801350 0.000000 
#    z 0.032740 0.000000 3.274630 
# 
# 
# High freq. dielectric constant tensor:
#      x y z
#    x 1.688520 0.000000 0.006830 
#    y 0.000000 1.635040 0.000000 
#    z 0.006830 0.000000 1.672250 
# 
# From -- ./inp_files/33788.got.cif
#   From: 2010.06.25/outbox.cif.g09.slc.cpg/sg10_17_cif.got.tgz:33788.got - 2010.06.27 22:07:45.
