data_PCOD8058840
_publ_section_title
;
Structure prediction by ZEFSAII (Michael W. Deem and Ramdas Pophale) SiO2 
 PCOD8058840
Probable space group: P 2/M
;
_chemical_formula_sum "Si O2"
_cell_formula_units_Z 28
_cell_length_a 15.779756
_cell_length_b 13.962878
_cell_length_c 9.773081
_cell_angle_alpha 90.000000
_cell_angle_beta 47.561152
_cell_angle_gamma 90.000000
_cell_volume 1589.139038
_symmetry_space_group_name_H-M "P 2/M"
_symmetry_group_IT_number 10
_symmetry_cell_setting 'monoclinic'
loop_
_space_group_symop_operation_xyz
x,y,z
-x,y,-z
-x,-y,-z
x,-y,z
loop_
_atom_site_type_symbol
_atom_site_label
_atom_site_fract_x
_atom_site_fract_y
_atom_site_fract_z
Si Si1 0.088351 0.387615 0.786479
Si Si2 0.473864 0.605374 0.869846
Si Si3 0.309263 0.714177 0.453176
Si Si4 0.559994 0.891325 0.574417
Si Si5 0.933106 0.396513 0.707038
Si Si6 0.266496 0.724292 0.180194
Si Si7 0.593120 0.106107 0.002340
O O1 0.117580 0.500000 0.765603
O O2 0.209084 0.330045 0.658448
O O3 0.023475 0.360291 0.718925
O O4 0.000000 0.354486 0.000000
O O5 0.448283 0.500000 0.836630
O O6 0.575472 0.650656 0.667752
O O7 0.500000 0.595011 0.000000
O O8 0.363340 0.671997 0.984207
O O9 0.339762 0.819865 0.480053
O O10 0.265245 0.708627 0.344493
O O11 0.500000 0.855454 0.500000
O O12 0.455628 0.893854 0.793520
O O13 0.610846 0.000000 0.503215
O O14 0.875487 0.500000 0.814769
O O15 0.848201 0.309648 0.768101
O O16 0.000000 0.421799 0.500000
O O17 0.287221 0.837008 0.133513
O O18 0.620176 0.000000 0.918050
O O19 0.500000 0.155366 0.000000
#
# Coordination Sequence:
#
# PCOD8058840 Si02
#       7
#     4   4   4   4   4   4   4
#     4  10  22  39  56  77 107 150 195 228 266 319
#     4   9  17  27  45  79 112 138 168 216 278 329
#     4  11  19  33  56  79 109 143 182 228 274 328
#     4  10  21  36  55  82 114 146 182 221 272 341
#     4  10  20  34  54  78 105 143 191 232 262 312
#     4  11  18  30  54  84 109 140 181 228 276 324
#     4  10  18  32  53  80 111 140 177 222 273 334
#
# _framework density 17.619603999999999
#
# number of rings (size 3 to 8) (size 9 to 14) (size 15 to 20)
#    0.000    1.857    4.286    1.286    0.000    2.286 
#    0.000    0.000    0.000    2.571    0.000    0.000 
#    0.000    0.000    0.000    0.000    0.000    0.000 
#
# Total GULP energy -346921.129302 kJ/mol
# GULP energy per Si atom -12390.040332 kJ/mol
# Density = 1.757950 g / cm^3
# Si number density = 17.619604 Si / 1000 Ang^3
#
#
#
# Elastic Constant Matrix: (Units=GPa)
#
#
# Indices 1 2 3 4 5 6 
#
# 1 64.6772 34.2336 25.6132 0.0000 -2.6078 0.0000
# 2 34.2336 104.3930 31.8794 0.0000 -17.1439 0.0000
# 3 25.6132 31.8794 92.3310 0.0000 -9.0834 0.0000
# 4 0.0000 0.0000 0.0000 19.8113 0.0000 -3.5062
# 5 -2.6078 -17.1439 -9.0834 0.0000 28.4042 0.0000
# 6 0.0000 0.0000 0.0000 -3.5062 0.0000 28.2486
#
#
#
# Elastic Compliance Matrix: (Units=1/GPa)
#
#
# Indices 1 2 3 4 5 6 
#
# 1 0.019951 -0.005862 -0.003798 0.000000 -0.002921 0.000000
# 2 -0.005862 0.013316 -0.002306 0.000000 0.006762 0.000000
# 3 -0.003798 -0.002306 0.012915 0.000000 0.002390 0.000000
# 4 0.000000 0.000000 0.000000 0.051610 0.000000 0.006406
# 5 -0.002921 0.006762 0.002390 0.000000 0.039783 0.000000
# 6 0.000000 0.000000 0.000000 0.006406 0.000000 0.036195
#
#
# Mechanical properties :
#
#
# Convention : Reuss Voigt Hill
#
# Bulk Modulus (GPa) = 44.94453 49.42818 47.18635
# Shear Modulus (GPa) = 24.37602 26.60448 25.49025
#
# Velocity S-wave (km/s) = 3.72352 3.89001 3.80767
# Velocity P-wave (km/s) = 6.63700 6.94910 6.79485
#
# Compressibility (1/GPa) = 0.02224965
#
# Stress axis : x y z
#
# Youngs Moduli (GPa) = 50.12406 75.09566 77.42644
#
# Poissons Ratio (x) = 0.44024 0.29404
# Poissons Ratio (y) = 0.29385 0.17857
# Poissons Ratio (z) = 0.19035 0.17320
#
# Static dielectric constant tensor:
#      x y z
#    x 3.042410 0.000000 0.030650 
#    y 0.000000 3.477420 0.000000 
#    z 0.030650 0.000000 3.220310 
# 
# 
# High freq. dielectric constant tensor:
#      x y z
#    x 1.654600 0.000000 0.007310 
#    y 0.000000 1.682360 0.000000 
#    z 0.007310 0.000000 1.670790 
# 
# From -- ./inp_files/29430.got.cif
#   From: 2010.06.25/outbox.cif.g09.slc.cpg/sg10_15_cif.got.tgz:29430.got - 2010.06.27 22:07:45.
