data_PCOD8058077
_publ_section_title
;
Structure prediction by ZEFSAII (Michael W. Deem and Ramdas Pophale) SiO2 
 PCOD8058077
Probable space group: P 2/M
;
_chemical_formula_sum "Si O2"
_cell_formula_units_Z 32
_cell_length_a 8.985548
_cell_length_b 13.246708
_cell_length_c 18.175948
_cell_angle_alpha 90.000000
_cell_angle_beta 113.178569
_cell_angle_gamma 90.000000
_cell_volume 1988.834547
_symmetry_space_group_name_H-M "P 2/M"
_symmetry_group_IT_number 10
_symmetry_cell_setting 'monoclinic'
loop_
_space_group_symop_operation_xyz
x,y,z
-x,y,-z
-x,-y,-z
x,-y,z
loop_
_atom_site_type_symbol
_atom_site_label
_atom_site_fract_x
_atom_site_fract_y
_atom_site_fract_z
Si Si1 0.777281 0.379456 0.639192
Si Si2 0.177412 0.620158 0.516680
Si Si3 0.037635 0.705996 0.924627
Si Si4 0.922230 0.385348 0.214657
Si Si5 0.374607 0.224335 0.035023
Si Si6 0.145480 0.890344 0.086139
Si Si7 0.436914 0.620230 0.830153
Si Si8 0.527916 0.619398 0.330813
O O1 0.777887 0.500000 0.645573
O O2 0.765959 0.343417 0.552869
O O3 0.624286 0.335235 0.654162
O O4 0.942735 0.334673 0.706675
O O5 0.170050 0.500000 0.517854
O O6 0.305783 0.662127 0.601321
O O7 0.000000 0.664925 0.500000
O O8 0.018817 0.620906 0.858931
O O9 0.913666 0.796565 0.875124
O O10 0.222206 0.740801 0.957587
O O11 0.000000 0.665178 0.000000
O O12 0.906589 0.500000 0.235632
O O13 0.745286 0.337789 0.192909
O O14 0.316669 0.137082 0.080384
O O15 0.445461 0.321436 0.091416
O O16 0.500000 0.179115 0.000000
O O17 0.165000 0.000000 0.129776
O O18 0.000000 0.897919 0.000000
O O19 0.452958 0.500000 0.848370
O O20 0.487195 0.649810 0.757197
O O21 0.530402 0.500000 0.339653
#
# Coordination Sequence:
#
# PCOD8058077 Si02
#       8
#     4   4   4   4   4   4   4   4
#     4   9  17  26  39  57  77 106 147 187 217 251
#     4   9  15  25  40  55  75 103 141 186 225 257
#     4   9  19  31  45  61  84 112 143 181 214 260
#     4  10  19  30  41  58  86 120 153 181 213 250
#     4  10  18  30  46  65  85 110 148 183 211 254
#     4   8  17  33  50  65  82 104 133 177 232 276
#     4  10  20  30  41  58  88 123 151 180 214 248
#     4   9  17  27  39  56  77 108 148 185 218 250
#
# _framework density 16.089824
#
# number of rings (size 3 to 8) (size 9 to 14) (size 15 to 20)
#    0.000    3.000    1.250    1.125    3.500    5.750 
#    0.000    0.000    0.000    0.375    0.000    0.000 
#    0.000    0.000    0.000    2.250    0.000    6.000 
#
# Total GULP energy -396430.639056 kJ/mol
# GULP energy per Si atom -12388.457471 kJ/mol
# Density = 1.605320 g / cm^3
# Si number density = 16.089824 Si / 1000 Ang^3
#
#
#
# Elastic Constant Matrix: (Units=GPa)
#
#
# Indices 1 2 3 4 5 6 
#
# 1 120.5712 19.5845 29.1324 0.0000 -3.7554 0.0000
# 2 19.5845 25.2932 14.1171 0.0000 3.1789 0.0000
# 3 29.1324 14.1171 53.3554 0.0000 -6.3578 0.0000
# 4 0.0000 0.0000 0.0000 1.9486 0.0000 -1.8742
# 5 -3.7554 3.1789 -6.3578 0.0000 24.2111 0.0000
# 6 0.0000 0.0000 0.0000 -1.8742 0.0000 9.9377
#
#
#
# Elastic Compliance Matrix: (Units=1/GPa)
#
#
# Indices 1 2 3 4 5 6 
#
# 1 0.010232 -0.005943 -0.003853 0.000000 0.001356 0.000000
# 2 -0.005943 0.052112 -0.011839 0.000000 -0.010873 0.000000
# 3 -0.003853 -0.011839 0.024871 0.000000 0.007488 0.000000
# 4 0.000000 0.000000 0.000000 0.626916 0.000000 0.118235
# 5 0.001356 -0.010873 0.007488 0.000000 0.044908 0.000000
# 6 0.000000 0.000000 0.000000 0.118235 0.000000 0.122926
#
#
# Mechanical properties :
#
#
# Convention : Reuss Voigt Hill
#
# Bulk Modulus (GPa) = 22.75535 36.09865 29.42700
# Shear Modulus (GPa) = 5.31981 16.31186 10.81584
#
# Velocity S-wave (km/s) = 1.82030 3.18748 2.59553
# Velocity P-wave (km/s) = 4.31177 6.00259 5.22602
#
# Compressibility (1/GPa) = 0.04394570
#
# Stress axis : x y z
#
# Youngs Moduli (GPa) = 97.72944 19.18941 40.20803
#
# Poissons Ratio (x) = 0.11404 0.15492
# Poissons Ratio (y) = 0.58078 0.47602
# Poissons Ratio (z) = 0.37655 0.22718
#
# Static dielectric constant tensor:
#      x y z
#    x 3.413950 0.000000 0.047920 
#    y 0.000000 2.827090 0.000000 
#    z 0.047920 0.000000 2.992260 
# 
# 
# High freq. dielectric constant tensor:
#      x y z
#    x 1.644030 0.000000 0.001430 
#    y 0.000000 1.537550 0.000000 
#    z 0.001430 0.000000 1.608310 
# 
# From -- ./inp_files/75105.got.cif
#   From: 2010.06.25/outbox.cif.g09.slc.cpg/sg10_38_cif.got.tgz:75105.got - 2010.06.27 22:07:45.
