data_PCOD8058395
_publ_section_title
;
Structure prediction by ZEFSAII (Michael W. Deem and Ramdas Pophale) SiO2 
 PCOD8058395
Probable space group: P 2/M
;
_chemical_formula_sum "Si O2"
_cell_formula_units_Z 28
_cell_length_a 20.293268
_cell_length_b 15.184610
_cell_length_c 5.323387
_cell_angle_alpha 90.000000
_cell_angle_beta 66.828135
_cell_angle_gamma 90.000000
_cell_volume 1508.045615
_symmetry_space_group_name_H-M "P 2/M"
_symmetry_group_IT_number 10
_symmetry_cell_setting 'monoclinic'
loop_
_space_group_symop_operation_xyz
x,y,z
-x,y,-z
-x,-y,-z
x,-y,z
loop_
_atom_site_type_symbol
_atom_site_label
_atom_site_fract_x
_atom_site_fract_y
_atom_site_fract_z
Si Si1 0.214766 0.098011 0.177972
Si Si2 0.171275 0.834320 0.743211
Si Si3 0.915415 0.338112 0.126771
Si Si4 0.295341 0.277040 0.057051
Si Si5 0.841825 0.599401 0.737170
Si Si6 0.457271 0.102844 0.314098
Si Si7 0.332104 0.763976 0.501909
O O1 0.164754 0.107600 0.500358
O O2 0.249528 0.000000 0.125821
O O3 0.164751 0.107603 0.005639
O O4 0.277203 0.171660 0.084324
O O5 0.108500 0.763068 0.837362
O O6 0.248275 0.787284 0.627727
O O7 0.888074 0.386419 0.417963
O O8 0.888132 0.386402 0.917407
O O9 0.000000 0.342548 0.000000
O O10 0.343805 0.294870 0.736202
O O11 0.224025 0.333778 0.163955
O O12 0.343784 0.294894 0.232576
O O13 0.812133 0.500000 0.781763
O O14 0.500000 0.130979 0.500000
O O15 0.381140 0.150358 0.428291
O O16 0.440405 0.000000 0.339417
O O17 0.500000 0.130972 0.000000
#
# Coordination Sequence:
#
# PCOD8058395 Si02
#       7
#     4   4   4   4   4   4   4
#     4  10  18  30  54  76 102 133 176 238 280 313
#     4  10  19  36  52  79 110 142 194 237 275 328
#     4  12  23  40  61  82 117 156 186 239 306 357
#     4  10  19  35  53  83 112 140 192 246 278 326
#     4  12  23  40  60  85 119 150 188 242 302 359
#     4  10  21  35  50  81 125 156 185 227 281 342
#     4  10  18  32  58  71 107 155 188 223 270 326
#
# _framework density 18.567077000000001
#
# number of rings (size 3 to 8) (size 9 to 14) (size 15 to 20)
#    0.000    1.429    5.714    2.143    0.000    6.286 
#    0.000    1.429    0.000    2.571    0.000    0.000 
#    0.000   11.429    0.000    0.000    0.000    0.000 
#
# Total GULP energy -347014.459293 kJ/mol
# GULP energy per Si atom -12393.373546 kJ/mol
# Density = 1.852482 g / cm^3
# Si number density = 18.567077 Si / 1000 Ang^3
#
#
#
# Elastic Constant Matrix: (Units=GPa)
#
#
# Indices 1 2 3 4 5 6 
#
# 1 71.8987 16.0161 53.0716 0.0000 18.6831 0.0000
# 2 16.0161 46.9563 15.5710 0.0000 -0.3797 0.0000
# 3 53.0716 15.5710 146.5660 0.0000 46.0550 0.0000
# 4 0.0000 0.0000 0.0000 993.8493 0.0000 572.5992
# 5 18.6831 -0.3797 46.0550 0.0000 43.8988 0.0000
# 6 0.0000 0.0000 0.0000 572.5992 0.0000 340.7060
#
#
#
# Elastic Compliance Matrix: (Units=1/GPa)
#
#
# Indices 1 2 3 4 5 6 
#
# 1 0.020022 -0.004847 -0.006033 0.000000 -0.002234 0.000000
# 2 -0.004847 0.023717 -0.002204 0.000000 0.004580 0.000000
# 3 -0.006033 -0.002204 0.012592 0.000000 -0.010662 0.000000
# 4 0.000000 0.000000 0.000000 0.031721 0.000000 -0.053311
# 5 -0.002234 0.004580 -0.010662 0.000000 0.034955 0.000000
# 6 0.000000 0.000000 0.000000 -0.053311 0.000000 0.092531
#
#
# Mechanical properties :
#
#
# Convention : Reuss Voigt Hill
#
# Bulk Modulus (GPa) = 33.15245 48.30426 40.72836
# Shear Modulus (GPa) = 19.86014 287.74166 153.80090
#
# Velocity S-wave (km/s) = 3.27409 12.46237 9.11126
# Velocity P-wave (km/s) = 5.67337 15.26936 11.51826
#
# Compressibility (1/GPa) = 0.03016368
#
# Stress axis : x y z
#
# Youngs Moduli (GPa) = 49.94546 42.16314 79.41692
#
# Poissons Ratio (x) = 0.20435 0.47913
# Poissons Ratio (y) = 0.24207 0.17503
# Poissons Ratio (z) = 0.30133 0.09292
#
# Static dielectric constant tensor:
#      x y z
#    x 3.623350 0.000000 1.114800 
#    y 0.000000 3.174640 0.000000 
#    z 1.114800 0.000000 4.908940 
# 
# 
# High freq. dielectric constant tensor:
#      x y z
#    x 1.697510 0.000000 0.042220 
#    y 0.000000 1.687920 0.000000 
#    z 0.042220 0.000000 1.746240 
# 
# From -- ./inp_files/11371.got.cif
#   From: 2010.06.25/outbox.cif.g09.slc.cpg/sg10_6_cif.got.tgz:11371.got - 2010.06.27 22:07:45.
