data_PCOD8058174
_publ_section_title
;
Structure prediction by ZEFSAII (Michael W. Deem and Ramdas Pophale) SiO2 
 PCOD8058174
Probable space group: P 2/M
;
_chemical_formula_sum "Si O2"
_cell_formula_units_Z 32
_cell_length_a 15.520674
_cell_length_b 8.962297
_cell_length_c 14.220276
_cell_angle_alpha 90.000000
_cell_angle_beta 90.454944
_cell_angle_gamma 90.000000
_cell_volume 1977.990692
_symmetry_space_group_name_H-M "P 2/M"
_symmetry_group_IT_number 10
_symmetry_cell_setting 'monoclinic'
loop_
_space_group_symop_operation_xyz
x,y,z
-x,y,-z
-x,-y,-z
x,-y,z
loop_
_atom_site_type_symbol
_atom_site_label
_atom_site_fract_x
_atom_site_fract_y
_atom_site_fract_z
Si Si1 0.004138 0.677312 0.394488
Si Si2 0.827748 0.676566 0.715731
Si Si3 0.681439 0.323580 0.403840
Si Si4 0.506418 0.335778 0.611326
Si Si5 0.676298 0.823836 0.604636
Si Si6 0.900839 0.826963 0.103987
Si Si7 0.901382 0.174088 0.891250
Si Si8 0.160305 0.676403 0.719950
O O1 0.000189 0.500000 0.396746
O O2 0.091922 0.731732 0.346630
O O3 0.000000 0.742290 0.500000
O O4 0.922672 0.740448 0.336165
O O5 0.815184 0.500000 0.709990
O O6 0.742791 0.757454 0.679279
O O7 0.842985 0.725598 0.823142
O O8 0.687711 0.500000 0.424612
O O9 0.588792 0.282971 0.355889
O O10 0.696264 0.241081 0.502280
O O11 0.753984 0.268461 0.332201
O O12 0.500000 0.347282 0.500000
O O13 0.528761 0.500000 0.652851
O O14 0.580659 0.219967 0.640762
O O15 0.684146 0.000000 0.601520
O O16 0.839115 0.737720 0.174082
O O17 0.999489 0.776397 0.119362
O O18 0.891763 0.000000 0.126509
O O19 0.870974 0.793156 0.997425
O O20 0.890264 0.000000 0.866769
O O21 0.157551 0.500000 0.724478
#
# Coordination Sequence:
#
# PCOD8058174 Si02
#       8
#     4   4   4   4   4   4   4   4
#     4   9  17  28  42  62  91 125 157 188 224 265
#     4  11  20  31  48  69  93 125 161 199 237 275
#     4   9  18  32  50  70  96 128 159 195 237 278
#     4   8  15  30  49  68  91 122 158 195 236 279
#     4  11  21  31  46  69  97 128 160 197 236 280
#     4   9  18  32  49  67  93 126 155 193 242 283
#     4   9  18  33  49  66  92 125 158 195 239 282
#     4  10  18  30  48  71  95 123 160 198 232 274
#
# _framework density 16.178032999999999
#
# number of rings (size 3 to 8) (size 9 to 14) (size 15 to 20)
#    0.000    2.500    1.250    3.750    0.000    5.250 
#    0.000    1.250    0.000    1.875    0.000    0.875 
#    0.000    7.000    0.000    0.000    0.000    0.000 
#
# Total GULP energy -396747.391103 kJ/mol
# GULP energy per Si atom -12398.355972 kJ/mol
# Density = 1.614121 g / cm^3
# Si number density = 16.178033 Si / 1000 Ang^3
#
#
#
# Elastic Constant Matrix: (Units=GPa)
#
#
# Indices 1 2 3 4 5 6 
#
# 1 110.8769 38.3801 50.1388 0.0000 7.3100 0.0000
# 2 38.3801 57.7327 35.0963 0.0000 5.4495 0.0000
# 3 50.1388 35.0963 93.4956 0.0000 1.8123 0.0000
# 4 0.0000 0.0000 0.0000 26.2257 0.0000 2.4290
# 5 7.3100 5.4495 1.8123 0.0000 15.6255 0.0000
# 6 0.0000 0.0000 0.0000 2.4290 0.0000 18.1872
#
#
#
# Elastic Compliance Matrix: (Units=1/GPa)
#
#
# Indices 1 2 3 4 5 6 
#
# 1 0.013476 -0.005509 -0.005085 0.000000 -0.003793 0.000000
# 2 -0.005509 0.025454 -0.006493 0.000000 -0.005547 0.000000
# 3 -0.005085 -0.006493 0.015806 0.000000 0.002810 0.000000
# 4 0.000000 0.000000 0.000000 0.038608 0.000000 -0.005156
# 5 -0.003793 -0.005547 0.002810 0.000000 0.067381 0.000000
# 6 0.000000 0.000000 0.000000 -0.005156 0.000000 0.055672
#
#
# Mechanical properties :
#
#
# Convention : Reuss Voigt Hill
#
# Bulk Modulus (GPa) = 48.63585 56.59286 52.61435
# Shear Modulus (GPa) = 19.42310 21.24034 20.33172
#
# Velocity S-wave (km/s) = 3.46870 3.62734 3.54891
# Velocity P-wave (km/s) = 6.79490 7.25264 7.02750
#
# Compressibility (1/GPa) = 0.02056096
#
# Stress axis : x y z
#
# Youngs Moduli (GPa) = 74.20862 39.28582 63.26894
#
# Poissons Ratio (x) = 0.21643 0.32172
# Poissons Ratio (y) = 0.40883 0.41082
# Poissons Ratio (z) = 0.37735 0.25509
#
# Static dielectric constant tensor:
#      x y z
#    x 3.320160 0.000000 -0.036140 
#    y 0.000000 2.883200 0.000000 
#    z -0.036140 0.000000 2.934940 
# 
# 
# High freq. dielectric constant tensor:
#      x y z
#    x 1.615370 0.000000 0.000800 
#    y 0.000000 1.610340 0.000000 
#    z 0.000800 0.000000 1.602060 
# 
# From -- ./inp_files/66037.got.cif
#   From: 2010.06.25/outbox.cif.g09.slc.cpg/sg10_34_cif.got.tgz:66037.got - 2010.06.27 22:07:45.
