data_PCOD8058001
_publ_section_title
;
Structure prediction by ZEFSAII (Michael W. Deem and Ramdas Pophale) SiO2 
 PCOD8058001
Probable space group: P 2/M
;
_chemical_formula_sum "Si O2"
_cell_formula_units_Z 28
_cell_length_a 9.398243
_cell_length_b 8.834523
_cell_length_c 29.626226
_cell_angle_alpha 90.000000
_cell_angle_beta 38.088789
_cell_angle_gamma 90.000000
_cell_volume 1517.428107
_symmetry_space_group_name_H-M "P 2/M"
_symmetry_group_IT_number 10
_symmetry_cell_setting 'monoclinic'
loop_
_space_group_symop_operation_xyz
x,y,z
-x,y,-z
-x,-y,-z
x,-y,z
loop_
_atom_site_type_symbol
_atom_site_label
_atom_site_fract_x
_atom_site_fract_y
_atom_site_fract_z
Si Si1 0.332190 0.822815 0.633709
Si Si2 0.968137 0.827177 0.378646
Si Si3 0.666197 0.172401 0.780653
Si Si4 0.251102 0.824883 0.937600
Si Si5 0.174088 0.323384 0.496187
Si Si6 0.957491 0.676265 0.782035
Si Si7 0.407859 0.179505 0.070725
O O1 0.593390 0.769561 0.567325
O O2 0.207613 0.780820 0.617525
O O3 0.207643 0.745432 0.707709
O O4 0.323412 0.000000 0.643945
O O5 0.234170 0.808119 0.294756
O O6 0.940436 0.715692 0.427330
O O7 0.920772 0.000000 0.405707
O O8 0.389378 0.198629 0.855264
O O9 0.792963 0.291422 0.780768
O O10 0.724961 0.000000 0.782710
O O11 0.408509 0.759379 0.938381
O O12 0.210049 0.000000 0.958259
O O13 0.000000 0.743429 0.000000
O O14 0.231520 0.500000 0.480198
O O15 0.000000 0.275874 0.500000
O O16 0.986818 0.500000 0.783129
O O17 0.843601 0.750282 0.855268
O O18 0.381782 0.000000 0.077793
O O19 0.500000 0.239243 0.000000
#
# Coordination Sequence:
#
# PCOD8058001 Si02
#       7
#     4   4   4   4   4   4   4
#     4  10  20  36  58  80 100 126 168 215 254 298
#     4   9  18  33  54  78 100 127 169 216 255 296
#     4   8  15  29  48  71  99 127 162 208 251 293
#     4   8  13  24  45  70  94 122 157 199 243 283
#     4  11  24  38  51  73 107 140 167 200 249 307
#     4  10  18  29  49  75 101 128 162 204 252 300
#     4   9  17  30  47  68  97 131 167 205 244 290
#
# _framework density 18.452273999999999
#
# number of rings (size 3 to 8) (size 9 to 14) (size 15 to 20)
#    0.000    2.714    0.000    4.286    0.000    6.000 
#    0.000    1.429    0.000   10.286    0.000    0.000 
#    0.000    0.000    0.000    0.000    0.000    0.000 
#
# Total GULP energy -346983.353108 kJ/mol
# GULP energy per Si atom -12392.262611 kJ/mol
# Density = 1.841028 g / cm^3
# Si number density = 18.452274 Si / 1000 Ang^3
#
#
#
# Elastic Constant Matrix: (Units=GPa)
#
#
# Indices 1 2 3 4 5 6 
#
# 1 62.1983 24.9237 55.1786 0.0000 -0.2896 0.0000
# 2 24.9237 60.1746 38.7279 0.0000 4.9347 0.0000
# 3 55.1786 38.7279 172.8350 0.0000 1.1261 0.0000
# 4 0.0000 0.0000 0.0000 17.2241 0.0000 2.9918
# 5 -0.2896 4.9347 1.1261 0.0000 27.7241 0.0000
# 6 0.0000 0.0000 0.0000 2.9918 0.0000 18.2913
#
#
#
# Elastic Compliance Matrix: (Units=1/GPa)
#
#
# Indices 1 2 3 4 5 6 
#
# 1 0.024154 -0.006035 -0.006369 0.000000 0.001585 0.000000
# 2 -0.006035 0.021230 -0.002806 0.000000 -0.003728 0.000000
# 3 -0.006369 -0.002806 0.008447 0.000000 0.000090 0.000000
# 4 0.000000 0.000000 0.000000 0.059756 0.000000 -0.009774
# 5 0.001585 -0.003728 0.000090 0.000000 0.036746 0.000000
# 6 0.000000 0.000000 0.000000 -0.009774 0.000000 0.056269
#
#
# Mechanical properties :
#
#
# Convention : Reuss Voigt Hill
#
# Bulk Modulus (GPa) = 42.71644 59.20759 50.96202
# Shear Modulus (GPa) = 20.42266 24.40642 22.41454
#
# Velocity S-wave (km/s) = 3.33044 3.64081 3.48908
# Velocity P-wave (km/s) = 6.16353 7.05907 6.62645
#
# Compressibility (1/GPa) = 0.02341019
#
# Stress axis : x y z
#
# Youngs Moduli (GPa) = 41.40149 47.10406 118.37887
#
# Poissons Ratio (x) = 0.28427 0.75398
# Poissons Ratio (y) = 0.24986 0.33217
# Poissons Ratio (z) = 0.26370 0.13217
#
# Static dielectric constant tensor:
#      x y z
#    x 3.116090 0.000000 -0.059280 
#    y 0.000000 3.145320 0.000000 
#    z -0.059280 0.000000 3.934070 
# 
# 
# High freq. dielectric constant tensor:
#      x y z
#    x 1.664000 0.000000 -0.001550 
#    y 0.000000 1.696110 0.000000 
#    z -0.001550 0.000000 1.745810 
# 
# From -- ./inp_files/38045.got.cif
#   From: 2010.06.25/outbox.cif.g09.slc.cpg/sg10_20_cif.got.tgz:38045.got - 2010.06.27 22:07:45.
