data_PCOD8058852
_publ_section_title
;
Structure prediction by ZEFSAII (Michael W. Deem and Ramdas Pophale) SiO2 
 PCOD8058852
Probable space group: P 2/M
;
_chemical_formula_sum "Si O2"
_cell_formula_units_Z 32
_cell_length_a 21.212223
_cell_length_b 8.718347
_cell_length_c 14.917037
_cell_angle_alpha 90.000000
_cell_angle_beta 37.052049
_cell_angle_gamma 90.000000
_cell_volume 1662.221838
_symmetry_space_group_name_H-M "P 2/M"
_symmetry_group_IT_number 10
_symmetry_cell_setting 'monoclinic'
loop_
_space_group_symop_operation_xyz
x,y,z
-x,y,-z
-x,-y,-z
x,-y,z
loop_
_atom_site_type_symbol
_atom_site_label
_atom_site_fract_x
_atom_site_fract_y
_atom_site_fract_z
Si Si1 0.699691 0.181102 0.875368
Si Si2 0.305353 0.818404 0.321657
Si Si3 0.500295 0.182962 0.785522
Si Si4 0.016727 0.826366 0.076686
Si Si5 0.120825 0.678501 0.222726
Si Si6 0.076683 0.183115 0.634162
Si Si7 0.451915 0.819082 0.644620
Si Si8 0.221051 0.173484 0.943344
O O1 0.671030 0.230849 0.806874
O O2 0.811911 0.254934 0.771280
O O3 0.712603 0.000000 0.868217
O O4 0.606371 0.241307 0.045644
O O5 0.397584 0.750246 0.279650
O O6 0.192221 0.754575 0.480738
O O7 0.303642 0.000000 0.332968
O O8 0.502970 0.242773 0.679497
O O9 0.500722 0.000000 0.789164
O O10 0.954577 0.752005 0.231369
O O11 0.975073 0.000000 0.114820
O O12 0.140397 0.821219 0.953281
O O13 0.000000 0.740367 0.000000
O O14 0.103875 0.500000 0.256717
O O15 0.006271 0.755916 0.345241
O O16 0.187685 0.710142 0.057973
O O17 0.068748 0.000000 0.641502
O O18 0.500000 0.743175 0.500000
O O19 0.330895 0.773700 0.779438
O O20 0.469144 0.000000 0.622076
O O21 0.227436 0.000000 0.976743
#
# Coordination Sequence:
#
# PCOD8058852 Si02
#       8
#     4   4   4   4   4   4   4   4
#     4  10  18  32  54  76 100 132 169 207 254 302
#     4   9  18  30  49  76 101 131 169 209 249 302
#     4   9  16  28  48  76 107 133 164 206 248 297
#     4   8  14  24  43  69  95 127 164 201 244 292
#     4  11  21  33  52  74  97 130 173 214 253 299
#     4   9  18  33  50  72 104 133 166 210 257 301
#     4   9  16  25  43  76 109 133 158 199 253 298
#     4   9  16  30  49  71 101 135 167 204 252 299
#
# _framework density 19.251342000000001
#
# number of rings (size 3 to 8) (size 9 to 14) (size 15 to 20)
#    0.000    2.750    1.250    2.250    0.000    3.000 
#    0.000    8.125    0.000    8.625    0.000    0.000 
#    0.000    0.000    0.000    0.000    0.000    0.000 
#
# Total GULP energy -396604.498683 kJ/mol
# GULP energy per Si atom -12393.890584 kJ/mol
# Density = 1.920753 g / cm^3
# Si number density = 19.251342 Si / 1000 Ang^3
#
#
#
# Elastic Constant Matrix: (Units=GPa)
#
#
# Indices 1 2 3 4 5 6 
#
# 1 156.3906 17.3407 71.7226 0.0000 -0.1693 0.0000
# 2 17.3407 27.3390 10.5308 0.0000 -2.2360 0.0000
# 3 71.7226 10.5308 118.1869 0.0000 -5.2055 0.0000
# 4 0.0000 0.0000 0.0000 5.4165 0.0000 0.0352
# 5 -0.1693 -2.2360 -5.2055 0.0000 33.6964 0.0000
# 6 0.0000 0.0000 0.0000 0.0352 0.0000 3.5281
#
#
#
# Elastic Compliance Matrix: (Units=1/GPa)
#
#
# Indices 1 2 3 4 5 6 
#
# 1 0.009267 -0.003913 -0.005321 0.000000 -0.001035 0.000000
# 2 -0.003913 0.039665 -0.001052 0.000000 0.002450 0.000000
# 3 -0.005321 -0.001052 0.011860 0.000000 0.001736 0.000000
# 4 0.000000 0.000000 0.000000 0.184634 0.000000 -0.001840
# 5 -0.001035 0.002450 0.001736 0.000000 0.030102 0.000000
# 6 0.000000 0.000000 0.000000 -0.001840 0.000000 0.283458
#
#
# Mechanical properties :
#
#
# Convention : Reuss Voigt Hill
#
# Bulk Modulus (GPa) = 24.86228 55.67832 40.27030
# Shear Modulus (GPa) = 8.43220 22.01634 15.22427
#
# Velocity S-wave (km/s) = 2.09513 3.38542 2.81520
# Velocity P-wave (km/s) = 4.33536 6.65327 5.61522
#
# Compressibility (1/GPa) = 0.04022157
#
# Stress axis : x y z
#
# Youngs Moduli (GPa) = 107.90755 25.21094 84.31501
#
# Poissons Ratio (x) = 0.09865 0.44862
# Poissons Ratio (y) = 0.42226 0.08867
# Poissons Ratio (z) = 0.57415 0.02651
#
# Static dielectric constant tensor:
#      x y z
#    x 3.849010 0.000000 -0.007430 
#    y 0.000000 2.827780 0.000000 
#    z -0.007430 0.000000 3.679340 
# 
# 
# High freq. dielectric constant tensor:
#      x y z
#    x 1.764370 0.000000 -0.003520 
#    y 0.000000 1.674980 0.000000 
#    z -0.003520 0.000000 1.748100 
# 
# From -- ./inp_files/69978.got.cif
#   From: 2010.06.25/outbox.cif.g09.slc.cpg/sg10_35_cif.got.tgz:69978.got - 2010.06.27 22:07:45.
