data_PCOD8058661
_publ_section_title
;
Structure prediction by ZEFSAII (Michael W. Deem and Ramdas Pophale) SiO2 
 PCOD8058661
Probable space group: P 2/M
;
_chemical_formula_sum "Si O2"
_cell_formula_units_Z 32
_cell_length_a 29.030149
_cell_length_b 8.843016
_cell_length_c 20.192900
_cell_angle_alpha 90.000000
_cell_angle_beta 159.885476
_cell_angle_gamma 90.000000
_cell_volume 1782.697630
_symmetry_space_group_name_H-M "P 2/M"
_symmetry_group_IT_number 10
_symmetry_cell_setting 'monoclinic'
loop_
_space_group_symop_operation_xyz
x,y,z
-x,y,-z
-x,-y,-z
x,-y,z
loop_
_atom_site_type_symbol
_atom_site_label
_atom_site_fract_x
_atom_site_fract_y
_atom_site_fract_z
Si Si1 0.899047 0.823210 0.030695
Si Si2 0.360511 0.677512 0.070826
Si Si3 0.817798 0.678749 0.560954
Si Si4 0.143171 0.177129 0.172915
Si Si5 0.821899 0.323140 0.053913
Si Si6 0.354587 0.820860 0.563423
Si Si7 0.145552 0.679985 0.675506
Si Si8 0.888850 0.677998 0.514641
O O1 0.800798 0.763999 0.955949
O O2 0.040542 0.737892 0.221359
O O3 0.928044 0.000000 0.078403
O O4 0.825800 0.788597 0.862125
O O5 0.386935 0.500000 0.096831
O O6 0.496405 0.768051 0.249021
O O7 0.299793 0.711820 0.061210
O O8 0.259949 0.741635 0.878899
O O9 0.812540 0.500000 0.563982
O O10 0.695710 0.755287 0.434619
O O11 0.801185 0.722867 0.460598
O O12 0.260641 0.244644 0.377591
O O13 0.136544 0.000000 0.178047
O O14 0.000000 0.249478 0.000000
O O15 0.833415 0.500000 0.053506
O O16 0.959362 0.261637 0.272156
O O17 0.350918 0.000000 0.562116
O O18 0.145135 0.500000 0.680111
O O19 0.175074 0.739306 0.640281
O O20 0.000000 0.742433 0.500000
O O21 0.899150 0.500000 0.521692
#
# Coordination Sequence:
#
# PCOD8058661 Si02
#       8
#     4   4   4   4   4   4   4   4
#     4  10  18  31  54  79 102 131 172 217 257 301
#     4  10  20  34  54  79 108 138 172 216 260 304
#     4  10  19  32  51  78 109 134 166 212 263 311
#     4   9  17  33  54  75  98 130 178 220 249 297
#     4   9  17  31  50  76 109 137 165 209 261 306
#     4  11  22  37  55  73 102 141 176 213 259 313
#     4   9  14  26  52  81 103 131 174 215 250 293
#     4   8  14  26  48  78 104 129 166 212 251 293
#
# _framework density 17.950323999999998
#
# number of rings (size 3 to 8) (size 9 to 14) (size 15 to 20)
#    0.000    2.500    2.500    1.875    0.000    0.500 
#    0.000    4.375    0.000   11.625    0.000    0.000 
#    0.000    0.000    0.000    0.000    0.000    0.000 
#
# Total GULP energy -396656.886853 kJ/mol
# GULP energy per Si atom -12395.527714 kJ/mol
# Density = 1.790947 g / cm^3
# Si number density = 17.950324 Si / 1000 Ang^3
#
#
#
# Elastic Constant Matrix: (Units=GPa)
#
#
# Indices 1 2 3 4 5 6 
#
# 1 157.2990 45.2954 71.9076 0.0000 -5.1385 0.0000
# 2 45.2954 48.5887 30.6707 0.0000 3.2883 0.0000
# 3 71.9076 30.6707 109.0518 0.0000 -2.5916 0.0000
# 4 0.0000 0.0000 0.0000 20.8983 0.0000 6.0449
# 5 -5.1385 3.2883 -2.5916 0.0000 27.8390 0.0000
# 6 0.0000 0.0000 0.0000 6.0449 0.0000 8.3211
#
#
#
# Elastic Compliance Matrix: (Units=1/GPa)
#
#
# Indices 1 2 3 4 5 6 
#
# 1 0.010769 -0.006991 -0.005079 0.000000 0.002341 0.000000
# 2 -0.006991 0.029931 -0.003932 0.000000 -0.005192 0.000000
# 3 -0.005079 -0.003932 0.013644 0.000000 0.000797 0.000000
# 4 0.000000 0.000000 0.000000 0.060581 0.000000 -0.044009
# 5 0.002341 -0.005192 0.000797 0.000000 0.037040 0.000000
# 6 0.000000 0.000000 0.000000 -0.044009 0.000000 0.152147
#
#
# Mechanical properties :
#
#
# Convention : Reuss Voigt Hill
#
# Bulk Modulus (GPa) = 44.76219 67.85411 56.30815
# Shear Modulus (GPa) = 14.55341 22.54939 18.55140
#
# Velocity S-wave (km/s) = 2.85047 3.54815 3.21827
# Velocity P-wave (km/s) = 5.98535 7.39385 6.72657
#
# Compressibility (1/GPa) = 0.02234028
#
# Stress axis : x y z
#
# Youngs Moduli (GPa) = 92.86150 33.40965 73.29438
#
# Poissons Ratio (x) = 0.23358 0.37225
# Poissons Ratio (y) = 0.64922 0.28816
# Poissons Ratio (z) = 0.47163 0.13135
#
# Static dielectric constant tensor:
#      x y z
#    x 3.691080 0.000000 -0.228920 
#    y 0.000000 3.017190 0.000000 
#    z -0.228920 0.000000 3.222120 
# 
# 
# High freq. dielectric constant tensor:
#      x y z
#    x 1.713920 0.000000 -0.010060 
#    y 0.000000 1.662280 0.000000 
#    z -0.010060 0.000000 1.667780 
# 
# From -- ./inp_files/87212.got.cif
#   From: 2010.06.25/outbox.cif.g09.slc.cpg/sg10_44_cif.got.tgz:87212.got - 2010.06.27 22:07:45.
