data_PCOD8058228
_publ_section_title
;
Structure prediction by ZEFSAII (Michael W. Deem and Ramdas Pophale) SiO2 
 PCOD8058228
Probable space group: P 2/M
;
_chemical_formula_sum "Si O2"
_cell_formula_units_Z 28
_cell_length_a 14.968713
_cell_length_b 8.448827
_cell_length_c 18.876148
_cell_angle_alpha 90.000000
_cell_angle_beta 141.223447
_cell_angle_gamma 90.000000
_cell_volume 1495.085904
_symmetry_space_group_name_H-M "P 2/M"
_symmetry_group_IT_number 10
_symmetry_cell_setting 'monoclinic'
loop_
_space_group_symop_operation_xyz
x,y,z
-x,y,-z
-x,-y,-z
x,-y,z
loop_
_atom_site_type_symbol
_atom_site_label
_atom_site_fract_x
_atom_site_fract_y
_atom_site_fract_z
Si Si1 0.832281 0.687132 0.100947
Si Si2 0.744293 0.316198 0.277087
Si Si3 0.255615 0.687514 0.558946
Si Si4 0.981254 0.815963 0.324061
Si Si5 0.544172 0.816244 0.899466
Si Si6 0.562626 0.317303 0.759093
Si Si7 0.867062 0.688866 0.961065
O O1 0.821927 0.500000 0.101860
O O2 0.952548 0.753711 0.227356
O O3 0.680427 0.764596 0.030820
O O4 0.875614 0.741393 0.048344
O O5 0.710659 0.500000 0.248670
O O6 0.770767 0.268729 0.375194
O O7 0.885875 0.276057 0.321789
O O8 0.609406 0.220447 0.159854
O O9 0.238996 0.500000 0.536848
O O10 0.415458 0.749633 0.634233
O O11 0.146185 0.781599 0.442499
O O12 0.948514 0.000000 0.309340
O O13 0.550277 0.702814 0.835413
O O14 0.555209 0.000000 0.886290
O O15 0.565990 0.500000 0.742704
O O16 0.717977 0.245387 0.833248
O O17 0.868967 0.500000 0.957858
O O18 0.000000 0.762034 0.000000
#
# Coordination Sequence:
#
# PCOD8058228 Si02
#       7
#     4   4   4   4   4   4   4
#     4  10  20  35  52  71 100 135 165 196 247 306
#     4  10  20  35  53  72  96 130 172 211 249 292
#     4   9  18  33  51  70  96 133 173 206 240 289
#     4  12  24  34  47  70  99 131 170 213 251 288
#     4  10  18  30  49  73 101 129 163 207 248 288
#     4   8  15  29  50  75 102 132 163 197 242 294
#     4   8  14  28  55  86 105 119 151 202 249 290
#
# _framework density 18.728020999999998
#
# number of rings (size 3 to 8) (size 9 to 14) (size 15 to 20)
#    0.000    2.429    0.000    5.571    0.000    5.143 
#    0.000    2.857    0.000   11.571    0.000    6.000 
#    0.000    0.000    0.000    0.000    0.000    0.000 
#
# Total GULP energy -346940.926838 kJ/mol
# GULP energy per Si atom -12390.747387 kJ/mol
# Density = 1.868539 g / cm^3
# Si number density = 18.728021 Si / 1000 Ang^3
#
#
#
# Elastic Constant Matrix: (Units=GPa)
#
#
# Indices 1 2 3 4 5 6 
#
# 1 76.6649 14.0784 68.8299 0.0000 28.9986 0.0000
# 2 14.0784 45.2302 33.1082 0.0000 -0.3019 0.0000
# 3 68.8299 33.1082 144.2125 0.0000 24.8078 0.0000
# 4 0.0000 0.0000 0.0000 18.2603 0.0000 1.5623
# 5 28.9986 -0.3019 24.8078 0.0000 28.3905 0.0000
# 6 0.0000 0.0000 0.0000 1.5623 0.0000 7.1344
#
#
#
# Elastic Compliance Matrix: (Units=1/GPa)
#
#
# Indices 1 2 3 4 5 6 
#
# 1 0.031816 -0.002238 -0.010683 0.000000 -0.023187 0.000000
# 2 -0.002238 0.027829 -0.006785 0.000000 0.008511 0.000000
# 3 -0.010683 -0.006785 0.013800 0.000000 -0.001219 0.000000
# 4 0.000000 0.000000 0.000000 0.055809 0.000000 -0.012221
# 5 -0.023187 0.008511 -0.001219 0.000000 0.060062 0.000000
# 6 0.000000 0.000000 0.000000 -0.012221 0.000000 0.142842
#
#
# Mechanical properties :
#
#
# Convention : Reuss Voigt Hill
#
# Bulk Modulus (GPa) = 29.38232 55.34895 42.36563
# Shear Modulus (GPa) = 13.05772 20.76312 16.91042
#
# Velocity S-wave (km/s) = 2.64337 3.33328 3.00817
# Velocity P-wave (km/s) = 5.00396 6.66577 5.89373
#
# Compressibility (1/GPa) = 0.03403408
#
# Stress axis : x y z
#
# Youngs Moduli (GPa) = 31.43048 35.93378 72.46227
#
# Poissons Ratio (x) = 0.08043 0.77410
# Poissons Ratio (y) = 0.07035 0.49164
# Poissons Ratio (z) = 0.33577 0.24380
#
# Static dielectric constant tensor:
#      x y z
#    x 3.503170 0.000000 0.464890 
#    y 0.000000 3.187390 0.000000 
#    z 0.464890 0.000000 3.725530 
# 
# 
# High freq. dielectric constant tensor:
#      x y z
#    x 1.692680 0.000000 0.033500 
#    y 0.000000 1.712520 0.000000 
#    z 0.033500 0.000000 1.730690 
# 
# From -- ./inp_files/68622.got.cif
#   From: 2010.06.25/outbox.cif.g09.slc.cpg/sg10_35_cif.got.tgz:68622.got - 2010.06.27 22:07:45.
