data_PCOD8058790
_publ_section_title
;
Structure prediction by ZEFSAII (Michael W. Deem and Ramdas Pophale) SiO2 
 PCOD8058790
Probable space group: P 2/M
;
_chemical_formula_sum "Si O2"
_cell_formula_units_Z 32
_cell_length_a 26.971977
_cell_length_b 12.644970
_cell_length_c 5.240138
_cell_angle_alpha 90.000000
_cell_angle_beta 107.775948
_cell_angle_gamma 90.000000
_cell_volume 1701.875444
_symmetry_space_group_name_H-M "P 2/M"
_symmetry_group_IT_number 10
_symmetry_cell_setting 'monoclinic'
loop_
_space_group_symop_operation_xyz
x,y,z
-x,y,-z
-x,-y,-z
x,-y,z
loop_
_atom_site_type_symbol
_atom_site_label
_atom_site_fract_x
_atom_site_fract_y
_atom_site_fract_z
Si Si1 0.591820 0.374982 0.109255
Si Si2 0.557638 0.737293 0.552749
Si Si3 0.657747 0.126099 0.723068
Si Si4 0.204901 0.377235 0.540616
Si Si5 0.307454 0.758901 0.719241
Si Si6 0.937196 0.797897 0.152619
Si Si7 0.049748 0.881381 0.327070
Si Si8 0.139699 0.620221 0.941931
O O1 0.591017 0.500000 0.138451
O O2 0.558341 0.324069 0.284784
O O3 0.650615 0.334515 0.225682
O O4 0.569183 0.344641 0.798359
O O5 0.500000 0.785368 0.500000
O O6 0.598050 0.834308 0.619080
O O7 0.689220 0.169256 0.528486
O O8 0.657787 0.000000 0.720532
O O9 0.685242 0.167114 0.022814
O O10 0.223155 0.500000 0.569452
O O11 0.252602 0.298708 0.650198
O O12 0.166115 0.355691 0.713286
O O13 0.177884 0.347260 0.231438
O O14 0.915853 0.860452 0.367734
O O15 0.915245 0.680122 0.124235
O O16 0.000153 0.802017 0.250278
O O17 0.915422 0.857213 0.866339
O O18 0.027853 0.000000 0.288136
O O19 0.123200 0.500000 0.943614
#
# Coordination Sequence:
#
# PCOD8058790 Si02
#       8
#     4   4   4   4   4   4   4   4
#     4  10  20  33  51  77 107 136 167 211 260 303
#     4  10  21  34  50  76 104 136 176 206 246 312
#     4  10  21  37  57  76 101 136 169 215 264 295
#     4  10  20  36  58  80 104 137 170 208 258 309
#     4  10  20  36  58  80 101 130 177 218 250 309
#     4  10  18  32  52  76 105 136 172 216 257 300
#     4  10  19  33  55  78 100 138 183 220 258 298
#     4  10  21  35  53  79 110 141 171 205 255 312
#
# _framework density 18.802786999999999
#
# number of rings (size 3 to 8) (size 9 to 14) (size 15 to 20)
#    0.000    2.000    0.000    4.875    0.000    1.750 
#    0.000    6.250    0.000   24.000    0.000    0.000 
#    0.000    0.000    0.000    0.000    0.000    0.000 
#
# Total GULP energy -396665.880574 kJ/mol
# GULP energy per Si atom -12395.808768 kJ/mol
# Density = 1.875999 g / cm^3
# Si number density = 18.802787 Si / 1000 Ang^3
#
#
#
# Elastic Constant Matrix: (Units=GPa)
#
#
# Indices 1 2 3 4 5 6 
#
# 1 69.0540 55.4438 29.2233 0.0000 -0.4966 0.0000
# 2 55.4438 114.2053 32.9930 0.0000 4.2376 0.0000
# 3 29.2233 32.9930 114.7563 0.0000 -36.2102 0.0000
# 4 0.0000 0.0000 0.0000 22.5253 0.0000 -0.4681
# 5 -0.4966 4.2376 -36.2102 0.0000 28.6863 0.0000
# 6 0.0000 0.0000 0.0000 -0.4681 0.0000 15.8850
#
#
#
# Elastic Compliance Matrix: (Units=1/GPa)
#
#
# Indices 1 2 3 4 5 6 
#
# 1 0.024889 -0.010690 -0.004372 0.000000 -0.003509 0.000000
# 2 -0.010690 0.015427 -0.004139 0.000000 -0.007689 0.000000
# 3 -0.004372 -0.004139 0.018592 0.000000 0.024004 0.000000
# 4 0.000000 0.000000 0.000000 0.044422 0.000000 0.001309
# 5 -0.003509 -0.007689 0.024004 0.000000 0.066234 0.000000
# 6 0.000000 0.000000 0.000000 0.001309 0.000000 0.062991
#
#
# Mechanical properties :
#
#
# Convention : Reuss Voigt Hill
#
# Bulk Modulus (GPa) = 48.76660 59.25954 54.01307
# Shear Modulus (GPa) = 17.99904 25.44300 21.72102
#
# Velocity S-wave (km/s) = 3.09731 3.68251 3.40251
# Velocity P-wave (km/s) = 6.22762 7.04741 6.65016
#
# Compressibility (1/GPa) = 0.02050584
#
# Stress axis : x y z
#
# Youngs Moduli (GPa) = 40.17773 64.82160 53.78775
#
# Poissons Ratio (x) = 0.69294 0.23515
# Poissons Ratio (y) = 0.42950 0.22264
# Poissons Ratio (z) = 0.17565 0.26831
#
# Static dielectric constant tensor:
#      x y z
#    x 3.384650 0.000000 -0.590880 
#    y 0.000000 3.294460 0.000000 
#    z -0.590880 0.000000 4.566210 
# 
# 
# High freq. dielectric constant tensor:
#      x y z
#    x 1.712230 0.000000 -0.023200 
#    y 0.000000 1.718350 0.000000 
#    z -0.023200 0.000000 1.758590 
# 
# From -- ./inp_files/13259.got.cif
#   From: 2010.06.25/outbox.cif.g09.slc.cpg/sg10_7_cif.got.tgz:13259.got - 2010.06.27 22:07:45.
