data_PCOD8058873
_publ_section_title
;
Structure prediction by ZEFSAII (Michael W. Deem and Ramdas Pophale) SiO2 
 PCOD8058873
Probable space group: P 2/M
;
_chemical_formula_sum "Si O2"
_cell_formula_units_Z 32
_cell_length_a 19.882334
_cell_length_b 9.147633
_cell_length_c 24.774974
_cell_angle_alpha 90.000000
_cell_angle_beta 157.176339
_cell_angle_gamma 90.000000
_cell_volume 1747.852919
_symmetry_space_group_name_H-M "P 2/M"
_symmetry_group_IT_number 10
_symmetry_cell_setting 'monoclinic'
loop_
_space_group_symop_operation_xyz
x,y,z
-x,y,-z
-x,-y,-z
x,-y,z
loop_
_atom_site_type_symbol
_atom_site_label
_atom_site_fract_x
_atom_site_fract_y
_atom_site_fract_z
Si Si1 0.831647 0.332421 0.344120
Si Si2 0.471241 0.668634 0.599274
Si Si3 0.139433 0.169316 0.854095
Si Si4 0.864858 0.329054 0.718950
Si Si5 0.374365 0.670179 0.647133
Si Si6 0.329802 0.835160 0.337875
Si Si7 0.019750 0.667049 0.661275
Si Si8 0.472230 0.168880 0.824234
O O1 0.799842 0.500000 0.337966
O O2 0.855860 0.317439 0.298091
O O3 0.665777 0.239882 0.237738
O O4 0.000000 0.272018 0.500000
O O5 0.517729 0.500000 0.624082
O O6 0.284461 0.703430 0.435233
O O7 0.463234 0.709748 0.656075
O O8 0.624025 0.763640 0.685562
O O9 0.091147 0.227117 0.759567
O O10 0.040379 0.257420 0.827354
O O11 0.087049 0.000000 0.819507
O O12 0.342156 0.194394 0.011877
O O13 0.893853 0.500000 0.749540
O O14 0.819530 0.257304 0.743096
O O15 0.393447 0.500000 0.674459
O O16 0.472260 0.760147 0.765211
O O17 0.173110 0.715330 0.497904
O O18 0.500000 0.831120 0.500000
O O19 0.264002 0.000000 0.279930
O O20 0.016462 0.500000 0.680656
O O21 0.426765 0.000000 0.784127
#
# Coordination Sequence:
#
# PCOD8058873 Si02
#       8
#     4   4   4   4   4   4   4   4
#     4  10  20  38  62  84 110 142 182 233 279 326
#     4   9  17  30  51  80 110 140 179 230 276 321
#     4  11  24  39  54  79 117 152 184 227 277 332
#     4  10  18  32  54  78 108 146 187 229 273 324
#     4  10  19  36  59  83 111 143 186 235 277 324
#     4   9  17  28  45  76 114 147 180 220 271 329
#     4  10  20  37  61  86 108 140 187 231 277 329
#     4  11  25  40  55  81 115 150 186 224 277 339
#
# _framework density 18.308176
#
# number of rings (size 3 to 8) (size 9 to 14) (size 15 to 20)
#    0.000    2.000    2.500    1.500    0.000    6.250 
#    0.000    2.500    0.000    0.750    0.000    5.250 
#    0.000    0.000    0.000    0.000    0.000    0.000 
#
# Total GULP energy -396924.475757 kJ/mol
# GULP energy per Si atom -12403.889867 kJ/mol
# Density = 1.826651 g / cm^3
# Si number density = 18.308176 Si / 1000 Ang^3
#
#
#
# Elastic Constant Matrix: (Units=GPa)
#
#
# Indices 1 2 3 4 5 6 
#
# 1 107.2714 52.1426 22.7322 0.0000 17.1476 0.0000
# 2 52.1426 105.9224 38.4240 0.0000 12.0777 0.0000
# 3 22.7322 38.4240 40.9827 0.0000 9.9145 0.0000
# 4 0.0000 0.0000 0.0000 27.5444 0.0000 4.9729
# 5 17.1476 12.0777 9.9145 0.0000 22.2322 0.0000
# 6 0.0000 0.0000 0.0000 4.9729 0.0000 21.7698
#
#
#
# Elastic Compliance Matrix: (Units=1/GPa)
#
#
# Indices 1 2 3 4 5 6 
#
# 1 0.013235 -0.005559 -0.000437 0.000000 -0.006993 0.000000
# 2 -0.005559 0.016722 -0.012817 0.000000 0.000919 0.000000
# 3 -0.000437 -0.012817 0.039113 0.000000 -0.010143 0.000000
# 4 0.000000 0.000000 0.000000 0.037867 0.000000 -0.008650
# 5 -0.006993 0.000919 -0.010143 0.000000 0.054397 0.000000
# 6 0.000000 0.000000 0.000000 -0.008650 0.000000 0.047911
#
#
# Mechanical properties :
#
#
# Convention : Reuss Voigt Hill
#
# Bulk Modulus (GPa) = 31.80281 53.41935 42.61108
# Shear Modulus (GPa) = 19.42855 23.70113 21.56484
#
# Velocity S-wave (km/s) = 3.26113 3.60191 3.43575
# Velocity P-wave (km/s) = 5.62037 6.82199 6.25012
#
# Compressibility (1/GPa) = 0.03144376
#
# Stress axis : x y z
#
# Youngs Moduli (GPa) = 75.55803 59.80117 25.56667
#
# Poissons Ratio (x) = 0.33244 0.01118
# Poissons Ratio (y) = 0.42004 0.32769
# Poissons Ratio (z) = 0.03304 0.76646
#
# Static dielectric constant tensor:
#      x y z
#    x 3.475860 0.000000 0.107400 
#    y 0.000000 3.429770 0.000000 
#    z 0.107400 0.000000 3.065930 
# 
# 
# High freq. dielectric constant tensor:
#      x y z
#    x 1.724710 0.000000 0.011260 
#    y 0.000000 1.713500 0.000000 
#    z 0.011260 0.000000 1.676720 
# 
# From -- ./inp_files/93723.got.cif
#   From: 2010.06.25/outbox.cif.g09.slc.cpg/sg10_47_cif.got.tgz:93723.got - 2010.06.27 22:07:45.
