data_PCOD8058531
_publ_section_title
;
Structure prediction by ZEFSAII (Michael W. Deem and Ramdas Pophale) SiO2 
 PCOD8058531
Probable space group: P 2/M
;
_chemical_formula_sum "Si O2"
_cell_formula_units_Z 32
_cell_length_a 20.036443
_cell_length_b 9.104364
_cell_length_c 24.940748
_cell_angle_alpha 90.000000
_cell_angle_beta 23.055987
_cell_angle_gamma 90.000000
_cell_volume 1781.788415
_symmetry_space_group_name_H-M "P 2/M"
_symmetry_group_IT_number 10
_symmetry_cell_setting 'monoclinic'
loop_
_space_group_symop_operation_xyz
x,y,z
-x,y,-z
-x,-y,-z
x,-y,z
loop_
_atom_site_type_symbol
_atom_site_label
_atom_site_fract_x
_atom_site_fract_y
_atom_site_fract_z
Si Si1 0.335927 0.834147 0.158744
Si Si2 0.842515 0.827107 0.149870
Si Si3 0.137700 0.672360 0.219934
Si Si4 0.459178 0.330324 0.910880
Si Si5 0.645347 0.327499 0.130096
Si Si6 0.141206 0.171015 0.638005
Si Si7 0.996593 0.172408 0.145441
Si Si8 0.481010 0.172078 0.674746
O O1 0.184489 0.743802 0.242585
O O2 0.385217 0.762274 0.179217
O O3 0.274104 0.000000 0.214215
O O4 0.500000 0.827417 0.000000
O O5 0.861872 0.786857 0.198223
O O6 0.664271 0.766850 0.258291
O O7 0.843634 0.000000 0.140920
O O8 0.000000 0.758062 0.000000
O O9 0.118306 0.500000 0.242708
O O10 0.959232 0.738003 0.332489
O O11 0.279441 0.712756 0.070804
O O12 0.498807 0.500000 0.892659
O O13 0.448780 0.292481 0.856103
O O14 0.665725 0.500000 0.123888
O O15 0.528481 0.258431 0.262446
O O16 0.830889 0.257328 0.993788
O O17 0.085405 0.223687 0.738237
O O18 0.339901 0.205901 0.485499
O O19 0.100633 0.000000 0.659493
O O20 0.038610 0.000000 0.114081
O O21 0.458556 0.000000 0.703444
#
# Coordination Sequence:
#
# PCOD8058531 Si02
#       8
#     4   4   4   4   4   4   4   4
#     4   9  17  28  46  76 108 136 172 217 260 307
#     4   9  16  30  54  79 103 136 177 219 268 322
#     4  10  18  31  51  73 106 146 175 210 262 316
#     4   9  18  31  48  74 105 137 174 216 261 312
#     4  11  21  34  53  79 107 139 180 221 262 315
#     4  10  21  34  52  79 108 139 179 223 267 317
#     4  10  19  33  55  79 104 138 177 221 269 317
#     4  10  21  37  54  76 107 141 178 222 270 320
#
# _framework density 17.959485000000001
#
# number of rings (size 3 to 8) (size 9 to 14) (size 15 to 20)
#    0.000    2.250    2.500    1.125    0.000    4.000 
#    0.000    3.750    0.000    0.750    0.000    7.875 
#    0.000    0.000    0.000    0.000    0.000    0.000 
#
# Total GULP energy -396837.790357 kJ/mol
# GULP energy per Si atom -12401.180949 kJ/mol
# Density = 1.791861 g / cm^3
# Si number density = 17.959485 Si / 1000 Ang^3
#
#
#
# Elastic Constant Matrix: (Units=GPa)
#
#
# Indices 1 2 3 4 5 6 
#
# 1 123.8623 44.1850 38.1667 0.0000 -19.5084 0.0000
# 2 44.1850 61.9540 24.1233 0.0000 -9.2835 0.0000
# 3 38.1667 24.1233 63.4282 0.0000 -9.8021 0.0000
# 4 0.0000 0.0000 0.0000 13.0852 0.0000 3.9478
# 5 -19.5084 -9.2835 -9.8021 0.0000 26.9872 0.0000
# 6 0.0000 0.0000 0.0000 3.9478 0.0000 22.2459
#
#
#
# Elastic Compliance Matrix: (Units=1/GPa)
#
#
# Indices 1 2 3 4 5 6 
#
# 1 0.012532 -0.006489 -0.004257 0.000000 0.005281 0.000000
# 2 -0.006489 0.022752 -0.004518 0.000000 0.001495 0.000000
# 3 -0.004257 -0.004518 0.020479 0.000000 0.002807 0.000000
# 4 0.000000 0.000000 0.000000 0.080745 0.000000 -0.014329
# 5 0.005281 0.001495 0.002807 0.000000 0.042406 0.000000
# 6 0.000000 0.000000 0.000000 -0.014329 0.000000 0.047495
#
#
# Mechanical properties :
#
#
# Convention : Reuss Voigt Hill
#
# Bulk Modulus (GPa) = 39.62504 51.35496 45.49000
# Shear Modulus (GPa) = 18.84329 21.98162 20.41246
#
# Velocity S-wave (km/s) = 3.24267 3.50230 3.37498
# Velocity P-wave (km/s) = 6.01093 6.70908 6.36958
#
# Compressibility (1/GPa) = 0.02523657
#
# Stress axis : x y z
#
# Youngs Moduli (GPa) = 79.79882 43.95269 48.82991
#
# Poissons Ratio (x) = 0.28519 0.20786
# Poissons Ratio (y) = 0.51778 0.22059
# Poissons Ratio (z) = 0.33969 0.19856
#
# Static dielectric constant tensor:
#      x y z
#    x 3.544370 0.000000 -0.102960 
#    y 0.000000 3.243750 0.000000 
#    z -0.102960 0.000000 3.079630 
# 
# 
# High freq. dielectric constant tensor:
#      x y z
#    x 1.709660 0.000000 -0.011300 
#    y 0.000000 1.683430 0.000000 
#    z -0.011300 0.000000 1.664040 
# 
# From -- ./inp_files/93627.got.cif
#   From: 2010.06.25/outbox.cif.g09.slc.cpg/sg10_47_cif.got.tgz:93627.got - 2010.06.27 22:07:45.
