data_PCOD8058616
_publ_section_title
;
Structure prediction by ZEFSAII (Michael W. Deem and Ramdas Pophale) SiO2 
 PCOD8058616
Probable space group: P 2/M
;
_chemical_formula_sum "Si O2"
_cell_formula_units_Z 32
_cell_length_a 21.578701
_cell_length_b 19.201515
_cell_length_c 9.459384
_cell_angle_alpha 90.000000
_cell_angle_beta 27.911690
_cell_angle_gamma 90.000000
_cell_volume 1834.727953
_symmetry_space_group_name_H-M "P 2/M"
_symmetry_group_IT_number 10
_symmetry_cell_setting 'monoclinic'
loop_
_space_group_symop_operation_xyz
x,y,z
-x,y,-z
-x,-y,-z
x,-y,z
loop_
_atom_site_type_symbol
_atom_site_label
_atom_site_fract_x
_atom_site_fract_y
_atom_site_fract_z
Si Si1 0.593763 0.580844 0.442972
Si Si2 0.752318 0.223372 0.671937
Si Si3 0.505898 0.301946 0.819866
Si Si4 0.750949 0.784492 0.339548
Si Si5 0.993593 0.307581 0.846492
Si Si6 0.097880 0.418875 0.176830
Si Si7 0.851758 0.925067 0.134215
Si Si8 0.150819 0.076711 0.524145
O O1 0.500000 0.598898 0.500000
O O2 0.582423 0.500000 0.506516
O O3 0.533592 0.622970 0.696343
O O4 0.748017 0.600485 0.101261
O O5 0.746982 0.217532 0.515424
O O6 0.872064 0.272581 0.480591
O O7 0.765621 0.143320 0.704023
O O8 0.622134 0.263605 0.986951
O O9 0.622299 0.250963 0.535388
O O10 0.500000 0.312899 0.000000
O O11 0.757578 0.863592 0.267192
O O12 0.880567 0.745286 0.025855
O O13 0.959830 0.381323 0.844971
O O14 0.000000 0.320747 0.000000
O O15 0.085178 0.500000 0.170574
O O16 0.000000 0.396191 0.500000
O O17 0.852486 0.921338 0.301095
O O18 0.795488 0.000000 0.197185
O O19 0.999910 0.914825 0.775910
O O20 0.206390 0.000000 0.362506
#
# Coordination Sequence:
#
# PCOD8058616 Si02
#       8
#     4   4   4   4   4   4   4   4
#     4  10  22  40  57  73  99 134 168 205 251 303
#     4   9  17  26  43  71  99 131 167 202 246 296
#     4  10  20  33  51  74 102 134 167 206 251 298
#     4   9  15  28  43  66 100 131 165 207 250 287
#     4  10  18  31  53  75 101 134 167 207 251 296
#     4  10  22  39  56  76 102 130 163 208 257 300
#     4   8  12  19  36  60  90 131 169 198 238 292
#     4   8  12  20  35  59  93 131 166 198 238 291
#
# _framework density 17.441278000000001
#
# number of rings (size 3 to 8) (size 9 to 14) (size 15 to 20)
#    0.000    2.750    2.500    0.750    1.750    0.500 
#    0.000    0.625    0.000    3.750    0.000    0.000 
#    0.000    6.000    0.000    0.000    0.000    0.000 
#
# Total GULP energy -396454.947089 kJ/mol
# GULP energy per Si atom -12389.217097 kJ/mol
# Density = 1.740158 g / cm^3
# Si number density = 17.441278 Si / 1000 Ang^3
#
#
#
# Elastic Constant Matrix: (Units=GPa)
#
#
# Indices 1 2 3 4 5 6 
#
# 1 51.8200 49.3642 41.3739 0.0000 -17.9031 0.0000
# 2 49.3642 128.1958 60.1223 0.0000 -12.3222 0.0000
# 3 41.3739 60.1223 94.5963 0.0000 -27.8463 0.0000
# 4 0.0000 0.0000 0.0000 20.5628 0.0000 -10.3894
# 5 -17.9031 -12.3222 -27.8463 0.0000 24.3546 0.0000
# 6 0.0000 0.0000 0.0000 -10.3894 0.0000 11.0630
#
#
#
# Elastic Compliance Matrix: (Units=1/GPa)
#
#
# Indices 1 2 3 4 5 6 
#
# 1 0.040608 -0.011498 -0.005092 0.000000 0.018211 0.000000
# 2 -0.011498 0.014594 -0.006875 0.000000 -0.008929 0.000000
# 3 -0.005092 -0.006875 0.022673 0.000000 0.018702 0.000000
# 4 0.000000 0.000000 0.000000 0.092541 0.000000 0.086906
# 5 0.018211 -0.008929 0.018702 0.000000 0.071313 0.000000
# 6 0.000000 0.000000 0.000000 0.086906 0.000000 0.172006
#
#
# Mechanical properties :
#
#
# Convention : Reuss Voigt Hill
#
# Bulk Modulus (GPa) = 32.31552 64.03700 48.17626
# Shear Modulus (GPa) = 10.61612 19.44622 15.03117
#
# Velocity S-wave (km/s) = 2.46982 3.34271 2.93885
# Velocity P-wave (km/s) = 5.16737 7.18984 6.26081
#
# Compressibility (1/GPa) = 0.03094489
#
# Stress axis : x y z
#
# Youngs Moduli (GPa) = 24.62540 68.52005 44.10464
#
# Poissons Ratio (x) = 0.78787 0.22459
# Poissons Ratio (y) = 0.28315 0.30322
# Poissons Ratio (z) = 0.12540 0.47108
#
# Static dielectric constant tensor:
#      x y z
#    x 2.869370 0.000000 -0.370340 
#    y 0.000000 3.609370 0.000000 
#    z -0.370340 0.000000 3.373000 
# 
# 
# High freq. dielectric constant tensor:
#      x y z
#    x 1.626980 0.000000 -0.028950 
#    y 0.000000 1.691900 0.000000 
#    z -0.028950 0.000000 1.654400 
# 
# From -- ./inp_files/35437.got.cif
#   From: 2010.06.25/outbox.cif.g09.slc.cpg/sg10_18_cif.got.tgz:35437.got - 2010.06.27 22:07:45.
