data_PCOD8058104
_publ_section_title
;
Structure prediction by ZEFSAII (Michael W. Deem and Ramdas Pophale) SiO2 
 PCOD8058104
Probable space group: P 2/M
;
_chemical_formula_sum "Si O2"
_cell_formula_units_Z 32
_cell_length_a 14.388283
_cell_length_b 8.905049
_cell_length_c 14.775040
_cell_angle_alpha 90.000000
_cell_angle_beta 72.450502
_cell_angle_gamma 90.000000
_cell_volume 1804.990735
_symmetry_space_group_name_H-M "P 2/M"
_symmetry_group_IT_number 10
_symmetry_cell_setting 'monoclinic'
loop_
_space_group_symop_operation_xyz
x,y,z
-x,y,-z
-x,-y,-z
x,-y,z
loop_
_atom_site_type_symbol
_atom_site_label
_atom_site_fract_x
_atom_site_fract_y
_atom_site_fract_z
Si Si1 0.491768 0.829586 0.395995
Si Si2 0.000236 0.174512 0.601828
Si Si3 0.701806 0.676050 0.548088
Si Si4 0.682036 0.177895 0.238309
Si Si5 0.809232 0.178745 0.358005
Si Si6 0.403325 0.178783 0.918269
Si Si7 0.214674 0.824961 0.309390
Si Si8 0.621604 0.821958 0.874764
O O1 0.500000 0.819011 0.500000
O O2 0.405054 0.723879 0.386785
O O3 0.589721 0.766462 0.322941
O O4 0.470300 0.000000 0.370332
O O5 0.898436 0.199351 0.685172
O O6 0.000000 0.245554 0.500000
O O7 0.085700 0.243644 0.640766
O O8 0.024001 0.000000 0.583240
O O9 0.709786 0.500000 0.532166
O O10 0.725431 0.757775 0.447312
O O11 0.777182 0.731580 0.601185
O O12 0.780413 0.230296 0.263116
O O13 0.668563 0.241970 0.139817
O O14 0.681774 0.000000 0.232888
O O15 0.804896 0.000000 0.364937
O O16 0.515982 0.228800 0.866834
O O17 0.401012 0.000000 0.920907
O O18 0.366854 0.241056 0.026003
O O19 0.288753 0.759494 0.211918
O O20 0.235981 0.000000 0.322521
O O21 0.628274 0.000000 0.875032
#
# Coordination Sequence:
#
# PCOD8058104 Si02
#       8
#     4   4   4   4   4   4   4   4
#     4  10  18  30  47  66  88 122 162 188 211 263
#     4   9  16  27  47  68  86 114 157 203 233 262
#     4  12  23  31  42  66  97 126 150 189 237 276
#     4   9  16  26  45  67  90 120 154 188 223 269
#     4  10  18  32  48  64  87 122 161 193 225 273
#     4   8  13  23  39  68  97 115 141 185 236 271
#     4  10  18  31  50  68  87 119 159 195 230 276
#     4   8  14  24  43  67  93 116 144 190 233 273
#
# _framework density 17.728622999999999
#
# number of rings (size 3 to 8) (size 9 to 14) (size 15 to 20)
#    0.000    2.500    2.500    2.625    0.000    2.250 
#    0.000    1.250    0.000    0.750    0.000   13.125 
#    0.000    0.000    0.000    2.250    0.000    2.500 
#
# Total GULP energy -396475.487006 kJ/mol
# GULP energy per Si atom -12389.858969 kJ/mol
# Density = 1.768827 g / cm^3
# Si number density = 17.728623 Si / 1000 Ang^3
#
#
#
# Elastic Constant Matrix: (Units=GPa)
#
#
# Indices 1 2 3 4 5 6 
#
# 1 124.3294 13.4817 55.1466 0.0000 22.6090 0.0000
# 2 13.4817 17.0258 6.2166 0.0000 3.2225 0.0000
# 3 55.1466 6.2166 97.3645 0.0000 17.7638 0.0000
# 4 0.0000 0.0000 0.0000 1.1987 0.0000 0.3640
# 5 22.6090 3.2225 17.7638 0.0000 33.9411 0.0000
# 6 0.0000 0.0000 0.0000 0.3640 0.0000 3.1935
#
#
#
# Elastic Compliance Matrix: (Units=1/GPa)
#
#
# Indices 1 2 3 4 5 6 
#
# 1 0.012058 -0.006660 -0.005588 0.000000 -0.004475 0.000000
# 2 -0.006660 0.064334 -0.000033 0.000000 -0.001654 0.000000
# 3 -0.005588 -0.000033 0.014105 0.000000 -0.003657 0.000000
# 4 0.000000 0.000000 0.000000 0.864114 0.000000 -0.098483
# 5 -0.004475 -0.001654 -0.003657 0.000000 0.034515 0.000000
# 6 0.000000 0.000000 0.000000 -0.098483 0.000000 0.324360
#
#
# Mechanical properties :
#
#
# Convention : Reuss Voigt Hill
#
# Bulk Modulus (GPa) = 15.16691 43.15661 29.16176
# Shear Modulus (GPa) = 3.67640 18.59165 11.13402
#
# Velocity S-wave (km/s) = 1.44160 3.24185 2.50876
# Velocity P-wave (km/s) = 3.36817 6.19746 4.98764
#
# Compressibility (1/GPa) = 0.06593301
#
# Stress axis : x y z
#
# Youngs Moduli (GPa) = 82.93558 15.54396 70.89799
#
# Poissons Ratio (x) = 0.10353 0.39615
# Poissons Ratio (y) = 0.55238 0.00237
# Poissons Ratio (z) = 0.46341 0.00052
#
# Static dielectric constant tensor:
#      x y z
#    x 3.584570 0.000000 0.216740 
#    y 0.000000 2.677360 0.000000 
#    z 0.216740 0.000000 3.524880 
# 
# 
# High freq. dielectric constant tensor:
#      x y z
#    x 1.687610 0.000000 0.014210 
#    y 0.000000 1.619010 0.000000 
#    z 0.014210 0.000000 1.672900 
# 
# From -- ./inp_files/66049.got.cif
#   From: 2010.06.25/outbox.cif.g09.slc.cpg/sg10_34_cif.got.tgz:66049.got - 2010.06.27 22:07:45.
