data_PCOD8058415
_publ_section_title
;
Structure prediction by ZEFSAII (Michael W. Deem and Ramdas Pophale) SiO2 
 PCOD8058415
Probable space group: P 2/M
;
_chemical_formula_sum "Si O2"
_cell_formula_units_Z 30
_cell_length_a 14.728808
_cell_length_b 9.088934
_cell_length_c 11.395242
_cell_angle_alpha 90.000000
_cell_angle_beta 69.410345
_cell_angle_gamma 90.000000
_cell_volume 1428.029046
_symmetry_space_group_name_H-M "P 2/M"
_symmetry_group_IT_number 10
_symmetry_cell_setting 'monoclinic'
loop_
_space_group_symop_operation_xyz
x,y,z
-x,y,-z
-x,-y,-z
x,-y,z
loop_
_atom_site_type_symbol
_atom_site_label
_atom_site_fract_x
_atom_site_fract_y
_atom_site_fract_z
Si Si1 0.232767 0.171632 0.394829
Si Si2 0.500000 0.753778 0.000000
Si Si3 0.969620 0.673096 0.145919
Si Si4 0.210919 0.172757 0.667638
Si Si5 0.447433 0.164348 0.274927
Si Si6 0.625160 0.669749 0.285483
Si Si7 0.698427 0.339316 0.996096
Si Si8 0.138911 0.173382 0.203429
O O1 0.186284 0.205123 0.542471
O O2 0.340854 0.238866 0.332241
O O3 0.160328 0.229317 0.326514
O O4 0.246624 0.000000 0.366371
O O5 0.518515 0.850678 0.875836
O O6 0.594677 0.654545 0.978702
O O7 0.962075 0.500000 0.169612
O O8 0.865569 0.744846 0.215657
O O9 0.045316 0.740531 0.202574
O O10 0.000000 0.712028 0.000000
O O11 0.318041 0.236881 0.642352
O O12 0.209068 0.000000 0.696183
O O13 0.517225 0.267148 0.320227
O O14 0.449001 0.000000 0.328054
O O15 0.617689 0.500000 0.326909
O O16 0.685377 0.689989 0.139049
O O17 0.747482 0.500000 0.954768
O O18 0.767231 0.211064 0.917322
O O19 0.118308 0.000000 0.204701
#
# Coordination Sequence:
#
# PCOD8058415 Si02
#       8
#     4   2   4   4   4   4   4   4
#     4   9  21  40  60  88 126 162 197 249 306 351
#     4  10  18  30  56  86 120 158 202 248 294 348
#     4  11  25  45  67  92 124 156 190 246 311 363
#     4  11  23  42  66  88 116 159 207 250 299 361
#     4  10  19  35  58  87 121 162 209 250 297 354
#     4  10  22  38  56  85 124 162 203 256 308 353
#     4  10  20  34  54  83 122 161 195 241 305 359
#     4  11  22  39  63  92 123 157 202 250 296 358
#
# _framework density 21.007977
#
# number of rings (size 3 to 8) (size 9 to 14) (size 15 to 20)
#    0.000    1.733    1.333    2.800    0.000    8.533 
#    0.000    9.333    0.000    0.000    0.000    0.000 
#    0.000    0.000    0.000    0.000    0.000    0.000 
#
# Total GULP energy -372022.070517 kJ/mol
# GULP energy per Si atom -12400.735684 kJ/mol
# Density = 2.096016 g / cm^3
# Si number density = 21.007977 Si / 1000 Ang^3
#
#
#
# Elastic Constant Matrix: (Units=GPa)
#
#
# Indices 1 2 3 4 5 6 
#
# 1 126.2403 44.9490 31.8325 0.0000 14.6723 0.0000
# 2 44.9490 103.7254 37.5967 0.0000 9.0912 0.0000
# 3 31.8325 37.5967 61.5087 0.0000 5.1905 0.0000
# 4 0.0000 0.0000 0.0000 14.8542 0.0000 -1.0552
# 5 14.6723 9.0912 5.1905 0.0000 32.7317 0.0000
# 6 0.0000 0.0000 0.0000 -1.0552 0.0000 30.0370
#
#
#
# Elastic Compliance Matrix: (Units=1/GPa)
#
#
# Indices 1 2 3 4 5 6 
#
# 1 0.010152 -0.002969 -0.003167 0.000000 -0.003224 0.000000
# 2 -0.002969 0.013421 -0.006553 0.000000 -0.001358 0.000000
# 3 -0.003167 -0.006553 0.021922 0.000000 -0.000237 0.000000
# 4 0.000000 0.000000 0.000000 0.067489 0.000000 0.002371
# 5 -0.003224 -0.001358 -0.000237 0.000000 0.032411 0.000000
# 6 0.000000 0.000000 0.000000 0.002371 0.000000 0.033376
#
#
# Mechanical properties :
#
#
# Convention : Reuss Voigt Hill
#
# Bulk Modulus (GPa) = 49.70630 57.80342 53.75486
# Shear Modulus (GPa) = 23.71297 27.33100 25.52198
#
# Velocity S-wave (km/s) = 3.36335 3.61083 3.48928
# Velocity P-wave (km/s) = 6.22855 6.70513 6.47123
#
# Compressibility (1/GPa) = 0.02011817
#
# Stress axis : x y z
#
# Youngs Moduli (GPa) = 98.50523 74.50747 45.61562
#
# Poissons Ratio (x) = 0.22119 0.14447
# Poissons Ratio (y) = 0.29243 0.29891
# Poissons Ratio (z) = 0.31199 0.48823
#
# Static dielectric constant tensor:
#      x y z
#    x 3.915580 0.000000 0.141630 
#    y 0.000000 3.608280 0.000000 
#    z 0.141630 0.000000 3.713380 
# 
# 
# High freq. dielectric constant tensor:
#      x y z
#    x 1.832200 0.000000 0.008260 
#    y 0.000000 1.811540 0.000000 
#    z 0.008260 0.000000 1.816230 
# 
# From -- ./inp_files/49765.got.cif
#   From: 2010.06.25/outbox.cif.g09.slc.cpg/sg10_25_cif.got.tgz:49765.got - 2010.06.27 22:07:45.
