data_PCOD8058528
_publ_section_title
;
Structure prediction by ZEFSAII (Michael W. Deem and Ramdas Pophale) SiO2 
 PCOD8058528
Probable space group: P 2/M
;
_chemical_formula_sum "Si O2"
_cell_formula_units_Z 32
_cell_length_a 22.126878
_cell_length_b 9.291039
_cell_length_c 28.590190
_cell_angle_alpha 90.000000
_cell_angle_beta 162.226297
_cell_angle_gamma 90.000000
_cell_volume 1794.191980
_symmetry_space_group_name_H-M "P 2/M"
_symmetry_group_IT_number 10
_symmetry_cell_setting 'monoclinic'
loop_
_space_group_symop_operation_xyz
x,y,z
-x,y,-z
-x,-y,-z
x,-y,z
loop_
_atom_site_type_symbol
_atom_site_label
_atom_site_fract_x
_atom_site_fract_y
_atom_site_fract_z
Si Si1 0.376834 0.834253 0.575358
Si Si2 0.606618 0.827938 0.308844
Si Si3 0.189428 0.171122 0.277294
Si Si4 0.203075 0.828842 0.965763
Si Si5 0.921403 0.834267 0.226794
Si Si6 0.276368 0.332942 0.835646
Si Si7 0.030958 0.666313 0.469263
Si Si8 0.537187 0.828483 0.599936
O O1 0.407326 0.763371 0.648736
O O2 0.521691 0.767662 0.641853
O O3 0.154919 0.813491 0.393542
O O4 0.430477 0.000000 0.621394
O O5 0.797641 0.764766 0.424812
O O6 0.627091 0.000000 0.323492
O O7 0.412254 0.772509 0.138746
O O8 0.259167 0.219023 0.276185
O O9 0.349987 0.230023 0.432557
O O10 0.972951 0.233306 0.130823
O O11 0.184571 0.000000 0.276265
O O12 0.177805 0.775147 0.893903
O O13 0.193790 0.000000 0.959979
O O14 0.846695 0.745514 0.215435
O O15 0.866381 0.000000 0.195034
O O16 0.278277 0.500000 0.850029
O O17 0.172574 0.305003 0.709064
O O18 0.500000 0.271845 0.000000
O O19 0.094840 0.500000 0.512245
O O20 0.000000 0.711702 0.500000
O O21 0.522540 0.000000 0.591107
#
# Coordination Sequence:
#
# PCOD8058528 Si02
#       8
#     4   4   4   4   4   4   4   4
#     4   9  15  26  43  65  93 126 160 194 234 277
#     4  10  20  33  49  71 100 129 158 197 240 280
#     4   8  12  20  35  59  92 127 161 194 231 278
#     4   9  17  28  43  68 100 130 160 198 239 277
#     4  10  18  31  51  72  97 127 160 196 236 282
#     4  10  22  38  54  74  98 121 152 198 242 280
#     4  10  22  39  55  71  95 127 158 190 235 290
#     4   8  12  19  36  60  89 128 164 191 229 282
#
# _framework density 17.835326999999999
#
# number of rings (size 3 to 8) (size 9 to 14) (size 15 to 20)
#    0.000    2.750    2.500    0.750    1.750    0.500 
#    0.000    0.625    0.000    3.750    0.000    0.000 
#    0.000    6.000    0.000    0.000    0.000    0.000 
#
# Total GULP energy -396561.348113 kJ/mol
# GULP energy per Si atom -12392.542129 kJ/mol
# Density = 1.779473 g / cm^3
# Si number density = 17.835327 Si / 1000 Ang^3
#
#
#
# Elastic Constant Matrix: (Units=GPa)
#
#
# Indices 1 2 3 4 5 6 
#
# 1 158.2084 24.8256 48.2122 0.0000 -11.4099 0.0000
# 2 24.8256 17.6827 16.4271 0.0000 0.5729 0.0000
# 3 48.2122 16.4271 88.9314 0.0000 -13.5347 0.0000
# 4 0.0000 0.0000 0.0000 8.2052 0.0000 -9.2429
# 5 -11.4099 0.5729 -13.5347 0.0000 29.9450 0.0000
# 6 0.0000 0.0000 0.0000 -9.2429 0.0000 -4.7755
#
#
#
# Elastic Compliance Matrix: (Units=1/GPa)
#
#
# Indices 1 2 3 4 5 6 
#
# 1 0.008869 -0.010145 -0.002567 0.000000 0.002413 0.000000
# 2 -0.010145 0.081488 -0.011144 0.000000 -0.010462 0.000000
# 3 -0.002567 -0.011144 0.015655 0.000000 0.006311 0.000000
# 4 0.000000 0.000000 0.000000 0.038322 0.000000 -0.074172
# 5 0.002413 -0.010462 0.006311 0.000000 0.037367 0.000000
# 6 0.000000 0.000000 0.000000 -0.074172 0.000000 -0.065845
#
#
# Mechanical properties :
#
#
# Convention : Reuss Voigt Hill
#
# Bulk Modulus (GPa) = 17.15285 49.30583 33.22934
# Shear Modulus (GPa) = 27.32205 18.36545 22.84375
#
# Velocity S-wave (km/s) = 3.91820 3.21241 3.58273
# Velocity P-wave (km/s) = 5.48707 6.43929 5.98216
#
# Compressibility (1/GPa) = 0.05829936
#
# Stress axis : x y z
#
# Youngs Moduli (GPa) = 112.75219 12.27173 63.87636
#
# Poissons Ratio (x) = 0.12450 0.16396
# Poissons Ratio (y) = 1.14390 0.71186
# Poissons Ratio (z) = 0.28942 0.13676
#
# Static dielectric constant tensor:
#      x y z
#    x 3.669700 0.000000 -0.024850 
#    y 0.000000 2.741420 0.000000 
#    z -0.024850 0.000000 3.504310 
# 
# 
# High freq. dielectric constant tensor:
#      x y z
#    x 1.711260 0.000000 0.001100 
#    y 0.000000 1.623080 0.000000 
#    z 0.001100 0.000000 1.683790 
# 
# From -- ./inp_files/87074.got.cif
#   From: 2010.06.25/outbox.cif.g09.slc.cpg/sg10_44_cif.got.tgz:87074.got - 2010.06.27 22:07:45.
