data_PCOD8058082
_publ_section_title
;
Structure prediction by ZEFSAII (Michael W. Deem and Ramdas Pophale) SiO2 
 PCOD8058082
Probable space group: P 2/M
;
_chemical_formula_sum "Si O2"
_cell_formula_units_Z 32
_cell_length_a 12.088354
_cell_length_b 9.332570
_cell_length_c 21.785238
_cell_angle_alpha 90.000000
_cell_angle_beta 133.615066
_cell_angle_gamma 90.000000
_cell_volume 1779.359093
_symmetry_space_group_name_H-M "P 2/M"
_symmetry_group_IT_number 10
_symmetry_cell_setting 'monoclinic'
loop_
_space_group_symop_operation_xyz
x,y,z
-x,y,-z
-x,-y,-z
x,-y,z
loop_
_atom_site_type_symbol
_atom_site_label
_atom_site_fract_x
_atom_site_fract_y
_atom_site_fract_z
Si Si1 0.145855 0.165240 0.728772
Si Si2 0.114543 0.666511 0.596384
Si Si3 0.281430 0.166466 0.237204
Si Si4 0.534853 0.664475 0.282216
Si Si5 0.756231 0.335006 0.023643
Si Si6 0.984740 0.835267 0.192987
Si Si7 0.826083 0.846506 0.937354
Si Si8 0.445259 0.665372 0.848766
O O1 0.077630 0.244322 0.643496
O O2 0.022900 0.179664 0.736551
O O3 0.302709 0.236755 0.812084
O O4 0.177677 0.000000 0.724904
O O5 0.088885 0.500000 0.602028
O O6 0.286157 0.695601 0.639146
O O7 0.000000 0.720018 0.500000
O O8 0.443612 0.249514 0.300816
O O9 0.224483 0.206204 0.148212
O O10 0.150872 0.223346 0.234488
O O11 0.313276 0.000000 0.261228
O O12 0.494238 0.500000 0.277031
O O13 0.492383 0.710856 0.195382
O O14 0.800751 0.500000 0.049230
O O15 0.840217 0.247565 0.108956
O O16 0.807705 0.282469 0.977115
O O17 0.571595 0.314867 0.950842
O O18 0.968895 0.000000 0.165266
O O19 0.744331 0.000000 0.924291
O O20 0.000000 0.885205 0.000000
O O21 0.390407 0.500000 0.823787
#
# Coordination Sequence:
#
# PCOD8058082 Si02
#       8
#     4   4   4   4   4   4   4   4
#     4  10  21  36  56  78 102 133 172 216 251 299
#     4   9  19  38  63  86 109 133 154 192 256 317
#     4  10  19  31  49  70  99 140 176 209 255 305
#     4   9  17  31  51  78 107 129 161 209 254 298
#     4  11  21  31  47  71  98 135 182 229 265 296
#     4  10  22  38  49  67 103 144 181 214 257 304
#     4  10  18  30  46  65  94 136 179 222 264 300
#     4   9  19  34  49  69 103 138 171 219 271 309
#
# _framework density 17.984003000000001
#
# number of rings (size 3 to 8) (size 9 to 14) (size 15 to 20)
#    0.000    2.250    2.500    1.500    0.000    5.500 
#    0.000    2.500    0.000    0.750    0.000    5.250 
#    0.000    0.000    0.000    0.000    0.000    0.000 
#
# Total GULP energy -396574.430272 kJ/mol
# GULP energy per Si atom -12392.950946 kJ/mol
# Density = 1.794307 g / cm^3
# Si number density = 17.984003 Si / 1000 Ang^3
#
#
#
# Elastic Constant Matrix: (Units=GPa)
#
#
# Indices 1 2 3 4 5 6 
#
# 1 98.6737 47.1000 42.8195 0.0000 -4.6812 0.0000
# 2 47.1000 76.6614 38.0739 0.0000 -3.8128 0.0000
# 3 42.8195 38.0739 82.0593 0.0000 3.1127 0.0000
# 4 0.0000 0.0000 0.0000 16.6427 0.0000 6.7998
# 5 -4.6812 -3.8128 3.1127 0.0000 15.4749 0.0000
# 6 0.0000 0.0000 0.0000 6.7998 0.0000 17.2042
#
#
#
# Elastic Compliance Matrix: (Units=1/GPa)
#
#
# Indices 1 2 3 4 5 6 
#
# 1 0.015937 -0.006986 -0.005232 0.000000 0.004152 0.000000
# 2 -0.006986 0.020546 -0.006046 0.000000 0.004165 0.000000
# 3 -0.005232 -0.006046 0.017975 0.000000 -0.006688 0.000000
# 4 0.000000 0.000000 0.000000 0.071658 0.000000 -0.028322
# 5 0.004152 0.004165 -0.006688 0.000000 0.068248 0.000000
# 6 0.000000 0.000000 0.000000 -0.028322 0.000000 0.069319
#
#
# Mechanical properties :
#
#
# Convention : Reuss Voigt Hill
#
# Bulk Modulus (GPa) = 55.77088 57.04233 56.40661
# Shear Modulus (GPa) = 16.32985 18.49111 17.41048
#
# Velocity S-wave (km/s) = 3.01661 3.21003 3.11482
# Velocity P-wave (km/s) = 6.57358 6.74732 6.66101
#
# Compressibility (1/GPa) = 0.01793050
#
# Stress axis : x y z
#
# Youngs Moduli (GPa) = 62.74887 48.67037 55.63268
#
# Poissons Ratio (x) = 0.34003 0.29106
# Poissons Ratio (y) = 0.43839 0.33633
# Poissons Ratio (z) = 0.32829 0.29424
#
# Static dielectric constant tensor:
#      x y z
#    x 3.315130 0.000000 0.127450 
#    y 0.000000 3.389660 0.000000 
#    z 0.127450 0.000000 3.146440 
# 
# 
# High freq. dielectric constant tensor:
#      x y z
#    x 1.689210 0.000000 0.008120 
#    y 0.000000 1.699760 0.000000 
#    z 0.008120 0.000000 1.663660 
# 
# From -- ./inp_files/63778.got.cif
#   From: 2010.06.25/outbox.cif.g09.slc.cpg/sg10_32_cif.got.tgz:63778.got - 2010.06.27 22:07:45.
