data_PCOD8058767
_publ_section_title
;
Structure prediction by ZEFSAII (Michael W. Deem and Ramdas Pophale) SiO2 
 PCOD8058767
Probable space group: P 2/M
;
_chemical_formula_sum "Si O2"
_cell_formula_units_Z 32
_cell_length_a 20.320851
_cell_length_b 8.793555
_cell_length_c 29.274106
_cell_angle_alpha 90.000000
_cell_angle_beta 20.073939
_cell_angle_gamma 90.000000
_cell_volume 1795.471167
_symmetry_space_group_name_H-M "P 2/M"
_symmetry_group_IT_number 10
_symmetry_cell_setting 'monoclinic'
loop_
_space_group_symop_operation_xyz
x,y,z
-x,y,-z
-x,-y,-z
x,-y,z
loop_
_atom_site_type_symbol
_atom_site_label
_atom_site_fract_x
_atom_site_fract_y
_atom_site_fract_z
Si Si1 0.984124 0.178847 0.890258
Si Si2 0.074850 0.820695 0.170304
Si Si3 0.485421 0.320532 0.889785
Si Si4 0.439547 0.819000 0.351773
Si Si5 0.551405 0.820167 0.179561
Si Si6 0.666136 0.179964 0.856754
Si Si7 0.942311 0.180082 0.353313
Si Si8 0.174480 0.181281 0.854968
O O1 0.038612 0.223552 0.802470
O O2 0.135820 0.243386 0.828418
O O3 0.982762 0.000000 0.897364
O O4 0.770575 0.237950 0.040568
O O5 0.947853 0.770254 0.296398
O O6 0.119886 0.000000 0.142272
O O7 0.277730 0.738495 0.040113
O O8 0.485530 0.500000 0.889134
O O9 0.547147 0.259698 0.799594
O O10 0.639902 0.260462 0.825281
O O11 0.442969 0.770276 0.296430
O O12 0.247967 0.749609 0.499569
O O13 0.624544 0.751723 0.257775
O O14 0.442055 0.000000 0.353867
O O15 0.543261 0.000000 0.177141
O O16 0.868306 0.239505 0.744651
O O17 0.663927 0.000000 0.850990
O O18 0.500000 0.230322 0.000000
O O19 0.935150 0.000000 0.361685
O O20 0.183467 0.000000 0.850901
O O21 0.000000 0.239930 0.000000
#
# Coordination Sequence:
#
# PCOD8058767 Si02
#       8
#     4   4   4   4   4   4   4   4
#     4   8  13  21  39  65  93 126 158 187 227 282
#     4   9  16  30  48  68  97 131 161 193 238 286
#     4  11  21  31  48  74  98 119 155 206 246 282
#     4   9  16  26  44  71 100 128 160 198 235 280
#     4   9  16  29  48  69  95 128 161 192 235 285
#     4  10  18  32  52  71  93 127 162 196 239 285
#     4   9  17  29  46  68  94 125 163 199 233 279
#     4   9  13  20  36  66 102 129 154 192 240 280
#
# _framework density 17.822619
#
# number of rings (size 3 to 8) (size 9 to 14) (size 15 to 20)
#    0.000    2.750    2.500    1.875    0.000    0.250 
#    0.000    1.250    0.000    9.000    0.000    7.000 
#    0.000    4.000    0.000    0.000    0.000    0.000 
#
# Total GULP energy -396604.170493 kJ/mol
# GULP energy per Si atom -12393.880328 kJ/mol
# Density = 1.778205 g / cm^3
# Si number density = 17.822619 Si / 1000 Ang^3
#
#
#
# Elastic Constant Matrix: (Units=GPa)
#
#
# Indices 1 2 3 4 5 6 
#
# 1 188.6484 28.9634 89.4005 0.0000 12.5388 0.0000
# 2 28.9634 29.6860 16.2297 0.0000 2.5729 0.0000
# 3 89.4005 16.2297 132.4710 0.0000 8.3866 0.0000
# 4 0.0000 0.0000 0.0000 4.0384 0.0000 0.8979
# 5 12.5388 2.5729 8.3866 0.0000 28.3018 0.0000
# 6 0.0000 0.0000 0.0000 0.8979 0.0000 1.9628
#
#
#
# Elastic Compliance Matrix: (Units=1/GPa)
#
#
# Indices 1 2 3 4 5 6 
#
# 1 0.008669 -0.005534 -0.005056 0.000000 -0.001839 0.000000
# 2 -0.005534 0.039750 -0.001082 0.000000 -0.000841 0.000000
# 3 -0.005056 -0.001082 0.011155 0.000000 -0.000967 0.000000
# 4 0.000000 0.000000 0.000000 0.275657 0.000000 -0.126102
# 5 -0.001839 -0.000841 -0.000967 0.000000 0.036511 0.000000
# 6 0.000000 0.000000 0.000000 -0.126102 0.000000 0.567169
#
#
# Mechanical properties :
#
#
# Convention : Reuss Voigt Hill
#
# Bulk Modulus (GPa) = 27.60190 68.88808 48.24499
# Shear Modulus (GPa) = 5.13173 21.27472 13.20322
#
# Velocity S-wave (km/s) = 1.69870 3.45873 2.72474
# Velocity P-wave (km/s) = 4.40092 7.39503 6.08500
#
# Compressibility (1/GPa) = 0.03622939
#
# Stress axis : x y z
#
# Youngs Moduli (GPa) = 115.35707 25.15740 89.64925
#
# Poissons Ratio (x) = 0.13923 0.45325
# Poissons Ratio (y) = 0.63842 0.09698
# Poissons Ratio (z) = 0.58322 0.02722
#
# Static dielectric constant tensor:
#      x y z
#    x 3.761850 0.000000 0.050300 
#    y 0.000000 2.700700 0.000000 
#    z 0.050300 0.000000 3.317570 
# 
# 
# High freq. dielectric constant tensor:
#      x y z
#    x 1.712620 0.000000 0.008390 
#    y 0.000000 1.627960 0.000000 
#    z 0.008390 0.000000 1.662160 
# 
# From -- ./inp_files/52769.got.cif
#   From: 2010.06.25/outbox.cif.g09.slc.cpg/sg10_27_cif.got.tgz:52769.got - 2010.06.27 22:07:45.
