data_PCOD8058540
_publ_section_title
;
Structure prediction by ZEFSAII (Michael W. Deem and Ramdas Pophale) SiO2 
 PCOD8058540
Probable space group: P 2/M
;
_chemical_formula_sum "Si O2"
_cell_formula_units_Z 32
_cell_length_a 14.375468
_cell_length_b 9.028747
_cell_length_c 13.074497
_cell_angle_alpha 90.000000
_cell_angle_beta 93.200041
_cell_angle_gamma 90.000000
_cell_volume 1694.325130
_symmetry_space_group_name_H-M "P 2/M"
_symmetry_group_IT_number 10
_symmetry_cell_setting 'monoclinic'
loop_
_space_group_symop_operation_xyz
x,y,z
-x,y,-z
-x,-y,-z
x,-y,z
loop_
_atom_site_type_symbol
_atom_site_label
_atom_site_fract_x
_atom_site_fract_y
_atom_site_fract_z
Si Si1 0.915756 0.329661 0.718679
Si Si2 0.722258 0.673874 0.625854
Si Si3 0.060235 0.825680 0.601334
Si Si4 0.904223 0.329440 0.955930
Si Si5 0.404700 0.323167 0.200937
Si Si6 0.706084 0.322998 0.004157
Si Si7 0.614333 0.323720 0.206909
Si Si8 0.741528 0.674176 0.399988
O O1 0.936249 0.500000 0.691184
O O2 0.826299 0.264684 0.652756
O O3 0.892510 0.311053 0.835267
O O4 0.006417 0.233678 0.697687
O O5 0.726371 0.500000 0.646715
O O6 0.647452 0.740870 0.701166
O O7 0.694575 0.711128 0.507249
O O8 0.161138 0.755111 0.604466
O O9 0.000000 0.775204 0.500000
O O10 0.071534 0.000000 0.608707
O O11 0.908887 0.500000 0.989610
O O12 0.811898 0.260291 0.002948
O O13 0.000000 0.250843 0.000000
O O14 0.405918 0.500000 0.202309
O O15 0.509758 0.260721 0.208289
O O16 0.353755 0.264364 0.095767
O O17 0.706767 0.500000 0.001726
O O18 0.661407 0.262314 0.106155
O O19 0.612874 0.500000 0.204513
O O20 0.672041 0.266866 0.308434
O O21 0.760071 0.500000 0.390249
#
# Coordination Sequence:
#
# PCOD8058540 Si02
#       8
#     4   4   4   4   4   4   4   4
#     4  10  18  31  51  74  99 132 169 203 242 294
#     4   9  16  27  45  68  96 128 163 200 241 291
#     4  11  23  36  51  72  98 131 167 205 250 301
#     4   9  17  26  41  70 101 131 165 205 247 287
#     4   9  15  26  42  64  99 137 165 197 248 297
#     4   9  15  25  39  62  99 136 167 197 240 296
#     4   9  18  27  41  68 101 134 163 200 249 295
#     4  10  20  33  49  74 102 129 164 204 247 298
#
# _framework density 18.886575000000001
#
# number of rings (size 3 to 8) (size 9 to 14) (size 15 to 20)
#    0.000    2.500    2.500    0.750    1.750    2.500 
#    0.000    2.500    0.000    0.375    0.000    2.625 
#    0.000    1.000    0.000    0.000    0.000    0.000 
#
# Total GULP energy -396703.780756 kJ/mol
# GULP energy per Si atom -12396.993149 kJ/mol
# Density = 1.884359 g / cm^3
# Si number density = 18.886575 Si / 1000 Ang^3
#
#
#
# Elastic Constant Matrix: (Units=GPa)
#
#
# Indices 1 2 3 4 5 6 
#
# 1 179.8116 21.0056 95.7275 0.0000 -1.8273 0.0000
# 2 21.0056 14.9569 18.9305 0.0000 -0.8863 0.0000
# 3 95.7275 18.9305 140.3254 0.0000 -2.5638 0.0000
# 4 0.0000 0.0000 0.0000 4.1919 0.0000 3.0235
# 5 -1.8273 -0.8863 -2.5638 0.0000 37.7071 0.0000
# 6 0.0000 0.0000 0.0000 3.0235 0.0000 2.6889
#
#
#
# Elastic Compliance Matrix: (Units=1/GPa)
#
#
# Indices 1 2 3 4 5 6 
#
# 1 0.009155 -0.005976 -0.005441 0.000000 -0.000067 0.000000
# 2 -0.005976 0.084575 -0.007311 0.000000 0.001201 0.000000
# 3 -0.005441 -0.007311 0.011831 0.000000 0.000369 0.000000
# 4 0.000000 0.000000 0.000000 1.262195 0.000000 -1.419234
# 5 -0.000067 0.001201 0.000369 0.000000 0.026570 0.000000
# 6 0.000000 0.000000 0.000000 -1.419234 0.000000 1.967710
#
#
# Mechanical properties :
#
#
# Convention : Reuss Voigt Hill
#
# Bulk Modulus (GPa) = 14.68284 67.38010 41.03147
# Shear Modulus (GPa) = 1.46105 22.21296 11.83700
#
# Velocity S-wave (km/s) = 0.88050 3.43319 2.50620
# Velocity P-wave (km/s) = 2.97066 7.17421 5.49063
#
# Compressibility (1/GPa) = 0.06810670
#
# Stress axis : x y z
#
# Youngs Moduli (GPa) = 109.22727 11.82377 84.52491
#
# Poissons Ratio (x) = 0.07065 0.45987
# Poissons Ratio (y) = 0.65270 0.61798
# Poissons Ratio (z) = 0.59426 0.08645
#
# Static dielectric constant tensor:
#      x y z
#    x 3.727210 0.000000 -0.044540 
#    y 0.000000 2.701100 0.000000 
#    z -0.044540 0.000000 3.659670 
# 
# 
# High freq. dielectric constant tensor:
#      x y z
#    x 1.747730 0.000000 -0.005280 
#    y 0.000000 1.648240 0.000000 
#    z -0.005280 0.000000 1.746780 
# 
# From -- ./inp_files/49783.got.cif
#   From: 2010.06.25/outbox.cif.g09.slc.cpg/sg10_25_cif.got.tgz:49783.got - 2010.06.27 22:07:45.
