data_PCOD8058023
_publ_section_title
;
Structure prediction by ZEFSAII (Michael W. Deem and Ramdas Pophale) SiO2 
 PCOD8058023
Probable space group: P 2/M
;
_chemical_formula_sum "Si O2"
_cell_formula_units_Z 32
_cell_length_a 17.333499
_cell_length_b 12.849077
_cell_length_c 23.236467
_cell_angle_alpha 90.000000
_cell_angle_beta 158.930723
_cell_angle_gamma 90.000000
_cell_volume 1860.471076
_symmetry_space_group_name_H-M "P 2/M"
_symmetry_group_IT_number 10
_symmetry_cell_setting 'monoclinic'
loop_
_space_group_symop_operation_xyz
x,y,z
-x,y,-z
-x,-y,-z
x,-y,z
loop_
_atom_site_type_symbol
_atom_site_label
_atom_site_fract_x
_atom_site_fract_y
_atom_site_fract_z
Si Si1 0.889108 0.618757 0.068473
Si Si2 0.574425 0.381618 0.283823
Si Si3 0.579956 0.881637 0.990712
Si Si4 0.081702 0.710567 0.792310
Si Si5 0.724937 0.618728 0.179052
Si Si6 0.336410 0.377911 0.338656
Si Si7 0.338537 0.621796 0.526796
Si Si8 0.231056 0.754979 0.681641
O O1 0.938782 0.500000 0.118659
O O2 0.819200 0.674413 0.078788
O O3 0.096947 0.669828 0.181538
O O4 0.680915 0.630249 0.883731
O O5 0.632048 0.500000 0.305952
O O6 0.672908 0.353385 0.413835
O O7 0.664449 0.304886 0.298783
O O8 0.395232 0.843074 0.817941
O O9 0.630748 0.000000 0.009426
O O10 0.500000 0.872020 0.000000
O O11 0.807572 0.820960 0.144440
O O12 0.118066 0.628635 0.765639
O O13 0.823574 0.703344 0.617523
O O14 0.693509 0.500000 0.175547
O O15 0.813502 0.676950 0.296562
O O16 0.500000 0.668134 0.000000
O O17 0.500000 0.331946 0.500000
O O18 0.314560 0.500000 0.332289
O O19 0.428318 0.352742 0.338922
O O20 0.283095 0.500000 0.475432
O O21 0.000000 0.801199 0.500000
#
# Coordination Sequence:
#
# PCOD8058023 Si02
#       8
#     4   4   4   4   4   4   4   4
#     4  10  18  29  50  75 107 144 179 211 245 301
#     4  10  21  33  46  74 113 147 175 208 244 297
#     4  11  24  43  59  75  97 128 178 233 277 312
#     4  12  18  33  54  75  96 135 175 217 257 301
#     4  11  20  31  49  75 106 142 177 205 240 299
#     4   9  16  28  45  73 108 146 181 211 244 287
#     4  10  20  31  49  78 115 146 173 207 249 303
#     4  12  22  36  54  75 106 138 172 213 268 321
#
# _framework density 17.199943999999999
#
# number of rings (size 3 to 8) (size 9 to 14) (size 15 to 20)
#    0.000    1.375    5.000    2.250    0.000    4.750 
#    0.000    2.500    0.000    0.000    0.000    1.750 
#    0.000    1.000    0.000    0.000    0.000    0.000 
#
# Total GULP energy -396572.598457 kJ/mol
# GULP energy per Si atom -12392.893702 kJ/mol
# Density = 1.716080 g / cm^3
# Si number density = 17.199944 Si / 1000 Ang^3
#
#
#
# Elastic Constant Matrix: (Units=GPa)
#
#
# Indices 1 2 3 4 5 6 
#
# 1 79.4175 29.5759 28.8743 0.0000 4.8144 0.0000
# 2 29.5759 71.6968 33.6317 0.0000 2.3042 0.0000
# 3 28.8743 33.6317 91.9451 0.0000 1.1337 0.0000
# 4 0.0000 0.0000 0.0000 13.1804 0.0000 -0.7254
# 5 4.8144 2.3042 1.1337 0.0000 28.8916 0.0000
# 6 0.0000 0.0000 0.0000 -0.7254 0.0000 10.1279
#
#
#
# Elastic Compliance Matrix: (Units=1/GPa)
#
#
# Indices 1 2 3 4 5 6 
#
# 1 0.015687 -0.004955 -0.003088 0.000000 -0.002098 0.000000
# 2 -0.004955 0.018437 -0.005182 0.000000 -0.000441 0.000000
# 3 -0.003088 -0.005182 0.013737 0.000000 0.000389 0.000000
# 4 0.000000 0.000000 0.000000 0.076170 0.000000 0.005456
# 5 -0.002098 -0.000441 0.000389 0.000000 0.034982 0.000000
# 6 0.000000 0.000000 0.000000 0.005456 0.000000 0.099128
#
#
# Mechanical properties :
#
#
# Convention : Reuss Voigt Hill
#
# Bulk Modulus (GPa) = 46.70810 47.46923 47.08866
# Shear Modulus (GPa) = 17.13927 20.50514 18.82221
#
# Velocity S-wave (km/s) = 3.16012 3.45652 3.31164
# Velocity P-wave (km/s) = 6.36632 6.60215 6.48531
#
# Compressibility (1/GPa) = 0.02140956
#
# Stress axis : x y z
#
# Youngs Moduli (GPa) = 63.74751 54.23947 72.79851
#
# Poissons Ratio (x) = 0.26876 0.22480
# Poissons Ratio (y) = 0.31588 0.37726
# Poissons Ratio (z) = 0.19685 0.28108
#
# Static dielectric constant tensor:
#      x y z
#    x 3.287200 0.000000 0.100210 
#    y 0.000000 2.803930 0.000000 
#    z 0.100210 0.000000 3.456410 
# 
# 
# High freq. dielectric constant tensor:
#      x y z
#    x 1.672940 0.000000 0.002350 
#    y 0.000000 1.597460 0.000000 
#    z 0.002350 0.000000 1.677920 
# 
# From -- ./inp_files/38283.got.cif
#   From: 2010.06.25/outbox.cif.g09.slc.cpg/sg10_20_cif.got.tgz:38283.got - 2010.06.27 22:07:45.
