data_PCOD8058051
_publ_section_title
;
Structure prediction by ZEFSAII (Michael W. Deem and Ramdas Pophale) SiO2 
 PCOD8058051
Probable space group: P 2/M
;
_chemical_formula_sum "Si O2"
_cell_formula_units_Z 32
_cell_length_a 30.700505
_cell_length_b 9.202416
_cell_length_c 13.179947
_cell_angle_alpha 90.000000
_cell_angle_beta 153.358961
_cell_angle_gamma 90.000000
_cell_volume 1669.652500
_symmetry_space_group_name_H-M "P 2/M"
_symmetry_group_IT_number 10
_symmetry_cell_setting 'monoclinic'
loop_
_space_group_symop_operation_xyz
x,y,z
-x,y,-z
-x,-y,-z
x,-y,z
loop_
_atom_site_type_symbol
_atom_site_label
_atom_site_fract_x
_atom_site_fract_y
_atom_site_fract_z
Si Si1 0.624245 0.829273 0.067117
Si Si2 0.758531 0.663254 0.854257
Si Si3 0.104919 0.332283 0.675172
Si Si4 0.173925 0.161132 0.188420
Si Si5 0.033042 0.837527 0.171160
Si Si6 0.563019 0.336023 0.350205
Si Si7 0.319831 0.669868 0.611561
Si Si8 0.818675 0.171384 0.362895
O O1 0.637750 0.745179 0.200681
O O2 0.706748 0.792874 0.155063
O O3 0.621039 0.000000 0.083565
O O4 0.523532 0.776090 0.808244
O O5 0.784036 0.500000 0.869096
O O6 0.803615 0.780482 0.875013
O O7 0.641367 0.682320 0.604892
O O8 0.805530 0.690502 0.061238
O O9 0.092996 0.500000 0.619915
O O10 0.139736 0.244928 0.650345
O O11 0.000000 0.276703 0.500000
O O12 0.215707 0.260071 0.366772
O O13 0.218210 0.000000 0.293511
O O14 0.058429 0.157433 0.945758
O O15 0.121272 0.764036 0.415743
O O16 0.067827 0.000000 0.211133
O O17 0.000000 0.752503 0.000000
O O18 0.521716 0.500000 0.263219
O O19 0.610609 0.301103 0.339898
O O20 0.306884 0.500000 0.606210
O O21 0.836950 0.000000 0.389392
#
# Coordination Sequence:
#
# PCOD8058051 Si02
#       8
#     4   4   4   4   4   4   4   4
#     4  11  22  35  53  78 108 142 183 230 272 313
#     4   9  19  36  55  77 107 138 170 215 270 323
#     4  10  21  38  61  86 110 138 176 223 270 319
#     4  10  18  29  51  80 105 135 177 221 263 312
#     4   9  17  31  50  72 104 143 175 207 255 315
#     4   9  19  35  54  76 105 143 182 218 265 324
#     4  10  20  34  53  78 111 149 183 218 266 323
#     4  10  22  38  55  79 110 143 180 222 272 327
#
# _framework density 19.165664
#
# number of rings (size 3 to 8) (size 9 to 14) (size 15 to 20)
#    0.000    2.250    0.000    3.750    0.000    7.750 
#    0.000    1.250    0.000    6.375    0.000    0.000 
#    0.000    0.000    0.000    0.000    0.000    0.000 
#
# Total GULP energy -396616.430793 kJ/mol
# GULP energy per Si atom -12394.263462 kJ/mol
# Density = 1.912204 g / cm^3
# Si number density = 19.165664 Si / 1000 Ang^3
#
#
#
# Elastic Constant Matrix: (Units=GPa)
#
#
# Indices 1 2 3 4 5 6 
#
# 1 92.3944 46.3695 58.7268 0.0000 0.6523 0.0000
# 2 46.3695 86.7442 48.0637 0.0000 2.9901 0.0000
# 3 58.7268 48.0637 127.5121 0.0000 -1.8640 0.0000
# 4 0.0000 0.0000 0.0000 24.9005 0.0000 -4.6060
# 5 0.6523 2.9901 -1.8640 0.0000 25.6093 0.0000
# 6 0.0000 0.0000 0.0000 -4.6060 0.0000 16.1652
#
#
#
# Elastic Compliance Matrix: (Units=1/GPa)
#
#
# Indices 1 2 3 4 5 6 
#
# 1 0.017609 -0.006210 -0.005771 0.000000 -0.000143 0.000000
# 2 -0.006210 0.016876 -0.003531 0.000000 -0.002069 0.000000
# 3 -0.005771 -0.003531 0.011852 0.000000 0.001422 0.000000
# 4 0.000000 0.000000 0.000000 0.042394 0.000000 0.012080
# 5 -0.000143 -0.002069 0.001422 0.000000 0.039397 0.000000
# 6 0.000000 0.000000 0.000000 0.012080 0.000000 0.065303
#
#
# Mechanical properties :
#
#
# Convention : Reuss Voigt Hill
#
# Bulk Modulus (GPa) = 65.30936 68.10785 66.70860
# Shear Modulus (GPa) = 21.78068 23.56769 22.67419
#
# Velocity S-wave (km/s) = 3.37477 3.51049 3.44330
# Velocity P-wave (km/s) = 7.02394 7.21422 7.11971
#
# Compressibility (1/GPa) = 0.01531174
#
# Stress axis : x y z
#
# Youngs Moduli (GPa) = 56.78845 59.25659 84.37271
#
# Poissons Ratio (x) = 0.36800 0.48694
# Poissons Ratio (y) = 0.35268 0.29793
# Poissons Ratio (z) = 0.32774 0.20924
#
# Static dielectric constant tensor:
#      x y z
#    x 3.268130 0.000000 0.072990 
#    y 0.000000 3.475760 0.000000 
#    z 0.072990 0.000000 3.823130 
# 
# 
# High freq. dielectric constant tensor:
#      x y z
#    x 1.724280 0.000000 0.005610 
#    y 0.000000 1.735560 0.000000 
#    z 0.005610 0.000000 1.758580 
# 
# From -- ./inp_files/58327.got.cif
#   From: 2010.06.25/outbox.cif.g09.slc.cpg/sg10_30_cif.got.tgz:58327.got - 2010.06.27 22:07:45.
