data_PCOD8058440
_publ_section_title
;
Structure prediction by ZEFSAII (Michael W. Deem and Ramdas Pophale) SiO2 
 PCOD8058440
Probable space group: P 2/M
;
_chemical_formula_sum "Si O2"
_cell_formula_units_Z 32
_cell_length_a 14.633566
_cell_length_b 8.934940
_cell_length_c 20.690367
_cell_angle_alpha 90.000000
_cell_angle_beta 138.209437
_cell_angle_gamma 90.000000
_cell_volume 1802.815568
_symmetry_space_group_name_H-M "P 2/M"
_symmetry_group_IT_number 10
_symmetry_cell_setting 'monoclinic'
loop_
_space_group_symop_operation_xyz
x,y,z
-x,y,-z
-x,-y,-z
x,-y,z
loop_
_atom_site_type_symbol
_atom_site_label
_atom_site_fract_x
_atom_site_fract_y
_atom_site_fract_z
Si Si1 0.119723 0.677374 0.514155
Si Si2 0.306547 0.669103 0.820658
Si Si3 0.030901 0.832600 0.824566
Si Si4 0.988188 0.334114 0.679674
Si Si5 0.382082 0.676629 0.117165
Si Si6 0.642980 0.177695 0.287268
Si Si7 0.072903 0.323272 0.973981
Si Si8 0.646078 0.170344 0.028327
O O1 0.144473 0.500000 0.531290
O O2 0.077682 0.731438 0.420434
O O3 0.258323 0.764664 0.604152
O O4 0.000000 0.725777 0.500000
O O5 0.365866 0.500000 0.844523
O O6 0.305747 0.755181 0.753038
O O7 0.391031 0.762462 0.920096
O O8 0.150811 0.658749 0.760534
O O9 0.995448 0.742493 0.870979
O O10 0.191560 0.824973 0.895203
O O11 0.946956 0.765742 0.719649
O O12 0.979092 0.000000 0.807605
O O13 0.929930 0.500000 0.661018
O O14 0.398882 0.500000 0.131624
O O15 0.489855 0.759684 0.220923
O O16 0.231084 0.729618 0.058327
O O17 0.419869 0.727821 0.063455
O O18 0.642723 0.000000 0.284716
O O19 0.062877 0.500000 0.963657
O O20 0.000000 0.262360 0.000000
O O21 0.591823 0.000000 0.994465
#
# Coordination Sequence:
#
# PCOD8058440 Si02
#       8
#     4   4   4   4   4   4   4   4
#     4  10  19  35  53  71  94 129 176 220 256 294
#     4  10  18  31  48  67  91 128 173 210 247 291
#     4   9  17  28  46  74 106 133 159 195 243 298
#     4   9  17  30  50  70  95 130 169 213 251 286
#     4  10  20  35  52  70  96 131 164 198 243 298
#     4  12  24  34  46  68  98 131 168 212 254 292
#     4   9  18  34  57  82 104 127 160 200 242 295
#     4   9  17  30  46  68  97 127 162 205 246 287
#
# _framework density 17.750011000000001
#
# number of rings (size 3 to 8) (size 9 to 14) (size 15 to 20)
#    0.000    2.250    1.250    2.625    0.000    5.500 
#    0.000    2.500    0.000    0.000    0.000    0.875 
#    0.000    7.000    0.000    0.000    0.000    0.000 
#
# Total GULP energy -396823.744893 kJ/mol
# GULP energy per Si atom -12400.742028 kJ/mol
# Density = 1.770961 g / cm^3
# Si number density = 17.750011 Si / 1000 Ang^3
#
#
#
# Elastic Constant Matrix: (Units=GPa)
#
#
# Indices 1 2 3 4 5 6 
#
# 1 78.2415 22.6682 32.0694 0.0000 -18.6893 0.0000
# 2 22.6682 92.8218 51.5388 0.0000 -9.9667 0.0000
# 3 32.0694 51.5388 120.3538 0.0000 -21.4457 0.0000
# 4 0.0000 0.0000 0.0000 23.8020 0.0000 -0.5981
# 5 -18.6893 -9.9667 -21.4457 0.0000 22.8337 0.0000
# 6 0.0000 0.0000 0.0000 -0.5981 0.0000 15.0756
#
#
#
# Elastic Compliance Matrix: (Units=1/GPa)
#
#
# Indices 1 2 3 4 5 6 
#
# 1 0.016710 -0.001985 -0.001585 0.000000 0.011322 0.000000
# 2 -0.001985 0.014376 -0.005763 0.000000 -0.000763 0.000000
# 3 -0.001585 -0.005763 0.012634 0.000000 0.008053 0.000000
# 4 0.000000 0.000000 0.000000 0.042055 0.000000 0.001668
# 5 0.011322 -0.000763 0.008053 0.000000 0.060293 0.000000
# 6 0.000000 0.000000 0.000000 0.001668 0.000000 0.066398
#
#
# Mechanical properties :
#
#
# Convention : Reuss Voigt Hill
#
# Bulk Modulus (GPa) = 39.91396 55.99666 47.95531
# Shear Modulus (GPa) = 20.87816 24.68500 22.78158
#
# Velocity S-wave (km/s) = 3.43335 3.73326 3.58644
# Velocity P-wave (km/s) = 6.18488 7.08511 6.65025
#
# Compressibility (1/GPa) = 0.02505389
#
# Stress axis : x y z
#
# Youngs Moduli (GPa) = 59.84368 69.55929 79.15050
#
# Poissons Ratio (x) = 0.13808 0.12546
# Poissons Ratio (y) = 0.11879 0.45616
# Poissons Ratio (z) = 0.09486 0.40089
#
# Static dielectric constant tensor:
#      x y z
#    x 3.101200 0.000000 -0.089620 
#    y 0.000000 3.377420 0.000000 
#    z -0.089620 0.000000 3.414940 
# 
# 
# High freq. dielectric constant tensor:
#      x y z
#    x 1.647380 0.000000 -0.009950 
#    y 0.000000 1.693160 0.000000 
#    z -0.009950 0.000000 1.684890 
# 
# From -- ./inp_files/70020.got.cif
#   From: 2010.06.25/outbox.cif.g09.slc.cpg/sg10_36_cif.got.tgz:70020.got - 2010.06.27 22:07:45.
