data_PCOD8058652
_publ_section_title
;
Structure prediction by ZEFSAII (Michael W. Deem and Ramdas Pophale) SiO2 
 PCOD8058652
Probable space group: P 2/M
;
_chemical_formula_sum "Si O2"
_cell_formula_units_Z 28
_cell_length_a 9.537365
_cell_length_b 11.579517
_cell_length_c 14.198914
_cell_angle_alpha 90.000000
_cell_angle_beta 71.173788
_cell_angle_gamma 90.000000
_cell_volume 1484.210121
_symmetry_space_group_name_H-M "P 2/M"
_symmetry_group_IT_number 10
_symmetry_cell_setting 'monoclinic'
loop_
_space_group_symop_operation_xyz
x,y,z
-x,y,-z
-x,-y,-z
x,-y,z
loop_
_atom_site_type_symbol
_atom_site_label
_atom_site_fract_x
_atom_site_fract_y
_atom_site_fract_z
Si Si1 0.592404 0.872320 0.731794
Si Si2 0.611924 0.869968 0.399032
Si Si3 0.863636 0.636152 0.093846
Si Si4 0.055481 0.000000 0.854191
Si Si5 0.108093 0.776034 0.730622
Si Si6 0.415937 0.767636 0.928895
Si Si7 0.756448 0.000000 0.000783
Si Si8 0.081644 0.135117 0.385840
O O1 0.460774 0.873821 0.686760
O O2 0.545453 0.784807 0.823872
O O3 0.743728 0.838356 0.644970
O O4 0.610253 0.000000 0.772802
O O5 0.500000 0.819337 0.500000
O O6 0.746559 0.779174 0.367012
O O7 0.663358 0.000000 0.418335
O O8 0.850252 0.500000 0.091285
O O9 0.895651 0.668686 0.196368
O O10 0.711392 0.686969 0.086157
O O11 0.000000 0.681663 0.000000
O O12 0.120719 0.111104 0.790827
O O13 0.129795 0.000000 0.938875
O O14 0.874698 0.000000 0.888714
O O15 0.970160 0.782869 0.689240
O O16 0.346419 0.888104 0.978637
O O17 0.500000 0.709642 0.000000
O O18 0.000000 0.171241 0.500000
O O19 0.048301 0.000000 0.370784
#
# Coordination Sequence:
#
# PCOD8058652 Si02
#       8
#     4   4   4   2   4   4   2   4
#     4  10  20  33  48  82 125 154 181 220 281 348
#     4  10  18  31  53  83 118 153 187 226 279 347
#     4  11  26  46  64  83 110 152 207 255 297 349
#     4  11  20  30  56  86 116 157 195 239 280 352
#     4  12  20  36  60  85 114 154 200 237 285 347
#     4  12  24  36  58  87 121 152 185 233 300 362
#     4  11  21  34  50  88 127 151 187 231 298 354
#     4  10  21  34  53  88 130 162 189 225 280 354
#
# _framework density 18.865254
#
# number of rings (size 3 to 8) (size 9 to 14) (size 15 to 20)
#    0.000    1.143    5.000    1.929    4.000    2.571 
#    0.000    0.000    0.000    0.857    0.000    0.000 
#    0.000    0.000    0.000    0.000    0.000    0.000 
#
# Total GULP energy -347123.575130 kJ/mol
# GULP energy per Si atom -12397.270540 kJ/mol
# Density = 1.882232 g / cm^3
# Si number density = 18.865254 Si / 1000 Ang^3
#
#
#
# Elastic Constant Matrix: (Units=GPa)
#
#
# Indices 1 2 3 4 5 6 
#
# 1 80.7505 15.7445 19.7884 0.0000 -6.6550 0.0000
# 2 15.7445 45.0737 18.8858 0.0000 -1.8485 0.0000
# 3 19.7884 18.8858 94.1733 0.0000 -17.9510 0.0000
# 4 0.0000 0.0000 0.0000 18.6092 0.0000 -1.0619
# 5 -6.6550 -1.8485 -17.9510 0.0000 43.4374 0.0000
# 6 0.0000 0.0000 0.0000 -1.0619 0.0000 14.7176
#
#
#
# Elastic Compliance Matrix: (Units=1/GPa)
#
#
# Indices 1 2 3 4 5 6 
#
# 1 0.013709 -0.003959 -0.001865 0.000000 0.001161 0.000000
# 2 -0.003959 0.025410 -0.004530 0.000000 -0.001397 0.000000
# 3 -0.001865 -0.004530 0.012839 0.000000 0.004827 0.000000
# 4 0.000000 0.000000 0.000000 0.053959 0.000000 0.003893
# 5 0.001161 -0.001397 0.004827 0.000000 0.025135 0.000000
# 6 0.000000 0.000000 0.000000 0.003893 0.000000 0.068227
#
#
# Mechanical properties :
#
#
# Convention : Reuss Voigt Hill
#
# Bulk Modulus (GPa) = 32.00186 36.53721 34.26954
# Shear Modulus (GPa) = 21.70104 26.39143 24.04623
#
# Velocity S-wave (km/s) = 3.39531 3.74430 3.57407
# Velocity P-wave (km/s) = 5.68956 6.17273 5.93606
#
# Compressibility (1/GPa) = 0.03124819
#
# Stress axis : x y z
#
# Youngs Moduli (GPa) = 72.94704 39.35498 77.88563
#
# Poissons Ratio (x) = 0.15582 0.14527
# Poissons Ratio (y) = 0.28882 0.35283
# Poissons Ratio (z) = 0.13606 0.17828
#
# Static dielectric constant tensor:
#      x y z
#    x 3.617900 0.000000 -0.178010 
#    y 0.000000 2.647970 0.000000 
#    z -0.178010 0.000000 3.712410 
# 
# 
# High freq. dielectric constant tensor:
#      x y z
#    x 1.749800 0.000000 -0.008940 
#    y 0.000000 1.661310 0.000000 
#    z -0.008940 0.000000 1.750580 
# 
# From -- ./inp_files/60950.got.cif
#   From: 2010.06.25/outbox.cif.g09.slc.cpg/sg10_31_cif.got.tgz:60950.got - 2010.06.27 22:07:45.
