data_PCOD8058167
_publ_section_title
;
Structure prediction by ZEFSAII (Michael W. Deem and Ramdas Pophale) SiO2 
 PCOD8058167
Probable space group: P 2/M
;
_chemical_formula_sum "Si O2"
_cell_formula_units_Z 30
_cell_length_a 16.579863
_cell_length_b 9.864813
_cell_length_c 13.260026
_cell_angle_alpha 90.000000
_cell_angle_beta 48.988721
_cell_angle_gamma 90.000000
_cell_volume 1636.513907
_symmetry_space_group_name_H-M "P 2/M"
_symmetry_group_IT_number 10
_symmetry_cell_setting 'monoclinic'
loop_
_space_group_symop_operation_xyz
x,y,z
-x,y,-z
-x,-y,-z
x,-y,z
loop_
_atom_site_type_symbol
_atom_site_label
_atom_site_fract_x
_atom_site_fract_y
_atom_site_fract_z
Si Si1 0.440042 0.344108 0.339564
Si Si2 0.199039 0.659896 0.208391
Si Si3 0.767218 0.661762 0.597044
Si Si4 0.931052 0.846401 0.156004
Si Si5 0.026455 0.339802 0.694634
Si Si6 0.331182 0.661154 0.909791
Si Si7 0.284896 0.150375 0.769747
Si Si8 0.500000 0.234222 0.500000
O O1 0.424899 0.500000 0.329981
O O2 0.334565 0.273825 0.378796
O O3 0.544818 0.293325 0.193544
O O4 0.452227 0.324938 0.449222
O O5 0.207523 0.500000 0.207206
O O6 0.231523 0.721386 0.290225
O O7 0.078838 0.702680 0.280366
O O8 0.281305 0.711901 0.055702
O O9 0.764660 0.500000 0.601772
O O10 0.873572 0.709738 0.453175
O O11 0.974476 0.739264 0.200064
O O12 0.805939 0.816419 0.237845
O O13 0.945609 0.000000 0.184493
O O14 0.000000 0.823784 0.000000
O O15 0.029025 0.500000 0.715629
O O16 0.317060 0.500000 0.903847
O O17 0.272402 0.737574 0.866787
O O18 0.401752 0.146120 0.622105
O O19 0.264734 0.000000 0.831750
#
# Coordination Sequence:
#
# PCOD8058167 Si02
#       8
#     4   4   4   4   4   4   4   2
#     4   9  17  28  44  70 101 128 155 192 238 281
#     4   9  17  30  48  70  96 124 158 199 238 280
#     4   9  17  29  47  72  99 126 157 195 239 282
#     4  10  21  35  50  70  98 130 160 193 236 285
#     4  10  19  31  50  74  96 123 160 199 238 278
#     4   9  18  31  48  71  96 124 158 197 238 278
#     4  10  20  33  49  70  96 127 161 194 234 285
#     4  10  18  30  48  70  95 126 161 194 231 280
#
# _framework density 18.33165
#
# number of rings (size 3 to 8) (size 9 to 14) (size 15 to 20)
#    0.000    2.533    0.000    2.400    0.000    3.467 
#    0.000    2.667    0.000    2.400    0.000    3.733 
#    0.000    0.000    0.000    0.000    0.000    0.000 
#
# Total GULP energy -371885.387050 kJ/mol
# GULP energy per Si atom -12396.179568 kJ/mol
# Density = 1.828993 g / cm^3
# Si number density = 18.331650 Si / 1000 Ang^3
#
#
#
# Elastic Constant Matrix: (Units=GPa)
#
#
# Indices 1 2 3 4 5 6 
#
# 1 132.6837 19.8378 57.3503 0.0000 2.5873 0.0000
# 2 19.8378 27.5033 21.0121 0.0000 3.7241 0.0000
# 3 57.3503 21.0121 111.3562 0.0000 4.2504 0.0000
# 4 0.0000 0.0000 0.0000 11.7222 0.0000 -4.8739
# 5 2.5873 3.7241 4.2504 0.0000 28.8851 0.0000
# 6 0.0000 0.0000 0.0000 -4.8739 0.0000 12.3131
#
#
#
# Elastic Compliance Matrix: (Units=1/GPa)
#
#
# Indices 1 2 3 4 5 6 
#
# 1 0.010033 -0.003875 -0.004446 0.000000 0.000255 0.000000
# 2 -0.003875 0.044523 -0.006235 0.000000 -0.004476 0.000000
# 3 -0.004446 -0.006235 0.012470 0.000000 -0.000633 0.000000
# 4 0.000000 0.000000 0.000000 0.102114 0.000000 0.040420
# 5 0.000255 -0.004476 -0.000633 0.000000 0.035267 0.000000
# 6 0.000000 0.000000 0.000000 0.040420 0.000000 0.097213
#
#
# Mechanical properties :
#
#
# Convention : Reuss Voigt Hill
#
# Bulk Modulus (GPa) = 26.37397 51.99373 39.18385
# Shear Modulus (GPa) = 14.56157 22.14029 18.35093
#
# Velocity S-wave (km/s) = 2.82146 3.47906 3.16737
# Velocity P-wave (km/s) = 5.00325 6.67554 5.89896
#
# Compressibility (1/GPa) = 0.03791617
#
# Stress axis : x y z
#
# Youngs Moduli (GPa) = 99.67545 22.46014 80.18996
#
# Poissons Ratio (x) = 0.08702 0.35649
# Poissons Ratio (y) = 0.38620 0.49998
# Poissons Ratio (z) = 0.44311 0.14004
#
# Static dielectric constant tensor:
#      x y z
#    x 3.666050 0.000000 -0.110290 
#    y 0.000000 2.966720 0.000000 
#    z -0.110290 0.000000 3.548520 
# 
# 
# High freq. dielectric constant tensor:
#      x y z
#    x 1.721310 0.000000 -0.011760 
#    y 0.000000 1.664730 0.000000 
#    z -0.011760 0.000000 1.719190 
# 
# From -- ./inp_files/50689.got.cif
#   From: 2010.06.25/outbox.cif.g09.slc.cpg/sg10_26_cif.got.tgz:50689.got - 2010.06.27 22:07:45.
