data_PCOD8058630
_publ_section_title
;
Structure prediction by ZEFSAII (Michael W. Deem and Ramdas Pophale) SiO2 
 PCOD8058630
Probable space group: P 2/M
;
_chemical_formula_sum "Si O2"
_cell_formula_units_Z 32
_cell_length_a 12.560821
_cell_length_b 10.086364
_cell_length_c 14.147656
_cell_angle_alpha 90.000000
_cell_angle_beta 112.399296
_cell_angle_gamma 90.000000
_cell_volume 1657.173174
_symmetry_space_group_name_H-M "P 2/M"
_symmetry_group_IT_number 10
_symmetry_cell_setting 'monoclinic'
loop_
_space_group_symop_operation_xyz
x,y,z
-x,y,-z
-x,-y,-z
x,-y,z
loop_
_atom_site_type_symbol
_atom_site_label
_atom_site_fract_x
_atom_site_fract_y
_atom_site_fract_z
Si Si1 0.128400 0.844792 0.509798
Si Si2 0.936293 0.246796 0.885392
Si Si3 0.236249 0.652731 0.693444
Si Si4 0.722049 0.653787 0.919890
Si Si5 0.807095 0.147713 0.673364
Si Si6 0.556762 0.850559 0.620199
Si Si7 0.507487 0.651792 0.252631
Si Si8 0.152788 0.348644 0.861525
O O1 0.211204 0.749990 0.598065
O O2 0.136978 0.794083 0.403707
O O3 0.000000 0.818916 0.500000
O O4 0.162408 0.000000 0.534600
O O5 0.822451 0.326086 0.876603
O O6 0.895729 0.142853 0.791903
O O7 0.023647 0.342488 0.859073
O O8 0.000000 0.183301 0.000000
O O9 0.199854 0.500000 0.657005
O O10 0.372575 0.657505 0.763159
O O11 0.169328 0.712755 0.762684
O O12 0.708498 0.500000 0.933493
O O13 0.598327 0.710075 0.846072
O O14 0.761248 0.720573 0.032793
O O15 0.685127 0.214773 0.658654
O O16 0.772134 0.000000 0.634686
O O17 0.500000 0.857078 0.500000
O O18 0.480097 0.749300 0.654432
O O19 0.557968 0.000000 0.664936
O O20 0.481334 0.500000 0.275961
O O21 0.188433 0.500000 0.861281
#
# Coordination Sequence:
#
# PCOD8058630 Si02
#       8
#     4   4   4   4   4   4   4   4
#     4  10  21  38  59  79 106 145 185 222 264 321
#     4  10  18  31  53  78 107 138 176 224 277 319
#     4  10  21  36  54  81 113 143 178 225 273 319
#     4   9  17  31  51  77 107 141 179 221 270 322
#     4  10  20  34  52  77 105 136 180 223 267 325
#     4  10  20  35  55  76 102 141 183 221 266 321
#     4  10  20  34  53  78 110 141 177 225 271 316
#     4   9  18  32  52  77 107 143 182 221 267 326
#
# _framework density 19.309992999999999
#
# number of rings (size 3 to 8) (size 9 to 14) (size 15 to 20)
#    0.000    2.250    1.250    1.875    0.000    4.250 
#    0.000    4.375    0.000    1.500    0.000    1.750 
#    0.000    0.000    0.000    0.000    0.000    0.000 
#
# Total GULP energy -396442.984728 kJ/mol
# GULP energy per Si atom -12388.843273 kJ/mol
# Density = 1.926604 g / cm^3
# Si number density = 19.309993 Si / 1000 Ang^3
#
#
#
# Elastic Constant Matrix: (Units=GPa)
#
#
# Indices 1 2 3 4 5 6 
#
# 1 96.5548 21.2434 50.4821 0.0000 -0.3806 0.0000
# 2 21.2434 48.6966 30.0080 0.0000 -0.4807 0.0000
# 3 50.4821 30.0080 126.3726 0.0000 -1.0691 0.0000
# 4 0.0000 0.0000 0.0000 21.3032 0.0000 2.9603
# 5 -0.3806 -0.4807 -1.0691 0.0000 35.4237 0.0000
# 6 0.0000 0.0000 0.0000 2.9603 0.0000 17.5927
#
#
#
# Elastic Compliance Matrix: (Units=1/GPa)
#
#
# Indices 1 2 3 4 5 6 
#
# 1 0.013454 -0.002996 -0.004663 0.000000 -0.000037 0.000000
# 2 -0.002996 0.024723 -0.004673 0.000000 0.000162 0.000000
# 3 -0.004663 -0.004673 0.010887 0.000000 0.000215 0.000000
# 4 0.000000 0.000000 0.000000 0.048065 0.000000 -0.008088
# 5 -0.000037 0.000162 0.000215 0.000000 0.028238 0.000000
# 6 0.000000 0.000000 0.000000 -0.008088 0.000000 0.058203
#
#
# Mechanical properties :
#
#
# Convention : Reuss Voigt Hill
#
# Bulk Modulus (GPa) = 40.98209 52.78791 46.88500
# Shear Modulus (GPa) = 23.10882 26.18996 24.64939
#
# Velocity S-wave (km/s) = 3.46313 3.68678 3.57670
# Velocity P-wave (km/s) = 6.10413 6.74682 6.43350
#
# Compressibility (1/GPa) = 0.02440090
#
# Stress axis : x y z
#
# Youngs Moduli (GPa) = 74.32745 40.44789 91.84977
#
# Poissons Ratio (x) = 0.12118 0.42833
# Poissons Ratio (y) = 0.22267 0.42917
# Poissons Ratio (z) = 0.34662 0.18899
#
# Static dielectric constant tensor:
#      x y z
#    x 3.666130 0.000000 -0.017910 
#    y 0.000000 3.216460 0.000000 
#    z -0.017910 0.000000 3.730000 
# 
# 
# High freq. dielectric constant tensor:
#      x y z
#    x 1.762390 0.000000 0.002910 
#    y 0.000000 1.711140 0.000000 
#    z 0.002910 0.000000 1.755880 
# 
# From -- ./inp_files/46972.got.cif
#   From: 2010.06.25/outbox.cif.g09.slc.cpg/sg10_24_cif.got.tgz:46972.got - 2010.06.27 22:07:45.
