data_PCOD8058722
_publ_section_title
;
Structure prediction by ZEFSAII (Michael W. Deem and Ramdas Pophale) SiO2 
 PCOD8058722
Probable space group: P 2/M
;
_chemical_formula_sum "Si O2"
_cell_formula_units_Z 18
_cell_length_a 5.324981
_cell_length_b 16.398851
_cell_length_c 10.322433
_cell_angle_alpha 90.000000
_cell_angle_beta 61.279828
_cell_angle_gamma 90.000000
_cell_volume 790.499824
_symmetry_space_group_name_H-M "P 2/M"
_symmetry_group_IT_number 10
_symmetry_cell_setting 'monoclinic'
loop_
_space_group_symop_operation_xyz
x,y,z
-x,y,-z
-x,-y,-z
x,-y,z
loop_
_atom_site_type_symbol
_atom_site_label
_atom_site_fract_x
_atom_site_fract_y
_atom_site_fract_z
Si Si1 0.656848 0.500000 0.595998
Si Si2 0.406043 0.837913 0.325171
Si Si3 0.841359 0.406289 0.910284
Si Si4 0.884316 0.905098 0.348327
Si Si5 0.230858 0.662766 0.330728
O O1 0.500000 0.500000 0.500000
O O2 0.568027 0.582172 0.695763
O O3 0.000000 0.500000 0.500000
O O4 0.725621 0.876108 0.255538
O O5 0.249393 0.853101 0.501136
O O6 0.429317 0.742648 0.283349
O O7 0.222319 0.883909 0.258448
O O8 0.933705 0.500000 0.861658
O O9 0.935791 0.350349 0.764310
O O10 0.500000 0.396861 0.000000
O O11 0.000000 0.373436 0.000000
O O12 0.832358 0.000000 0.386892
O O13 0.000000 0.672669 0.500000
#
# Coordination Sequence:
#
# PCOD8058722 Si02
#       5
#     2   4   4   4   4
#     4  10  24  34  52  80 118 152 185 236 291 346
#     4  10  19  29  50  78 112 148 183 240 280 347
#     4  10  23  43  61  81 114 162 207 245 291 352
#     4  10  18  32  48  74 119 158 178 221 304 366
#     4  11  22  40  60  91 121 154 204 248 304 340
#
# _framework density 22.770402000000001
#
# number of rings (size 3 to 8) (size 9 to 14) (size 15 to 20)
#    0.000    1.778    3.333    3.333    3.111    5.333 
#    0.000    0.000    0.000    0.000    0.000    0.000 
#    0.000   30.222    0.000    0.000    0.000    0.000 
#
# Total GULP energy -223073.337125 kJ/mol
# GULP energy per Si atom -12392.963174 kJ/mol
# Density = 2.271858 g / cm^3
# Si number density = 22.770402 Si / 1000 Ang^3
#
#
#
# Elastic Constant Matrix: (Units=GPa)
#
#
# Indices 1 2 3 4 5 6 
#
# 1 160.4054 51.7490 44.1383 0.0000 65.2018 0.0000
# 2 51.7490 182.4800 35.9607 0.0000 37.6964 0.0000
# 3 44.1383 35.9607 100.4054 0.0000 36.5181 0.0000
# 4 0.0000 0.0000 0.0000 3.1495 0.0000 13.3727
# 5 65.2018 37.6964 36.5181 0.0000 41.4135 0.0000
# 6 0.0000 0.0000 0.0000 13.3727 0.0000 27.1955
#
#
#
# Elastic Compliance Matrix: (Units=1/GPa)
#
#
# Indices 1 2 3 4 5 6 
#
# 1 0.018249 0.000871 0.003539 0.000000 -0.032644 0.000000
# 2 0.000871 0.006796 -0.000100 0.000000 -0.007469 0.000000
# 3 0.003539 -0.000100 0.015359 0.000000 -0.019023 0.000000
# 4 0.000000 0.000000 0.000000 -0.291872 0.000000 0.143520
# 5 -0.032644 -0.007469 -0.019023 0.000000 0.099115 0.000000
# 6 0.000000 0.000000 0.000000 0.143520 0.000000 -0.033802
#
#
# Mechanical properties :
#
#
# Convention : Reuss Voigt Hill
#
# Bulk Modulus (GPa) = 20.39891 78.55412 49.47652
# Shear Modulus (GPa) = -28.02171 35.11456 3.54642
#
# Velocity S-wave (km/s) = -3.51183 3.93124 1.24934
# Velocity P-wave (km/s) = 2.73238 7.42828 4.88434
#
# Compressibility (1/GPa) = 0.04902222
#
# Stress axis : x y z
#
# Youngs Moduli (GPa) = 54.79831 147.15256 65.10895
#
# Poissons Ratio (x) = -0.12819 -0.23041
# Poissons Ratio (y) = -0.04774 0.00654
# Poissons Ratio (z) = -0.19392 0.01478
#
# Static dielectric constant tensor:
#      x y z
#    x 4.987910 0.000000 0.856080 
#    y 0.000000 4.406830 0.000000 
#    z 0.856080 0.000000 3.745710 
# 
# 
# High freq. dielectric constant tensor:
#      x y z
#    x 1.908090 0.000000 0.045470 
#    y 0.000000 1.897480 0.000000 
#    z 0.045470 0.000000 1.838480 
# 
# From -- ./inp_files/14765.got.cif
#   From: 2010.06.25/outbox.cif.g09.slc.cpg/sg10_8_cif.got.tgz:14765.got - 2010.06.27 22:07:45.
