data_PCOD8058669
_publ_section_title
;
Structure prediction by ZEFSAII (Michael W. Deem and Ramdas Pophale) SiO2 
 PCOD8058669
Probable space group: P 2/M
;
_chemical_formula_sum "Si O2"
_cell_formula_units_Z 28
_cell_length_a 29.147850
_cell_length_b 9.025789
_cell_length_c 9.928719
_cell_angle_alpha 90.000000
_cell_angle_beta 34.471357
_cell_angle_gamma 90.000000
_cell_volume 1478.416778
_symmetry_space_group_name_H-M "P 2/M"
_symmetry_group_IT_number 10
_symmetry_cell_setting 'monoclinic'
loop_
_space_group_symop_operation_xyz
x,y,z
-x,y,-z
-x,-y,-z
x,-y,z
loop_
_atom_site_type_symbol
_atom_site_label
_atom_site_fract_x
_atom_site_fract_y
_atom_site_fract_z
Si Si1 0.007106 0.167268 0.642639
Si Si2 0.586957 0.672719 0.990786
Si Si3 0.834922 0.328663 0.767525
Si Si4 0.847175 0.327208 0.051432
Si Si5 0.308836 0.829066 0.486775
Si Si6 0.341788 0.671557 0.891339
Si Si7 0.423772 0.170618 0.453794
O O1 0.093092 0.237038 0.477518
O O2 0.000000 0.174823 0.500000
O O3 0.002679 0.000000 0.707106
O O4 0.933696 0.259745 0.885652
O O5 0.581844 0.500000 0.968836
O O6 0.634606 0.702256 0.013072
O O7 0.496950 0.736120 0.215616
O O8 0.632811 0.755436 0.761903
O O9 0.854144 0.500000 0.696256
O O10 0.829185 0.293593 0.939268
O O11 0.751221 0.279148 0.901419
O O12 0.847835 0.500000 0.082514
O O13 0.777884 0.250700 0.307836
O O14 0.347015 0.810405 0.542179
O O15 0.296851 0.000000 0.478264
O O16 0.353072 0.500000 0.822988
O O17 0.400696 0.768120 0.656029
O O18 0.450212 0.000000 0.403090
#
# Coordination Sequence:
#
# PCOD8058669 Si02
#       7
#     4   4   4   4   4   4   4
#     4   9  17  28  46  76 113 143 173 218 268 317
#     4  11  24  39  57  80 109 146 186 226 274 327
#     4   9  17  31  52  78 108 140 178 221 266 319
#     4  10  18  31  54  80 107 142 182 221 269 322
#     4  11  23  38  56  80 112 145 182 228 276 325
#     4  10  21  38  58  82 111 144 183 228 272 322
#     4  11  23  38  58  82 109 142 183 230 278 325
#
# _framework density 18.939178999999999
#
# number of rings (size 3 to 8) (size 9 to 14) (size 15 to 20)
#    0.000    1.857    1.429    3.000    0.000    9.143 
#    0.000    0.000    0.000    0.857    0.000    6.000 
#    0.000    0.000    0.000    0.000    0.000    0.000 
#
# Total GULP energy -347328.012644 kJ/mol
# GULP energy per Si atom -12404.571880 kJ/mol
# Density = 1.889607 g / cm^3
# Si number density = 18.939179 Si / 1000 Ang^3
#
#
#
# Elastic Constant Matrix: (Units=GPa)
#
#
# Indices 1 2 3 4 5 6 
#
# 1 28.9201 37.8686 43.7664 0.0000 -5.0844 0.0000
# 2 37.8686 106.9644 27.4319 0.0000 -19.3353 0.0000
# 3 43.7664 27.4319 15.7459 0.0000 -47.5065 0.0000
# 4 0.0000 0.0000 0.0000 33.9980 0.0000 -2.0802
# 5 -5.0844 -19.3353 -47.5065 0.0000 25.6742 0.0000
# 6 0.0000 0.0000 0.0000 -2.0802 0.0000 21.8906
#
#
#
# Elastic Compliance Matrix: (Units=1/GPa)
#
#
# Indices 1 2 3 4 5 6 
#
# 1 0.028909 -0.009309 0.014842 0.000000 0.026177 0.000000
# 2 -0.009309 0.013708 -0.006018 0.000000 -0.002655 0.000000
# 3 0.014842 -0.006018 -0.006095 0.000000 -0.012872 0.000000
# 4 0.000000 0.000000 0.000000 0.029586 0.000000 0.002811
# 5 0.026177 -0.002655 -0.012872 0.000000 0.018316 0.000000
# 6 0.000000 0.000000 0.000000 0.002811 0.000000 0.045949
#
#
# Mechanical properties :
#
#
# Convention : Reuss Voigt Hill
#
# Bulk Modulus (GPa) = 28.12881 41.08490 34.60685
# Shear Modulus (GPa) = 34.91792 19.15012 27.03402
#
# Velocity S-wave (km/s) = 4.29848 3.18329 3.78221
# Velocity P-wave (km/s) = 6.28652 5.93728 6.11439
#
# Compressibility (1/GPa) = 0.03555074
#
# Stress axis : x y z
#
# Youngs Moduli (GPa) = 34.59139 72.95042 -164.05559
#
# Poissons Ratio (x) = 0.67910 2.43486
# Poissons Ratio (y) = 0.32201 -0.98727
# Poissons Ratio (z) = -0.51339 0.43901
#
# Static dielectric constant tensor:
#      x y z
#    x 3.351740 0.000000 -0.257770 
#    y 0.000000 3.587990 0.000000 
#    z -0.257770 0.000000 3.505900 
# 
# 
# High freq. dielectric constant tensor:
#      x y z
#    x 1.713240 0.000000 -0.024720 
#    y 0.000000 1.747590 0.000000 
#    z -0.024720 0.000000 1.736810 
# 
# From -- ./inp_files/37094.got.cif
#   From: 2010.06.25/outbox.cif.g09.slc.cpg/sg10_19_cif.got.tgz:37094.got - 2010.06.27 22:07:45.
