data_PCOD8058190
_publ_section_title
;
Structure prediction by ZEFSAII (Michael W. Deem and Ramdas Pophale) SiO2 
 PCOD8058190
Probable space group: P 2/M
;
_chemical_formula_sum "Si O2"
_cell_formula_units_Z 30
_cell_length_a 10.993361
_cell_length_b 9.411460
_cell_length_c 16.211634
_cell_angle_alpha 90.000000
_cell_angle_beta 100.849437
_cell_angle_gamma 90.000000
_cell_volume 1647.332011
_symmetry_space_group_name_H-M "P 2/M"
_symmetry_group_IT_number 10
_symmetry_cell_setting 'monoclinic'
loop_
_space_group_symop_operation_xyz
x,y,z
-x,y,-z
-x,-y,-z
x,-y,z
loop_
_atom_site_type_symbol
_atom_site_label
_atom_site_fract_x
_atom_site_fract_y
_atom_site_fract_z
Si Si1 0.660048 0.157435 0.168824
Si Si2 0.554978 0.836688 0.328754
Si Si3 0.718920 0.166451 0.644541
Si Si4 0.866831 0.334305 0.125422
Si Si5 0.740234 0.659936 0.949187
Si Si6 0.500000 0.245637 0.000000
Si Si7 0.638790 0.661381 0.484893
Si Si8 0.850497 0.333222 0.797611
O O1 0.577471 0.203318 0.236475
O O2 0.777723 0.260876 0.180762
O O3 0.575934 0.153689 0.075669
O O4 0.712723 0.000000 0.188615
O O5 0.411690 0.807550 0.328024
O O6 0.641531 0.736168 0.395919
O O7 0.588090 0.000000 0.353312
O O8 0.723344 0.245360 0.556953
O O9 0.822596 0.239871 0.714009
O O10 0.747899 0.000000 0.635909
O O11 0.835285 0.500000 0.125020
O O12 0.008172 0.301896 0.161333
O O13 0.828759 0.271224 0.030564
O O14 0.785896 0.500000 0.943563
O O15 0.596839 0.661692 0.958957
O O16 0.765827 0.727772 0.862460
O O17 0.500000 0.661046 0.500000
O O18 0.689837 0.500000 0.484750
O O19 0.826945 0.500000 0.775444
#
# Coordination Sequence:
#
# PCOD8058190 Si02
#       8
#     4   4   4   4   4   2   4   4
#     4  10  20  33  50  71  99 133 166 202 244 289
#     4   9  18  32  49  72 101 132 162 194 241 296
#     4  10  19  31  49  74 103 131 158 194 242 295
#     4   9  19  34  50  68  93 129 171 210 246 284
#     4   9  17  30  49  72  98 130 166 204 246 290
#     4  10  18  30  48  74 105 132 163 200 243 288
#     4   9  17  30  49  74 101 128 159 196 239 289
#     4  10  19  32  50  71  97 129 167 208 245 285
#
# _framework density 18.211264
#
# number of rings (size 3 to 8) (size 9 to 14) (size 15 to 20)
#    0.000    2.533    0.000    2.400    0.000    5.333 
#    0.000    2.667    0.000    4.800    0.000    5.600 
#    0.000    0.000    0.000    0.000    0.000    0.000 
#
# Total GULP energy -371866.960819 kJ/mol
# GULP energy per Si atom -12395.565361 kJ/mol
# Density = 1.816981 g / cm^3
# Si number density = 18.211264 Si / 1000 Ang^3
#
#
#
# Elastic Constant Matrix: (Units=GPa)
#
#
# Indices 1 2 3 4 5 6 
#
# 1 67.8119 28.0638 34.5383 0.0000 5.2719 0.0000
# 2 28.0638 83.6150 46.7387 0.0000 6.3985 0.0000
# 3 34.5383 46.7387 104.6914 0.0000 4.8555 0.0000
# 4 0.0000 0.0000 0.0000 28.9973 0.0000 0.2921
# 5 5.2719 6.3985 4.8555 0.0000 24.1350 0.0000
# 6 0.0000 0.0000 0.0000 0.2921 0.0000 21.8283
#
#
#
# Elastic Compliance Matrix: (Units=1/GPa)
#
#
# Indices 1 2 3 4 5 6 
#
# 1 0.018680 -0.003614 -0.004446 0.000000 -0.002228 0.000000
# 2 -0.003614 0.016828 -0.006208 0.000000 -0.002423 0.000000
# 3 -0.004446 -0.006208 0.013798 0.000000 -0.000159 0.000000
# 4 0.000000 0.000000 0.000000 0.034491 0.000000 -0.000462
# 5 -0.002228 -0.002423 -0.000159 0.000000 0.042595 0.000000
# 6 0.000000 0.000000 0.000000 -0.000462 0.000000 0.045818
#
#
# Mechanical properties :
#
#
# Convention : Reuss Voigt Hill
#
# Bulk Modulus (GPa) = 48.14720 52.75555 50.45138
# Shear Modulus (GPa) = 24.07686 24.77727 24.42706
#
# Velocity S-wave (km/s) = 3.63999 3.69256 3.66637
# Velocity P-wave (km/s) = 6.64542 6.87106 6.75918
#
# Compressibility (1/GPa) = 0.02076964
#
# Stress axis : x y z
#
# Youngs Moduli (GPa) = 53.53355 59.42422 72.47662
#
# Poissons Ratio (x) = 0.21476 0.32222
# Poissons Ratio (y) = 0.19347 0.44995
# Poissons Ratio (z) = 0.23800 0.36892
#
# Static dielectric constant tensor:
#      x y z
#    x 3.084360 0.000000 -0.054990 
#    y 0.000000 3.279310 0.000000 
#    z -0.054990 0.000000 3.469810 
# 
# 
# High freq. dielectric constant tensor:
#      x y z
#    x 1.675680 0.000000 -0.000370 
#    y 0.000000 1.696500 0.000000 
#    z -0.000370 0.000000 1.711720 
# 
# From -- ./inp_files/63872.got.cif
#   From: 2010.06.25/outbox.cif.g09.slc.cpg/sg10_32_cif.got.tgz:63872.got - 2010.06.27 22:07:45.
