data_PCOD8058954
_publ_section_title
;
Structure prediction by ZEFSAII (Michael W. Deem and Ramdas Pophale) SiO2 
 PCOD8058954
Probable space group: P 2/M
;
_chemical_formula_sum "Si O2"
_cell_formula_units_Z 28
_cell_length_a 11.955000
_cell_length_b 8.814205
_cell_length_c 15.782670
_cell_angle_alpha 90.000000
_cell_angle_beta 56.559389
_cell_angle_gamma 90.000000
_cell_volume 1387.769738
_symmetry_space_group_name_H-M "P 2/M"
_symmetry_group_IT_number 10
_symmetry_cell_setting 'monoclinic'
loop_
_space_group_symop_operation_xyz
x,y,z
-x,y,-z
-x,-y,-z
x,-y,z
loop_
_atom_site_type_symbol
_atom_site_label
_atom_site_fract_x
_atom_site_fract_y
_atom_site_fract_z
Si Si1 0.130972 0.175156 0.647164
Si Si2 0.328372 0.819968 0.226971
Si Si3 0.869052 0.178881 0.001687
Si Si4 0.134678 0.678518 0.179902
Si Si5 0.145135 0.176137 0.451995
Si Si6 0.404048 0.820079 0.801354
Si Si7 0.403319 0.819957 0.613261
O O1 0.193614 0.201100 0.527679
O O2 0.248117 0.224873 0.662047
O O3 0.998026 0.273678 0.713682
O O4 0.089364 0.000000 0.677819
O O5 0.268662 0.745069 0.167510
O O6 0.249623 0.754556 0.341841
O O7 0.482503 0.770076 0.178335
O O8 0.317146 0.000000 0.221690
O O9 0.739208 0.239656 0.106472
O O10 0.861260 0.000000 0.988527
O O11 0.876776 0.261700 0.909702
O O12 0.000000 0.223195 0.000000
O O13 0.146779 0.500000 0.174379
O O14 0.000000 0.253613 0.500000
O O15 0.133478 0.000000 0.434226
O O16 0.437541 0.756371 0.692871
O O17 0.400130 0.000000 0.795347
O O18 0.500000 0.748865 0.500000
O O19 0.419422 0.000000 0.603350
#
# Coordination Sequence:
#
# PCOD8058954 Si02
#       7
#     4   4   4   4   4   4   4
#     4  10  18  32  56  83 114 151 188 230 280 332
#     4  10  19  35  57  81 113 147 185 228 276 335
#     4  10  21  40  64  86 109 140 182 229 279 334
#     4  12  25  38  54  80 112 146 190 236 279 327
#     4   9  15  26  49  80 109 142 184 223 265 319
#     4   9  18  32  54  84 112 142 180 226 275 327
#     4   9  16  28  52  89 122 142 172 223 280 333
#
# _framework density 20.176257
#
# number of rings (size 3 to 8) (size 9 to 14) (size 15 to 20)
#    0.000    2.143    1.429    3.000    0.000    6.571 
#    0.000    5.000    0.000    1.286    0.000    0.000 
#    0.000    0.000    0.000    0.000    0.000    0.000 
#
# Total GULP energy -347119.293306 kJ/mol
# GULP energy per Si atom -12397.117618 kJ/mol
# Density = 2.013033 g / cm^3
# Si number density = 20.176257 Si / 1000 Ang^3
#
#
#
# Elastic Constant Matrix: (Units=GPa)
#
#
# Indices 1 2 3 4 5 6 
#
# 1 164.9065 45.6547 61.1719 0.0000 4.5845 0.0000
# 2 45.6547 42.0757 32.8609 0.0000 6.3841 0.0000
# 3 61.1719 32.8609 96.2895 0.0000 -6.4437 0.0000
# 4 0.0000 0.0000 0.0000 3.0181 0.0000 -1.5628
# 5 4.5845 6.3841 -6.4437 0.0000 34.8315 0.0000
# 6 0.0000 0.0000 0.0000 -1.5628 0.0000 2.6533
#
#
#
# Elastic Compliance Matrix: (Units=1/GPa)
#
#
# Indices 1 2 3 4 5 6 
#
# 1 0.009429 -0.007425 -0.003492 0.000000 -0.000526 0.000000
# 2 -0.007425 0.040665 -0.009715 0.000000 -0.008273 0.000000
# 3 -0.003492 -0.009715 0.016270 0.000000 0.005250 0.000000
# 4 0.000000 0.000000 0.000000 0.476734 0.000000 0.280803
# 5 -0.000526 -0.008273 0.005250 0.000000 0.031267 0.000000
# 6 0.000000 0.000000 0.000000 0.280803 0.000000 0.542293
#
#
# Mechanical properties :
#
#
# Convention : Reuss Voigt Hill
#
# Bulk Modulus (GPa) = 39.83632 64.73852 52.28742
# Shear Modulus (GPa) = 4.28710 19.00618 11.64664
#
# Velocity S-wave (km/s) = 1.45926 3.07254 2.40520
# Velocity P-wave (km/s) = 4.75671 6.68906 5.80387
#
# Compressibility (1/GPa) = 0.02510272
#
# Stress axis : x y z
#
# Youngs Moduli (GPa) = 106.05025 24.59094 61.46107
#
# Poissons Ratio (x) = 0.18258 0.21462
# Poissons Ratio (y) = 0.78738 0.59708
# Poissons Ratio (z) = 0.37032 0.23890
#
# Static dielectric constant tensor:
#      x y z
#    x 3.903400 0.000000 -0.033170 
#    y 0.000000 3.026300 0.000000 
#    z -0.033170 0.000000 3.813810 
# 
# 
# High freq. dielectric constant tensor:
#      x y z
#    x 1.807120 0.000000 0.003730 
#    y 0.000000 1.714420 0.000000 
#    z 0.003730 0.000000 1.793960 
# 
# From -- ./inp_files/63617.got.cif
#   From: 2010.06.25/outbox.cif.g09.slc.cpg/sg10_32_cif.got.tgz:63617.got - 2010.06.27 22:07:45.
