data_PCOD8058635
_publ_section_title
;
Structure prediction by ZEFSAII (Michael W. Deem and Ramdas Pophale) SiO2 
 PCOD8058635
Probable space group: P 2/M
;
_chemical_formula_sum "Si O2"
_cell_formula_units_Z 32
_cell_length_a 12.217567
_cell_length_b 8.931650
_cell_length_c 19.981995
_cell_angle_alpha 90.000000
_cell_angle_beta 56.205049
_cell_angle_gamma 90.000000
_cell_volume 1812.065101
_symmetry_space_group_name_H-M "P 2/M"
_symmetry_group_IT_number 10
_symmetry_cell_setting 'monoclinic'
loop_
_space_group_symop_operation_xyz
x,y,z
-x,y,-z
-x,-y,-z
x,-y,z
loop_
_atom_site_type_symbol
_atom_site_label
_atom_site_fract_x
_atom_site_fract_y
_atom_site_fract_z
Si Si1 0.583057 0.328370 0.702889
Si Si2 0.377867 0.822693 0.172941
Si Si3 0.281461 0.329052 0.831033
Si Si4 0.647533 0.322571 0.050892
Si Si5 0.306138 0.174367 0.609080
Si Si6 0.889772 0.322822 0.229359
Si Si7 0.808574 0.675963 0.864950
Si Si8 0.412540 0.174587 0.431830
O O1 0.625646 0.500000 0.697802
O O2 0.639438 0.234494 0.745579
O O3 0.426393 0.310170 0.751722
O O4 0.641444 0.265274 0.613718
O O5 0.505449 0.753972 0.092944
O O6 0.250037 0.769814 0.176048
O O7 0.388761 0.000000 0.169053
O O8 0.239036 0.500000 0.852170
O O9 0.278569 0.260841 0.907262
O O10 0.178662 0.252586 0.814417
O O11 0.622288 0.500000 0.065589
O O12 0.734800 0.279057 0.958121
O O13 0.181460 0.262158 0.680301
O O14 0.315062 0.207927 0.526812
O O15 0.440479 0.228076 0.598937
O O16 0.284985 0.000000 0.629260
O O17 0.874010 0.500000 0.234893
O O18 0.040907 0.273833 0.178362
O O19 0.794239 0.500000 0.855121
O O20 0.413709 0.000000 0.413751
#
# Coordination Sequence:
#
# PCOD8058635 Si02
#       8
#     4   4   4   4   4   4   4   4
#     4  10  18  31  53  79 105 131 165 211 259 302
#     4  11  22  35  53  75 100 131 171 217 260 305
#     4   8  15  28  47  74 102 129 162 202 249 299
#     4   9  18  34  54  75 101 131 168 215 263 302
#     4   9  18  31  48  73 108 143 170 201 244 297
#     4  10  19  32  50  74 105 138 175 210 247 301
#     4  10  21  35  52  73 100 137 175 215 257 300
#     4   9  17  30  49  76 107 138 171 203 244 298
#
# _framework density 17.659410000000001
#
# number of rings (size 3 to 8) (size 9 to 14) (size 15 to 20)
#    0.000    2.500    1.250    3.375    0.000    3.500 
#    0.000    3.750    0.000    0.750    0.000    8.750 
#    0.000    0.000    0.000    0.000    0.000    0.000 
#
# Total GULP energy -396748.604204 kJ/mol
# GULP energy per Si atom -12398.393881 kJ/mol
# Density = 1.761922 g / cm^3
# Si number density = 17.659410 Si / 1000 Ang^3
#
#
#
# Elastic Constant Matrix: (Units=GPa)
#
#
# Indices 1 2 3 4 5 6 
#
# 1 109.9543 39.6282 51.2112 0.0000 9.3893 0.0000
# 2 39.6282 53.5868 26.2892 0.0000 7.9541 0.0000
# 3 51.2112 26.2892 72.4166 0.0000 19.0755 0.0000
# 4 0.0000 0.0000 0.0000 22.6546 0.0000 3.5477
# 5 9.3893 7.9541 19.0755 0.0000 21.6128 0.0000
# 6 0.0000 0.0000 0.0000 3.5477 0.0000 20.8296
#
#
#
# Elastic Compliance Matrix: (Units=1/GPa)
#
#
# Indices 1 2 3 4 5 6 
#
# 1 0.016021 -0.007756 -0.009684 0.000000 0.004441 0.000000
# 2 -0.007756 0.026493 -0.003195 0.000000 -0.003561 0.000000
# 3 -0.009684 -0.003195 0.026578 0.000000 -0.018075 0.000000
# 4 0.000000 0.000000 0.000000 0.045351 0.000000 -0.007724
# 5 0.004441 -0.003561 -0.018075 0.000000 0.061603 0.000000
# 6 0.000000 0.000000 0.000000 -0.007724 0.000000 0.049324
#
#
# Mechanical properties :
#
#
# Convention : Reuss Voigt Hill
#
# Bulk Modulus (GPa) = 35.94191 52.24611 44.09401
# Shear Modulus (GPa) = 18.12156 20.94133 19.53144
#
# Velocity S-wave (km/s) = 3.20686 3.44735 3.32928
# Velocity P-wave (km/s) = 5.84029 6.74502 6.30889
#
# Compressibility (1/GPa) = 0.02782267
#
# Stress axis : x y z
#
# Youngs Moduli (GPa) = 62.41768 37.74580 37.62476
#
# Poissons Ratio (x) = 0.29277 0.36436
# Poissons Ratio (y) = 0.48413 0.12020
# Poissons Ratio (z) = 0.60445 0.12059
#
# Static dielectric constant tensor:
#      x y z
#    x 3.302530 0.000000 0.215200 
#    y 0.000000 3.060420 0.000000 
#    z 0.215200 0.000000 3.237810 
# 
# 
# High freq. dielectric constant tensor:
#      x y z
#    x 1.671000 0.000000 0.023180 
#    y 0.000000 1.665100 0.000000 
#    z 0.023180 0.000000 1.678150 
# 
# From -- ./inp_files/54922.got.cif
#   From: 2010.06.25/outbox.cif.g09.slc.cpg/sg10_28_cif.got.tgz:54922.got - 2010.06.27 22:07:45.
