data_PCOD8058053
_publ_section_title
;
Structure prediction by ZEFSAII (Michael W. Deem and Ramdas Pophale) SiO2 
 PCOD8058053
Probable space group: P 2/M
;
_chemical_formula_sum "Si O2"
_cell_formula_units_Z 32
_cell_length_a 12.725503
_cell_length_b 9.138930
_cell_length_c 33.826347
_cell_angle_alpha 90.000000
_cell_angle_beta 24.998539
_cell_angle_gamma 90.000000
_cell_volume 1662.455075
_symmetry_space_group_name_H-M "P 2/M"
_symmetry_group_IT_number 10
_symmetry_cell_setting 'monoclinic'
loop_
_space_group_symop_operation_xyz
x,y,z
-x,y,-z
-x,-y,-z
x,-y,z
loop_
_atom_site_type_symbol
_atom_site_label
_atom_site_fract_x
_atom_site_fract_y
_atom_site_fract_z
Si Si1 0.044600 0.829459 0.726536
Si Si2 0.771117 0.168451 0.898943
Si Si3 0.512666 0.672557 0.603704
Si Si4 0.029388 0.666585 0.877571
Si Si5 0.057412 0.671633 0.391587
Si Si6 0.572303 0.332953 0.671403
Si Si7 0.196278 0.325799 0.964836
Si Si8 0.243950 0.325656 0.243633
O O1 0.302817 0.758917 0.651771
O O2 0.837035 0.806482 0.830928
O O3 0.946340 0.748502 0.721490
O O4 0.088192 0.000000 0.702717
O O5 0.970566 0.249527 0.857606
O O6 0.778754 0.000000 0.908561
O O7 0.500000 0.235627 0.000000
O O8 0.447521 0.500000 0.626107
O O9 0.767175 0.706503 0.493869
O O10 0.536942 0.737889 0.640013
O O11 0.945824 0.500000 0.900136
O O12 0.325354 0.678870 0.782486
O O13 0.887386 0.734722 0.963725
O O14 0.110749 0.500000 0.374387
O O15 0.207486 0.741517 0.377809
O O16 0.164115 0.732388 0.313990
O O17 0.645058 0.500000 0.637743
O O18 0.182026 0.500000 0.969428
O O19 0.474335 0.271841 0.860483
O O20 0.000000 0.262390 0.000000
O O21 0.220803 0.500000 0.247296
#
# Coordination Sequence:
#
# PCOD8058053 Si02
#       8
#     4   4   4   4   4   4   4   4
#     4  11  23  38  55  75 107 144 178 222 271 316
#     4  10  21  36  52  71  99 137 175 212 259 311
#     4  10  19  34  57  82 107 137 177 222 265 314
#     4  10  18  29  51  81 106 133 169 210 257 309
#     4   9  18  32  54  82 108 138 176 219 267 315
#     4   9  16  29  52  83 112 133 166 219 270 315
#     4   9  17  30  51  81 114 142 170 212 265 314
#     4  10  20  35  55  79 108 143 182 219 257 313
#
# _framework density 19.248640999999999
#
# number of rings (size 3 to 8) (size 9 to 14) (size 15 to 20)
#    0.000    2.250    1.250    2.250    0.000    5.750 
#    0.000    3.125    0.000    6.750    0.000    0.000 
#    0.000    0.000    0.000    0.000    0.000    0.000 
#
# Total GULP energy -396773.518863 kJ/mol
# GULP energy per Si atom -12399.172464 kJ/mol
# Density = 1.920483 g / cm^3
# Si number density = 19.248641 Si / 1000 Ang^3
#
#
#
# Elastic Constant Matrix: (Units=GPa)
#
#
# Indices 1 2 3 4 5 6 
#
# 1 151.2736 34.0251 52.4366 0.0000 -6.5154 0.0000
# 2 34.0251 35.6271 22.4451 0.0000 -4.3766 0.0000
# 3 52.4366 22.4451 114.2036 0.0000 1.2991 -0.0001
# 4 0.0000 0.0000 0.0000 14.4654 0.0000 8.3573
# 5 -6.5154 -4.3766 1.2991 0.0000 35.0068 0.0000
# 6 0.0000 0.0000 -0.0001 8.3573 0.0000 -22.4600
#
#
#
# Elastic Compliance Matrix: (Units=1/GPa)
#
#
# Indices 1 2 3 4 5 6 
#
# 1 0.009191 -0.006841 -0.002887 0.000000 0.000963 0.000000
# 2 -0.006841 0.037769 -0.004323 0.000000 0.003609 0.000000
# 3 -0.002887 -0.004323 0.010948 0.000000 -0.001484 0.000000
# 4 0.000000 0.000000 0.000000 0.056899 0.000000 0.021172
# 5 0.000963 0.003609 -0.001484 0.000000 0.029251 0.000000
# 6 0.000000 0.000000 0.000000 0.021172 0.000000 -0.036646
#
#
# Mechanical properties :
#
#
# Convention : Reuss Voigt Hill
#
# Bulk Modulus (GPa) = 33.54914 57.65754 45.60334
# Shear Modulus (GPa) = 34.37617 18.21562 26.29590
#
# Velocity S-wave (km/s) = 4.23058 3.07959 3.70011
# Velocity P-wave (km/s) = 6.42891 6.53179 6.48055
#
# Compressibility (1/GPa) = 0.02980702
#
# Stress axis : x y z
#
# Youngs Moduli (GPa) = 108.79793 26.47683 91.33967
#
# Poissons Ratio (x) = 0.18113 0.26366
# Poissons Ratio (y) = 0.74431 0.39484
# Poissons Ratio (z) = 0.31406 0.11445
#
# Static dielectric constant tensor:
#      x y z
#    x 3.601000 0.000000 0.038460 
#    y 0.000000 3.031990 0.000000 
#    z 0.038460 0.000000 3.674110 
# 
# 
# High freq. dielectric constant tensor:
#      x y z
#    x 1.759500 0.000000 -0.000570 
#    y 0.000000 1.692140 0.000000 
#    z -0.000570 0.000000 1.763870 
# 
# From -- ./inp_files/89511.got.cif
#   From: 2010.06.25/outbox.cif.g09.slc.cpg/sg10_45_cif.got.tgz:89511.got - 2010.06.27 22:07:45.
