data_PCOD8058375
_publ_section_title
;
Structure prediction by ZEFSAII (Michael W. Deem and Ramdas Pophale) SiO2 
 PCOD8058375
Probable space group: P 2/M
;
_chemical_formula_sum "Si O2"
_cell_formula_units_Z 24
_cell_length_a 8.776854
_cell_length_b 13.938149
_cell_length_c 14.976254
_cell_angle_alpha 90.000000
_cell_angle_beta 139.474167
_cell_angle_gamma 90.000000
_cell_volume 1190.476291
_symmetry_space_group_name_H-M "P 2/M"
_symmetry_group_IT_number 10
_symmetry_cell_setting 'monoclinic'
loop_
_space_group_symop_operation_xyz
x,y,z
-x,y,-z
-x,-y,-z
x,-y,z
loop_
_atom_site_type_symbol
_atom_site_label
_atom_site_fract_x
_atom_site_fract_y
_atom_site_fract_z
Si Si1 0.779512 0.394507 0.547636
Si Si2 0.850407 0.264931 0.352479
Si Si3 0.104649 0.890130 0.143360
Si Si4 0.032289 0.607464 0.176707
Si Si5 0.426541 0.281215 0.281139
Si Si6 0.227639 0.213706 0.875809
O O1 0.705793 0.500000 0.480139
O O2 0.796032 0.395333 0.661517
O O3 0.591581 0.314813 0.435649
O O4 0.030124 0.367915 0.614850
O O5 0.578528 0.282428 0.257896
O O6 0.860185 0.203784 0.265766
O O7 0.000000 0.214386 0.500000
O O8 0.336195 0.825973 0.261850
O O9 0.908140 0.866965 0.129379
O O10 0.182310 0.000000 0.187103
O O11 0.000000 0.867242 0.000000
O O12 0.939110 0.500000 0.112381
O O13 0.197986 0.648886 0.170738
O O14 0.819024 0.680281 0.102423
O O15 0.500000 0.191083 0.000000
#
# Coordination Sequence:
#
# PCOD8058375 Si02
#       6
#     4   4   4   4   4   4
#     4   9  17  30  51  80 113 152 194 227 261 318
#     4   9  19  33  53  80 116 153 185 223 273 327
#     4  10  22  40  61  83 105 135 183 239 292 345
#     4   9  18  31  50  79 115 153 189 224 269 325
#     4  10  18  30  53  77 106 140 181 228 272 317
#     4  10  20  36  59  83 110 144 188 238 282 327
#
# _framework density 20.159998999999999
#
# number of rings (size 3 to 8) (size 9 to 14) (size 15 to 20)
#    0.000    2.500    0.000    2.000    0.000    7.000 
#    0.000    0.833    0.000   66.500    0.000    0.000 
#    0.000    0.000    0.000    0.000    0.000    0.000 
#
# Total GULP energy -297438.341208 kJ/mol
# GULP energy per Si atom -12393.264217 kJ/mol
# Density = 2.011411 g / cm^3
# Si number density = 20.159999 Si / 1000 Ang^3
#
#
#
# Elastic Constant Matrix: (Units=GPa)
#
#
# Indices 1 2 3 4 5 6 
#
# 1 151.2125 40.3632 36.3014 0.0000 11.0678 0.0000
# 2 40.3632 122.5142 39.2325 0.0000 11.5110 0.0000
# 3 36.3014 39.2325 66.5850 0.0000 0.6643 0.0000
# 4 0.0000 0.0000 0.0000 23.5983 0.0000 1.4850
# 5 11.0678 11.5110 0.6643 0.0000 33.3103 0.0000
# 6 0.0000 0.0000 0.0000 1.4850 0.0000 17.8461
#
#
#
# Elastic Compliance Matrix: (Units=1/GPa)
#
#
# Indices 1 2 3 4 5 6 
#
# 1 0.007968 -0.001282 -0.003567 0.000000 -0.002133 0.000000
# 2 -0.001282 0.010657 -0.005549 0.000000 -0.003146 0.000000
# 3 -0.003567 -0.005549 0.020206 0.000000 0.002700 0.000000
# 4 0.000000 0.000000 0.000000 0.042599 0.000000 -0.003545
# 5 -0.002133 -0.003146 0.002700 0.000000 0.031763 0.000000
# 6 0.000000 0.000000 0.000000 -0.003545 0.000000 0.056329
#
#
# Mechanical properties :
#
#
# Convention : Reuss Voigt Hill
#
# Bulk Modulus (GPa) = 55.45036 63.56732 59.50884
# Shear Modulus (GPa) = 25.46725 29.91192 27.68959
#
# Velocity S-wave (km/s) = 3.55809 3.85610 3.71009
# Velocity P-wave (km/s) = 6.66670 7.17118 6.92353
#
# Compressibility (1/GPa) = 0.01803415
#
# Stress axis : x y z
#
# Youngs Moduli (GPa) = 125.50155 93.83237 49.49097
#
# Poissons Ratio (x) = 0.12033 0.17654
# Poissons Ratio (y) = 0.16094 0.27462
# Poissons Ratio (z) = 0.44769 0.52066
#
# Static dielectric constant tensor:
#      x y z
#    x 3.970310 0.000000 -0.039370 
#    y 0.000000 3.450950 0.000000 
#    z -0.039370 0.000000 3.477720 
# 
# 
# High freq. dielectric constant tensor:
#      x y z
#    x 1.810240 0.000000 0.001430 
#    y 0.000000 1.753370 0.000000 
#    z 0.001430 0.000000 1.767330 
# 
# From -- ./inp_files/29687.got.cif
#   From: 2010.06.25/outbox.cif.g09.slc.cpg/sg10_15_cif.got.tgz:29687.got - 2010.06.27 22:07:45.
