data_PCOD8058786
_publ_section_title
;
Structure prediction by ZEFSAII (Michael W. Deem and Ramdas Pophale) SiO2 
 PCOD8058786
Probable space group: P 2/M
;
_chemical_formula_sum "Si O2"
_cell_formula_units_Z 30
_cell_length_a 30.572292
_cell_length_b 9.466579
_cell_length_c 18.041055
_cell_angle_alpha 90.000000
_cell_angle_beta 18.742516
_cell_angle_gamma 90.000000
_cell_volume 1677.702839
_symmetry_space_group_name_H-M "P 2/M"
_symmetry_group_IT_number 10
_symmetry_cell_setting 'monoclinic'
loop_
_space_group_symop_operation_xyz
x,y,z
-x,y,-z
-x,-y,-z
x,-y,z
loop_
_atom_site_type_symbol
_atom_site_label
_atom_site_fract_x
_atom_site_fract_y
_atom_site_fract_z
Si Si1 0.947252 0.332678 0.202313
Si Si2 0.584174 0.332842 0.295912
Si Si3 0.907546 0.163869 0.413805
Si Si4 0.226906 0.660760 0.243834
Si Si5 0.158260 0.152956 0.110300
Si Si6 0.000000 0.753045 0.500000
Si Si7 0.501319 0.667930 0.725727
Si Si8 0.792990 0.666652 0.303210
O O1 0.943015 0.500000 0.226588
O O2 0.898767 0.244164 0.350294
O O3 0.842156 0.290851 0.306000
O O4 0.098396 0.284313 0.933573
O O5 0.500000 0.272361 0.500000
O O6 0.592295 0.500000 0.284503
O O7 0.514433 0.276594 0.333009
O O8 0.737232 0.279928 0.056551
O O9 0.806698 0.238093 0.633733
O O10 0.061183 0.178151 0.196043
O O11 0.864762 0.000000 0.473359
O O12 0.239661 0.500000 0.252010
O O13 0.113811 0.659949 0.359914
O O14 0.371515 0.718589 0.981357
O O15 0.071692 0.148402 0.324639
O O16 0.230660 0.000000 0.987065
O O17 0.505545 0.500000 0.719294
O O18 0.643011 0.732379 0.529493
O O19 0.784682 0.500000 0.311093
#
# Coordination Sequence:
#
# PCOD8058786 Si02
#       8
#     4   4   4   4   4   2   4   4
#     4   9  17  33  58  84 102 130 172 214 261 311
#     4  10  21  34  51  78 108 139 174 213 259 301
#     4  10  22  36  51  74 107 140 173 216 263 306
#     4  10  19  32  53  77 101 135 177 217 256 303
#     4  10  21  35  51  72 103 143 179 210 254 307
#     4  10  18  32  52  76 102 132 178 224 256 294
#     4   9  17  32  51  77 109 136 166 212 263 308
#     4   8  16  31  55  83 108 130 165 215 264 313
#
# _framework density 17.881592999999999
#
# number of rings (size 3 to 8) (size 9 to 14) (size 15 to 20)
#    0.000    2.533    1.333    1.600    1.867    3.467 
#    0.000    2.000    0.000    6.400    0.000    0.000 
#    0.000    0.000    0.000    0.000    0.000    0.000 
#
# Total GULP energy -371880.198596 kJ/mol
# GULP energy per Si atom -12396.006620 kJ/mol
# Density = 1.784089 g / cm^3
# Si number density = 17.881593 Si / 1000 Ang^3
#
#
#
# Elastic Constant Matrix: (Units=GPa)
#
#
# Indices 1 2 3 4 5 6 
#
# 1 121.7625 44.7314 74.8518 0.0000 14.9071 0.0000
# 2 44.7314 56.8103 34.4660 0.0000 6.5247 0.0000
# 3 74.8518 34.4660 135.3299 0.0000 -2.7491 0.0000
# 4 0.0000 0.0000 0.0000 9.1737 0.0000 4.1372
# 5 14.9071 6.5247 -2.7491 0.0000 27.5485 0.0000
# 6 0.0000 0.0000 0.0000 4.1372 0.0000 -0.3870
#
#
#
# Elastic Compliance Matrix: (Units=1/GPa)
#
#
# Indices 1 2 3 4 5 6 
#
# 1 0.016484 -0.007629 -0.007334 0.000000 -0.007845 0.000000
# 2 -0.007629 0.025207 -0.002242 0.000000 -0.002066 0.000000
# 3 -0.007334 -0.002242 0.012133 0.000000 0.005710 0.000000
# 4 0.000000 0.000000 0.000000 0.018728 0.000000 0.200185
# 5 -0.007845 -0.002066 0.005710 0.000000 0.041604 0.000000
# 6 0.000000 0.000000 0.000000 0.200185 0.000000 -0.443887
#
#
# Mechanical properties :
#
#
# Convention : Reuss Voigt Hill
#
# Bulk Modulus (GPa) = 51.50936 69.11122 60.31029
# Shear Modulus (GPa) = -17.30998 17.92393 0.30697
#
# Velocity S-wave (km/s) = -3.11470 3.16945 0.41478
# Velocity P-wave (km/s) = 3.99164 7.21992 5.83354
#
# Compressibility (1/GPa) = 0.01941395
#
# Stress axis : x y z
#
# Youngs Moduli (GPa) = 60.66428 39.67185 82.42142
#
# Poissons Ratio (x) = 0.30265 0.60447
# Poissons Ratio (y) = 0.46281 0.18479
# Poissons Ratio (z) = 0.44491 0.08895
#
# Static dielectric constant tensor:
#      x y z
#    x 3.454450 0.000000 -0.087590 
#    y 0.000000 2.966550 0.000000 
#    z -0.087590 0.000000 3.548120 
# 
# 
# High freq. dielectric constant tensor:
#      x y z
#    x 1.692160 0.000000 0.006030 
#    y 0.000000 1.661980 0.000000 
#    z 0.006030 0.000000 1.692340 
# 
# From -- ./inp_files/80713.got.cif
#   From: 2010.06.25/outbox.cif.g09.slc.cpg/sg10_41_cif.got.tgz:80713.got - 2010.06.27 22:07:45.
