data_PCOD8058916
_publ_section_title
;
Structure prediction by ZEFSAII (Michael W. Deem and Ramdas Pophale) SiO2 
 PCOD8058916
Probable space group: P 2/M
;
_chemical_formula_sum "Si O2"
_cell_formula_units_Z 32
_cell_length_a 27.534224
_cell_length_b 8.831377
_cell_length_c 19.601851
_cell_angle_alpha 90.000000
_cell_angle_beta 159.269000
_cell_angle_gamma 90.000000
_cell_volume 1687.245188
_symmetry_space_group_name_H-M "P 2/M"
_symmetry_group_IT_number 10
_symmetry_cell_setting 'monoclinic'
loop_
_space_group_symop_operation_xyz
x,y,z
-x,y,-z
-x,-y,-z
x,-y,z
loop_
_atom_site_type_symbol
_atom_site_label
_atom_site_fract_x
_atom_site_fract_y
_atom_site_fract_z
Si Si1 0.594188 0.823034 0.186766
Si Si2 0.033707 0.324482 0.616057
Si Si3 0.841637 0.821158 0.029316
Si Si4 0.113299 0.675864 0.444023
Si Si5 0.457752 0.822876 0.728521
Si Si6 0.815237 0.179658 0.700168
Si Si7 0.301876 0.320525 0.040013
Si Si8 0.113651 0.821031 0.060772
O O1 0.737779 0.737414 0.378055
O O2 0.519394 0.789908 0.160869
O O3 0.625247 0.000000 0.218819
O O4 0.500000 0.764621 0.000000
O O5 0.063281 0.500000 0.641901
O O6 0.172991 0.253802 0.828628
O O7 0.000000 0.243153 0.500000
O O8 0.908117 0.300173 0.502990
O O9 0.717979 0.746974 0.910151
O O10 0.993760 0.763540 0.247550
O O11 0.838559 0.000000 0.035749
O O12 0.812761 0.772996 0.912788
O O13 0.102963 0.500000 0.410756
O O14 0.309180 0.760154 0.509790
O O15 0.474553 0.000000 0.735176
O O16 0.563084 0.732559 0.820421
O O17 0.800207 0.234157 0.759760
O O18 0.814686 0.000000 0.695876
O O19 0.958229 0.245235 0.858718
O O20 0.300618 0.500000 0.044556
O O21 0.099093 0.000000 0.045142
#
# Coordination Sequence:
#
# PCOD8058916 Si02
#       8
#     4   4   4   4   4   4   4   4
#     4  10  22  37  52  75 108 140 171 213 264 315
#     4   8  16  31  50  70  92 122 164 214 255 289
#     4  10  18  32  55  79 105 135 169 214 267 312
#     4  10  20  33  52  77 104 134 173 213 254 308
#     4  10  20  35  54  74 104 142 174 211 262 313
#     4   8  14  27  49  79 107 132 169 214 256 301
#     4  10  21  35  52  74 102 137 176 218 260 309
#     4   8  14  26  50  81 106 130 168 216 259 301
#
# _framework density 18.965827000000001
#
# number of rings (size 3 to 8) (size 9 to 14) (size 15 to 20)
#    0.000    2.750    0.000    3.375    1.750    2.750 
#    0.000    0.625    0.000    7.500    0.000    5.250 
#    0.000    0.000    0.000    0.000    0.000    0.000 
#
# Total GULP energy -396585.296370 kJ/mol
# GULP energy per Si atom -12393.290512 kJ/mol
# Density = 1.892266 g / cm^3
# Si number density = 18.965827 Si / 1000 Ang^3
#
#
#
# Elastic Constant Matrix: (Units=GPa)
#
#
# Indices 1 2 3 4 5 6 
#
# 1 148.0349 34.6058 44.8156 0.0000 -7.0878 0.0000
# 2 34.6058 50.1320 18.6879 0.0000 2.6341 0.0000
# 3 44.8156 18.6879 67.6807 0.0000 0.9675 0.0000
# 4 0.0000 0.0000 0.0000 19.7400 0.0000 7.8975
# 5 -7.0878 2.6341 0.9675 0.0000 29.5127 0.0000
# 6 0.0000 0.0000 0.0000 7.8975 0.0000 16.5789
#
#
#
# Elastic Compliance Matrix: (Units=1/GPa)
#
#
# Indices 1 2 3 4 5 6 
#
# 1 0.009553 -0.004875 -0.005021 0.000000 0.002894 0.000000
# 2 -0.004875 0.024818 -0.003578 0.000000 -0.003269 0.000000
# 3 -0.005021 -0.003578 0.019110 0.000000 -0.001513 0.000000
# 4 0.000000 0.000000 0.000000 0.062586 0.000000 -0.029814
# 5 0.002894 -0.003269 -0.001513 0.000000 0.034920 0.000000
# 6 0.000000 0.000000 0.000000 -0.029814 0.000000 0.074520
#
#
# Mechanical properties :
#
#
# Convention : Reuss Voigt Hill
#
# Bulk Modulus (GPa) = 37.68917 51.34069 44.51493
# Shear Modulus (GPa) = 19.13511 24.34888 21.74199
#
# Velocity S-wave (km/s) = 3.17981 3.58694 3.38949
# Velocity P-wave (km/s) = 5.77900 6.65460 6.23220
#
# Compressibility (1/GPa) = 0.02653282
#
# Stress axis : x y z
#
# Youngs Moduli (GPa) = 104.67415 40.29335 52.32943
#
# Poissons Ratio (x) = 0.19643 0.26276
# Poissons Ratio (y) = 0.51028 0.18723
# Poissons Ratio (z) = 0.52559 0.14417
#
# Static dielectric constant tensor:
#      x y z
#    x 3.897450 0.000000 -0.212840 
#    y 0.000000 3.112230 0.000000 
#    z -0.212840 0.000000 3.480540 
# 
# 
# High freq. dielectric constant tensor:
#      x y z
#    x 1.755530 0.000000 -0.003290 
#    y 0.000000 1.701920 0.000000 
#    z -0.003290 0.000000 1.719600 
# 
# From -- ./inp_files/86959.got.cif
#   From: 2010.06.25/outbox.cif.g09.slc.cpg/sg10_44_cif.got.tgz:86959.got - 2010.06.27 22:07:45.
