data_PCOD8058406
_publ_section_title
;
Structure prediction by ZEFSAII (Michael W. Deem and Ramdas Pophale) SiO2 
 PCOD8058406
Probable space group: P 2/M
;
_chemical_formula_sum "Si O2"
_cell_formula_units_Z 32
_cell_length_a 9.849007
_cell_length_b 14.075376
_cell_length_c 14.759745
_cell_angle_alpha 90.000000
_cell_angle_beta 50.614633
_cell_angle_gamma 90.000000
_cell_volume 1581.438004
_symmetry_space_group_name_H-M "P 2/M"
_symmetry_group_IT_number 10
_symmetry_cell_setting 'monoclinic'
loop_
_space_group_symop_operation_xyz
x,y,z
-x,y,-z
-x,-y,-z
x,-y,z
loop_
_atom_site_type_symbol
_atom_site_label
_atom_site_fract_x
_atom_site_fract_y
_atom_site_fract_z
Si Si1 0.165319 0.787449 0.876128
Si Si2 0.206489 0.604784 0.967149
Si Si3 0.672780 0.111826 0.872615
Si Si4 0.918251 0.605789 0.783714
Si Si5 0.599449 0.396027 0.788303
Si Si6 0.962930 0.800132 0.266583
Si Si7 0.434661 0.196190 0.268452
Si Si8 0.846648 0.888742 0.498119
O O1 0.160341 0.675552 0.904524
O O2 0.357002 0.827198 0.822844
O O3 0.152477 0.807173 0.775004
O O4 0.000000 0.836618 0.000000
O O5 0.160985 0.500000 0.949238
O O6 0.407672 0.610090 0.913282
O O7 0.097740 0.628929 0.103126
O O8 0.839076 0.167718 0.843168
O O9 0.653572 0.140089 0.776592
O O10 0.706939 0.000000 0.866522
O O11 0.500000 0.144098 0.000000
O O12 0.998080 0.500000 0.733247
O O13 0.730913 0.615023 0.815604
O O14 0.041618 0.690617 0.694630
O O15 0.627726 0.500000 0.728153
O O16 0.613704 0.308625 0.712239
O O17 0.885743 0.866599 0.376981
O O18 0.341359 0.157618 0.398230
O O19 0.000000 0.849307 0.500000
O O20 0.829656 0.000000 0.517272
#
# Coordination Sequence:
#
# PCOD8058406 Si02
#       8
#     4   4   4   4   4   4   4   4
#     4  11  23  38  58  93 134 172 201 247 315 384
#     4   9  18  31  53  85 128 174 212 249 297 370
#     4  11  23  39  63  91 118 155 207 266 328 380
#     4  10  18  30  54  91 129 166 211 256 307 369
#     4   9  17  30  53  91 128 162 207 259 311 367
#     4  12  23  39  62  92 128 164 209 261 316 365
#     4  11  22  40  66  90 125 168 212 257 311 374
#     4  11  23  44  72  94 114 153 220 280 315 364
#
# _framework density 20.234748
#
# number of rings (size 3 to 8) (size 9 to 14) (size 15 to 20)
#    0.000    1.500    3.750    1.875    1.750    2.750 
#    0.000    3.750    0.000    6.750    0.000    4.375 
#    0.000    0.000    0.000    0.000    0.000    0.000 
#
# Total GULP energy -396626.158746 kJ/mol
# GULP energy per Si atom -12394.567461 kJ/mol
# Density = 2.018869 g / cm^3
# Si number density = 20.234748 Si / 1000 Ang^3
#
#
#
# Elastic Constant Matrix: (Units=GPa)
#
#
# Indices 1 2 3 4 5 6 
#
# 1 96.1113 17.9587 18.9767 0.0000 6.0221 0.0000
# 2 17.9587 85.5938 23.8965 0.0000 -4.4432 0.0000
# 3 18.9767 23.8965 80.9428 0.0000 -3.6304 0.0000
# 4 0.0000 0.0000 0.0000 30.8158 0.0000 2.4956
# 5 6.0221 -4.4432 -3.6304 0.0000 28.5949 0.0000
# 6 0.0000 0.0000 0.0000 2.4956 0.0000 14.9949
#
#
#
# Elastic Compliance Matrix: (Units=1/GPa)
#
#
# Indices 1 2 3 4 5 6 
#
# 1 0.011392 -0.001920 -0.002238 0.000000 -0.002982 0.000000
# 2 -0.001920 0.013121 -0.003333 0.000000 0.002020 0.000000
# 3 -0.002238 -0.003333 0.013940 0.000000 0.001723 0.000000
# 4 0.000000 0.000000 0.000000 0.032894 0.000000 -0.005475
# 5 -0.002982 0.002020 0.001723 0.000000 0.036132 0.000000
# 6 0.000000 0.000000 0.000000 -0.005475 0.000000 0.067600
#
#
# Mechanical properties :
#
#
# Convention : Reuss Voigt Hill
#
# Bulk Modulus (GPa) = 42.60407 42.70131 42.65269
# Shear Modulus (GPa) = 25.26709 28.33551 26.80130
#
# Velocity S-wave (km/s) = 3.53753 3.74617 3.64334
# Velocity P-wave (km/s) = 6.14704 6.31352 6.23083
#
# Compressibility (1/GPa) = 0.02347193
#
# Stress axis : x y z
#
# Youngs Moduli (GPa) = 87.78051 76.21156 71.73459
#
# Poissons Ratio (x) = 0.14635 0.16052
# Poissons Ratio (y) = 0.16856 0.23909
# Poissons Ratio (z) = 0.19642 0.25401
#
# Static dielectric constant tensor:
#      x y z
#    x 3.686880 0.000000 -0.171280 
#    y 0.000000 3.904240 0.000000 
#    z -0.171280 0.000000 3.390290 
# 
# 
# High freq. dielectric constant tensor:
#      x y z
#    x 1.794700 0.000000 -0.004500 
#    y 0.000000 1.798150 0.000000 
#    z -0.004500 0.000000 1.753670 
# 
# From -- ./inp_files/61852.got.cif
#   From: 2010.06.25/outbox.cif.g09.slc.cpg/sg10_31_cif.got.tgz:61852.got - 2010.06.27 22:07:45.
