data_PCOD8058225
_publ_section_title
;
Structure prediction by ZEFSAII (Michael W. Deem and Ramdas Pophale) SiO2 
 PCOD8058225
Probable space group: P 2/M
;
_chemical_formula_sum "Si O2"
_cell_formula_units_Z 28
_cell_length_a 10.319906
_cell_length_b 9.184446
_cell_length_c 17.758305
_cell_angle_alpha 90.000000
_cell_angle_beta 63.627518
_cell_angle_gamma 90.000000
_cell_volume 1508.002191
_symmetry_space_group_name_H-M "P 2/M"
_symmetry_group_IT_number 10
_symmetry_cell_setting 'monoclinic'
loop_
_space_group_symop_operation_xyz
x,y,z
-x,y,-z
-x,-y,-z
x,-y,z
loop_
_atom_site_type_symbol
_atom_site_label
_atom_site_fract_x
_atom_site_fract_y
_atom_site_fract_z
Si Si1 0.834208 0.669269 0.040198
Si Si2 0.872859 0.173163 0.311540
Si Si3 0.198343 0.173109 0.237781
Si Si4 0.347471 0.173594 0.508227
Si Si5 0.661172 0.668766 0.935696
Si Si6 0.695517 0.172906 0.213684
Si Si7 0.375833 0.827264 0.334119
O O1 0.819412 0.500000 0.064416
O O2 0.742559 0.759979 0.122997
O O3 0.771930 0.703838 0.974119
O O4 0.000000 0.720817 0.000000
O O5 0.781279 0.234434 0.405947
O O6 0.802298 0.227653 0.251987
O O7 0.035406 0.234249 0.274362
O O8 0.872567 0.000000 0.314349
O O9 0.295670 0.236598 0.146736
O O10 0.262761 0.227063 0.300737
O O11 0.202443 0.000000 0.230005
O O12 0.500000 0.232443 0.500000
O O13 0.325031 0.231580 0.428860
O O14 0.347975 0.000000 0.510081
O O15 0.666498 0.500000 0.911641
O O16 0.500000 0.715455 0.000000
O O17 0.535604 0.231283 0.273863
O O18 0.698783 0.000000 0.205353
O O19 0.381718 0.000000 0.334896
#
# Coordination Sequence:
#
# PCOD8058225 Si02
#       7
#     4   4   4   4   4   4   4
#     4  10  21  35  50  70  95 123 159 201 242 286
#     4   9  17  28  45  71 102 132 160 195 238 287
#     4  10  20  32  47  74 105 125 154 204 251 281
#     4   9  14  25  45  69 100 134 162 190 233 284
#     4  10  21  37  54  70  93 129 169 199 233 294
#     4  10  18  30  49  72  95 123 162 199 236 285
#     4   9  17  28  45  71 100 128 159 196 236 282
#
# _framework density 18.567613000000001
#
# number of rings (size 3 to 8) (size 9 to 14) (size 15 to 20)
#    0.000    2.429    1.429    1.714    0.000    1.714 
#    0.000    2.857    0.000    0.000    0.000    6.000 
#    0.000    0.000    0.000    0.000    0.000    0.000 
#
# Total GULP energy -347211.271667 kJ/mol
# GULP energy per Si atom -12400.402560 kJ/mol
# Density = 1.852535 g / cm^3
# Si number density = 18.567613 Si / 1000 Ang^3
#
#
#
# Elastic Constant Matrix: (Units=GPa)
#
#
# Indices 1 2 3 4 5 6 
#
# 1 128.6441 14.8365 40.4939 0.0000 3.8711 0.0000
# 2 14.8365 16.3755 23.8033 0.0000 1.5718 0.0000
# 3 40.4939 23.8033 123.4341 0.0000 3.4224 0.0000
# 4 0.0000 0.0000 0.0000 -6.0846 0.0000 2.1500
# 5 3.8711 1.5718 3.4224 0.0000 33.6176 0.0000
# 6 0.0000 0.0000 0.0000 2.1500 0.0000 7.8076
#
#
#
# Elastic Compliance Matrix: (Units=1/GPa)
#
#
# Indices 1 2 3 4 5 6 
#
# 1 0.009007 -0.005325 -0.001912 0.000000 -0.000594 0.000000
# 2 -0.005325 0.088179 -0.015203 0.000000 -0.001962 0.000000
# 3 -0.001912 -0.015203 0.011668 0.000000 -0.000257 0.000000
# 4 0.000000 0.000000 0.000000 -0.149776 0.000000 0.041244
# 5 -0.000594 -0.001962 -0.000257 0.000000 0.029933 0.000000
# 6 0.000000 0.000000 0.000000 0.041244 0.000000 0.116723
#
#
# Mechanical properties :
#
#
# Convention : Reuss Voigt Hill
#
# Bulk Modulus (GPa) = 15.63138 47.41348 31.52243
# Shear Modulus (GPa) = 29.08037 19.68946 24.38492
#
# Velocity S-wave (km/s) = 3.96180 3.25994 3.62788
# Velocity P-wave (km/s) = 5.41892 6.30560 5.87900
#
# Compressibility (1/GPa) = 0.06397388
#
# Stress axis : x y z
#
# Youngs Moduli (GPa) = 111.02384 11.34058 85.70776
#
# Poissons Ratio (x) = 0.06039 0.16383
# Poissons Ratio (y) = 0.59120 1.30304
# Poissons Ratio (z) = 0.21222 0.17241
#
# Static dielectric constant tensor:
#      x y z
#    x 3.761510 0.000000 0.029200 
#    y 0.000000 2.851830 0.000000 
#    z 0.029200 0.000000 3.547160 
# 
# 
# High freq. dielectric constant tensor:
#      x y z
#    x 1.736600 0.000000 0.002000 
#    y 0.000000 1.660730 0.000000 
#    z 0.002000 0.000000 1.734900 
# 
# From -- ./inp_files/60913.got.cif
#   From: 2010.06.25/outbox.cif.g09.slc.cpg/sg10_31_cif.got.tgz:60913.got - 2010.06.27 22:07:45.
