data_PCOD8058156
_publ_section_title
;
Structure prediction by ZEFSAII (Michael W. Deem and Ramdas Pophale) SiO2 
 PCOD8058156
Probable space group: P 2/M
;
_chemical_formula_sum "Si O2"
_cell_formula_units_Z 32
_cell_length_a 19.803347
_cell_length_b 13.426494
_cell_length_c 23.119182
_cell_angle_alpha 90.000000
_cell_angle_beta 162.658668
_cell_angle_gamma 90.000000
_cell_volume 1832.240762
_symmetry_space_group_name_H-M "P 2/M"
_symmetry_group_IT_number 10
_symmetry_cell_setting 'monoclinic'
loop_
_space_group_symop_operation_xyz
x,y,z
-x,y,-z
-x,-y,-z
x,-y,z
loop_
_atom_site_type_symbol
_atom_site_label
_atom_site_fract_x
_atom_site_fract_y
_atom_site_fract_z
Si Si1 0.117021 0.616823 0.039100
Si Si2 0.008432 0.383818 0.187309
Si Si3 0.830615 0.112463 0.314580
Si Si4 0.610698 0.382057 0.416176
Si Si5 0.774333 0.381131 0.424116
Si Si6 0.345865 0.299402 0.022190
Si Si7 0.686383 0.112513 0.073880
Si Si8 0.725128 0.614891 0.156161
O O1 0.146611 0.500000 0.074525
O O2 0.363903 0.664147 0.228217
O O3 0.000000 0.666012 0.000000
O O4 0.958619 0.637665 0.853864
O O5 0.968039 0.500000 0.165644
O O6 0.226362 0.343609 0.399399
O O7 0.782517 0.328749 0.024359
O O8 0.820306 0.157166 0.240120
O O9 0.000000 0.165628 0.500000
O O10 0.917960 0.000000 0.377466
O O11 0.579604 0.112817 0.133381
O O12 0.592952 0.500000 0.401487
O O13 0.712509 0.346348 0.438567
O O14 0.737963 0.500000 0.386587
O O15 0.614021 0.318405 0.250069
O O16 0.033000 0.349015 0.620123
O O17 0.277714 0.185748 0.950951
O O18 0.267385 0.370743 0.906211
O O19 0.767915 0.000000 0.125657
O O20 0.706647 0.500000 0.155999
O O21 0.500000 0.668937 0.000000
#
# Coordination Sequence:
#
# PCOD8058156 Si02
#       8
#     4   4   4   4   4   4   4   4
#     4   9  17  28  44  69  98 125 158 197 230 270
#     4  10  18  30  48  68  94 131 165 191 229 284
#     4   8  15  33  55  67  83 114 148 194 258 310
#     4   9  16  28  46  65  91 125 161 194 228 278
#     4  10  19  33  51  70  92 128 170 203 241 289
#     4  12  21  31  52  70  93 129 168 197 244 300
#     4   9  20  34  48  71  96 117 153 205 251 297
#     4  10  22  36  48  68  98 123 161 216 252 278
#
# _framework density 17.464953999999999
#
# number of rings (size 3 to 8) (size 9 to 14) (size 15 to 20)
#    0.000    2.375    2.500    1.875    1.750    2.000 
#    0.000    4.375    0.000    0.000    0.000    0.000 
#    0.000    0.500    0.000    1.250    0.000    0.250 
#
# Total GULP energy -396506.376434 kJ/mol
# GULP energy per Si atom -12390.824264 kJ/mol
# Density = 1.742520 g / cm^3
# Si number density = 17.464954 Si / 1000 Ang^3
#
#
#
# Elastic Constant Matrix: (Units=GPa)
#
#
# Indices 1 2 3 4 5 6 
#
# 1 72.1799 22.5170 27.6412 0.0000 -6.1487 0.0000
# 2 22.5170 35.5848 22.1871 0.0000 -6.1771 0.0000
# 3 27.6412 22.1871 113.9076 0.0000 -16.6661 0.0000
# 4 0.0000 0.0000 0.0000 12.6621 0.0000 -5.1506
# 5 -6.1487 -6.1771 -16.6661 0.0000 30.1992 0.0000
# 6 0.0000 0.0000 0.0000 -5.1506 0.0000 11.4974
#
#
#
# Elastic Compliance Matrix: (Units=1/GPa)
#
#
# Indices 1 2 3 4 5 6 
#
# 1 0.017834 -0.009743 -0.002383 0.000000 0.000323 0.000000
# 2 -0.009743 0.037629 -0.004492 0.000000 0.003234 0.000000
# 3 -0.002383 -0.004492 0.010907 0.000000 0.004616 0.000000
# 4 0.000000 0.000000 0.000000 0.096574 0.000000 0.043264
# 5 0.000323 0.003234 0.004616 0.000000 0.036388 0.000000
# 6 0.000000 0.000000 0.000000 0.043264 0.000000 0.106358
#
#
# Mechanical properties :
#
#
# Convention : Reuss Voigt Hill
#
# Bulk Modulus (GPa) = 30.17934 40.70700 35.44317
# Shear Modulus (GPa) = 14.28694 20.82688 17.55691
#
# Velocity S-wave (km/s) = 2.86323 3.45700 3.17403
# Velocity P-wave (km/s) = 5.31491 6.26840 5.81125
#
# Compressibility (1/GPa) = 0.03313525
#
# Stress axis : x y z
#
# Youngs Moduli (GPa) = 56.07410 26.57518 91.68020
#
# Poissons Ratio (x) = 0.25892 0.21843
# Poissons Ratio (y) = 0.54633 0.41183
# Poissons Ratio (z) = 0.13360 0.11938
#
# Static dielectric constant tensor:
#      x y z
#    x 3.194910 0.000000 -0.088970 
#    y 0.000000 2.910170 0.000000 
#    z -0.088970 0.000000 3.648140 
# 
# 
# High freq. dielectric constant tensor:
#      x y z
#    x 1.653880 0.000000 -0.017740 
#    y 0.000000 1.618130 0.000000 
#    z -0.017740 0.000000 1.692390 
# 
# From -- ./inp_files/79715.got.cif
#   From: 2010.06.25/outbox.cif.g09.slc.cpg/sg10_40_cif.got.tgz:79715.got - 2010.06.27 22:07:45.
