data_PCOD8058201
_publ_section_title
;
Structure prediction by ZEFSAII (Michael W. Deem and Ramdas Pophale) SiO2 
 PCOD8058201
Probable space group: P 2/M
;
_chemical_formula_sum "Si O2"
_cell_formula_units_Z 28
_cell_length_a 17.829614
_cell_length_b 11.976746
_cell_length_c 24.387570
_cell_angle_alpha 90.000000
_cell_angle_beta 19.376602
_cell_angle_gamma 90.000000
_cell_volume 1727.802783
_symmetry_space_group_name_H-M "P 2/M"
_symmetry_group_IT_number 10
_symmetry_cell_setting 'monoclinic'
loop_
_space_group_symop_operation_xyz
x,y,z
-x,y,-z
-x,-y,-z
x,-y,z
loop_
_atom_site_type_symbol
_atom_site_label
_atom_site_fract_x
_atom_site_fract_y
_atom_site_fract_z
Si Si1 0.952816 0.296086 0.693977
Si Si2 0.842814 0.367443 0.157234
Si Si3 0.663508 0.122856 0.836529
Si Si4 0.365736 0.296096 0.987546
Si Si5 0.947511 0.500000 0.451230
Si Si6 0.983111 0.370950 0.179807
Si Si7 0.647485 0.500000 0.751318
Si Si8 0.331481 0.629062 0.505694
O O1 0.889792 0.186844 0.701520
O O2 0.003528 0.392206 0.617235
O O3 0.179612 0.285665 0.574291
O O4 0.741822 0.327249 0.879069
O O5 0.842325 0.500000 0.157713
O O6 0.938122 0.325768 0.149775
O O7 0.586636 0.325769 0.325604
O O8 0.000000 0.319883 0.000000
O O9 0.524598 0.186818 0.884147
O O10 0.734767 0.000000 0.765255
O O11 0.500000 0.107443 0.000000
O O12 0.520743 0.392184 0.858678
O O13 0.164202 0.285640 0.081979
O O14 0.693117 0.500000 0.653483
O O15 0.110712 0.500000 0.389252
O O16 0.074652 0.500000 0.116811
O O17 0.750293 0.366442 0.374813
O O18 0.308928 0.500000 0.499729
#
# Coordination Sequence:
#
# PCOD8058201 Si02
#       8
#     4   4   4   4   2   4   2   4
#     4  10  18  30  49  68  92 125 159 190 229 278
#     4   9  17  27  39  59  90 125 150 178 223 270
#     4   9  18  31  49  72  94 119 156 199 234 271
#     4  10  18  30  49  68  92 125 159 190 229 278
#     4  11  21  29  41  66  97 122 153 193 234 272
#     4   9  16  26  41  63  89 120 154 185 220 269
#     4  11  21  29  41  66  97 122 153 193 234 272
#     4   9  16  26  41  63  89 120 154 185 220 269
#
# _framework density 16.205552999999998
#
# number of rings (size 3 to 8) (size 9 to 14) (size 15 to 20)
#    0.000    2.429    2.857    0.857    0.000    3.429 
#    0.000    0.000    0.000    1.714    0.000    1.000 
#    0.000    8.000    0.000    0.000    0.000    0.000 
#
# Total GULP energy -346898.804271 kJ/mol
# GULP energy per Si atom -12389.243010 kJ/mol
# Density = 1.616867 g / cm^3
# Si number density = 16.205553 Si / 1000 Ang^3
#
#
#
# Elastic Constant Matrix: (Units=GPa)
#
#
# Indices 1 2 3 4 5 6 
#
# 1 103.9088 44.0646 61.7792 0.0000 -10.3716 0.0000
# 2 44.0646 85.5526 43.9171 0.0000 -0.0754 0.0000
# 3 61.7792 43.9171 92.5511 0.0000 0.6875 0.0000
# 4 0.0000 0.0000 0.0000 -23.9675 0.0000 -18.4104
# 5 -10.3716 -0.0754 0.6875 0.0000 24.8908 0.0000
# 6 0.0000 0.0000 0.0000 -18.4104 0.0000 -2.7290
#
#
#
# Elastic Compliance Matrix: (Units=1/GPa)
#
#
# Indices 1 2 3 4 5 6 
#
# 1 0.018290 -0.004120 -0.010313 0.000000 0.007894 0.000000
# 2 -0.004120 0.016382 -0.005012 0.000000 -0.001529 0.000000
# 3 -0.010313 -0.005012 0.020103 0.000000 -0.004868 0.000000
# 4 0.000000 0.000000 0.000000 0.009977 0.000000 -0.067305
# 5 0.007894 -0.001529 -0.004868 0.000000 0.043594 0.000000
# 6 0.000000 0.000000 0.000000 -0.067305 0.000000 0.087622
#
#
# Mechanical properties :
#
#
# Convention : Reuss Voigt Hill
#
# Bulk Modulus (GPa) = 62.94753 64.61489 63.78121
# Shear Modulus (GPa) = 20.81999 8.45562 14.63780
#
# Velocity S-wave (km/s) = 3.58822 2.28671 3.00869
# Velocity P-wave (km/s) = 7.48963 6.85060 7.17723
#
# Compressibility (1/GPa) = 0.01588625
#
# Stress axis : x y z
#
# Youngs Moduli (GPa) = 54.67395 61.04160 49.74285
#
# Poissons Ratio (x) = 0.25147 0.51299
# Poissons Ratio (y) = 0.22524 0.24933
# Poissons Ratio (z) = 0.56384 0.30596
#
# Static dielectric constant tensor:
#      x y z
#    x 3.267300 0.000000 -0.058940 
#    y 0.000000 2.915190 0.000000 
#    z -0.058940 0.000000 3.199850 
# 
# 
# High freq. dielectric constant tensor:
#      x y z
#    x 1.629040 0.000000 -0.004300 
#    y 0.000000 1.560690 0.000000 
#    z -0.004300 0.000000 1.624060 
# 
# From -- ./inp_files/54645.got.cif
#   From: 2010.06.25/outbox.cif.g09.slc.cpg/sg10_28_cif.got.tgz:54645.got - 2010.06.27 22:07:45.
