data_PCOD8058333
_publ_section_title
;
Structure prediction by ZEFSAII (Michael W. Deem and Ramdas Pophale) SiO2 
 PCOD8058333
Probable space group: P 2/M
;
_chemical_formula_sum "Si O2"
_cell_formula_units_Z 20
_cell_length_a 23.156757
_cell_length_b 8.966547
_cell_length_c 9.851874
_cell_angle_alpha 90.000000
_cell_angle_beta 146.746338
_cell_angle_gamma 90.000000
_cell_volume 1121.700811
_symmetry_space_group_name_H-M "P 2/M"
_symmetry_group_IT_number 10
_symmetry_cell_setting 'monoclinic'
loop_
_space_group_symop_operation_xyz
x,y,z
-x,y,-z
-x,-y,-z
x,-y,z
loop_
_atom_site_type_symbol
_atom_site_label
_atom_site_fract_x
_atom_site_fract_y
_atom_site_fract_z
Si Si1 0.493250 0.664450 0.647713
Si Si2 0.733833 0.323370 0.847389
Si Si3 0.129747 0.823860 0.385193
Si Si4 0.894174 0.176581 0.964210
Si Si5 0.299942 0.823460 0.932029
O O1 0.500000 0.655451 0.500000
O O2 0.514011 0.500000 0.750668
O O3 0.374191 0.719467 0.446047
O O4 0.581262 0.777204 0.877507
O O5 0.740469 0.500000 0.880706
O O6 0.832054 0.264600 0.956645
O O7 0.736566 0.248727 0.999798
O O8 0.146443 0.769082 0.263459
O O9 0.221909 0.761409 0.662308
O O10 0.132579 0.000000 0.388009
O O11 0.016038 0.775131 0.219149
O O12 0.878802 0.000000 0.954124
O O13 0.294628 0.000000 0.936260
#
# Coordination Sequence:
#
# PCOD8058333 Si02
#       5
#     4   4   4   4   4
#     4   8  16  31  47  65  96 131 157 190 237 281
#     4  10  20  33  48  71 101 128 158 196 236 280
#     4   8  17  33  52  73  96 123 157 200 243 280
#     4   9  17  34  55  70  92 128 163 194 236 285
#     4  10  18  30  51  76  97 121 159 200 237 281
#
# _framework density 17.830067
#
# number of rings (size 3 to 8) (size 9 to 14) (size 15 to 20)
#    0.000    3.000    0.000    3.600    0.000    5.200 
#    0.000   11.000    0.000    6.000    0.000    0.000 
#    0.000    0.000    0.000    0.000    0.000    0.000 
#
# Total GULP energy -247879.084996 kJ/mol
# GULP energy per Si atom -12393.954250 kJ/mol
# Density = 1.778948 g / cm^3
# Si number density = 17.830067 Si / 1000 Ang^3
#
#
#
# Elastic Constant Matrix: (Units=GPa)
#
#
# Indices 1 2 3 4 5 6 
#
# 1 17.2721 10.3625 12.4759 0.0000 -1.9315 0.0000
# 2 10.3625 55.9738 34.5457 0.0000 -2.3812 0.0000
# 3 12.4759 34.5457 126.9354 0.0000 -3.0188 0.0000
# 4 0.0000 0.0000 0.0000 10.7333 0.0000 11.0899
# 5 -1.9315 -2.3812 -3.0188 0.0000 16.5696 0.0000
# 6 0.0000 0.0000 0.0000 11.0899 0.0000 8.9865
#
#
#
# Elastic Compliance Matrix: (Units=1/GPa)
#
#
# Indices 1 2 3 4 5 6 
#
# 1 0.067185 -0.009859 -0.003784 0.000000 0.005725 0.000000
# 2 -0.009859 0.022987 -0.005259 0.000000 0.001196 0.000000
# 3 -0.003784 -0.005259 0.009695 0.000000 0.000569 0.000000
# 4 0.000000 0.000000 0.000000 -0.338732 0.000000 0.418014
# 5 0.005725 0.001196 0.000569 0.000000 0.061294 0.000000
# 6 0.000000 0.000000 0.000000 0.418014 0.000000 -0.404575
#
#
# Mechanical properties :
#
#
# Convention : Reuss Voigt Hill
#
# Bulk Modulus (GPa) = 16.11247 34.99439 25.55343
# Shear Modulus (GPa) = -9.54829 16.77772 3.61472
#
# Velocity S-wave (km/s) = -2.31663 3.07087 1.42538
# Velocity P-wave (km/s) = 1.37862 5.67828 4.13179
#
# Compressibility (1/GPa) = 0.06206373
#
# Stress axis : x y z
#
# Youngs Moduli (GPa) = 14.88419 43.50280 103.15034
#
# Poissons Ratio (x) = 0.42890 0.39032
# Poissons Ratio (y) = 0.14674 0.54242
# Poissons Ratio (z) = 0.05632 0.22876
#
# Static dielectric constant tensor:
#      x y z
#    x 3.260330 0.000000 0.203540 
#    y 0.000000 3.111140 0.000000 
#    z 0.203540 0.000000 3.843480 
# 
# 
# High freq. dielectric constant tensor:
#      x y z
#    x 1.675430 0.000000 0.016820 
#    y 0.000000 1.674210 0.000000 
#    z 0.016820 0.000000 1.692940 
# 
# From -- ./inp_files/22290.got.cif
#   From: 2010.06.25/outbox.cif.g09.slc.cpg/sg10_12_cif.got.tgz:22290.got - 2010.06.27 22:07:45.
