data_PCOD8058808
_publ_section_title
;
Structure prediction by ZEFSAII (Michael W. Deem and Ramdas Pophale) SiO2 
 PCOD8058808
Probable space group: P 2/M
;
_chemical_formula_sum "Si O2"
_cell_formula_units_Z 32
_cell_length_a 29.276161
_cell_length_b 9.093164
_cell_length_c 23.324140
_cell_angle_alpha 90.000000
_cell_angle_beta 16.611390
_cell_angle_gamma 90.000000
_cell_volume 1775.075568
_symmetry_space_group_name_H-M "P 2/M"
_symmetry_group_IT_number 10
_symmetry_cell_setting 'monoclinic'
loop_
_space_group_symop_operation_xyz
x,y,z
-x,y,-z
-x,-y,-z
x,-y,z
loop_
_atom_site_type_symbol
_atom_site_label
_atom_site_fract_x
_atom_site_fract_y
_atom_site_fract_z
Si Si1 0.784508 0.173051 0.009785
Si Si2 0.348350 0.829622 0.050183
Si Si3 0.093479 0.170050 0.262466
Si Si4 0.903977 0.829145 0.171008
Si Si5 0.032369 0.674830 0.787292
Si Si6 0.132580 0.666223 0.389423
Si Si7 0.445081 0.830578 0.384544
Si Si8 0.658762 0.173309 0.613111
O O1 0.601807 0.234845 0.226910
O O2 0.794049 0.000000 0.013231
O O3 0.869367 0.208361 0.847570
O O4 0.867099 0.267018 0.960018
O O5 0.245485 0.783401 0.118179
O O6 0.294410 0.741722 0.171611
O O7 0.323262 0.000000 0.093737
O O8 0.534331 0.794136 0.813874
O O9 0.934120 0.256625 0.473178
O O10 0.055109 0.000000 0.317123
O O11 0.958083 0.731420 0.159203
O O12 0.714904 0.806273 0.385412
O O13 0.938801 0.000000 0.143325
O O14 0.000000 0.775445 0.000000
O O15 0.037857 0.500000 0.779853
O O16 0.176358 0.739964 0.575081
O O17 0.173929 0.500000 0.355222
O O18 0.000000 0.680956 0.500000
O O19 0.416641 0.764920 0.355409
O O20 0.487160 0.000000 0.324244
O O21 0.698206 0.000000 0.560823
#
# Coordination Sequence:
#
# PCOD8058808 Si02
#       8
#     4   4   4   4   4   4   4   4
#     4  10  18  32  53  75 101 134 170 213 255 294
#     4   9  15  26  47  72  95 122 165 218 261 298
#     4   9  16  27  46  70  94 126 167 211 258 298
#     4   9  18  36  62  85 104 131 168 209 249 291
#     4  11  23  35  49  75 109 141 168 200 247 305
#     4   9  17  26  37  61  99 136 165 201 251 308
#     4   8  14  28  53  81 102 123 164 214 252 290
#     4   9  16  31  53  75  98 128 170 219 261 299
#
# _framework density 18.027401999999999
#
# number of rings (size 3 to 8) (size 9 to 14) (size 15 to 20)
#    0.000    2.750    1.250    2.250    0.000    2.750 
#    0.000    3.125    0.000    4.500    0.000    5.250 
#    0.000    0.000    0.000    0.000    0.000    0.000 
#
# Total GULP energy -396693.935095 kJ/mol
# GULP energy per Si atom -12396.685472 kJ/mol
# Density = 1.798637 g / cm^3
# Si number density = 18.027402 Si / 1000 Ang^3
#
#
#
# Elastic Constant Matrix: (Units=GPa)
#
#
# Indices 1 2 3 4 5 6 
#
# 1 58.4405 34.2959 45.8720 0.0000 -7.4242 0.0000
# 2 34.2959 77.6825 48.3076 0.0000 1.9278 0.0000
# 3 45.8720 48.3076 125.8029 0.0000 5.3898 0.0000
# 4 0.0000 0.0000 0.0000 12.4244 0.0000 0.2419
# 5 -7.4242 1.9278 5.3898 0.0000 29.8606 0.0000
# 6 0.0000 0.0000 0.0000 0.2419 0.0000 14.7580
#
#
#
# Elastic Compliance Matrix: (Units=1/GPa)
#
#
# Indices 1 2 3 4 5 6 
#
# 1 0.029362 -0.008261 -0.007931 0.000000 0.009265 0.000000
# 2 -0.008261 0.019235 -0.004266 0.000000 -0.002526 0.000000
# 3 -0.007931 -0.004266 0.012649 0.000000 -0.003980 0.000000
# 4 0.000000 0.000000 0.000000 0.080512 0.000000 -0.001320
# 5 0.009265 -0.002526 -0.003980 0.000000 0.036674 0.000000
# 6 0.000000 0.000000 0.000000 -0.001320 0.000000 0.067782
#
#
# Mechanical properties :
#
#
# Convention : Reuss Voigt Hill
#
# Bulk Modulus (GPa) = 49.18593 57.65297 53.41945
# Shear Modulus (GPa) = 17.01218 20.30529 18.65874
#
# Velocity S-wave (km/s) = 3.07528 3.35977 3.22066
# Velocity P-wave (km/s) = 6.32084 6.86301 6.59749
#
# Compressibility (1/GPa) = 0.02033102
#
# Stress axis : x y z
#
# Youngs Moduli (GPa) = 34.05801 51.98742 79.05452
#
# Poissons Ratio (x) = 0.42945 0.62699
# Poissons Ratio (y) = 0.28134 0.33724
# Poissons Ratio (z) = 0.27012 0.22178
#
# Static dielectric constant tensor:
#      x y z
#    x 3.018640 0.000000 -0.004140 
#    y 0.000000 3.092180 0.000000 
#    z -0.004140 0.000000 3.529470 
# 
# 
# High freq. dielectric constant tensor:
#      x y z
#    x 1.662470 0.000000 0.004010 
#    y 0.000000 1.673680 0.000000 
#    z 0.004010 0.000000 1.705390 
# 
# From -- ./inp_files/86806.got.cif
#   From: 2010.06.25/outbox.cif.g09.slc.cpg/sg10_44_cif.got.tgz:86806.got - 2010.06.27 22:07:45.
