data_PCOD8058189
_publ_section_title
;
Structure prediction by ZEFSAII (Michael W. Deem and Ramdas Pophale) SiO2 
 PCOD8058189
Probable space group: P 2/M
;
_chemical_formula_sum "Si O2"
_cell_formula_units_Z 32
_cell_length_a 24.828715
_cell_length_b 8.832639
_cell_length_c 20.185332
_cell_angle_alpha 90.000000
_cell_angle_beta 156.687625
_cell_angle_gamma 90.000000
_cell_volume 1751.841500
_symmetry_space_group_name_H-M "P 2/M"
_symmetry_group_IT_number 10
_symmetry_cell_setting 'monoclinic'
loop_
_space_group_symop_operation_xyz
x,y,z
-x,y,-z
-x,-y,-z
x,-y,z
loop_
_atom_site_type_symbol
_atom_site_label
_atom_site_fract_x
_atom_site_fract_y
_atom_site_fract_z
Si Si1 0.380087 0.830427 0.450152
Si Si2 0.418202 0.322358 0.766081
Si Si3 0.738348 0.326074 0.949476
Si Si4 0.206483 0.176301 0.623816
Si Si5 0.304166 0.171043 0.227682
Si Si6 0.287742 0.675015 0.849746
Si Si7 0.538002 0.180532 0.321156
Si Si8 0.930126 0.328379 0.283507
O O1 0.539233 0.831814 0.614972
O O2 0.296527 0.754783 0.293977
O O3 0.368853 0.757737 0.511248
O O4 0.323534 0.000000 0.388657
O O5 0.413755 0.500000 0.748301
O O6 0.298698 0.274599 0.679578
O O7 0.394864 0.240679 0.669811
O O8 0.560972 0.273895 0.959604
O O9 0.692959 0.500000 0.896026
O O10 0.774919 0.270309 0.916294
O O11 0.616922 0.235003 0.846962
O O12 0.873939 0.303793 0.145989
O O13 0.237996 0.219255 0.734622
O O14 0.049713 0.210611 0.431430
O O15 0.235542 0.000000 0.645525
O O16 0.245457 0.000000 0.160425
O O17 0.285017 0.500000 0.823889
O O18 0.191384 0.703945 0.803059
O O19 0.536723 0.000000 0.320088
O O20 0.984312 0.500000 0.354078
#
# Coordination Sequence:
#
# PCOD8058189 Si02
#       8
#     4   4   4   4   4   4   4   4
#     4   7  12  23  40  64  98 137 171 204 255 313
#     4  11  22  39  59  80 106 142 179 214 261 322
#     4  10  18  30  48  74 104 137 178 217 259 312
#     4  12  26  39  54  82 110 135 174 224 269 311
#     4   8  13  24  41  64  97 137 174 209 254 306
#     4  10  21  40  62  80 102 139 178 213 263 325
#     4  10  18  30  50  75 104 138 175 219 262 305
#     4  10  21  39  58  77 105 144 181 214 261 322
#
# _framework density 18.266492
#
# number of rings (size 3 to 8) (size 9 to 14) (size 15 to 20)
#    0.000    2.250    1.250    4.500    0.000    5.500 
#    0.000    5.625    0.000    0.000    0.000    0.875 
#    0.000    7.000    0.000    0.000    0.000    0.000 
#
# Total GULP energy -396592.011428 kJ/mol
# GULP energy per Si atom -12393.500357 kJ/mol
# Density = 1.822492 g / cm^3
# Si number density = 18.266492 Si / 1000 Ang^3
#
#
#
# Elastic Constant Matrix: (Units=GPa)
#
#
# Indices 1 2 3 4 5 6 
#
# 1 77.6323 24.7722 4.9331 0.0000 -32.8538 0.0000
# 2 24.7722 68.2140 64.8322 0.0000 -13.6702 0.0000
# 3 4.9331 64.8322 435.1409 0.0000 -8.3115 0.0000
# 4 0.0000 0.0000 0.0000 -17.6572 0.0000 -17.4640
# 5 -32.8538 -13.6702 -8.3115 0.0000 37.7001 0.0000
# 6 0.0000 0.0000 0.0000 -17.4640 0.0000 19.6394
#
#
#
# Elastic Compliance Matrix: (Units=1/GPa)
#
#
# Indices 1 2 3 4 5 6 
#
# 1 0.021837 -0.005291 0.000871 0.000000 0.017303 0.000000
# 2 -0.005291 0.019651 -0.002832 0.000000 0.001891 0.000000
# 3 0.000871 -0.002832 0.002716 0.000000 0.000331 0.000000
# 4 0.000000 0.000000 0.000000 -0.030132 0.000000 -0.026795
# 5 0.017303 0.001891 0.000331 0.000000 0.042363 0.000000
# 6 0.000000 0.000000 0.000000 -0.026795 0.000000 0.027091
#
#
# Mechanical properties :
#
#
# Convention : Reuss Voigt Hill
#
# Bulk Modulus (GPa) = 33.66732 85.56248 59.61490
# Shear Modulus (GPa) = 46.32668 40.36644 43.34656
#
# Velocity S-wave (km/s) = 5.04149 4.70602 4.87664
# Velocity P-wave (km/s) = 7.23602 8.74481 8.02595
#
# Compressibility (1/GPa) = 0.02970240
#
# Stress axis : x y z
#
# Youngs Moduli (GPa) = 45.79429 50.88709 368.12503
#
# Poissons Ratio (x) = 0.26922 -0.32071
# Poissons Ratio (y) = 0.24227 1.04245
# Poissons Ratio (z) = -0.03990 0.14410
#
# Static dielectric constant tensor:
#      x y z
#    x 3.635970 0.000000 -0.545280 
#    y 0.000000 3.303300 0.000000 
#    z -0.545280 0.000000 3.346740 
# 
# 
# High freq. dielectric constant tensor:
#      x y z
#    x 1.706160 0.000000 -0.038970 
#    y 0.000000 1.695530 0.000000 
#    z -0.038970 0.000000 1.687230 
# 
# From -- ./inp_files/86964.got.cif
#   From: 2010.06.25/outbox.cif.g09.slc.cpg/sg10_44_cif.got.tgz:86964.got - 2010.06.27 22:07:45.
