data_PCOD8058056
_publ_section_title
;
Structure prediction by ZEFSAII (Michael W. Deem and Ramdas Pophale) SiO2 
 PCOD8058056
Probable space group: P 2/M
;
_chemical_formula_sum "Si O2"
_cell_formula_units_Z 28
_cell_length_a 20.780393
_cell_length_b 9.322217
_cell_length_c 13.966375
_cell_angle_alpha 90.000000
_cell_angle_beta 33.227810
_cell_angle_gamma 90.000000
_cell_volume 1482.562104
_symmetry_space_group_name_H-M "P 2/M"
_symmetry_group_IT_number 10
_symmetry_cell_setting 'monoclinic'
loop_
_space_group_symop_operation_xyz
x,y,z
-x,y,-z
-x,-y,-z
x,-y,z
loop_
_atom_site_type_symbol
_atom_site_label
_atom_site_fract_x
_atom_site_fract_y
_atom_site_fract_z
Si Si1 0.942150 0.658093 0.875289
Si Si2 0.131920 0.158743 0.870050
Si Si3 0.327278 0.828865 0.480586
Si Si4 0.130795 0.671367 0.360073
Si Si5 0.192346 0.329124 0.496559
Si Si6 0.479366 0.671141 0.636520
Si Si7 0.746430 0.659208 0.973254
O O1 0.953404 0.500000 0.905654
O O2 0.876136 0.654998 0.856860
O O3 0.072128 0.720968 0.698558
O O4 0.856630 0.745808 0.050658
O O5 0.215378 0.214674 0.683181
O O6 0.169796 0.000000 0.853104
O O7 0.000000 0.167226 0.000000
O O8 0.301129 0.756466 0.409490
O O9 0.436184 0.755019 0.396467
O O10 0.345778 0.000000 0.446429
O O11 0.125808 0.500000 0.359115
O O12 0.179500 0.719744 0.402542
O O13 0.227087 0.732989 0.162909
O O14 0.000000 0.732758 0.500000
O O15 0.211845 0.500000 0.480848
O O16 0.500000 0.719504 0.500000
O O17 0.498786 0.500000 0.619679
O O18 0.351424 0.726096 0.833594
O O19 0.698642 0.500000 0.013512
#
# Coordination Sequence:
#
# PCOD8058056 Si02
#       7
#     4   4   4   4   4   4   4
#     4  10  18  29  51  82 109 135 170 216 270 324
#     4  10  20  33  47  69 103 140 175 212 263 323
#     4  11  23  38  55  74 107 150 186 223 269 322
#     4   9  15  28  52  84 116 141 172 220 273 326
#     4  10  19  31  53  84 112 138 174 221 271 322
#     4  10  21  38  59  82 110 142 181 228 270 316
#     4   9  17  31  53  81 111 141 174 218 275 324
#
# _framework density 18.886223999999999
#
# number of rings (size 3 to 8) (size 9 to 14) (size 15 to 20)
#    0.000    2.143    2.857    1.286    0.000    2.857 
#    0.000    1.429    0.000    6.429    0.000    0.000 
#    0.000    0.000    0.000    0.000    0.000    0.000 
#
# Total GULP energy -346901.078259 kJ/mol
# GULP energy per Si atom -12389.324224 kJ/mol
# Density = 1.884324 g / cm^3
# Si number density = 18.886224 Si / 1000 Ang^3
#
#
#
# Elastic Constant Matrix: (Units=GPa)
#
#
# Indices 1 2 3 4 5 6 
#
# 1 132.8327 38.5433 47.5519 0.0000 7.6414 0.0000
# 2 38.5433 39.3362 20.1555 0.0000 3.1965 0.0000
# 3 47.5519 20.1555 97.6456 0.0000 10.3321 0.0000
# 4 0.0000 0.0000 0.0000 22.8776 0.0000 40.6911
# 5 7.6414 3.1965 10.3321 0.0000 34.2572 0.0000
# 6 0.0000 0.0000 0.0000 40.6911 0.0000 242.5423
#
#
#
# Elastic Compliance Matrix: (Units=1/GPa)
#
#
# Indices 1 2 3 4 5 6 
#
# 1 0.011611 -0.009465 -0.003636 0.000000 -0.000610 0.000000
# 2 -0.009465 0.036171 -0.002813 0.000000 -0.000415 0.000000
# 3 -0.003636 -0.002813 0.012890 0.000000 -0.002814 0.000000
# 4 0.000000 0.000000 0.000000 0.062302 0.000000 -0.010452
# 5 -0.000610 -0.000415 -0.002814 0.000000 0.030215 0.000000
# 6 0.000000 0.000000 0.000000 -0.010452 0.000000 0.005877
#
#
# Mechanical properties :
#
#
# Convention : Reuss Voigt Hill
#
# Bulk Modulus (GPa) = 34.66862 53.59065 44.12963
# Shear Modulus (GPa) = 24.93656 70.83967 47.88812
#
# Velocity S-wave (km/s) = 3.63761 6.13107 5.04095
# Velocity P-wave (km/s) = 6.00328 8.86325 7.56956
#
# Compressibility (1/GPa) = 0.02884453
#
# Stress axis : x y z
#
# Youngs Moduli (GPa) = 86.12221 27.64656 77.57687
#
# Poissons Ratio (x) = 0.26166 0.28210
# Poissons Ratio (y) = 0.81511 0.21824
# Poissons Ratio (z) = 0.31317 0.07777
#
# Static dielectric constant tensor:
#      x y z
#    x 3.488930 0.000000 0.182090 
#    y 0.000000 3.160930 0.000000 
#    z 0.182090 0.000000 3.679050 
# 
# 
# High freq. dielectric constant tensor:
#      x y z
#    x 1.738040 0.000000 0.008070 
#    y 0.000000 1.690870 0.000000 
#    z 0.008070 0.000000 1.730190 
# 
# From -- ./inp_files/63505.got.cif
#   From: 2010.06.25/outbox.cif.g09.slc.cpg/sg10_32_cif.got.tgz:63505.got - 2010.06.27 22:07:45.
