data_PCOD8058791
_publ_section_title
;
Structure prediction by ZEFSAII (Michael W. Deem and Ramdas Pophale) SiO2 
 PCOD8058791
Probable space group: P 2/M
;
_chemical_formula_sum "Si O2"
_cell_formula_units_Z 28
_cell_length_a 13.948081
_cell_length_b 9.236034
_cell_length_c 14.588985
_cell_angle_alpha 90.000000
_cell_angle_beta 52.617158
_cell_angle_gamma 90.000000
_cell_volume 1493.384687
_symmetry_space_group_name_H-M "P 2/M"
_symmetry_group_IT_number 10
_symmetry_cell_setting 'monoclinic'
loop_
_space_group_symop_operation_xyz
x,y,z
-x,y,-z
-x,-y,-z
x,-y,z
loop_
_atom_site_type_symbol
_atom_site_label
_atom_site_fract_x
_atom_site_fract_y
_atom_site_fract_z
Si Si1 0.133813 0.669848 0.661963
Si Si2 0.039530 0.672208 0.075374
Si Si3 0.538370 0.327103 0.753950
Si Si4 0.701670 0.330617 0.014914
Si Si5 0.406788 0.670654 0.480494
Si Si6 0.270145 0.669270 0.208144
Si Si7 0.025213 0.163657 0.379150
O O1 0.115965 0.500000 0.653496
O O2 0.273814 0.709466 0.593365
O O3 0.061192 0.721854 0.793512
O O4 0.087214 0.756317 0.601594
O O5 0.045794 0.500000 0.068677
O O6 0.170001 0.737596 0.028221
O O7 0.000000 0.735237 0.000000
O O8 0.537855 0.500000 0.756231
O O9 0.407958 0.265581 0.861218
O O10 0.568495 0.265205 0.635458
O O11 0.638993 0.271512 0.767227
O O12 0.709248 0.500000 0.029304
O O13 0.673434 0.300591 0.924647
O O14 0.500000 0.738095 0.500000
O O15 0.426189 0.500000 0.463160
O O16 0.242185 0.500000 0.237762
O O17 0.146144 0.753274 0.285148
O O18 0.000000 0.166936 0.500000
O O19 0.035374 0.000000 0.336500
#
# Coordination Sequence:
#
# PCOD8058791 Si02
#       7
#     4   4   4   4   4   4   4
#     4  10  19  34  54  78 106 136 174 214 255 304
#     4   9  17  27  45  75 105 135 170 212 257 299
#     4   9  17  27  44  71 103 136 167 207 253 301
#     4   9  16  27  45  72 103 133 166 205 252 303
#     4   9  18  29  44  71 106 138 165 204 257 303
#     4  10  18  32  52  77 102 129 171 213 257 306
#     4  11  23  36  52  75 104 138 173 212 261 311
#
# _framework density 18.749355999999999
#
# number of rings (size 3 to 8) (size 9 to 14) (size 15 to 20)
#    0.000    2.429    1.429    1.714    2.000    4.000 
#    0.000    0.000    0.000    2.571    0.000    0.000 
#    0.000    0.000    0.000    0.000    0.000    0.000 
#
# Total GULP energy -347159.494278 kJ/mol
# GULP energy per Si atom -12398.553367 kJ/mol
# Density = 1.870668 g / cm^3
# Si number density = 18.749356 Si / 1000 Ang^3
#
#
#
# Elastic Constant Matrix: (Units=GPa)
#
#
# Indices 1 2 3 4 5 6 
#
# 1 164.8767 26.1962 62.1540 0.0000 3.4657 0.0000
# 2 26.1962 30.2573 23.4269 0.0000 -2.3862 0.0000
# 3 62.1540 23.4269 105.5812 0.0000 -4.2226 0.0000
# 4 0.0000 0.0000 0.0000 6.1346 0.0000 1.8577
# 5 3.4657 -2.3862 -4.2226 0.0000 36.6702 0.0000
# 6 0.0000 0.0000 0.0000 1.8577 0.0000 -5.6931
#
#
#
# Elastic Compliance Matrix: (Units=1/GPa)
#
#
# Indices 1 2 3 4 5 6 
#
# 1 0.008270 -0.004181 -0.004001 0.000000 -0.001514 0.000000
# 2 -0.004181 0.042111 -0.006788 0.000000 0.002354 0.000000
# 3 -0.004001 -0.006788 0.013392 0.000000 0.001478 0.000000
# 4 0.000000 0.000000 0.000000 0.148351 0.000000 0.048407
# 5 -0.001514 0.002354 0.001478 0.000000 0.027737 0.000000
# 6 0.000000 0.000000 0.000000 0.048407 0.000000 -0.159855
#
#
# Mechanical properties :
#
#
# Convention : Reuss Voigt Hill
#
# Bulk Modulus (GPa) = 29.55783 58.25214 43.90499
# Shear Modulus (GPa) = 41.24588 20.01822 30.63205
#
# Velocity S-wave (km/s) = 4.69535 3.27107 4.04637
# Velocity P-wave (km/s) = 6.72265 6.73817 6.73041
#
# Compressibility (1/GPa) = 0.03383198
#
# Stress axis : x y z
#
# Youngs Moduli (GPa) = 120.92549 23.74649 74.67125
#
# Poissons Ratio (x) = 0.09929 0.29876
# Poissons Ratio (y) = 0.50562 0.50689
# Poissons Ratio (z) = 0.48382 0.16120
#
# Static dielectric constant tensor:
#      x y z
#    x 3.844110 0.000000 -0.368350 
#    y 0.000000 2.867830 0.000000 
#    z -0.368350 0.000000 5.755030 
# 
# 
# High freq. dielectric constant tensor:
#      x y z
#    x 1.743080 0.000000 -0.001220 
#    y 0.000000 1.650310 0.000000 
#    z -0.001220 0.000000 1.743680 
# 
# From -- ./inp_files/49129.got.cif
#   From: 2010.06.25/outbox.cif.g09.slc.cpg/sg10_25_cif.got.tgz:49129.got - 2010.06.27 22:07:45.
