data_PCOD8058986
_publ_section_title
;
Structure prediction by ZEFSAII (Michael W. Deem and Ramdas Pophale) SiO2 
 PCOD8058986
Probable space group: P 2/M
;
_chemical_formula_sum "Si O2"
_cell_formula_units_Z 30
_cell_length_a 5.179511
_cell_length_b 19.526255
_cell_length_c 17.345476
_cell_angle_alpha 90.000000
_cell_angle_beta 96.064822
_cell_angle_gamma 90.000000
_cell_volume 1744.441318
_symmetry_space_group_name_H-M "P 2/M"
_symmetry_group_IT_number 10
_symmetry_cell_setting 'monoclinic'
loop_
_space_group_symop_operation_xyz
x,y,z
-x,y,-z
-x,-y,-z
x,-y,z
loop_
_atom_site_type_symbol
_atom_site_label
_atom_site_fract_x
_atom_site_fract_y
_atom_site_fract_z
Si Si1 0.724657 0.674584 0.303651
Si Si2 0.000000 0.742816 0.000000
Si Si3 0.274136 0.422712 0.843769
Si Si4 0.511818 0.920624 0.909344
Si Si5 0.735334 0.578522 0.449620
Si Si6 0.788009 0.363009 0.892795
Si Si7 0.008558 0.842682 0.865899
Si Si8 0.203833 0.733159 0.251956
O O1 0.727447 0.627244 0.228734
O O2 0.689587 0.627339 0.376281
O O3 0.495903 0.732489 0.295847
O O4 0.999202 0.714425 0.313022
O O5 0.895250 0.787932 0.067308
O O6 0.227170 0.693536 0.039627
O O7 0.237702 0.500000 0.813038
O O8 0.549217 0.414478 0.895419
O O9 0.056697 0.405414 0.901035
O O10 0.270628 0.885258 0.856707
O O11 0.786878 0.891850 0.891137
O O12 0.501197 0.000000 0.887887
O O13 0.500000 0.908004 0.000000
O O14 0.500000 0.589854 0.500000
O O15 0.746909 0.500000 0.420975
O O16 0.000000 0.599195 0.500000
O O17 0.784066 0.325521 0.811010
O O18 0.890649 0.805513 0.786964
#
# Coordination Sequence:
#
# PCOD8058986 Si02
#       8
#     4   2   4   4   4   4   4   4
#     4  10  18  33  49  69  92 121 155 202 235 273
#     4  10  20  34  48  62  84 114 146 198 246 268
#     4  10  19  33  47  61  80 109 145 188 239 290
#     4  11  21  33  48  73 100 127 160 196 240 289
#     4  10  20  32  48  73 101 130 164 196 238 297
#     4   9  20  31  45  63  81 103 145 193 237 288
#     4  11  20  34  51  70  92 126 163 200 240 277
#     4   9  19  31  49  69  89 118 163 198 234 282
#
# _framework density 17.197482000000001
#
# number of rings (size 3 to 8) (size 9 to 14) (size 15 to 20)
#    0.000    2.000    1.333    2.800    0.000    5.867 
#    0.000    6.000    0.000    0.000    0.000    0.000 
#    0.000    0.000    0.000    0.000    0.000  168.000 
#
# Total GULP energy -371837.633254 kJ/mol
# GULP energy per Si atom -12394.587775 kJ/mol
# Density = 1.715834 g / cm^3
# Si number density = 17.197482 Si / 1000 Ang^3
#
#
#
# Elastic Constant Matrix: (Units=GPa)
#
#
# Indices 1 2 3 4 5 6 
#
# 1 131.0669 33.2048 21.5409 0.0000 2.2730 0.0000
# 2 33.2048 69.5853 24.3221 0.0000 0.5447 0.0000
# 3 21.5409 24.3221 46.5728 0.0000 3.6139 0.0000
# 4 0.0000 0.0000 0.0000 18.0540 0.0000 3.4586
# 5 2.2730 0.5447 3.6139 0.0000 14.2040 0.0000
# 6 0.0000 0.0000 0.0000 3.4586 0.0000 17.4748
#
#
#
# Elastic Compliance Matrix: (Units=1/GPa)
#
#
# Indices 1 2 3 4 5 6 
#
# 1 0.008886 -0.003447 -0.002254 0.000000 -0.000716 0.000000
# 2 -0.003447 0.018957 -0.008459 0.000000 0.001977 0.000000
# 3 -0.002254 -0.008459 0.027420 0.000000 -0.006291 0.000000
# 4 0.000000 0.000000 0.000000 0.057572 0.000000 -0.011395
# 5 -0.000716 0.001977 -0.006291 0.000000 0.072042 0.000000
# 6 0.000000 0.000000 0.000000 -0.011395 0.000000 0.059480
#
#
# Mechanical properties :
#
#
# Convention : Reuss Voigt Hill
#
# Bulk Modulus (GPa) = 37.11595 45.04008 41.07801
# Shear Modulus (GPa) = 17.75197 21.15705 19.45451
#
# Velocity S-wave (km/s) = 3.21634 3.51128 3.36704
# Velocity P-wave (km/s) = 5.95165 6.53342 6.24931
#
# Compressibility (1/GPa) = 0.02694259
#
# Stress axis : x y z
#
# Youngs Moduli (GPa) = 112.53944 52.75165 36.46925
#
# Poissons Ratio (x) = 0.18181 0.08221
# Poissons Ratio (y) = 0.38787 0.30850
# Poissons Ratio (z) = 0.25370 0.44624
#
# Static dielectric constant tensor:
#      x y z
#    x 3.598680 0.000000 0.018700 
#    y 0.000000 3.135710 0.000000 
#    z 0.018700 0.000000 2.838620 
# 
# 
# High freq. dielectric constant tensor:
#      x y z
#    x 1.686720 0.000000 -0.001670 
#    y 0.000000 1.645350 0.000000 
#    z -0.001670 0.000000 1.617060 
# 
# From -- ./inp_files/59323.got.cif
#   From: 2010.06.25/outbox.cif.g09.slc.cpg/sg10_30_cif.got.tgz:59323.got - 2010.06.27 22:07:45.
