data_PCOD8058202
_publ_section_title
;
Structure prediction by ZEFSAII (Michael W. Deem and Ramdas Pophale) SiO2 
 PCOD8058202
Probable space group: P 2/M
;
_chemical_formula_sum "Si O2"
_cell_formula_units_Z 32
_cell_length_a 19.607092
_cell_length_b 9.143650
_cell_length_c 30.384681
_cell_angle_alpha 90.000000
_cell_angle_beta 19.699683
_cell_angle_gamma 90.000000
_cell_volume 1836.256705
_symmetry_space_group_name_H-M "P 2/M"
_symmetry_group_IT_number 10
_symmetry_cell_setting 'monoclinic'
loop_
_space_group_symop_operation_xyz
x,y,z
-x,y,-z
-x,-y,-z
x,-y,z
loop_
_atom_site_type_symbol
_atom_site_label
_atom_site_fract_x
_atom_site_fract_y
_atom_site_fract_z
Si Si1 0.089305 0.831063 0.053831
Si Si2 0.726156 0.172843 0.872821
Si Si3 0.443432 0.835884 0.365962
Si Si4 0.076022 0.167467 0.158377
Si Si5 0.291850 0.336032 0.587887
Si Si6 0.091043 0.334263 0.614412
Si Si7 0.637759 0.162534 0.342218
Si Si8 0.207958 0.327206 0.897593
O O1 0.858061 0.775321 0.196605
O O2 0.184530 0.811559 0.045017
O O3 0.100552 0.000000 0.031394
O O4 0.207747 0.729192 0.947887
O O5 0.776970 0.222830 0.892096
O O6 0.875168 0.253342 0.748403
O O7 0.750908 0.000000 0.851185
O O8 0.500000 0.225171 0.000000
O O9 0.229195 0.750767 0.494785
O O10 0.510199 0.845534 0.375477
O O11 0.604741 0.747039 0.239867
O O12 0.418212 0.000000 0.361921
O O13 0.858926 0.248119 0.288483
O O14 0.021449 0.000000 0.200260
O O15 0.311112 0.500000 0.593908
O O16 0.197483 0.331837 0.596833
O O17 0.518552 0.266936 0.449026
O O18 0.058113 0.500000 0.618051
O O19 0.659008 0.000000 0.349955
O O20 0.238342 0.500000 0.878344
O O21 0.000000 0.280263 0.000000
#
# Coordination Sequence:
#
# PCOD8058202 Si02
#       8
#     4   4   4   4   4   4   4   4
#     4  10  20  33  47  64  88 123 166 203 237 279
#     4   9  17  31  52  77 102 127 157 192 234 288
#     4  10  18  30  49  68  92 126 165 205 241 278
#     4   9  18  32  48  66  92 124 157 195 235 279
#     4   9  17  28  43  62  89 123 157 193 232 277
#     4   9  17  29  46  71 100 126 157 195 239 287
#     4   9  17  28  43  62  85 119 161 200 233 269
#     4  11  22  33  47  68  94 125 163 208 250 282
#
# _framework density 17.426756999999998
#
# number of rings (size 3 to 8) (size 9 to 14) (size 15 to 20)
#    0.000    2.500    1.250    1.500    0.000    5.750 
#    0.000    2.500    0.000    0.000    0.000    0.875 
#    0.000    7.000    0.000    0.000    0.000    0.000 
#
# Total GULP energy -396772.985051 kJ/mol
# GULP energy per Si atom -12399.155783 kJ/mol
# Density = 1.738709 g / cm^3
# Si number density = 17.426757 Si / 1000 Ang^3
#
#
#
# Elastic Constant Matrix: (Units=GPa)
#
#
# Indices 1 2 3 4 5 6 
#
# 1 42.1618 21.1333 36.4810 0.0000 -0.8600 0.0000
# 2 21.1333 95.2195 64.6997 0.0000 8.1731 0.0000
# 3 36.4810 64.6997 130.6556 0.0000 1.8107 0.0000
# 4 0.0000 0.0000 0.0000 27.1230 0.0000 3.2959
# 5 -0.8600 8.1731 1.8107 0.0000 27.9953 0.0000
# 6 0.0000 0.0000 0.0000 3.2959 0.0000 14.6789
#
#
#
# Elastic Compliance Matrix: (Units=1/GPa)
#
#
# Indices 1 2 3 4 5 6 
#
# 1 0.031528 -0.001761 -0.007959 0.000000 0.001997 0.000000
# 2 -0.001761 0.016415 -0.007576 0.000000 -0.004356 0.000000
# 3 -0.007959 -0.007576 0.013613 0.000000 0.001087 0.000000
# 4 0.000000 0.000000 0.000000 0.037903 0.000000 -0.008510
# 5 0.001997 -0.004356 0.001087 0.000000 0.036983 0.000000
# 6 0.000000 0.000000 0.000000 -0.008510 0.000000 0.070036
#
#
# Mechanical properties :
#
#
# Convention : Reuss Voigt Hill
#
# Bulk Modulus (GPa) = 37.08780 56.96277 47.02529
# Shear Modulus (GPa) = 19.99538 23.67431 21.83485
#
# Velocity S-wave (km/s) = 3.39100 3.68979 3.54354
# Velocity P-wave (km/s) = 6.05476 7.13517 6.61705
#
# Compressibility (1/GPa) = 0.02696305
#
# Stress axis : x y z
#
# Youngs Moduli (GPa) = 31.71787 60.92045 73.46129
#
# Poissons Ratio (x) = 0.10729 0.58465
# Poissons Ratio (y) = 0.05586 0.55657
# Poissons Ratio (z) = 0.25243 0.46156
#
# Static dielectric constant tensor:
#      x y z
#    x 3.054010 0.000000 0.069020 
#    y 0.000000 3.372760 0.000000 
#    z 0.069020 0.000000 3.187330 
# 
# 
# High freq. dielectric constant tensor:
#      x y z
#    x 1.636270 0.000000 0.012440 
#    y 0.000000 1.679180 0.000000 
#    z 0.012440 0.000000 1.663610 
# 
# From -- ./inp_files/66122.got.cif
#   From: 2010.06.25/outbox.cif.g09.slc.cpg/sg10_34_cif.got.tgz:66122.got - 2010.06.27 22:07:45.
