data_PCOD8058921
_publ_section_title
;
Structure prediction by ZEFSAII (Michael W. Deem and Ramdas Pophale) SiO2 
 PCOD8058921
Probable space group: P 2/M
;
_chemical_formula_sum "Si O2"
_cell_formula_units_Z 24
_cell_length_a 17.574433
_cell_length_b 8.813571
_cell_length_c 24.974541
_cell_angle_alpha 90.000000
_cell_angle_beta 160.514314
_cell_angle_gamma 90.000000
_cell_volume 1290.385548
_symmetry_space_group_name_H-M "P 2/M"
_symmetry_group_IT_number 10
_symmetry_cell_setting 'monoclinic'
loop_
_space_group_symop_operation_xyz
x,y,z
-x,y,-z
-x,-y,-z
x,-y,z
loop_
_atom_site_type_symbol
_atom_site_label
_atom_site_fract_x
_atom_site_fract_y
_atom_site_fract_z
Si Si1 0.149348 0.679857 0.252483
Si Si2 0.190428 0.680473 0.480552
Si Si3 0.276217 0.678547 0.878581
Si Si4 0.336655 0.677880 0.041290
Si Si5 0.774714 0.178695 0.381292
Si Si6 0.555812 0.319806 0.453802
O O1 0.153363 0.500000 0.259981
O O2 0.264274 0.744857 0.383130
O O3 0.299236 0.732873 0.300406
O O4 0.885109 0.730335 0.071210
O O5 0.190481 0.500000 0.485606
O O6 0.249101 0.748866 0.576448
O O7 0.379947 0.737207 0.563093
O O8 0.946821 0.744046 0.298833
O O9 0.278066 0.500000 0.871001
O O10 0.500000 0.752382 0.000000
O O11 0.271844 0.718676 0.937804
O O12 0.392764 0.500000 0.085890
O O13 0.554346 0.775067 0.201439
O O14 0.000000 0.239374 0.500000
O O15 0.785636 0.000000 0.394887
O O16 0.571961 0.500000 0.465375
#
# Coordination Sequence:
#
# PCOD8058921 Si02
#       6
#     4   4   4   4   4   4
#     4   8  13  24  47  81 114 135 157 201 259 310
#     4  10  18  32  55  81 104 133 172 212 257 307
#     4   9  16  26  46  78 106 123 157 217 266 297
#     4  10  18  32  55  81 104 133 172 212 257 307
#     4  11  25  41  52  67 100 144 181 215 260 309
#     4   8  13  24  47  81 114 135 157 201 259 310
#
# _framework density 18.599094000000001
#
# number of rings (size 3 to 8) (size 9 to 14) (size 15 to 20)
#    0.000    2.667    1.667    2.500    0.000    2.667 
#    0.000    1.667    0.000    9.000    0.000    2.333 
#    0.000    0.000    0.000    0.000    0.000    0.000 
#
# Total GULP energy -297431.330200 kJ/mol
# GULP energy per Si atom -12392.972092 kJ/mol
# Density = 1.855676 g / cm^3
# Si number density = 18.599094 Si / 1000 Ang^3
#
#
#
# Elastic Constant Matrix: (Units=GPa)
#
#
# Indices 1 2 3 4 5 6 
#
# 1 99.2387 13.6977 10.0199 0.0000 28.8028 0.0000
# 2 13.6977 18.0322 6.1735 0.0000 3.9090 0.0000
# 3 10.0199 6.1735 61.9519 0.0000 25.3749 0.0000
# 4 0.0000 0.0000 0.0000 2.2792 0.0000 8.2078
# 5 28.8028 3.9090 25.3749 0.0000 36.3869 0.0000
# 6 0.0000 0.0000 0.0000 8.2078 0.0000 1.9095
#
#
#
# Elastic Compliance Matrix: (Units=1/GPa)
#
#
# Indices 1 2 3 4 5 6 
#
# 1 0.014999 -0.009848 0.004179 0.000000 -0.013729 0.000000
# 2 -0.009848 0.064124 -0.007235 0.000000 0.005952 0.000000
# 3 0.004179 -0.007235 0.024110 0.000000 -0.019344 0.000000
# 4 0.000000 0.000000 0.000000 -0.030301 0.000000 0.130249
# 5 -0.013729 0.005952 -0.019344 0.000000 0.051200 0.000000
# 6 0.000000 0.000000 0.000000 0.130249 0.000000 -0.036168
#
#
# Mechanical properties :
#
#
# Convention : Reuss Voigt Hill
#
# Bulk Modulus (GPa) = 12.91600 26.55611 19.73605
# Shear Modulus (GPa) = 35.82213 18.07054 26.94634
#
# Velocity S-wave (km/s) = 4.39340 3.12040 3.81044
# Velocity P-wave (km/s) = 5.71799 5.22415 5.47664
#
# Compressibility (1/GPa) = 0.07742335
#
# Stress axis : x y z
#
# Youngs Moduli (GPa) = 66.67279 15.59488 41.47722
#
# Poissons Ratio (x) = 0.15358 -0.17331
# Poissons Ratio (y) = 0.65658 0.30009
# Poissons Ratio (z) = -0.27860 0.11283
#
# Static dielectric constant tensor:
#      x y z
#    x 3.846990 0.000000 0.378400 
#    y 0.000000 2.831510 0.000000 
#    z 0.378400 0.000000 3.521730 
# 
# 
# High freq. dielectric constant tensor:
#      x y z
#    x 1.737230 0.000000 0.018750 
#    y 0.000000 1.657350 0.000000 
#    z 0.018750 0.000000 1.717670 
# 
# From -- ./inp_files/61655.got.cif
#   From: 2010.06.25/outbox.cif.g09.slc.cpg/sg10_31_cif.got.tgz:61655.got - 2010.06.27 22:07:45.
