data_PCOD8058509
_publ_section_title
;
Structure prediction by ZEFSAII (Michael W. Deem and Ramdas Pophale) SiO2 
 PCOD8058509
Probable space group: P 2/M
;
_chemical_formula_sum "Si O2"
_cell_formula_units_Z 24
_cell_length_a 21.106215
_cell_length_b 8.416741
_cell_length_c 10.448301
_cell_angle_alpha 90.000000
_cell_angle_beta 137.725797
_cell_angle_gamma 90.000000
_cell_volume 1248.556343
_symmetry_space_group_name_H-M "P 2/M"
_symmetry_group_IT_number 10
_symmetry_cell_setting 'monoclinic'
loop_
_space_group_symop_operation_xyz
x,y,z
-x,y,-z
-x,-y,-z
x,-y,z
loop_
_atom_site_type_symbol
_atom_site_label
_atom_site_fract_x
_atom_site_fract_y
_atom_site_fract_z
Si Si1 0.593757 0.814988 0.995497
Si Si2 0.217053 0.188710 0.333029
Si Si3 0.601794 0.683841 0.284374
Si Si4 0.115406 0.810634 0.925900
Si Si5 0.208684 0.810943 0.806905
Si Si6 0.096933 0.189169 0.394988
O O1 0.501771 0.718488 0.812443
O O2 0.574469 0.000000 0.945255
O O3 0.616697 0.787052 0.178974
O O4 0.682959 0.755959 0.045906
O O5 0.320336 0.265868 0.495919
O O6 0.153453 0.249960 0.355622
O O7 0.226718 0.000000 0.348125
O O8 0.170052 0.251194 0.132377
O O9 0.610125 0.500000 0.261348
O O10 0.167998 0.743398 0.878883
O O11 0.009160 0.743913 0.769642
O O12 0.113829 0.000000 0.921439
O O13 0.146657 0.743159 0.596824
O O14 0.203137 0.000000 0.795336
O O15 0.095500 0.000000 0.394303
#
# Coordination Sequence:
#
# PCOD8058509 Si02
#       6
#     4   4   4   4   4   4
#     4  10  18  32  54  78 102 127 162 209 255 296
#     4  10  18  31  50  76 104 134 168 205 247 291
#     4  11  21  33  51  75 100 130 169 209 252 297
#     4   9  17  27  45  75 109 135 161 203 251 296
#     4   9  16  27  46  76 107 131 159 201 255 300
#     4   9  15  26  46  74 105 134 165 204 248 291
#
# _framework density 19.222200999999998
#
# number of rings (size 3 to 8) (size 9 to 14) (size 15 to 20)
#    0.000    2.333    1.667    4.000    0.000    4.000 
#    0.000    0.833    0.000    9.000    0.000    1.167 
#    0.000    0.000    0.000    0.000    0.000    0.000 
#
# Total GULP energy -297600.694522 kJ/mol
# GULP energy per Si atom -12400.028938 kJ/mol
# Density = 1.917845 g / cm^3
# Si number density = 19.222201 Si / 1000 Ang^3
#
#
#
# Elastic Constant Matrix: (Units=GPa)
#
#
# Indices 1 2 3 4 5 6 
#
# 1 146.1024 13.6208 108.4001 0.0000 11.3577 0.0000
# 2 13.6208 25.4103 13.2661 0.0000 4.7621 0.0000
# 3 108.4001 13.2661 160.6695 0.0000 6.8240 0.0000
# 4 0.0000 0.0000 0.0000 4.5762 0.0000 -0.7848
# 5 11.3577 4.7621 6.8240 0.0000 38.3497 0.0000
# 6 0.0000 0.0000 0.0000 -0.7848 0.0000 0.3000
#
#
#
# Elastic Compliance Matrix: (Units=1/GPa)
#
#
# Indices 1 2 3 4 5 6 
#
# 1 0.014060 -0.002314 -0.009200 0.000000 -0.002240 0.000000
# 2 -0.002314 0.042306 -0.001751 0.000000 -0.004256 0.000000
# 3 -0.009200 -0.001751 0.012545 0.000000 0.000710 0.000000
# 4 0.000000 0.000000 0.000000 0.396330 0.000000 1.036805
# 5 -0.002240 -0.004256 0.000710 0.000000 0.027141 0.000000
# 6 0.000000 0.000000 0.000000 1.036805 0.000000 6.045666
#
#
# Mechanical properties :
#
#
# Convention : Reuss Voigt Hill
#
# Bulk Modulus (GPa) = 23.59501 66.97290 45.28396
# Shear Modulus (GPa) = 0.76003 21.77153 11.26578
#
# Velocity S-wave (km/s) = 0.62948 3.36910 2.42354
# Velocity P-wave (km/s) = 3.58188 7.07471 5.60720
#
# Compressibility (1/GPa) = 0.04238184
#
# Stress axis : x y z
#
# Youngs Moduli (GPa) = 71.12287 23.63711 79.71073
#
# Poissons Ratio (x) = 0.05470 0.73333
# Poissons Ratio (y) = 0.16458 0.13959
# Poissons Ratio (z) = 0.65432 0.04139
#
# Static dielectric constant tensor:
#      x y z
#    x 3.738180 0.000000 0.146450 
#    y 0.000000 2.906380 0.000000 
#    z 0.146450 0.000000 3.610120 
# 
# 
# High freq. dielectric constant tensor:
#      x y z
#    x 1.751340 0.000000 0.018630 
#    y 0.000000 1.696040 0.000000 
#    z 0.018630 0.000000 1.746730 
# 
# From -- ./inp_files/33787.got.cif
#   From: 2010.06.25/outbox.cif.g09.slc.cpg/sg10_17_cif.got.tgz:33787.got - 2010.06.27 22:07:45.
