data_PCOD8058868
_publ_section_title
;
Structure prediction by ZEFSAII (Michael W. Deem and Ramdas Pophale) SiO2 
 PCOD8058868
Probable space group: P 2/M
;
_chemical_formula_sum "Si O2"
_cell_formula_units_Z 28
_cell_length_a 24.104280
_cell_length_b 7.830055
_cell_length_c 19.089000
_cell_angle_alpha 90.000000
_cell_angle_beta 24.202899
_cell_angle_gamma 90.000000
_cell_volume 1477.043778
_symmetry_space_group_name_H-M "P 2/M"
_symmetry_group_IT_number 10
_symmetry_cell_setting 'monoclinic'
loop_
_space_group_symop_operation_xyz
x,y,z
-x,y,-z
-x,-y,-z
x,-y,z
loop_
_atom_site_type_symbol
_atom_site_label
_atom_site_fract_x
_atom_site_fract_y
_atom_site_fract_z
Si Si1 0.616695 0.000000 0.462645
Si Si2 0.731141 0.701880 0.839478
Si Si3 0.206412 0.703326 0.387672
Si Si4 0.910265 0.193328 0.759523
Si Si5 0.558377 0.701374 0.782264
Si Si6 0.737454 0.688324 0.081397
Si Si7 0.433437 0.695543 0.385623
Si Si8 0.305632 0.000000 0.778249
O O1 0.646681 0.827424 0.472156
O O2 0.462736 0.000000 0.615450
O O3 0.714494 0.000000 0.282409
O O4 0.720819 0.500000 0.849426
O O5 0.766326 0.771569 0.721934
O O6 0.851174 0.755168 0.752527
O O7 0.587671 0.781337 0.029673
O O8 0.194383 0.500000 0.403698
O O9 0.327850 0.772375 0.296471
O O10 0.070365 0.784405 0.574039
O O11 0.871089 0.000000 0.821898
O O12 0.848957 0.307165 0.892106
O O13 0.547062 0.500000 0.803341
O O14 0.599950 0.748947 0.655338
O O15 0.743665 0.500000 0.109362
O O16 0.593459 0.717731 0.210714
O O17 0.764618 0.830170 0.109555
O O18 0.388449 0.500000 0.454061
#
# Coordination Sequence:
#
# PCOD8058868 Si02
#       8
#     2   4   4   4   4   4   4   2
#     4   9  18  30  50  77 116 142 171 212 267 321
#     4  10  19  34  56  77  99 138 186 231 281 329
#     4  10  21  35  52  76 106 138 181 235 282 320
#     4  12  23  35  51  73 107 146 187 229 272 322
#     4   9  17  33  55  78 104 137 181 230 275 325
#     4  10  18  32  54  78 106 142 181 219 266 321
#     4   9  17  30  52  79 106 141 181 218 264 324
#     4   9  18  32  48  81 112 142 173 214 263 323
#
# _framework density 18.956783999999999
#
# number of rings (size 3 to 8) (size 9 to 14) (size 15 to 20)
#    0.000    2.143    2.143    2.143    0.000    4.571 
#    1.286    2.857    0.000    1.714    0.000    2.000 
#    0.000    4.571    0.000    0.000    0.000    0.000 
#
# Total GULP energy -347207.860471 kJ/mol
# GULP energy per Si atom -12400.280731 kJ/mol
# Density = 1.891364 g / cm^3
# Si number density = 18.956784 Si / 1000 Ang^3
#
#
#
# Elastic Constant Matrix: (Units=GPa)
#
#
# Indices 1 2 3 4 5 6 
#
# 1 65.0319 30.7076 51.5133 0.0000 10.6914 0.0000
# 2 30.7076 83.0653 41.5400 0.0000 29.5275 0.0000
# 3 51.5133 41.5400 73.9183 0.0000 10.5850 0.0000
# 4 0.0000 0.0000 0.0000 21.0240 0.0000 9.0702
# 5 10.6914 29.5275 10.5850 0.0000 24.9742 0.0000
# 6 0.0000 0.0000 0.0000 9.0702 0.0000 8.9144
#
#
#
# Elastic Compliance Matrix: (Units=1/GPa)
#
#
# Indices 1 2 3 4 5 6 
#
# 1 0.034971 0.001527 -0.024302 0.000000 -0.006477 0.000000
# 2 0.001527 0.027828 -0.012667 0.000000 -0.028187 0.000000
# 3 -0.024302 -0.012667 0.036142 0.000000 0.010061 0.000000
# 4 0.000000 0.000000 0.000000 0.084780 0.000000 -0.086262
# 5 -0.006477 -0.028187 0.010061 0.000000 0.071876 0.000000
# 6 0.000000 0.000000 0.000000 -0.086262 0.000000 0.199947
#
#
# Mechanical properties :
#
#
# Convention : Reuss Voigt Hill
#
# Bulk Modulus (GPa) = 35.63982 52.17080 43.90531
# Shear Modulus (GPa) = 9.33220 17.53282 13.43251
#
# Velocity S-wave (km/s) = 2.22116 3.04449 2.66482
# Velocity P-wave (km/s) = 5.04177 6.31975 5.71658
#
# Compressibility (1/GPa) = 0.02805850
#
# Stress axis : x y z
#
# Youngs Moduli (GPa) = 28.59542 35.93449 27.66883
#
# Poissons Ratio (x) = -0.05488 0.67240
# Poissons Ratio (y) = -0.04367 0.35047
# Poissons Ratio (z) = 0.69492 0.45517
#
# Static dielectric constant tensor:
#      x y z
#    x 3.442830 0.000000 0.173410 
#    y 0.000000 3.481340 0.000000 
#    z 0.173410 0.000000 3.359570 
# 
# 
# High freq. dielectric constant tensor:
#      x y z
#    x 1.715700 0.000000 0.015720 
#    y 0.000000 1.735070 0.000000 
#    z 0.015720 0.000000 1.718360 
# 
# From -- ./inp_files/70251.got.cif
#   From: 2010.06.25/outbox.cif.g09.slc.cpg/sg10_36_cif.got.tgz:70251.got - 2010.06.27 22:07:45.
