data_PCOD8058491
_publ_section_title
;
Structure prediction by ZEFSAII (Michael W. Deem and Ramdas Pophale) SiO2 
 PCOD8058491
Probable space group: P 2/M
;
_chemical_formula_sum "Si O2"
_cell_formula_units_Z 24
_cell_length_a 12.342836
_cell_length_b 13.186835
_cell_length_c 12.555977
_cell_angle_alpha 90.000000
_cell_angle_beta 48.681104
_cell_angle_gamma 90.000000
_cell_volume 1534.874341
_symmetry_space_group_name_H-M "P 2/M"
_symmetry_group_IT_number 10
_symmetry_cell_setting 'monoclinic'
loop_
_space_group_symop_operation_xyz
x,y,z
-x,y,-z
-x,-y,-z
x,-y,z
loop_
_atom_site_type_symbol
_atom_site_label
_atom_site_fract_x
_atom_site_fract_y
_atom_site_fract_z
Si Si1 0.894536 0.116919 0.352888
Si Si2 0.844320 0.117295 0.143404
Si Si3 0.684363 0.116240 0.678209
Si Si4 0.366478 0.614070 0.006775
Si Si5 0.628059 0.801918 0.122296
Si Si6 0.196861 0.212427 0.189044
O O1 0.832546 0.137856 0.276288
O O2 0.768649 0.145214 0.516225
O O3 0.028574 0.189620 0.289888
O O4 0.944821 0.000000 0.331823
O O5 0.724168 0.186068 0.165175
O O6 0.815790 0.000000 0.133516
O O7 0.000000 0.151524 0.000000
O O8 0.516805 0.135450 0.766844
O O9 0.743840 0.182624 0.735152
O O10 0.710435 0.000000 0.691230
O O11 0.326939 0.500000 0.997526
O O12 0.405608 0.682058 0.876830
O O13 0.500000 0.615413 0.000000
O O14 0.227742 0.666642 0.154455
O O15 0.714666 0.846047 0.962540
#
# Coordination Sequence:
#
# PCOD8058491 Si02
#       6
#     4   4   4   4   4   4
#     4  10  21  33  48  71 106 147 169 191 241 298
#     4  10  18  31  50  71  99 136 176 204 232 289
#     4  11  21  31  45  75 110 136 163 202 249 293
#     4   9  17  33  54  77  99 121 165 216 261 301
#     4  10  19  32  51  77  95 129 170 213 242 290
#     4  10  18  33  51  75  97 130 171 205 246 297
#
# _framework density 15.63646
#
# number of rings (size 3 to 8) (size 9 to 14) (size 15 to 20)
#    1.000    1.000    3.333    2.000    0.000    4.667 
#    0.000    2.500    0.000    7.500    0.000    1.167 
#    0.000    0.000    0.000    0.000    0.000    0.000 
#
# Total GULP energy -297486.518264 kJ/mol
# GULP energy per Si atom -12395.271594 kJ/mol
# Density = 1.560087 g / cm^3
# Si number density = 15.636460 Si / 1000 Ang^3
#
#
#
# Elastic Constant Matrix: (Units=GPa)
#
#
# Indices 1 2 3 4 5 6 
#
# 1 100.4639 28.8240 34.9023 0.0000 3.3146 0.0000
# 2 28.8240 61.0260 17.7934 0.0000 -3.3317 0.0000
# 3 34.9023 17.7934 98.2751 0.0000 -0.7239 0.0000
# 4 0.0000 0.0000 0.0000 8.6128 0.0000 -3.8795
# 5 3.3146 -3.3317 -0.7239 0.0000 18.5640 0.0000
# 6 0.0000 0.0000 0.0000 -3.8795 0.0000 18.5123
#
#
#
# Elastic Compliance Matrix: (Units=1/GPa)
#
#
# Indices 1 2 3 4 5 6 
#
# 1 0.012813 -0.005174 -0.003638 0.000000 -0.003358 0.000000
# 2 -0.005174 0.019556 -0.001671 0.000000 0.004368 0.000000
# 3 -0.003638 -0.001671 0.011776 0.000000 0.000809 0.000000
# 4 0.000000 0.000000 0.000000 0.128209 0.000000 0.026868
# 5 -0.003358 0.004368 0.000809 0.000000 0.055283 0.000000
# 6 0.000000 0.000000 0.000000 0.026868 0.000000 0.059649
#
#
# Mechanical properties :
#
#
# Convention : Reuss Voigt Hill
#
# Bulk Modulus (GPa) = 43.14448 46.97827 45.06137
# Shear Modulus (GPa) = 15.82375 21.02081 18.42228
#
# Velocity S-wave (km/s) = 3.18461 3.67051 3.43616
# Velocity P-wave (km/s) = 6.41673 6.93346 6.68009
#
# Compressibility (1/GPa) = 0.02317794
#
# Stress axis : x y z
#
# Youngs Moduli (GPa) = 78.04401 51.13477 84.91692
#
# Poissons Ratio (x) = 0.26460 0.30897
# Poissons Ratio (y) = 0.40384 0.14189
# Poissons Ratio (z) = 0.28396 0.08544
#
# Static dielectric constant tensor:
#      x y z
#    x 2.965810 0.000000 -0.006050 
#    y 0.000000 2.874850 0.000000 
#    z -0.006050 0.000000 2.995170 
# 
# 
# High freq. dielectric constant tensor:
#      x y z
#    x 1.606000 0.000000 0.000680 
#    y 0.000000 1.567640 0.000000 
#    z 0.000680 0.000000 1.596460 
# 
# From -- ./inp_files/47119.got.cif
#   From: 2010.06.25/outbox.cif.g09.slc.cpg/sg10_24_cif.got.tgz:47119.got - 2010.06.27 22:07:45.
