data_PCOD8058657
_publ_section_title
;
Structure prediction by ZEFSAII (Michael W. Deem and Ramdas Pophale) SiO2 
 PCOD8058657
Probable space group: P 2/M
;
_chemical_formula_sum "Si O2"
_cell_formula_units_Z 28
_cell_length_a 14.676424
_cell_length_b 19.664246
_cell_length_c 9.398687
_cell_angle_alpha 90.000000
_cell_angle_beta 32.421431
_cell_angle_gamma 90.000000
_cell_volume 1454.269943
_symmetry_space_group_name_H-M "P 2/M"
_symmetry_group_IT_number 10
_symmetry_cell_setting 'monoclinic'
loop_
_space_group_symop_operation_xyz
x,y,z
-x,y,-z
-x,-y,-z
x,-y,z
loop_
_atom_site_type_symbol
_atom_site_label
_atom_site_fract_x
_atom_site_fract_y
_atom_site_fract_z
Si Si1 0.192871 0.574818 0.592605
Si Si2 0.211661 0.575314 0.886608
Si Si3 0.429222 0.837949 0.744843
Si Si4 0.767176 0.700350 0.957305
Si Si5 0.802753 0.920500 0.746083
Si Si6 0.168665 0.699655 0.449827
Si Si7 0.656593 0.172455 0.703627
O O1 0.255267 0.500000 0.459493
O O2 0.267736 0.590029 0.650533
O O3 0.256481 0.634099 0.405590
O O4 0.990466 0.576691 0.850362
O O5 0.274055 0.500000 0.853055
O O6 0.295275 0.631107 0.882023
O O7 0.500000 0.863214 0.500000
O O8 0.343911 0.763436 0.838717
O O9 0.595403 0.843942 0.625688
O O10 0.287439 0.887735 0.997553
O O11 0.744957 0.699253 0.818005
O O12 0.966845 0.703341 0.722328
O O13 0.734386 0.892144 0.685341
O O14 0.000000 0.902504 0.500000
O O15 0.766293 0.000000 0.795300
O O16 0.210120 0.767040 0.483485
O O17 0.500000 0.201421 0.000000
#
# Coordination Sequence:
#
# PCOD8058657 Si02
#       7
#     4   4   4   4   4   4   4
#     4   8  15  27  45  72 105 140 188 245 297 339
#     4   8  15  28  45  71 106 145 188 239 295 346
#     4  11  24  38  56  88 125 156 189 232 283 338
#     4  10  19  32  52  78 111 146 189 242 287 338
#     4  10  21  42  70  92 115 151 191 229 274 334
#     4  10  18  31  54  78 105 144 195 246 284 330
#     4  10  20  36  57  83 116 154 188 224 279 343
#
# _framework density 19.253647999999998
#
# number of rings (size 3 to 8) (size 9 to 14) (size 15 to 20)
#    0.000    2.429    2.857    1.714    2.000    3.429 
#    0.000    5.000    0.000    3.429    0.000    0.000 
#    0.000    0.000    0.000    0.000    0.000    0.000 
#
# Total GULP energy -346949.023325 kJ/mol
# GULP energy per Si atom -12391.036547 kJ/mol
# Density = 1.920983 g / cm^3
# Si number density = 19.253648 Si / 1000 Ang^3
#
#
#
# Elastic Constant Matrix: (Units=GPa)
#
#
# Indices 1 2 3 4 5 6 
#
# 1 105.2935 61.4502 47.0948 0.0000 15.5763 0.0000
# 2 61.4502 140.7525 46.7019 0.0000 4.7494 0.0000
# 3 47.0948 46.7019 56.5002 0.0000 16.7842 0.0000
# 4 0.0000 0.0000 0.0000 10.0934 0.0000 18.7290
# 5 15.5763 4.7494 16.7842 0.0000 18.3331 0.0000
# 6 0.0000 0.0000 0.0000 18.7290 0.0000 3.5075
#
#
#
# Elastic Compliance Matrix: (Units=1/GPa)
#
#
# Indices 1 2 3 4 5 6 
#
# 1 0.016656 -0.004099 -0.009074 0.000000 -0.004782 0.000000
# 2 -0.004099 0.011435 -0.008502 0.000000 0.008304 0.000000
# 3 -0.009074 -0.008502 0.040308 0.000000 -0.026990 0.000000
# 4 0.000000 0.000000 0.000000 -0.011122 0.000000 0.059387
# 5 -0.004782 0.008304 -0.026990 0.000000 0.081168 0.000000
# 6 0.000000 0.000000 0.000000 0.059387 0.000000 -0.032005
#
#
# Mechanical properties :
#
#
# Convention : Reuss Voigt Hill
#
# Bulk Modulus (GPa) = 39.92348 68.11556 54.01952
# Shear Modulus (GPa) = 31.61752 16.20676 23.91214
#
# Velocity S-wave (km/s) = 4.05675 2.90444 3.52796
# Velocity P-wave (km/s) = 6.53632 6.83392 6.68678
#
# Compressibility (1/GPa) = 0.02504792
#
# Stress axis : x y z
#
# Youngs Moduli (GPa) = 60.03956 87.44950 24.80899
#
# Poissons Ratio (x) = 0.35850 0.22512
# Poissons Ratio (y) = 0.24613 0.21092
# Poissons Ratio (z) = 0.54480 0.74349
#
# Static dielectric constant tensor:
#      x y z
#    x 3.732240 0.000000 0.068930 
#    y 0.000000 3.692080 0.000000 
#    z 0.068930 0.000000 3.272960 
# 
# 
# High freq. dielectric constant tensor:
#      x y z
#    x 1.748660 0.000000 -0.000710 
#    y 0.000000 1.752290 0.000000 
#    z -0.000710 0.000000 1.723980 
# 
# From -- ./inp_files/30388.got.cif
#   From: 2010.06.25/outbox.cif.g09.slc.cpg/sg10_16_cif.got.tgz:30388.got - 2010.06.27 22:07:45.
