data_PCOD8058045
_publ_section_title
;
Structure prediction by ZEFSAII (Michael W. Deem and Ramdas Pophale) SiO2 
 PCOD8058045
Probable space group: P 2/M
;
_chemical_formula_sum "Si O2"
_cell_formula_units_Z 28
_cell_length_a 16.390345
_cell_length_b 9.929201
_cell_length_c 22.689382
_cell_angle_alpha 90.000000
_cell_angle_beta 25.624034
_cell_angle_gamma 90.000000
_cell_volume 1596.890106
_symmetry_space_group_name_H-M "P 2/M"
_symmetry_group_IT_number 10
_symmetry_cell_setting 'monoclinic'
loop_
_space_group_symop_operation_xyz
x,y,z
-x,y,-z
-x,-y,-z
x,-y,z
loop_
_atom_site_type_symbol
_atom_site_label
_atom_site_fract_x
_atom_site_fract_y
_atom_site_fract_z
Si Si1 0.380386 0.155037 0.349612
Si Si2 0.286509 0.350319 0.843467
Si Si3 0.282178 0.159468 0.631254
Si Si4 0.698122 0.160901 0.846469
Si Si5 0.913666 0.650706 0.150218
Si Si6 0.804736 0.843249 0.649548
Si Si7 0.091676 0.841653 0.635337
O O1 0.555241 0.239632 0.256531
O O2 0.350034 0.179958 0.300141
O O3 0.197303 0.200152 0.506307
O O4 0.426941 0.000000 0.332653
O O5 0.372844 0.500000 0.794548
O O6 0.195109 0.334938 0.839636
O O7 0.134498 0.324993 0.993962
O O8 0.500000 0.199576 0.500000
O O9 0.154504 0.234849 0.761520
O O10 0.208117 0.212700 0.615936
O O11 0.254063 0.000000 0.657451
O O12 0.729141 0.218852 0.760031
O O13 0.874679 0.211118 0.772065
O O14 0.688950 0.000000 0.851628
O O15 0.500000 0.219684 0.000000
O O16 0.881834 0.500000 0.197065
O O17 0.000000 0.775613 0.500000
O O18 0.845203 0.000000 0.634630
O O19 0.083846 0.000000 0.646333
#
# Coordination Sequence:
#
# PCOD8058045 Si02
#       7
#     4   4   4   4   4   4   4
#     4  10  18  29  51  77  99 127 165 204 250 297
#     4   9  19  35  52  71  97 128 164 208 252 295
#     4  10  20  32  48  73 105 133 159 201 254 300
#     4   9  16  26  41  64  97 134 166 201 248 295
#     4   9  19  36  53  68  94 133 170 204 246 296
#     4   9  15  26  44  68  97 126 161 204 243 288
#     4   9  17  29  44  67 102 135 160 198 250 300
#
# _framework density 17.534079999999999
#
# number of rings (size 3 to 8) (size 9 to 14) (size 15 to 20)
#    0.000    2.714    1.429    1.714    0.000    3.714 
#    0.000    5.000    0.000    0.429    0.000    0.000 
#    0.000    4.000    0.000    0.000    0.000    0.000 
#
# Total GULP energy -347030.873579 kJ/mol
# GULP energy per Si atom -12393.959771 kJ/mol
# Density = 1.749417 g / cm^3
# Si number density = 17.534080 Si / 1000 Ang^3
#
#
#
# Elastic Constant Matrix: (Units=GPa)
#
#
# Indices 1 2 3 4 5 6 
#
# 1 93.2497 20.9046 61.8209 0.0000 0.5957 0.0000
# 2 20.9046 37.1003 31.2018 0.0000 -3.1002 0.0000
# 3 61.8209 31.2018 122.0082 0.0000 -4.2691 0.0000
# 4 0.0000 0.0000 0.0000 12.9395 0.0000 6.6641
# 5 0.5957 -3.1002 -4.2691 0.0000 34.9298 0.0000
# 6 0.0000 0.0000 0.0000 6.6641 0.0000 10.5703
#
#
#
# Elastic Compliance Matrix: (Units=1/GPa)
#
#
# Indices 1 2 3 4 5 6 
#
# 1 0.016460 -0.002982 -0.007629 0.000000 -0.001478 0.000000
# 2 -0.002982 0.035017 -0.007365 0.000000 0.002259 0.000000
# 3 -0.007629 -0.007365 0.013987 0.000000 0.001186 0.000000
# 4 0.000000 0.000000 0.000000 0.114441 0.000000 -0.072149
# 5 -0.001478 0.002259 0.001186 0.000000 0.028999 0.000000
# 6 0.000000 0.000000 0.000000 -0.072149 0.000000 0.140091
#
#
# Mechanical properties :
#
#
# Convention : Reuss Voigt Hill
#
# Bulk Modulus (GPa) = 33.88527 53.35698 43.62112
# Shear Modulus (GPa) = 12.66516 20.91665 16.79091
#
# Velocity S-wave (km/s) = 2.69051 3.45761 3.09789
# Velocity P-wave (km/s) = 5.38694 6.81444 6.14230
#
# Compressibility (1/GPa) = 0.02951135
#
# Stress axis : x y z
#
# Youngs Moduli (GPa) = 60.75477 28.55752 71.49540
#
# Poissons Ratio (x) = 0.08515 0.54545
# Poissons Ratio (y) = 0.18115 0.52659
# Poissons Ratio (z) = 0.46351 0.21033
#
# Static dielectric constant tensor:
#      x y z
#    x 3.422620 0.000000 0.011900 
#    y 0.000000 2.850140 0.000000 
#    z 0.011900 0.000000 3.438060 
# 
# 
# High freq. dielectric constant tensor:
#      x y z
#    x 1.684770 0.000000 -0.000390 
#    y 0.000000 1.623000 0.000000 
#    z -0.000390 0.000000 1.683650 
# 
# From -- ./inp_files/49098.got.cif
#   From: 2010.06.25/outbox.cif.g09.slc.cpg/sg10_25_cif.got.tgz:49098.got - 2010.06.27 22:07:45.
