data_PCOD8058966
_publ_section_title
;
Structure prediction by ZEFSAII (Michael W. Deem and Ramdas Pophale) SiO2 
 PCOD8058966
Probable space group: P 2/M
;
_chemical_formula_sum "Si O2"
_cell_formula_units_Z 32
_cell_length_a 13.081836
_cell_length_b 13.353876
_cell_length_c 9.874238
_cell_angle_alpha 90.000000
_cell_angle_beta 109.356594
_cell_angle_gamma 90.000000
_cell_volume 1627.457209
_symmetry_space_group_name_H-M "P 2/M"
_symmetry_group_IT_number 10
_symmetry_cell_setting 'monoclinic'
loop_
_space_group_symop_operation_xyz
x,y,z
-x,y,-z
-x,-y,-z
x,-y,z
loop_
_atom_site_type_symbol
_atom_site_label
_atom_site_fract_x
_atom_site_fract_y
_atom_site_fract_z
Si Si1 0.724188 0.609538 0.577074
Si Si2 0.755603 0.112409 0.823684
Si Si3 0.218358 0.383361 0.808474
Si Si4 0.113842 0.713789 0.516455
Si Si5 0.066115 0.114133 0.323444
Si Si6 0.428344 0.747691 0.336136
Si Si7 0.577402 0.390655 0.247445
Si Si8 0.090138 0.759399 0.930162
O O1 0.751389 0.500000 0.644923
O O2 0.837606 0.665680 0.599548
O O3 0.659867 0.664473 0.666414
O O4 0.656857 0.603603 0.410220
O O5 0.826296 0.115023 0.719301
O O6 0.635324 0.155314 0.743542
O O7 0.738019 0.000000 0.866881
O O8 0.819075 0.168702 0.969331
O O9 0.184176 0.500000 0.772144
O O10 0.189312 0.306934 0.675739
O O11 0.350745 0.375458 0.859452
O O12 0.156889 0.339601 0.912447
O O13 0.097884 0.832816 0.479794
O O14 0.000000 0.660876 0.500000
O O15 0.968744 0.179874 0.216265
O O16 0.027248 0.000000 0.330691
O O17 0.500000 0.775136 0.500000
O O18 0.496071 0.701237 0.239945
O O19 0.518364 0.500000 0.211443
O O20 0.000000 0.726022 0.000000
#
# Coordination Sequence:
#
# PCOD8058966 Si02
#       8
#     4   4   4   4   4   4   4   4
#     4   9  17  29  48  78 113 146 180 215 267 334
#     4  10  21  38  60  82 109 146 190 238 284 331
#     4  10  21  37  56  82 119 153 185 225 280 341
#     4  11  19  32  51  84 118 148 177 225 284 341
#     4  10  20  37  58  83 113 147 192 238 276 327
#     4  10  18  32  57  84 113 141 180 233 284 332
#     4   8  16  31  53  79 107 143 180 218 271 330
#     4  10  21  40  60  79 108 151 198 232 271 326
#
# _framework density 19.662575
#
# number of rings (size 3 to 8) (size 9 to 14) (size 15 to 20)
#    0.000    2.250    2.500    1.875    0.000    4.750 
#    0.000    1.875    0.000    3.750    0.000    0.000 
#    0.000    0.000    0.000    0.000    0.000    0.000 
#
# Total GULP energy -396461.665253 kJ/mol
# GULP energy per Si atom -12389.427039 kJ/mol
# Density = 1.961782 g / cm^3
# Si number density = 19.662575 Si / 1000 Ang^3
#
#
#
# Elastic Constant Matrix: (Units=GPa)
#
#
# Indices 1 2 3 4 5 6 
#
# 1 121.4419 62.5837 21.8806 0.0000 -2.5715 0.0000
# 2 62.5837 127.6771 43.7778 0.0000 -4.5093 0.0000
# 3 21.8806 43.7778 42.1123 0.0000 -1.0062 0.0000
# 4 0.0000 0.0000 0.0000 17.4034 0.0000 -2.0592
# 5 -2.5715 -4.5093 -1.0062 0.0000 22.5972 0.0000
# 6 0.0000 0.0000 0.0000 -2.0592 0.0000 32.7495
#
#
#
# Elastic Compliance Matrix: (Units=1/GPa)
#
#
# Indices 1 2 3 4 5 6 
#
# 1 0.011019 -0.005335 -0.000175 0.000000 0.000182 0.000000
# 2 -0.005335 0.014832 -0.012604 0.000000 0.001791 0.000000
# 3 -0.000175 -0.012604 0.036918 0.000000 -0.000891 0.000000
# 4 0.000000 0.000000 0.000000 0.057891 0.000000 0.003640
# 5 0.000182 0.001791 -0.000891 0.000000 0.044592 0.000000
# 6 0.000000 0.000000 0.000000 0.003640 0.000000 0.030764
#
#
# Mechanical properties :
#
#
# Convention : Reuss Voigt Hill
#
# Bulk Modulus (GPa) = 37.67692 60.85726 49.26709
# Shear Modulus (GPa) = 20.73907 25.41597 23.07752
#
# Velocity S-wave (km/s) = 3.25121 3.59918 3.42961
# Velocity P-wave (km/s) = 5.77037 6.94911 6.38699
#
# Compressibility (1/GPa) = 0.02654145
#
# Stress axis : x y z
#
# Youngs Moduli (GPa) = 90.75249 67.42112 27.08677
#
# Poissons Ratio (x) = 0.35967 0.00475
# Poissons Ratio (y) = 0.48414 0.34141
# Poissons Ratio (z) = 0.01590 0.84979
#
# Static dielectric constant tensor:
#      x y z
#    x 3.994640 0.000000 -0.091560 
#    y 0.000000 3.697760 0.000000 
#    z -0.091560 0.000000 3.261470 
# 
# 
# High freq. dielectric constant tensor:
#      x y z
#    x 1.776110 0.000000 -0.006230 
#    y 0.000000 1.759570 0.000000 
#    z -0.006230 0.000000 1.731030 
# 
# From -- ./inp_files/47026.got.cif
#   From: 2010.06.25/outbox.cif.g09.slc.cpg/sg10_24_cif.got.tgz:47026.got - 2010.06.27 22:07:45.
