data_PCOD8058718
_publ_section_title
;
Structure prediction by ZEFSAII (Michael W. Deem and Ramdas Pophale) SiO2 
 PCOD8058718
Probable space group: P 2/M
;
_chemical_formula_sum "Si O2"
_cell_formula_units_Z 30
_cell_length_a 18.319218
_cell_length_b 9.457484
_cell_length_c 31.229219
_cell_angle_alpha 90.000000
_cell_angle_beta 18.470245
_cell_angle_gamma 90.000000
_cell_volume 1714.136756
_symmetry_space_group_name_H-M "P 2/M"
_symmetry_group_IT_number 10
_symmetry_cell_setting 'monoclinic'
loop_
_space_group_symop_operation_xyz
x,y,z
-x,y,-z
-x,-y,-z
x,-y,z
loop_
_atom_site_type_symbol
_atom_site_label
_atom_site_fract_x
_atom_site_fract_y
_atom_site_fract_z
Si Si1 0.357646 0.831182 0.448545
Si Si2 0.290164 0.837440 0.085846
Si Si3 0.808900 0.832503 0.549804
Si Si4 0.116890 0.658105 0.651983
Si Si5 0.312201 0.168528 0.290549
Si Si6 0.284850 0.165435 0.992013
Si Si7 0.778640 0.161010 0.267819
Si Si8 0.500000 0.736766 0.500000
O O1 0.326995 0.780363 0.416661
O O2 0.162870 0.754153 0.584850
O O3 0.607997 0.778237 0.326019
O O4 0.326921 0.000000 0.471281
O O5 0.084461 0.731608 0.209712
O O6 0.207538 0.000000 0.137434
O O7 0.500000 0.801489 0.000000
O O8 0.371512 0.808726 0.992097
O O9 0.675156 0.780470 0.666906
O O10 0.072327 0.776035 0.403386
O O11 0.817866 0.000000 0.545231
O O12 0.045305 0.500000 0.677687
O O13 0.340191 0.642636 0.558265
O O14 0.527938 0.234471 0.144448
O O15 0.318598 0.000000 0.284234
O O16 0.268480 0.000000 0.991702
O O17 0.030539 0.236085 0.126473
O O18 0.663788 0.168368 0.378708
O O19 0.822791 0.000000 0.232270
#
# Coordination Sequence:
#
# PCOD8058718 Si02
#       8
#     4   4   4   4   4   4   4   2
#     4   9  18  30  48  70  96 124 160 201 238 287
#     4  10  21  34  50  72  98 131 168 199 237 291
#     4   8  14  26  43  67  95 122 153 193 244 288
#     4  11  22  34  49  71  99 131 165 203 246 287
#     4   8  14  24  42  67  95 123 152 194 242 287
#     4   9  16  27  43  66  96 124 156 195 237 284
#     4   9  16  26  43  67  93 125 159 199 246 283
#     4  10  18  32  48  64  93 130 173 202 235 286
#
# _framework density 17.501522000000001
#
# number of rings (size 3 to 8) (size 9 to 14) (size 15 to 20)
#    0.000    2.800    1.333    1.600    1.867    1.333 
#    0.000    0.667    0.000    4.000    0.000    2.800 
#    0.000    2.400    0.000    0.000    0.000    0.000 
#
# Total GULP energy -371744.114918 kJ/mol
# GULP energy per Si atom -12391.470497 kJ/mol
# Density = 1.746169 g / cm^3
# Si number density = 17.501522 Si / 1000 Ang^3
#
#
#
# Elastic Constant Matrix: (Units=GPa)
#
#
# Indices 1 2 3 4 5 6 
#
# 1 145.0345 16.6552 72.2876 0.0000 7.8174 0.0000
# 2 16.6552 37.1913 17.9770 0.0000 1.3374 0.0000
# 3 72.2876 17.9770 145.0610 0.0000 12.5766 0.0000
# 4 0.0000 0.0000 0.0000 1.4981 0.0000 -3.9806
# 5 7.8174 1.3374 12.5766 0.0000 21.9841 0.0000
# 6 0.0000 0.0000 0.0000 -3.9806 0.0000 5.8098
#
#
#
# Elastic Compliance Matrix: (Units=1/GPa)
#
#
# Indices 1 2 3 4 5 6 
#
# 1 0.009329 -0.002058 -0.004332 0.000000 -0.000714 0.000000
# 2 -0.002058 0.029057 -0.002615 0.000000 0.000460 0.000000
# 3 -0.004332 -0.002615 0.009711 0.000000 -0.003856 0.000000
# 4 0.000000 0.000000 0.000000 -0.813539 0.000000 -0.557394
# 5 -0.000714 0.000460 -0.003856 0.000000 0.047919 0.000000
# 6 0.000000 0.000000 0.000000 -0.557394 0.000000 -0.209775
#
#
# Mechanical properties :
#
#
# Convention : Reuss Voigt Hill
#
# Bulk Modulus (GPa) = 33.23773 60.12515 46.68144
# Shear Modulus (GPa) = -5.56013 20.54955 7.49471
#
# Velocity S-wave (km/s) = -1.78433 3.43032 2.07162
# Velocity P-wave (km/s) = 3.84544 7.07942 5.69674
#
# Compressibility (1/GPa) = 0.03008629
#
# Stress axis : x y z
#
# Youngs Moduli (GPa) = 107.19503 34.41481 102.97907
#
# Poissons Ratio (x) = 0.07083 0.44609
# Poissons Ratio (y) = 0.22062 0.26932
# Poissons Ratio (z) = 0.46435 0.09000
#
# Static dielectric constant tensor:
#      x y z
#    x 3.535610 0.000000 -0.076830 
#    y 0.000000 2.653380 0.000000 
#    z -0.076830 0.000000 3.568260 
# 
# 
# High freq. dielectric constant tensor:
#      x y z
#    x 1.682640 0.000000 -0.004480 
#    y 0.000000 1.611150 0.000000 
#    z -0.004480 0.000000 1.675830 
# 
# From -- ./inp_files/95484.got.cif
#   From: 2010.06.25/outbox.cif.g09.slc.cpg/sg10_48_cif.got.tgz:95484.got - 2010.06.27 22:07:45.
