data_PCOD8058368
_publ_section_title
;
Structure prediction by ZEFSAII (Michael W. Deem and Ramdas Pophale) SiO2 
 PCOD8058368
Probable space group: P 2/M
;
_chemical_formula_sum "Si O2"
_cell_formula_units_Z 24
_cell_length_a 18.545698
_cell_length_b 9.319902
_cell_length_c 7.664148
_cell_angle_alpha 90.000000
_cell_angle_beta 114.544939
_cell_angle_gamma 90.000000
_cell_volume 1204.996885
_symmetry_space_group_name_H-M "P 2/M"
_symmetry_group_IT_number 10
_symmetry_cell_setting 'monoclinic'
loop_
_space_group_symop_operation_xyz
x,y,z
-x,y,-z
-x,-y,-z
x,-y,z
loop_
_atom_site_type_symbol
_atom_site_label
_atom_site_fract_x
_atom_site_fract_y
_atom_site_fract_z
Si Si1 0.993462 0.341602 0.785723
Si Si2 0.835584 0.333626 0.011030
Si Si3 0.329365 0.332467 0.991803
Si Si4 0.320922 0.835883 0.643271
Si Si5 0.152838 0.835735 0.328896
Si Si6 0.407272 0.164537 0.379896
O O1 0.971484 0.500000 0.693037
O O2 0.924552 0.233554 0.656390
O O3 0.000000 0.341680 0.000000
O O4 0.081245 0.294666 0.806879
O O5 0.837919 0.500000 0.954551
O O6 0.823409 0.240283 0.826562
O O7 0.763573 0.302457 0.068595
O O8 0.348731 0.500000 0.002946
O O9 0.352828 0.261651 0.832037
O O10 0.382174 0.263872 0.195375
O O11 0.226144 0.820528 0.533830
O O12 0.362404 0.781945 0.508056
O O13 0.345288 0.000000 0.706006
O O14 0.133331 0.000000 0.266560
O O15 0.500000 0.181727 0.500000
O O16 0.383683 0.000000 0.315024
#
# Coordination Sequence:
#
# PCOD8058368 Si02
#       6
#     4   4   4   4   4   4
#     4   8  15  28  47  73 108 149 192 235 280 334
#     4   9  18  33  52  77 111 152 193 233 283 339
#     4  11  23  38  61  90 119 153 193 239 288 339
#     4  10  22  39  59  86 119 154 192 235 286 347
#     4  10  18  30  52  81 111 147 193 241 286 331
#     4  10  22  43  68  89 114 152 192 232 286 351
#
# _framework density 19.917062999999999
#
# number of rings (size 3 to 8) (size 9 to 14) (size 15 to 20)
#    0.000    2.333    1.667    2.000    0.000    6.667 
#    0.000    4.167    0.000    5.000    0.000    0.000 
#    0.000    0.000    0.000    0.000    0.000    0.000 
#
# Total GULP energy -297588.042584 kJ/mol
# GULP energy per Si atom -12399.501774 kJ/mol
# Density = 1.987173 g / cm^3
# Si number density = 19.917063 Si / 1000 Ang^3
#
#
#
# Elastic Constant Matrix: (Units=GPa)
#
#
# Indices 1 2 3 4 5 6 
#
# 1 65.0941 34.6665 42.6154 0.0000 14.8766 0.0000
# 2 34.6665 108.6880 65.1585 0.0000 -2.7835 0.0000
# 3 42.6154 65.1585 98.4366 0.0000 -10.0679 0.0000
# 4 0.0000 0.0000 0.0000 5.5780 0.0000 19.5461
# 5 14.8766 -2.7835 -10.0679 0.0000 20.7910 0.0000
# 6 0.0000 0.0000 0.0000 19.5461 0.0000 16.3779
#
#
#
# Elastic Compliance Matrix: (Units=1/GPa)
#
#
# Indices 1 2 3 4 5 6 
#
# 1 0.035957 -0.001487 -0.018132 0.000000 -0.034708 0.000000
# 2 -0.001487 0.015495 -0.009776 0.000000 -0.001595 0.000000
# 3 -0.018132 -0.009776 0.027010 0.000000 0.024745 0.000000
# 4 0.000000 0.000000 0.000000 -0.056340 0.000000 0.067239
# 5 -0.034708 -0.001595 0.024745 0.000000 0.084701 0.000000
# 6 0.000000 0.000000 0.000000 0.067239 0.000000 -0.019188
#
#
# Mechanical properties :
#
#
# Convention : Reuss Voigt Hill
#
# Bulk Modulus (GPa) = 50.83358 61.89995 56.36677
# Shear Modulus (GPa) = 32.68363 17.20127 24.94245
#
# Velocity S-wave (km/s) = 4.05530 2.94197 3.54265
# Velocity P-wave (km/s) = 6.89241 6.53350 6.71535
#
# Compressibility (1/GPa) = 0.01967204
#
# Stress axis : x y z
#
# Youngs Moduli (GPa) = 27.81089 64.53796 37.02308
#
# Poissons Ratio (x) = 0.09600 0.67130
# Poissons Ratio (y) = 0.04137 0.36193
# Poissons Ratio (z) = 0.50426 0.63090
#
# Static dielectric constant tensor:
#      x y z
#    x 3.862140 0.000000 0.202520 
#    y 0.000000 3.658290 0.000000 
#    z 0.202520 0.000000 3.277470 
# 
# 
# High freq. dielectric constant tensor:
#      x y z
#    x 1.781550 0.000000 0.011780 
#    y 0.000000 1.773890 0.000000 
#    z 0.011780 0.000000 1.756080 
# 
# From -- ./inp_files/33503.got.cif
#   From: 2010.06.25/outbox.cif.g09.slc.cpg/sg10_17_cif.got.tgz:33503.got - 2010.06.27 22:07:45.
