data_PCOD8058500
_publ_section_title
;
Structure prediction by ZEFSAII (Michael W. Deem and Ramdas Pophale) SiO2 
 PCOD8058500
Probable space group: P 2/M
;
_chemical_formula_sum "Si O2"
_cell_formula_units_Z 32
_cell_length_a 11.050059
_cell_length_b 9.227637
_cell_length_c 21.406044
_cell_angle_alpha 90.000000
_cell_angle_beta 51.775104
_cell_angle_gamma 90.000000
_cell_volume 1714.693155
_symmetry_space_group_name_H-M "P 2/M"
_symmetry_group_IT_number 10
_symmetry_cell_setting 'monoclinic'
loop_
_space_group_symop_operation_xyz
x,y,z
-x,y,-z
-x,-y,-z
x,-y,z
loop_
_atom_site_type_symbol
_atom_site_label
_atom_site_fract_x
_atom_site_fract_y
_atom_site_fract_z
Si Si1 0.371209 0.171821 0.990784
Si Si2 0.165769 0.667366 0.465076
Si Si3 0.942404 0.840492 0.847240
Si Si4 0.223227 0.670358 0.717370
Si Si5 0.104026 0.334170 0.622046
Si Si6 0.483643 0.670723 0.166256
Si Si7 0.522089 0.329361 0.689734
Si Si8 0.174566 0.160755 0.254453
O O1 0.393461 0.253192 0.918108
O O2 0.383185 0.000000 0.976576
O O3 0.500000 0.221109 0.000000
O O4 0.201888 0.220473 0.067400
O O5 0.155926 0.500000 0.448364
O O6 0.201924 0.684882 0.527491
O O7 0.310887 0.739735 0.382051
O O8 0.000000 0.739391 0.500000
O O9 0.892472 0.854441 0.792355
O O10 0.089536 0.735979 0.804180
O O11 0.988706 0.000000 0.857532
O O12 0.214598 0.500000 0.730477
O O13 0.204323 0.712950 0.650347
O O14 0.387732 0.732520 0.687733
O O15 0.049012 0.500000 0.647960
O O16 0.952995 0.235639 0.661212
O O17 0.482422 0.500000 0.154099
O O18 0.524392 0.708513 0.224716
O O19 0.318305 0.734705 0.203934
O O20 0.535462 0.500000 0.675093
O O21 0.216840 0.000000 0.266756
#
# Coordination Sequence:
#
# PCOD8058500 Si02
#       8
#     4   4   4   4   4   4   4   4
#     4  10  19  35  54  76 106 135 165 205 261 317
#     4   9  16  28  49  76 107 137 167 209 263 311
#     4   9  18  33  53  74 100 133 166 204 254 312
#     4   9  18  33  52  74 102 134 176 220 252 292
#     4   9  17  29  50  79 101 129 177 221 251 295
#     4  11  21  32  50  76 104 134 174 213 254 307
#     4   9  19  34  50  72 105 142 171 209 263 308
#     4  10  18  31  50  73 104 139 167 203 262 316
#
# _framework density 18.662230000000001
#
# number of rings (size 3 to 8) (size 9 to 14) (size 15 to 20)
#    0.000    2.500    1.250    1.500    0.000    3.750 
#    0.000    4.375    0.000    8.625    0.000    3.500 
#    0.000    0.000    0.000    0.000    0.000    0.000 
#
# Total GULP energy -396644.254488 kJ/mol
# GULP energy per Si atom -12395.132953 kJ/mol
# Density = 1.861975 g / cm^3
# Si number density = 18.662230 Si / 1000 Ang^3
#
#
#
# Elastic Constant Matrix: (Units=GPa)
#
#
# Indices 1 2 3 4 5 6 
#
# 1 94.9846 23.5160 60.6272 0.0000 -21.6806 0.0000
# 2 23.5160 40.4095 33.3912 0.0000 0.2192 0.0000
# 3 60.6272 33.3912 123.1014 0.0000 -5.5807 0.0000
# 4 0.0000 0.0000 0.0000 14.3168 0.0000 -1.0222
# 5 -21.6806 0.2192 -5.5807 0.0000 20.5505 0.0000
# 6 0.0000 0.0000 0.0000 -1.0222 0.0000 13.7808
#
#
#
# Elastic Compliance Matrix: (Units=1/GPa)
#
#
# Indices 1 2 3 4 5 6 
#
# 1 0.022198 -0.006180 -0.008294 0.000000 0.021233 0.000000
# 2 -0.006180 0.033767 -0.006508 0.000000 -0.008647 0.000000
# 3 -0.008294 -0.006508 0.013749 0.000000 -0.004947 0.000000
# 4 0.000000 0.000000 0.000000 0.070220 0.000000 0.005209
# 5 0.021233 -0.008647 -0.004947 0.000000 0.069810 0.000000
# 6 0.000000 0.000000 0.000000 0.005209 0.000000 0.072951
#
#
# Mechanical properties :
#
#
# Convention : Reuss Voigt Hill
#
# Bulk Modulus (GPa) = 36.03383 54.84048 45.43715
# Shear Modulus (GPa) = 14.97412 19.12701 17.05057
#
# Velocity S-wave (km/s) = 2.83570 3.20489 3.02593
# Velocity P-wave (km/s) = 5.48379 6.56846 6.05048
#
# Compressibility (1/GPa) = 0.02775170
#
# Stress axis : x y z
#
# Youngs Moduli (GPa) = 45.04865 29.61431 72.73261
#
# Poissons Ratio (x) = 0.18302 0.60322
# Poissons Ratio (y) = 0.27840 0.47333
# Poissons Ratio (z) = 0.37362 0.19272
#
# Static dielectric constant tensor:
#      x y z
#    x 3.437600 0.000000 -0.082100 
#    y 0.000000 3.421130 0.000000 
#    z -0.082100 0.000000 3.597610 
# 
# 
# High freq. dielectric constant tensor:
#      x y z
#    x 1.709290 0.000000 -0.002600 
#    y 0.000000 1.694280 0.000000 
#    z -0.002600 0.000000 1.730710 
# 
# From -- ./inp_files/83569.got.cif
#   From: 2010.06.25/outbox.cif.g09.slc.cpg/sg10_42_cif.got.tgz:83569.got - 2010.06.27 22:07:45.
