data_PCOD8058529
_publ_section_title
;
Structure prediction by ZEFSAII (Michael W. Deem and Ramdas Pophale) SiO2 
 PCOD8058529
Probable space group: P 2/M
;
_chemical_formula_sum "Si O2"
_cell_formula_units_Z 32
_cell_length_a 11.807907
_cell_length_b 9.133405
_cell_length_c 23.721523
_cell_angle_alpha 90.000000
_cell_angle_beta 43.897110
_cell_angle_gamma 90.000000
_cell_volume 1773.823590
_symmetry_space_group_name_H-M "P 2/M"
_symmetry_group_IT_number 10
_symmetry_cell_setting 'monoclinic'
loop_
_space_group_symop_operation_xyz
x,y,z
-x,y,-z
-x,-y,-z
x,-y,z
loop_
_atom_site_type_symbol
_atom_site_label
_atom_site_fract_x
_atom_site_fract_y
_atom_site_fract_z
Si Si1 0.157836 0.672104 0.676432
Si Si2 0.597328 0.328792 0.211860
Si Si3 0.827075 0.169501 0.818386
Si Si4 0.250422 0.828507 0.030837
Si Si5 0.470794 0.171991 0.151097
Si Si6 0.469957 0.669585 0.636815
Si Si7 0.068393 0.835837 0.913242
Si Si8 0.659740 0.835128 0.480714
O O1 0.147592 0.500000 0.670380
O O2 0.293441 0.713937 0.674573
O O3 0.198053 0.746576 0.601989
O O4 0.985233 0.729872 0.759825
O O5 0.599295 0.500000 0.198695
O O6 0.484238 0.250699 0.206288
O O7 0.523882 0.293693 0.299472
O O8 0.780864 0.272267 0.143644
O O9 0.725056 0.206083 0.911934
O O10 0.709229 0.204044 0.808315
O O11 0.882044 0.000000 0.798994
O O12 0.072974 0.768589 0.075852
O O13 0.252614 0.000000 0.018133
O O14 0.395713 0.761309 0.940639
O O15 0.499015 0.000000 0.150027
O O16 0.502854 0.500000 0.612550
O O17 0.616536 0.760214 0.555683
O O18 0.120991 0.000000 0.875145
O O19 0.000000 0.842747 0.000000
O O20 0.500000 0.831906 0.500000
O O21 0.720826 0.000000 0.469792
#
# Coordination Sequence:
#
# PCOD8058529 Si02
#       8
#     4   4   4   4   4   4   4   4
#     4  10  19  33  53  76 108 140 164 199 252 310
#     4  11  22  34  50  74 105 138 173 211 252 304
#     4  10  20  33  53  76  98 130 175 222 256 296
#     4   9  17  32  53  75  98 129 171 217 263 305
#     4  10  20  36  53  70  97 135 178 218 260 302
#     4   9  19  34  51  76 108 140 168 198 249 310
#     4  10  18  31  51  73 100 132 168 209 255 307
#     4   9  17  30  52  81 108 132 164 205 247 297
#
# _framework density 18.040125
#
# number of rings (size 3 to 8) (size 9 to 14) (size 15 to 20)
#    0.000    2.250    1.250    2.250    0.000    5.250 
#    0.000    0.625    0.000    2.250    0.000    5.250 
#    0.000    0.000    0.000    0.000    0.000    0.000 
#
# Total GULP energy -396804.693375 kJ/mol
# GULP energy per Si atom -12400.146668 kJ/mol
# Density = 1.799907 g / cm^3
# Si number density = 18.040125 Si / 1000 Ang^3
#
#
#
# Elastic Constant Matrix: (Units=GPa)
#
#
# Indices 1 2 3 4 5 6 
#
# 1 81.1354 37.9179 36.7741 0.0000 17.0368 0.0000
# 2 37.9179 75.8319 48.8401 0.0000 10.2143 0.0000
# 3 36.7741 48.8401 97.1308 0.0000 15.1270 0.0000
# 4 0.0000 0.0000 0.0000 40.8554 0.0000 4.1144
# 5 17.0368 10.2143 15.1270 0.0000 20.6345 0.0000
# 6 0.0000 0.0000 0.0000 4.1144 0.0000 22.2864
#
#
#
# Elastic Compliance Matrix: (Units=1/GPa)
#
#
# Indices 1 2 3 4 5 6 
#
# 1 0.018525 -0.006483 -0.002113 0.000000 -0.010537 0.000000
# 2 -0.006483 0.021914 -0.008702 0.000000 0.000884 0.000000
# 3 -0.002113 -0.008702 0.016401 0.000000 -0.005971 0.000000
# 4 0.000000 0.000000 0.000000 0.024940 0.000000 -0.004604
# 5 -0.010537 0.000884 -0.005971 0.000000 0.061102 0.000000
# 6 0.000000 0.000000 0.000000 -0.004604 0.000000 0.045720
#
#
# Mechanical properties :
#
#
# Convention : Reuss Voigt Hill
#
# Bulk Modulus (GPa) = 44.95560 55.68469 50.32014
# Shear Modulus (GPa) = 21.68121 25.45966 23.57044
#
# Velocity S-wave (km/s) = 3.47051 3.76078 3.61855
# Velocity P-wave (km/s) = 6.40571 7.05635 6.73889
#
# Compressibility (1/GPa) = 0.02224417
#
# Stress axis : x y z
#
# Youngs Moduli (GPa) = 53.98123 45.63202 60.97135
#
# Poissons Ratio (x) = 0.29583 0.12882
# Poissons Ratio (y) = 0.34995 0.53060
# Poissons Ratio (z) = 0.11405 0.39711
#
# Static dielectric constant tensor:
#      x y z
#    x 3.265860 0.000000 0.029270 
#    y 0.000000 3.250760 0.000000 
#    z 0.029270 0.000000 3.658980 
# 
# 
# High freq. dielectric constant tensor:
#      x y z
#    x 1.680090 0.000000 0.009640 
#    y 0.000000 1.685670 0.000000 
#    z 0.009640 0.000000 1.698620 
# 
# From -- ./inp_files/83572.got.cif
#   From: 2010.06.25/outbox.cif.g09.slc.cpg/sg10_42_cif.got.tgz:83572.got - 2010.06.27 22:07:45.
