data_PCOD8058376
_publ_section_title
;
Structure prediction by ZEFSAII (Michael W. Deem and Ramdas Pophale) SiO2 
 PCOD8058376
Probable space group: P 2/M
;
_chemical_formula_sum "Si O2"
_cell_formula_units_Z 32
_cell_length_a 13.625289
_cell_length_b 9.123607
_cell_length_c 20.646903
_cell_angle_alpha 90.000000
_cell_angle_beta 42.693034
_cell_angle_gamma 90.000000
_cell_volume 1740.371414
_symmetry_space_group_name_H-M "P 2/M"
_symmetry_group_IT_number 10
_symmetry_cell_setting 'monoclinic'
loop_
_space_group_symop_operation_xyz
x,y,z
-x,y,-z
-x,-y,-z
x,-y,z
loop_
_atom_site_type_symbol
_atom_site_label
_atom_site_fract_x
_atom_site_fract_y
_atom_site_fract_z
Si Si1 0.338512 0.325880 0.084948
Si Si2 0.169674 0.826587 0.783778
Si Si3 0.172077 0.165252 0.419228
Si Si4 0.829294 0.161063 0.074529
Si Si5 0.176278 0.328346 0.290278
Si Si6 0.158813 0.329494 0.552090
Si Si7 0.863902 0.673527 0.933397
Si Si8 0.667241 0.669815 0.406045
O O1 0.341750 0.500000 0.084870
O O2 0.268543 0.267464 0.185341
O O3 0.243498 0.272671 0.070610
O O4 0.500000 0.261242 0.000000
O O5 0.231853 0.789389 0.825616
O O6 0.287329 0.767724 0.676667
O O7 0.017199 0.747960 0.845278
O O8 0.146696 0.000000 0.786919
O O9 0.234604 0.247634 0.326086
O O10 0.226007 0.243637 0.458430
O O11 0.000000 0.172073 0.500000
O O12 0.230714 0.000000 0.390766
O O13 0.768794 0.000000 0.084644
O O14 0.791721 0.276834 0.036524
O O15 0.000000 0.150745 0.000000
O O16 0.198784 0.500000 0.290505
O O17 0.009389 0.291682 0.356416
O O18 0.182897 0.500000 0.526509
O O19 0.242355 0.278116 0.575497
O O20 0.885615 0.500000 0.923606
O O21 0.500000 0.698669 0.500000
O O22 0.699041 0.500000 0.375071
#
# Coordination Sequence:
#
# PCOD8058376 Si02
#       8
#     4   4   4   4   4   4   4   4
#     4   9  18  32  49  72 102 133 166 205 249 296
#     4  10  20  34  53  75 102 136 168 201 248 306
#     4   9  17  29  47  73 100 123 156 204 247 285
#     4   8  16  31  49  72 101 130 162 203 252 302
#     4   9  16  29  51  73  95 127 163 199 242 294
#     4   9  17  31  51  74  98 126 160 198 246 297
#     4  10  18  30  53  80 101 127 168 214 253 292
#     4  10  21  36  53  75 103 132 167 212 251 288
#
# _framework density 18.386880000000001
#
# number of rings (size 3 to 8) (size 9 to 14) (size 15 to 20)
#    0.000    2.750    0.000    2.625    0.000    7.000 
#    0.000    5.000    0.000    9.375    0.000    0.000 
#    0.000    0.000    0.000    0.000    0.000    0.000 
#
# Total GULP energy -396759.744153 kJ/mol
# GULP energy per Si atom -12398.742005 kJ/mol
# Density = 1.834503 g / cm^3
# Si number density = 18.386880 Si / 1000 Ang^3
#
#
#
# Elastic Constant Matrix: (Units=GPa)
#
#
# Indices 1 2 3 4 5 6 
#
# 1 62.0073 40.2383 79.8556 0.0000 23.5025 0.0000
# 2 40.2383 75.8436 57.5083 0.0000 16.2268 0.0000
# 3 79.8556 57.5083 130.3853 0.0000 32.8104 0.0000
# 4 0.0000 0.0000 0.0000 19.6066 0.0000 7.2232
# 5 23.5025 16.2268 32.8104 0.0000 31.9619 0.0000
# 6 0.0000 0.0000 0.0000 7.2232 0.0000 8.8967
#
#
#
# Elastic Compliance Matrix: (Units=1/GPa)
#
#
# Indices 1 2 3 4 5 6 
#
# 1 0.082247 -0.007783 -0.044110 0.000000 -0.011246 0.000000
# 2 -0.007783 0.020598 -0.004216 0.000000 -0.000406 0.000000
# 3 -0.044110 -0.004216 0.037542 0.000000 -0.003963 0.000000
# 4 0.000000 0.000000 0.000000 0.072770 0.000000 -0.059082
# 5 -0.011246 -0.000406 -0.003963 0.000000 0.043831 0.000000
# 6 0.000000 0.000000 0.000000 -0.059082 0.000000 0.160370
#
#
# Mechanical properties :
#
#
# Convention : Reuss Voigt Hill
#
# Bulk Modulus (GPa) = 35.50039 69.27118 52.38579
# Shear Modulus (GPa) = 9.27703 18.13531 13.70617
#
# Velocity S-wave (km/s) = 2.24865 3.14398 2.73322
# Velocity P-wave (km/s) = 5.10796 7.13691 6.20591
#
# Compressibility (1/GPa) = 0.02816870
#
# Stress axis : x y z
#
# Youngs Moduli (GPa) = 12.15847 48.54846 26.63696
#
# Poissons Ratio (x) = 0.37786 1.17496
# Poissons Ratio (y) = 0.09463 0.11230
# Poissons Ratio (z) = 0.53631 0.20467
#
# Static dielectric constant tensor:
#      x y z
#    x 3.397130 0.000000 0.336810 
#    y 0.000000 3.292400 0.000000 
#    z 0.336810 0.000000 3.499380 
# 
# 
# High freq. dielectric constant tensor:
#      x y z
#    x 1.701130 0.000000 0.027210 
#    y 0.000000 1.700620 0.000000 
#    z 0.027210 0.000000 1.707730 
# 
# From -- ./inp_files/84726.got.cif
#   From: 2010.06.25/outbox.cif.g09.slc.cpg/sg10_43_cif.got.tgz:84726.got - 2010.06.27 22:07:45.
