data_PCOD8058479
_publ_section_title
;
Structure prediction by ZEFSAII (Michael W. Deem and Ramdas Pophale) SiO2 
 PCOD8058479
Probable space group: P 2/M
;
_chemical_formula_sum "Si O2"
_cell_formula_units_Z 32
_cell_length_a 17.813399
_cell_length_b 8.835594
_cell_length_c 12.649118
_cell_angle_alpha 90.000000
_cell_angle_beta 77.644304
_cell_angle_gamma 90.000000
_cell_volume 1944.757033
_symmetry_space_group_name_H-M "P 2/M"
_symmetry_group_IT_number 10
_symmetry_cell_setting 'monoclinic'
loop_
_space_group_symop_operation_xyz
x,y,z
-x,y,-z
-x,-y,-z
x,-y,z
loop_
_atom_site_type_symbol
_atom_site_label
_atom_site_fract_x
_atom_site_fract_y
_atom_site_fract_z
Si Si1 0.495559 0.333755 0.375833
Si Si2 0.329857 0.680737 0.438082
Si Si3 0.918692 0.676734 0.736365
Si Si4 0.094233 0.323604 0.633605
Si Si5 0.184970 0.320073 0.810823
Si Si6 0.340662 0.319452 0.674457
Si Si7 0.177932 0.178191 0.412406
Si Si8 0.078690 0.680214 0.025633
O O1 0.500000 0.349924 0.500000
O O2 0.494114 0.500000 0.324365
O O3 0.413597 0.255854 0.371892
O O4 0.575450 0.250557 0.315506
O O5 0.326703 0.500000 0.428781
O O6 0.317387 0.731322 0.563361
O O7 0.263710 0.754779 0.388312
O O8 0.898104 0.500000 0.735032
O O9 0.858982 0.771754 0.686486
O O10 0.910846 0.738372 0.858405
O O11 0.003958 0.706409 0.668017
O O12 0.112956 0.500000 0.611618
O O13 0.134229 0.261117 0.727854
O O14 0.126165 0.235978 0.523812
O O15 0.182415 0.500000 0.809640
O O16 0.273167 0.262385 0.773148
O O17 0.149344 0.260559 0.931686
O O18 0.348355 0.500000 0.673509
O O19 0.183000 0.000000 0.416423
O O20 0.074328 0.500000 0.027436
O O21 0.000000 0.745238 0.000000
#
# Coordination Sequence:
#
# PCOD8058479 Si02
#       8
#     4   4   4   4   4   4   4   4
#     4   7  11  19  36  64  92 117 143 175 216 269
#     4   9  15  27  46  65  89 120 153 182 217 270
#     4  10  20  33  50  68  89 119 157 193 224 265
#     4  10  18  31  50  69  89 119 155 186 222 270
#     4   9  14  22  43  73  98 117 141 182 229 268
#     4   8  12  20  39  69  98 117 140 178 225 272
#     4  12  24  33  43  63  94 125 156 191 227 266
#     4   9  15  26  45  71  95 113 144 191 232 263
#
# _framework density 16.454498000000001
#
# number of rings (size 3 to 8) (size 9 to 14) (size 15 to 20)
#    0.000    2.750    2.500    3.000    0.000    2.000 
#    0.000    0.000    0.000    4.500    0.000    0.875 
#    0.000    7.000    0.000    0.000    0.000    0.000 
#
# Total GULP energy -396474.538020 kJ/mol
# GULP energy per Si atom -12389.829313 kJ/mol
# Density = 1.641705 g / cm^3
# Si number density = 16.454498 Si / 1000 Ang^3
#
#
#
# Elastic Constant Matrix: (Units=GPa)
#
#
# Indices 1 2 3 4 5 6 
#
# 1 156.3949 32.8094 66.1588 0.0000 -8.8556 0.0000
# 2 32.8094 31.9254 22.8598 0.0000 1.9910 0.0000
# 3 66.1588 22.8598 94.2366 0.0000 1.6381 0.0000
# 4 0.0000 0.0000 0.0000 -0.9201 0.0000 -1.8730
# 5 -8.8556 1.9910 1.6381 0.0000 20.1116 0.0000
# 6 0.0000 0.0000 0.0000 -1.8730 0.0000 0.2952
#
#
#
# Elastic Compliance Matrix: (Units=1/GPa)
#
#
# Indices 1 2 3 4 5 6 
#
# 1 0.010727 -0.007172 -0.005894 0.000000 0.005913 0.000000
# 2 -0.007172 0.042886 -0.005247 0.000000 -0.006976 0.000000
# 3 -0.005894 -0.005247 0.016081 0.000000 -0.003385 0.000000
# 4 0.000000 0.000000 0.000000 -0.078101 0.000000 -0.495546
# 5 0.005913 -0.006976 -0.003385 0.000000 0.053293 0.000000
# 6 0.000000 0.000000 0.000000 -0.495546 0.000000 0.243451
#
#
# Mechanical properties :
#
#
# Convention : Reuss Voigt Hill
#
# Bulk Modulus (GPa) = 30.24054 58.46812 44.35433
# Shear Modulus (GPa) = 14.88168 14.61257 14.74713
#
# Velocity S-wave (km/s) = 3.01061 2.98327 2.99697
# Velocity P-wave (km/s) = 5.52297 6.89034 6.24420
#
# Compressibility (1/GPa) = 0.03306819
#
# Stress axis : x y z
#
# Youngs Moduli (GPa) = 93.22523 23.31768 62.18623
#
# Poissons Ratio (x) = 0.16725 0.36650
# Poissons Ratio (y) = 0.66865 0.32626
# Poissons Ratio (z) = 0.54943 0.12234
#
# Static dielectric constant tensor:
#      x y z
#    x 3.559580 0.000000 -0.179720 
#    y 0.000000 2.565440 0.000000 
#    z -0.179720 0.000000 3.017390 
# 
# 
# High freq. dielectric constant tensor:
#      x y z
#    x 1.651160 0.000000 -0.010230 
#    y 0.000000 1.576470 0.000000 
#    z -0.010230 0.000000 1.600840 
# 
# From -- ./inp_files/52733.got.cif
#   From: 2010.06.25/outbox.cif.g09.slc.cpg/sg10_27_cif.got.tgz:52733.got - 2010.06.27 22:07:45.
