data_PCOD8058534
_publ_section_title
;
Structure prediction by ZEFSAII (Michael W. Deem and Ramdas Pophale) SiO2 
 PCOD8058534
Probable space group: P 2/M
;
_chemical_formula_sum "Si O2"
_cell_formula_units_Z 32
_cell_length_a 11.711533
_cell_length_b 8.878026
_cell_length_c 21.690403
_cell_angle_alpha 90.000000
_cell_angle_beta 127.843450
_cell_angle_gamma 90.000000
_cell_volume 1780.961016
_symmetry_space_group_name_H-M "P 2/M"
_symmetry_group_IT_number 10
_symmetry_cell_setting 'monoclinic'
loop_
_space_group_symop_operation_xyz
x,y,z
-x,y,-z
-x,-y,-z
x,-y,z
loop_
_atom_site_type_symbol
_atom_site_label
_atom_site_fract_x
_atom_site_fract_y
_atom_site_fract_z
Si Si1 0.647848 0.822063 0.795204
Si Si2 0.247671 0.326007 0.819921
Si Si3 0.033299 0.823593 0.326941
Si Si4 0.857146 0.824610 0.761693
Si Si5 0.833040 0.821699 0.090401
Si Si6 0.161819 0.321646 0.036628
Si Si7 0.958910 0.676701 0.418275
Si Si8 0.360469 0.326516 0.729522
O O1 0.720618 0.763878 0.755160
O O2 0.726943 0.738495 0.876628
O O3 0.480603 0.776443 0.737233
O O4 0.662427 0.000000 0.809014
O O5 0.234237 0.500000 0.833693
O O6 0.101573 0.271640 0.740212
O O7 0.278411 0.231387 0.892514
O O8 0.368369 0.302377 0.806597
O O9 0.068359 0.762736 0.407124
O O10 0.159445 0.791821 0.317572
O O11 0.995232 0.000000 0.316010
O O12 0.007950 0.758665 0.838216
O O13 0.868846 0.000000 0.777366
O O14 0.825185 0.000000 0.081501
O O15 0.788067 0.746941 0.011579
O O16 0.172053 0.500000 0.036760
O O17 0.000000 0.267411 0.000000
O O18 0.983843 0.500000 0.417944
O O19 0.793578 0.722903 0.349820
O O20 0.000000 0.731124 0.500000
O O21 0.390845 0.500000 0.723354
#
# Coordination Sequence:
#
# PCOD8058534 Si02
#       8
#     4   4   4   4   4   4   4   4
#     4  11  21  34  52  72 100 138 174 208 254 308
#     4   9  17  31  50  71  99 133 168 210 259 305
#     4   9  16  28  48  76 104 129 164 208 251 295
#     4   8  16  29  46  70  99 131 164 206 252 292
#     4  10  18  31  51  73  99 129 169 219 263 302
#     4  11  22  34  49  73 102 133 173 217 259 305
#     4   9  18  34  56  80 106 135 164 202 255 305
#     4   9  19  35  52  74 104 133 165 208 253 303
#
# _framework density 17.967827
#
# number of rings (size 3 to 8) (size 9 to 14) (size 15 to 20)
#    0.000    2.500    1.250    3.375    0.000    3.250 
#    0.000    2.500    0.000    4.500    0.000    5.250 
#    0.000    0.000    0.000    0.000    0.000    0.000 
#
# Total GULP energy -396573.278081 kJ/mol
# GULP energy per Si atom -12392.914940 kJ/mol
# Density = 1.792693 g / cm^3
# Si number density = 17.967827 Si / 1000 Ang^3
#
#
#
# Elastic Constant Matrix: (Units=GPa)
#
#
# Indices 1 2 3 4 5 6 
#
# 1 116.7050 41.8172 57.1233 0.0000 -28.8925 0.0000
# 2 41.8172 56.4538 25.2771 0.0000 -7.1417 0.0000
# 3 57.1233 25.2771 84.7248 0.0000 -26.8867 0.0000
# 4 0.0000 0.0000 0.0000 22.2475 0.0000 -3.6063
# 5 -28.8925 -7.1417 -26.8867 0.0000 29.1775 0.0000
# 6 0.0000 0.0000 0.0000 -3.6063 0.0000 27.1569
#
#
#
# Elastic Compliance Matrix: (Units=1/GPa)
#
#
# Indices 1 2 3 4 5 6 
#
# 1 0.016793 -0.008670 -0.005839 0.000000 0.009126 0.000000
# 2 -0.008670 0.024936 -0.003366 0.000000 -0.005583 0.000000
# 3 -0.005839 -0.003366 0.020701 0.000000 0.012470 0.000000
# 4 0.000000 0.000000 0.000000 0.045938 0.000000 0.006100
# 5 0.009126 -0.005583 0.012470 0.000000 0.053434 0.000000
# 6 0.000000 0.000000 0.000000 0.006100 0.000000 0.037633
#
#
# Mechanical properties :
#
#
# Convention : Reuss Voigt Hill
#
# Bulk Modulus (GPa) = 37.48147 56.25765 46.86956
# Shear Modulus (GPa) = 20.48519 24.62742 22.55631
#
# Velocity S-wave (km/s) = 3.38021 3.70623 3.54697
# Velocity P-wave (km/s) = 6.01166 7.04933 6.55107
#
# Compressibility (1/GPa) = 0.02667985
#
# Stress axis : x y z
#
# Youngs Moduli (GPa) = 59.55033 40.10199 48.30584
#
# Poissons Ratio (x) = 0.34767 0.28208
# Poissons Ratio (y) = 0.51629 0.16260
# Poissons Ratio (z) = 0.34774 0.13499
#
# Static dielectric constant tensor:
#      x y z
#    x 3.802740 0.000000 -0.456030 
#    y 0.000000 3.279150 0.000000 
#    z -0.456030 0.000000 3.169480 
# 
# 
# High freq. dielectric constant tensor:
#      x y z
#    x 1.696510 0.000000 -0.034080 
#    y 0.000000 1.695020 0.000000 
#    z -0.034080 0.000000 1.660180 
# 
# From -- ./inp_files/54785.got.cif
#   From: 2010.06.25/outbox.cif.g09.slc.cpg/sg10_28_cif.got.tgz:54785.got - 2010.06.27 22:07:45.
