data_PCOD8058452
_publ_section_title
;
Structure prediction by ZEFSAII (Michael W. Deem and Ramdas Pophale) SiO2 
 PCOD8058452
Probable space group: P 2/M
;
_chemical_formula_sum "Si O2"
_cell_formula_units_Z 28
_cell_length_a 10.123676
_cell_length_b 9.101843
_cell_length_c 29.267835
_cell_angle_alpha 90.000000
_cell_angle_beta 143.693054
_cell_angle_gamma 90.000000
_cell_volume 1596.839309
_symmetry_space_group_name_H-M "P 2/M"
_symmetry_group_IT_number 10
_symmetry_cell_setting 'monoclinic'
loop_
_space_group_symop_operation_xyz
x,y,z
-x,y,-z
-x,-y,-z
x,-y,z
loop_
_atom_site_type_symbol
_atom_site_label
_atom_site_fract_x
_atom_site_fract_y
_atom_site_fract_z
Si Si1 0.768180 0.830849 0.960691
Si Si2 0.656615 0.327476 0.191158
Si Si3 0.001655 0.667455 0.792371
Si Si4 0.339152 0.165062 0.356773
Si Si5 0.265167 0.330332 0.955311
Si Si6 0.996504 0.833700 0.344415
Si Si7 0.329085 0.665974 0.494163
O O1 0.587635 0.739862 0.881794
O O2 0.693280 0.000000 0.942221
O O3 0.797025 0.769982 0.019596
O O4 0.000000 0.810988 0.000000
O O5 0.638346 0.500000 0.195164
O O6 0.790329 0.291005 0.182025
O O7 0.775722 0.253679 0.267920
O O8 0.932887 0.500000 0.763584
O O9 0.785227 0.765890 0.721650
O O10 0.071917 0.692619 0.864088
O O11 0.171885 0.167991 0.352415
O O12 0.559654 0.257216 0.430774
O O13 0.412054 0.000000 0.364965
O O14 0.282300 0.500000 0.975810
O O15 0.500000 0.278950 0.000000
O O16 0.105176 0.753806 0.418434
O O17 0.932899 0.000000 0.340125
O O18 0.500000 0.667519 0.500000
O O19 0.264006 0.500000 0.489090
#
# Coordination Sequence:
#
# PCOD8058452 Si02
#       7
#     4   4   4   4   4   4   4
#     4  11  24  38  51  72 102 133 166 207 254 301
#     4  10  18  31  49  68  92 124 163 204 246 294
#     4   9  17  29  46  68  94 121 156 202 245 290
#     4   9  16  24  36  57  87 121 156 193 237 288
#     4  10  19  35  55  76  98 126 166 210 251 299
#     4   9  16  25  38  59  87 119 156 197 240 289
#     4   9  15  23  35  53  81 120 160 194 235 284
#
# _framework density 17.534638999999999
#
# number of rings (size 3 to 8) (size 9 to 14) (size 15 to 20)
#    0.000    2.429    1.429    2.143    0.000    7.714 
#    0.000    0.000    0.000    0.000    0.000    0.000 
#    0.000    1.143    0.000   12.000    0.000   10.143 
#
# Total GULP energy -347231.578396 kJ/mol
# GULP energy per Si atom -12401.127800 kJ/mol
# Density = 1.749473 g / cm^3
# Si number density = 17.534639 Si / 1000 Ang^3
#
#
#
# Elastic Constant Matrix: (Units=GPa)
#
#
# Indices 1 2 3 4 5 6 
#
# 1 37.1540 30.7004 25.0283 0.0000 -2.5291 0.0000
# 2 30.7004 146.0335 82.7343 0.0000 0.8527 0.0000
# 3 25.0283 82.7343 144.7269 0.0000 -2.0236 0.0000
# 4 0.0000 0.0000 0.0000 32.1018 0.0000 3.1967
# 5 -2.5291 0.8527 -2.0236 0.0000 8.8333 0.0000
# 6 0.0000 0.0000 0.0000 3.1967 0.0000 13.2627
#
#
#
# Elastic Compliance Matrix: (Units=1/GPa)
#
#
# Indices 1 2 3 4 5 6 
#
# 1 0.034032 -0.005849 -0.002405 0.000000 0.009758 0.000000
# 2 -0.005849 0.011180 -0.005436 0.000000 -0.003999 0.000000
# 3 -0.002405 -0.005436 0.010464 0.000000 0.002233 0.000000
# 4 0.000000 0.000000 0.000000 0.031917 0.000000 -0.007693
# 5 0.009758 -0.003999 0.002233 0.000000 0.116899 0.000000
# 6 0.000000 0.000000 0.000000 -0.007693 0.000000 0.077253
#
#
# Mechanical properties :
#
#
# Convention : Reuss Voigt Hill
#
# Bulk Modulus (GPa) = 35.33953 67.20449 51.27201
# Shear Modulus (GPa) = 15.69568 23.46965 19.58267
#
# Velocity S-wave (km/s) = 2.99511 3.66248 3.34548
# Velocity P-wave (km/s) = 5.67087 7.50300 6.65033
#
# Compressibility (1/GPa) = 0.02829693
#
# Stress axis : x y z
#
# Youngs Moduli (GPa) = 29.38370 89.44341 95.56424
#
# Poissons Ratio (x) = 0.52313 0.22988
# Poissons Ratio (y) = 0.17186 0.51946
# Poissons Ratio (z) = 0.07068 0.48619
#
# Static dielectric constant tensor:
#      x y z
#    x 2.605280 0.000000 -0.073550 
#    y 0.000000 3.438580 0.000000 
#    z -0.073550 0.000000 3.444830 
# 
# 
# High freq. dielectric constant tensor:
#      x y z
#    x 1.597030 0.000000 -0.006660 
#    y 0.000000 1.692430 0.000000 
#    z -0.006660 0.000000 1.697630 
# 
# From -- ./inp_files/77714.got.cif
#   From: 2010.06.25/outbox.cif.g09.slc.cpg/sg10_39_cif.got.tgz:77714.got - 2010.06.27 22:07:45.
