data_PCOD8058080
_publ_section_title
;
Structure prediction by ZEFSAII (Michael W. Deem and Ramdas Pophale) SiO2 
 PCOD8058080
Probable space group: P 2/M
;
_chemical_formula_sum "Si O2"
_cell_formula_units_Z 32
_cell_length_a 11.709129
_cell_length_b 9.274898
_cell_length_c 21.419942
_cell_angle_alpha 90.000000
_cell_angle_beta 53.084258
_cell_angle_gamma 90.000000
_cell_volume 1859.863933
_symmetry_space_group_name_H-M "P 2/M"
_symmetry_group_IT_number 10
_symmetry_cell_setting 'monoclinic'
loop_
_space_group_symop_operation_xyz
x,y,z
-x,y,-z
-x,-y,-z
x,-y,z
loop_
_atom_site_type_symbol
_atom_site_label
_atom_site_fract_x
_atom_site_fract_y
_atom_site_fract_z
Si Si1 0.165678 0.334147 0.453255
Si Si2 0.936605 0.828389 0.084628
Si Si3 0.671490 0.829138 0.705518
Si Si4 0.831186 0.334818 0.405604
Si Si5 0.639789 0.170725 0.231137
Si Si6 0.856455 0.669857 0.742331
Si Si7 0.049942 0.839587 0.176546
Si Si8 0.270160 0.840637 0.668933
O O1 0.195974 0.500000 0.423796
O O2 0.253363 0.226080 0.381695
O O3 0.212070 0.303977 0.509081
O O4 0.000000 0.299515 0.500000
O O5 0.775891 0.767002 0.148252
O O6 0.040671 0.784263 0.107943
O O7 0.929999 0.000000 0.082433
O O8 0.000000 0.761565 0.000000
O O9 0.504720 0.786683 0.756604
O O10 0.730730 0.749821 0.746888
O O11 0.694913 0.000000 0.703493
O O12 0.814850 0.500000 0.393000
O O13 0.720163 0.252099 0.397397
O O14 0.995885 0.289349 0.340799
O O15 0.638887 0.228615 0.303505
O O16 0.657767 0.000000 0.231161
O O17 0.827319 0.500000 0.752314
O O18 0.856235 0.728685 0.813432
O O19 0.891830 0.846661 0.255279
O O20 0.118609 0.000000 0.157278
O O21 0.326165 0.000000 0.633648
#
# Coordination Sequence:
#
# PCOD8058080 Si02
#       8
#     4   4   4   4   4   4   4   4
#     4  10  19  34  48  62  90 124 157 199 243 277
#     4   8  13  25  50  79 102 124 150 186 234 279
#     4  11  21  31  46  68  94 124 158 195 234 279
#     4   9  17  29  46  65  86 113 151 200 241 270
#     4   8  16  30  45  67  99 126 150 187 233 279
#     4  10  18  30  46  65  91 125 160 193 236 278
#     4   8  14  25  44  73  98 115 149 196 230 267
#     4   8  14  27  46  64  88 120 149 185 232 276
#
# _framework density 17.205558
#
# number of rings (size 3 to 8) (size 9 to 14) (size 15 to 20)
#    0.000    3.000    1.250    2.250    0.000    1.250 
#    0.000    1.875    0.000    6.375    0.000    5.250 
#    0.000    0.000    0.000    0.000    0.000    0.000 
#
# Total GULP energy -396616.548051 kJ/mol
# GULP energy per Si atom -12394.267127 kJ/mol
# Density = 1.716640 g / cm^3
# Si number density = 17.205558 Si / 1000 Ang^3
#
#
#
# Elastic Constant Matrix: (Units=GPa)
#
#
# Indices 1 2 3 4 5 6 
#
# 1 118.3195 52.4065 55.6859 0.0000 19.5963 0.0000
# 2 52.4065 62.4082 32.9979 0.0000 10.3670 0.0000
# 3 55.6859 32.9979 81.4465 0.0000 19.9394 0.0000
# 4 0.0000 0.0000 0.0000 10.3205 0.0000 0.4351
# 5 19.5963 10.3670 19.9394 0.0000 22.8487 0.0000
# 6 0.0000 0.0000 0.0000 0.4351 0.0000 12.4925
#
#
#
# Elastic Compliance Matrix: (Units=1/GPa)
#
#
# Indices 1 2 3 4 5 6 
#
# 1 0.016417 -0.009795 -0.006227 0.000000 -0.004201 0.000000
# 2 -0.009795 0.026358 -0.003956 0.000000 -0.000106 0.000000
# 3 -0.006227 -0.003956 0.020845 0.000000 -0.011055 0.000000
# 4 0.000000 0.000000 0.000000 0.097037 0.000000 -0.003380
# 5 -0.004201 -0.000106 -0.011055 0.000000 0.057065 0.000000
# 6 0.000000 0.000000 0.000000 -0.003380 0.000000 0.080166
#
#
# Mechanical properties :
#
#
# Convention : Reuss Voigt Hill
#
# Bulk Modulus (GPa) = 42.26000 60.48386 51.37193
# Shear Modulus (GPa) = 14.46203 17.20459 15.83331
#
# Velocity S-wave (km/s) = 2.90236 3.16562 3.03684
# Velocity P-wave (km/s) = 5.98721 6.97076 6.49762
#
# Compressibility (1/GPa) = 0.02366304
#
# Stress axis : x y z
#
# Youngs Moduli (GPa) = 60.91260 37.93865 47.97352
#
# Poissons Ratio (x) = 0.37162 0.29875
# Poissons Ratio (y) = 0.59666 0.18977
# Poissons Ratio (z) = 0.37932 0.15008
#
# Static dielectric constant tensor:
#      x y z
#    x 3.355500 0.000000 0.263620 
#    y 0.000000 3.064670 0.000000 
#    z 0.263620 0.000000 3.246340 
# 
# 
# High freq. dielectric constant tensor:
#      x y z
#    x 1.662000 0.000000 0.028220 
#    y 0.000000 1.640120 0.000000 
#    z 0.028220 0.000000 1.636630 
# 
# From -- ./inp_files/54914.got.cif
#   From: 2010.06.25/outbox.cif.g09.slc.cpg/sg10_28_cif.got.tgz:54914.got - 2010.06.27 22:07:45.
