data_PCOD8058610
_publ_section_title
;
Structure prediction by ZEFSAII (Michael W. Deem and Ramdas Pophale) SiO2 
 PCOD8058610
Probable space group: P 2/M
;
_chemical_formula_sum "Si O2"
_cell_formula_units_Z 28
_cell_length_a 11.470049
_cell_length_b 12.382283
_cell_length_c 18.872089
_cell_angle_alpha 90.000000
_cell_angle_beta 145.112501
_cell_angle_gamma 90.000000
_cell_volume 1533.051992
_symmetry_space_group_name_H-M "P 2/M"
_symmetry_group_IT_number 10
_symmetry_cell_setting 'monoclinic'
loop_
_space_group_symop_operation_xyz
x,y,z
-x,y,-z
-x,-y,-z
x,-y,z
loop_
_atom_site_type_symbol
_atom_site_label
_atom_site_fract_x
_atom_site_fract_y
_atom_site_fract_z
Si Si1 0.904424 0.374092 0.029553
Si Si2 0.093488 0.218181 0.229896
Si Si3 0.554065 0.786881 0.842256
Si Si4 0.876412 0.875718 0.367719
Si Si5 0.228911 0.126718 0.433730
Si Si6 0.602492 0.878118 0.716459
Si Si7 0.321775 0.120786 0.957709
O O1 0.880955 0.500000 0.031187
O O2 0.054803 0.329772 0.167587
O O3 0.675825 0.323490 0.922637
O O4 0.000000 0.349158 0.000000
O O5 0.239412 0.210509 0.372097
O O6 0.184363 0.133916 0.218336
O O7 0.885708 0.180355 0.161817
O O8 0.308374 0.788535 0.727520
O O9 0.619386 0.809618 0.795397
O O10 0.632869 0.877655 0.935967
O O11 0.000000 0.850144 0.500000
O O12 0.018317 0.858322 0.370779
O O13 0.794505 0.000000 0.329374
O O14 0.415460 0.164304 0.575923
O O15 0.255574 0.000000 0.423653
O O16 0.561367 0.000000 0.718271
O O17 0.295125 0.000000 0.916612
O O18 0.500000 0.177243 0.000000
#
# Coordination Sequence:
#
# PCOD8058610 Si02
#       7
#     4   4   4   4   4   4   4
#     4  10  22  42  61  76  98 134 186 242 292 329
#     4  11  21  34  54  79 105 143 185 223 276 323
#     4  11  20  33  55  81 105 141 185 225 268 319
#     4  10  18  31  52  81 117 156 185 204 240 316
#     4  10  20  33  52  80 121 160 180 203 250 322
#     4  11  20  31  50  84 121 150 176 212 257 322
#     4  10  20  32  48  73 110 150 182 218 260 318
#
# _framework density 18.264220000000002
#
# number of rings (size 3 to 8) (size 9 to 14) (size 15 to 20)
#    0.000    1.571    2.857    3.857    0.000    3.429 
#    0.000    2.143    0.000   18.429    0.000    0.000 
#    0.000    0.000    0.000    0.000    0.000    0.000 
#
# Total GULP energy -346892.092236 kJ/mol
# GULP energy per Si atom -12389.003294 kJ/mol
# Density = 1.822265 g / cm^3
# Si number density = 18.264220 Si / 1000 Ang^3
#
#
#
# Elastic Constant Matrix: (Units=GPa)
#
#
# Indices 1 2 3 4 5 6 
#
# 1 92.1771 28.4755 25.2966 0.0000 -3.8800 0.0000
# 2 28.4755 71.8202 34.6832 0.0000 -7.3947 0.0000
# 3 25.2966 34.6832 75.9752 0.0000 -11.3807 0.0000
# 4 0.0000 0.0000 0.0000 22.2233 0.0000 -1.7302
# 5 -3.8800 -7.3947 -11.3807 0.0000 43.7029 0.0000
# 6 0.0000 0.0000 0.0000 -1.7302 0.0000 18.8393
#
#
#
# Elastic Compliance Matrix: (Units=1/GPa)
#
#
# Indices 1 2 3 4 5 6 
#
# 1 0.012718 -0.003852 -0.002502 0.000000 -0.000174 0.000000
# 2 -0.003852 0.019065 -0.007272 0.000000 0.000990 0.000000
# 3 -0.002502 -0.007272 0.017792 0.000000 0.003180 0.000000
# 4 0.000000 0.000000 0.000000 0.045322 0.000000 0.004162
# 5 -0.000174 0.000990 0.003180 0.000000 0.023862 0.000000
# 6 0.000000 0.000000 0.000000 0.004162 0.000000 0.053463
#
#
# Mechanical properties :
#
#
# Convention : Reuss Voigt Hill
#
# Bulk Modulus (GPa) = 44.80035 46.32036 45.56035
# Shear Modulus (GPa) = 24.16455 27.05426 25.60941
#
# Velocity S-wave (km/s) = 3.64133 3.85290 3.74861
# Velocity P-wave (km/s) = 6.50087 6.72380 6.61327
#
# Compressibility (1/GPa) = 0.02232125
#
# Stress axis : x y z
#
# Youngs Moduli (GPa) = 78.62862 52.45256 56.20634
#
# Poissons Ratio (x) = 0.20205 0.14064
# Poissons Ratio (y) = 0.30289 0.40875
# Poissons Ratio (z) = 0.19674 0.38145
#
# Static dielectric constant tensor:
#      x y z
#    x 3.651680 0.000000 -0.051560 
#    y 0.000000 2.882720 0.000000 
#    z -0.051560 0.000000 3.682680 
# 
# 
# High freq. dielectric constant tensor:
#      x y z
#    x 1.731970 0.000000 -0.003180 
#    y 0.000000 1.635600 0.000000 
#    z -0.003180 0.000000 1.725330 
# 
# From -- ./inp_files/55782.got.cif
#   From: 2010.06.25/outbox.cif.g09.slc.cpg/sg10_28_cif.got.tgz:55782.got - 2010.06.27 22:07:45.
