data_PCOD8058576
_publ_section_title
;
Structure prediction by ZEFSAII (Michael W. Deem and Ramdas Pophale) SiO2 
 PCOD8058576
Probable space group: P 2/M
;
_chemical_formula_sum "Si O2"
_cell_formula_units_Z 32
_cell_length_a 22.888689
_cell_length_b 8.848353
_cell_length_c 20.852309
_cell_angle_alpha 90.000000
_cell_angle_beta 155.616606
_cell_angle_gamma 90.000000
_cell_volume 1743.491256
_symmetry_space_group_name_H-M "P 2/M"
_symmetry_group_IT_number 10
_symmetry_cell_setting 'monoclinic'
loop_
_space_group_symop_operation_xyz
x,y,z
-x,y,-z
-x,-y,-z
x,-y,z
loop_
_atom_site_type_symbol
_atom_site_label
_atom_site_fract_x
_atom_site_fract_y
_atom_site_fract_z
Si Si1 0.662140 0.323726 0.533692
Si Si2 0.746195 0.179660 0.486551
Si Si3 0.210275 0.175186 0.667092
Si Si4 0.588641 0.829807 0.653334
Si Si5 0.766818 0.179395 0.162992
Si Si6 0.837373 0.676431 0.835956
Si Si7 0.965592 0.322263 0.616786
Si Si8 0.539726 0.175606 0.172218
O O1 0.654432 0.500000 0.511047
O O2 0.726610 0.236015 0.538543
O O3 0.502105 0.266397 0.386399
O O4 0.768581 0.288242 0.698400
O O5 0.618534 0.241475 0.313856
O O6 0.891352 0.244743 0.603323
O O7 0.754755 0.000000 0.493646
O O8 0.200806 0.222778 0.731210
O O9 0.368780 0.205279 0.800230
O O10 0.102242 0.275723 0.518817
O O11 0.168102 0.000000 0.614576
O O12 0.500000 0.827693 0.500000
O O13 0.744416 0.759233 0.797812
O O14 0.607732 0.000000 0.698349
O O15 0.873904 0.263863 0.222905
O O16 0.776321 0.000000 0.163137
O O17 0.614067 0.248063 0.991278
O O18 0.832223 0.500000 0.846808
O O19 0.000000 0.735293 0.000000
O O20 0.959089 0.500000 0.619376
O O21 0.517294 0.000000 0.160616
#
# Coordination Sequence:
#
# PCOD8058576 Si02
#       8
#     4   4   4   4   4   4   4   4
#     4  10  19  33  55  79 103 134 170 205 246 296
#     4  10  20  37  57  74  95 128 172 212 249 296
#     4   9  17  31  52  75  97 126 164 204 250 305
#     4   9  17  30  50  77 106 135 169 205 239 281
#     4  10  18  31  52  75  98 125 161 206 256 304
#     4   9  18  33  53  79 111 141 167 202 250 296
#     4  11  22  34  48  70 102 135 167 204 248 299
#     4   8  16  31  52  75  96 122 161 210 254 294
#
# _framework density 18.353978999999999
#
# number of rings (size 3 to 8) (size 9 to 14) (size 15 to 20)
#    0.000    2.500    0.000    3.750    0.000    5.750 
#    0.000    4.375    0.000    3.750    0.000    0.000 
#    0.000    0.000    0.000    0.000    0.000    0.000 
#
# Total GULP energy -396757.880366 kJ/mol
# GULP energy per Si atom -12398.683761 kJ/mol
# Density = 1.831220 g / cm^3
# Si number density = 18.353979 Si / 1000 Ang^3
#
#
#
# Elastic Constant Matrix: (Units=GPa)
#
#
# Indices 1 2 3 4 5 6 
#
# 1 97.1573 40.6227 41.7488 0.0000 22.9011 0.0000
# 2 40.6227 77.7089 31.4133 0.0000 11.7267 0.0000
# 3 41.7488 31.4133 92.7186 0.0000 36.8784 0.0000
# 4 0.0000 0.0000 0.0000 13.7682 0.0000 6.5742
# 5 22.9011 11.7267 36.8784 0.0000 25.2624 0.0000
# 6 0.0000 0.0000 0.0000 6.5742 0.0000 27.8643
#
#
#
# Elastic Compliance Matrix: (Units=1/GPa)
#
#
# Indices 1 2 3 4 5 6 
#
# 1 0.015676 -0.006301 -0.001037 0.000000 -0.009772 0.000000
# 2 -0.006301 0.017456 -0.005069 0.000000 0.005009 0.000000
# 3 -0.001037 -0.005069 0.027803 0.000000 -0.037295 0.000000
# 4 0.000000 0.000000 0.000000 0.081853 0.000000 -0.019312
# 5 -0.009772 0.005009 -0.037295 0.000000 0.100561 0.000000
# 6 0.000000 0.000000 0.000000 -0.019312 0.000000 0.040445
#
#
# Mechanical properties :
#
#
# Convention : Reuss Voigt Hill
#
# Bulk Modulus (GPa) = 27.68480 55.01717 41.35098
# Shear Modulus (GPa) = 15.59341 23.63231 19.61286
#
# Velocity S-wave (km/s) = 2.91794 3.59219 3.27247
# Velocity P-wave (km/s) = 5.14481 6.87355 6.07103
#
# Compressibility (1/GPa) = 0.03612091
#
# Stress axis : x y z
#
# Youngs Moduli (GPa) = 63.79141 57.28794 35.96680
#
# Poissons Ratio (x) = 0.36097 0.03729
# Poissons Ratio (y) = 0.40194 0.18233
# Poissons Ratio (z) = 0.06614 0.29041
#
# Static dielectric constant tensor:
#      x y z
#    x 3.297860 0.000000 0.181220 
#    y 0.000000 3.245780 0.000000 
#    z 0.181220 0.000000 3.580580 
# 
# 
# High freq. dielectric constant tensor:
#      x y z
#    x 1.701900 0.000000 0.022200 
#    y 0.000000 1.698600 0.000000 
#    z 0.022200 0.000000 1.707500 
# 
# From -- ./inp_files/90630.got.cif
#   From: 2010.06.25/outbox.cif.g09.slc.cpg/sg10_46_cif.got.tgz:90630.got - 2010.06.27 22:07:45.
