data_PCOD8058604
_publ_section_title
;
Structure prediction by ZEFSAII (Michael W. Deem and Ramdas Pophale) SiO2 
 PCOD8058604
Probable space group: P 2/M
;
_chemical_formula_sum "Si O2"
_cell_formula_units_Z 32
_cell_length_a 12.244885
_cell_length_b 9.181415
_cell_length_c 30.935685
_cell_angle_alpha 90.000000
_cell_angle_beta 151.578709
_cell_angle_gamma 90.000000
_cell_volume 1655.336749
_symmetry_space_group_name_H-M "P 2/M"
_symmetry_group_IT_number 10
_symmetry_cell_setting 'monoclinic'
loop_
_space_group_symop_operation_xyz
x,y,z
-x,y,-z
-x,-y,-z
x,-y,z
loop_
_atom_site_type_symbol
_atom_site_label
_atom_site_fract_x
_atom_site_fract_y
_atom_site_fract_z
Si Si1 0.625562 0.831140 0.670017
Si Si2 0.992742 0.670624 0.237816
Si Si3 0.099908 0.170750 0.488338
Si Si4 0.721806 0.328126 0.307879
Si Si5 0.833455 0.839696 0.012929
Si Si6 0.756058 0.160394 0.085776
Si Si7 0.608532 0.671100 0.171046
Si Si8 0.689443 0.170079 0.791068
O O1 0.363159 0.779275 0.578322
O O2 0.736876 0.801291 0.756400
O O3 0.756903 0.747111 0.676481
O O4 0.644246 0.000000 0.665370
O O5 0.028576 0.500000 0.255743
O O6 0.896167 0.712501 0.157419
O O7 0.814557 0.730894 0.212090
O O8 0.000000 0.213740 0.500000
O O9 0.966233 0.259494 0.405047
O O10 0.070041 0.000000 0.469064
O O11 0.732116 0.500000 0.317612
O O12 0.671143 0.283913 0.241082
O O13 0.527652 0.264746 0.271299
O O14 0.815400 0.855734 0.057260
O O15 0.099216 0.784377 0.102872
O O16 0.805094 0.000000 0.981481
O O17 0.643036 0.734277 0.927111
O O18 0.793111 0.000000 0.120864
O O19 0.500000 0.214857 0.000000
O O20 0.585701 0.500000 0.156432
O O21 0.629807 0.000000 0.776619
#
# Coordination Sequence:
#
# PCOD8058604 Si02
#       8
#     4   4   4   4   4   4   4   4
#     4  10  20  37  61  89 120 147 178 234 298 345
#     4  11  22  35  55  83 117 155 195 235 282 338
#     4  10  20  39  66  91 115 145 181 233 297 346
#     4  11  24  41  60  83 115 154 195 236 282 342
#     4  10  20  34  57  85 113 151 196 239 283 335
#     4  10  18  31  52  79 111 146 190 240 286 328
#     4  10  24  42  55  76 118 165 198 232 281 333
#     4  10  20  37  59  86 119 150 185 236 294 343
#
# _framework density 19.331415
#
# number of rings (size 3 to 8) (size 9 to 14) (size 15 to 20)
#    0.000    1.750    3.750    0.750    0.000    4.500 
#    0.000    3.125    0.000    3.750    0.000    0.000 
#    0.000    0.000    0.000    0.000    0.000    0.000 
#
# Total GULP energy -396572.602687 kJ/mol
# GULP energy per Si atom -12392.893834 kJ/mol
# Density = 1.928742 g / cm^3
# Si number density = 19.331415 Si / 1000 Ang^3
#
#
#
# Elastic Constant Matrix: (Units=GPa)
#
#
# Indices 1 2 3 4 5 6 
#
# 1 48.2148 25.6381 31.4999 0.0000 3.2292 0.0000
# 2 25.6381 50.5224 40.1073 0.0000 1.0627 0.0000
# 3 31.4999 40.1073 127.1674 0.0000 11.8637 0.0000
# 4 0.0000 0.0000 0.0000 5.5410 0.0000 -22.3978
# 5 3.2292 1.0627 11.8637 0.0000 30.8679 0.0000
# 6 0.0000 0.0000 0.0000 -22.3978 0.0000 2.4182
#
#
#
# Elastic Compliance Matrix: (Units=1/GPa)
#
#
# Indices 1 2 3 4 5 6 
#
# 1 0.029556 -0.012354 -0.003294 0.000000 -0.001401 0.000000
# 2 -0.012354 0.031737 -0.007227 0.000000 0.002977 0.000000
# 3 -0.003294 -0.007227 0.011309 0.000000 -0.003753 0.000000
# 4 0.000000 0.000000 0.000000 -0.004953 0.000000 -0.045872
# 5 -0.001401 0.002977 -0.003753 0.000000 0.033883 0.000000
# 6 0.000000 0.000000 0.000000 -0.045872 0.000000 -0.011348
#
#
# Mechanical properties :
#
#
# Convention : Reuss Voigt Hill
#
# Bulk Modulus (GPa) = 37.24189 46.71057 41.97623
# Shear Modulus (GPa) = 34.51039 16.34270 25.42654
#
# Velocity S-wave (km/s) = 4.22974 2.91072 3.63064
# Velocity P-wave (km/s) = 6.56971 5.95919 6.27188
#
# Compressibility (1/GPa) = 0.02685149
#
# Stress axis : x y z
#
# Youngs Moduli (GPa) = 33.83460 31.50900 88.42399
#
# Poissons Ratio (x) = 0.38925 0.29128
# Poissons Ratio (y) = 0.41798 0.63906
# Poissons Ratio (z) = 0.11146 0.22772
#
# Static dielectric constant tensor:
#      x y z
#    x 3.578550 0.000000 0.231930 
#    y 0.000000 3.427910 0.000000 
#    z 0.231930 0.000000 3.639050 
# 
# 
# High freq. dielectric constant tensor:
#      x y z
#    x 1.747450 0.000000 0.022590 
#    y 0.000000 1.739090 0.000000 
#    z 0.022590 0.000000 1.755960 
# 
# From -- ./inp_files/95026.got.cif
#   From: 2010.06.25/outbox.cif.g09.slc.cpg/sg10_48_cif.got.tgz:95026.got - 2010.06.27 22:07:45.
