data_PCOD8058431
_publ_section_title
;
Structure prediction by ZEFSAII (Michael W. Deem and Ramdas Pophale) SiO2 
 PCOD8058431
Probable space group: P 2/M
;
_chemical_formula_sum "Si O2"
_cell_formula_units_Z 28
_cell_length_a 9.668954
_cell_length_b 9.114272
_cell_length_c 29.145044
_cell_angle_alpha 90.000000
_cell_angle_beta 38.612470
_cell_angle_gamma 90.000000
_cell_volume 1602.822223
_symmetry_space_group_name_H-M "P 2/M"
_symmetry_group_IT_number 10
_symmetry_cell_setting 'monoclinic'
loop_
_space_group_symop_operation_xyz
x,y,z
-x,y,-z
-x,-y,-z
x,-y,z
loop_
_atom_site_type_symbol
_atom_site_label
_atom_site_fract_x
_atom_site_fract_y
_atom_site_fract_z
Si Si1 0.193145 0.327666 0.551695
Si Si2 0.626827 0.674010 0.398231
Si Si3 0.316771 0.172166 0.196927
Si Si4 0.182338 0.171467 0.917286
Si Si5 0.045140 0.325509 0.763740
Si Si6 0.237719 0.328755 0.809886
Si Si7 0.268983 0.671125 0.302841
O O1 0.228806 0.500000 0.543294
O O2 0.253840 0.268777 0.586630
O O3 0.368563 0.268248 0.467905
O O4 0.933875 0.288646 0.609535
O O5 0.634196 0.500000 0.392372
O O6 0.758072 0.736192 0.320170
O O7 0.577116 0.208324 0.124133
O O8 0.230293 0.236056 0.267151
O O9 0.187235 0.250181 0.188993
O O10 0.270314 0.000000 0.207609
O O11 0.142546 0.247395 0.878792
O O12 0.152632 0.000000 0.916426
O O13 0.000000 0.231901 0.000000
O O14 0.019510 0.500000 0.766496
O O15 0.103541 0.276539 0.800178
O O16 0.207965 0.500000 0.826341
O O17 0.497467 0.290214 0.734188
O O18 0.256942 0.500000 0.292138
#
# Coordination Sequence:
#
# PCOD8058431 Si02
#       7
#     4   4   4   4   4   4   4
#     4   8  12  20  39  65  88 118 162 201 233 266
#     4   8  13  21  38  64  91 122 159 196 231 269
#     4  10  19  30  49  74  93 117 157 195 228 277
#     4   9  19  37  57  74  93 119 152 190 232 278
#     4  10  18  31  47  68 100 132 157 189 233 278
#     4   9  19  31  48  74 100 125 155 189 233 283
#     4   9  15  28  47  67  92 124 160 199 236 274
#
# _framework density 17.469187999999999
#
# number of rings (size 3 to 8) (size 9 to 14) (size 15 to 20)
#    0.000    3.000    1.429    1.286    0.000    1.429 
#    0.000    1.429    0.000   10.286    0.000    0.000 
#    0.000    5.714    0.000    0.000    0.000    0.000 
#
# Total GULP energy -346941.465526 kJ/mol
# GULP energy per Si atom -12390.766626 kJ/mol
# Density = 1.742943 g / cm^3
# Si number density = 17.469188 Si / 1000 Ang^3
#
#
#
# Elastic Constant Matrix: (Units=GPa)
#
#
# Indices 1 2 3 4 5 6 
#
# 1 119.6110 37.8523 56.4249 0.0000 0.6128 0.0000
# 2 37.8523 32.7299 28.8927 0.0000 -0.2628 0.0000
# 3 56.4249 28.8927 129.1734 0.0000 -2.0331 0.0000
# 4 0.0000 0.0000 0.0000 12.3226 0.0000 -6.1781
# 5 0.6128 -0.2628 -2.0331 0.0000 20.1987 0.0000
# 6 0.0000 0.0000 0.0000 -6.1781 0.0000 15.7467
#
#
#
# Elastic Compliance Matrix: (Units=1/GPa)
#
#
# Indices 1 2 3 4 5 6 
#
# 1 0.014156 -0.013591 -0.003158 0.000000 -0.000924 0.000000
# 2 -0.013591 0.051121 -0.005489 0.000000 0.000525 0.000000
# 3 -0.003158 -0.005489 0.010366 0.000000 0.001068 0.000000
# 4 0.000000 0.000000 0.000000 0.101024 0.000000 0.039636
# 5 -0.000924 0.000525 0.001068 0.000000 0.049650 0.000000
# 6 0.000000 0.000000 0.000000 0.039636 0.000000 0.079056
#
#
# Mechanical properties :
#
#
# Convention : Reuss Voigt Hill
#
# Bulk Modulus (GPa) = 32.08649 58.65046 45.36847
# Shear Modulus (GPa) = 13.87966 20.20990 17.04478
#
# Velocity S-wave (km/s) = 2.82179 3.40500 3.12702
# Velocity P-wave (km/s) = 5.38739 7.00751 6.25017
#
# Compressibility (1/GPa) = 0.03116577
#
# Stress axis : x y z
#
# Youngs Moduli (GPa) = 70.64122 19.56126 96.47189
#
# Poissons Ratio (x) = 0.26586 0.30467
# Poissons Ratio (y) = 0.96009 0.52958
# Poissons Ratio (z) = 0.22310 0.10738
#
# Static dielectric constant tensor:
#      x y z
#    x 3.159450 0.000000 -0.172260 
#    y 0.000000 2.917890 0.000000 
#    z -0.172260 0.000000 3.515100 
# 
# 
# High freq. dielectric constant tensor:
#      x y z
#    x 1.654790 0.000000 -0.016510 
#    y 0.000000 1.637900 0.000000 
#    z -0.016510 0.000000 1.679380 
# 
# From -- ./inp_files/37948.got.cif
#   From: 2010.06.25/outbox.cif.g09.slc.cpg/sg10_19_cif.got.tgz:37948.got - 2010.06.27 22:07:45.
