data_PCOD8058864
_publ_section_title
;
Structure prediction by ZEFSAII (Michael W. Deem and Ramdas Pophale) SiO2 
 PCOD8058864
Probable space group: P 2/M
;
_chemical_formula_sum "Si O2"
_cell_formula_units_Z 28
_cell_length_a 21.899459
_cell_length_b 8.824656
_cell_length_c 14.941488
_cell_angle_alpha 90.000000
_cell_angle_beta 148.946324
_cell_angle_gamma 90.000000
_cell_volume 1489.500878
_symmetry_space_group_name_H-M "P 2/M"
_symmetry_group_IT_number 10
_symmetry_cell_setting 'monoclinic'
loop_
_space_group_symop_operation_xyz
x,y,z
-x,y,-z
-x,-y,-z
x,-y,z
loop_
_atom_site_type_symbol
_atom_site_label
_atom_site_fract_x
_atom_site_fract_y
_atom_site_fract_z
Si Si1 0.115573 0.821365 0.445310
Si Si2 0.649180 0.680071 0.774969
Si Si3 0.129344 0.678293 0.835094
Si Si4 0.787184 0.323419 0.253567
Si Si5 0.477450 0.321065 0.069295
Si Si6 0.613220 0.320444 0.532720
Si Si7 0.298089 0.320193 0.541910
O O1 0.166852 0.768896 0.604489
O O2 0.189751 0.758826 0.455104
O O3 0.982734 0.763229 0.265117
O O4 0.117680 0.000000 0.444938
O O5 0.650446 0.500000 0.783311
O O6 0.521424 0.742342 0.647593
O O7 0.669489 0.733599 0.697477
O O8 0.754277 0.744176 0.969048
O O9 0.115422 0.500000 0.834655
O O10 0.135157 0.712324 0.736282
O O11 0.793648 0.500000 0.287867
O O12 0.652926 0.274894 0.061044
O O13 0.488924 0.500000 0.078801
O O14 0.578016 0.259965 0.261778
O O15 0.500000 0.249545 0.000000
O O16 0.602494 0.500000 0.518849
O O17 0.697522 0.268811 0.556742
O O18 0.283521 0.500000 0.534526
#
# Coordination Sequence:
#
# PCOD8058864 Si02
#       7
#     4   4   4   4   4   4   4
#     4  12  25  37  48  67 102 142 177 216 256 293
#     4   8  14  28  51  85 115 127 152 205 263 307
#     4  10  20  34  55  77 100 133 173 211 248 299
#     4  10  19  34  55  78 100 130 171 211 252 303
#     4   9  15  26  49  77 102 125 157 204 247 291
#     4   8  14  26  52  86 113 130 151 201 264 310
#     4  10  18  32  54  78 104 137 172 203 247 305
#
# _framework density 18.798241999999998
#
# number of rings (size 3 to 8) (size 9 to 14) (size 15 to 20)
#    0.000    2.429    1.429    3.429    0.000    5.714 
#    0.000    2.143    0.000    7.714    0.000    2.000 
#    0.000    0.000    0.000    0.000    0.000    0.000 
#
# Total GULP energy -347075.307766 kJ/mol
# GULP energy per Si atom -12395.546706 kJ/mol
# Density = 1.875546 g / cm^3
# Si number density = 18.798242 Si / 1000 Ang^3
#
#
#
# Elastic Constant Matrix: (Units=GPa)
#
#
# Indices 1 2 3 4 5 6 
#
# 1 151.2321 43.7627 62.3186 0.0000 2.4029 0.0000
# 2 43.7627 48.4148 27.7840 0.0000 3.5935 0.0000
# 3 62.3186 27.7840 80.4719 0.0000 7.0685 0.0000
# 4 0.0000 0.0000 0.0000 -2.4630 0.0000 -2.6055
# 5 2.4029 3.5935 7.0685 0.0000 30.3828 0.0000
# 6 0.0000 0.0000 0.0000 -2.6055 0.0000 2.0697
#
#
#
# Elastic Compliance Matrix: (Units=1/GPa)
#
#
# Indices 1 2 3 4 5 6 
#
# 1 0.011141 -0.006426 -0.006532 0.000000 0.001399 0.000000
# 2 -0.006426 0.029495 -0.005048 0.000000 -0.001806 0.000000
# 3 -0.006532 -0.005048 0.019530 0.000000 -0.003430 0.000000
# 4 0.000000 0.000000 0.000000 -0.174125 0.000000 -0.219202
# 5 0.001399 -0.001806 -0.003430 0.000000 0.033814 0.000000
# 6 0.000000 0.000000 0.000000 -0.219202 0.000000 0.207220
#
#
# Mechanical properties :
#
#
# Convention : Reuss Voigt Hill
#
# Bulk Modulus (GPa) = 41.40384 60.87214 51.13799
# Shear Modulus (GPa) = 29.21598 15.74813 22.48205
#
# Velocity S-wave (km/s) = 3.94659 2.89752 3.46203
# Velocity P-wave (km/s) = 6.54528 6.60653 6.57598
#
# Compressibility (1/GPa) = 0.02415235
#
# Stress axis : x y z
#
# Youngs Moduli (GPa) = 89.75532 33.90457 51.20415
#
# Poissons Ratio (x) = 0.21787 0.33448
# Poissons Ratio (y) = 0.57676 0.25850
# Poissons Ratio (z) = 0.58630 0.17116
#
# Static dielectric constant tensor:
#      x y z
#    x 3.711070 0.000000 -0.028320 
#    y 0.000000 2.881940 0.000000 
#    z -0.028320 0.000000 3.619870 
# 
# 
# High freq. dielectric constant tensor:
#      x y z
#    x 1.742020 0.000000 0.001490 
#    y 0.000000 1.667900 0.000000 
#    z 0.001490 0.000000 1.728310 
# 
# From -- ./inp_files/49324.got.cif
#   From: 2010.06.25/outbox.cif.g09.slc.cpg/sg10_25_cif.got.tgz:49324.got - 2010.06.27 22:07:45.
