data_PCOD8058915
_publ_section_title
;
Structure prediction by ZEFSAII (Michael W. Deem and Ramdas Pophale) SiO2 
 PCOD8058915
Probable space group: P 2/M
;
_chemical_formula_sum "Si O2"
_cell_formula_units_Z 24
_cell_length_a 9.172423
_cell_length_b 7.912269
_cell_length_c 21.895868
_cell_angle_alpha 90.000000
_cell_angle_beta 128.356196
_cell_angle_gamma 90.000000
_cell_volume 1246.110232
_symmetry_space_group_name_H-M "P 2/M"
_symmetry_group_IT_number 10
_symmetry_cell_setting 'monoclinic'
loop_
_space_group_symop_operation_xyz
x,y,z
-x,y,-z
-x,-y,-z
x,-y,z
loop_
_atom_site_type_symbol
_atom_site_label
_atom_site_fract_x
_atom_site_fract_y
_atom_site_fract_z
Si Si1 0.301884 0.000000 0.917612
Si Si2 0.551958 0.807942 0.648857
Si Si3 0.836058 0.199448 0.502174
Si Si4 0.138269 0.692044 0.355144
Si Si5 0.803268 0.314992 0.815930
Si Si6 0.952173 0.000000 0.917106
Si Si7 0.148553 0.688163 0.815510
O O1 0.293983 0.832256 0.873137
O O2 0.500000 0.000000 0.000000
O O3 0.139532 0.000000 0.925785
O O4 0.357112 0.730111 0.575379
O O5 0.698803 0.805016 0.631339
O O6 0.620846 0.709131 0.726716
O O7 0.522898 0.000000 0.661653
O O8 0.877327 0.284760 0.577201
O O9 0.000000 0.254536 0.500000
O O10 0.826228 0.000000 0.509366
O O11 0.189491 0.500000 0.351854
O O12 0.937267 0.735767 0.273039
O O13 0.788370 0.500000 0.844266
O O14 0.826830 0.166288 0.871581
O O15 0.979619 0.310000 0.818335
O O16 0.000000 0.000000 0.000000
O O17 0.242075 0.500000 0.839163
#
# Coordination Sequence:
#
# PCOD8058915 Si02
#       7
#     2   4   4   4   4   2   4
#     4  10  20  34  56  81 102 137 171 204 263 316
#     4  10  18  32  55  79 102 135 181 228 267 305
#     4  10  22  36  49  72 108 147 179 214 265 319
#     4  10  20  33  53  79 102 133 180 227 266 306
#     4   9  17  32  55  81 106 136 175 219 264 307
#     4  10  20  36  56  79 110 137 169 214 261 318
#     4   8  17  32  52  79 106 132 171 219 259 303
#
# _framework density 19.259931999999999
#
# number of rings (size 3 to 8) (size 9 to 14) (size 15 to 20)
#    0.000    2.500    0.833    2.500    4.667    4.333 
#    0.000    1.667    0.000    2.000    0.000    0.000 
#    0.000    0.000    0.000    0.000    0.000    0.000 
#
# Total GULP energy -297532.680799 kJ/mol
# GULP energy per Si atom -12397.195033 kJ/mol
# Density = 1.921610 g / cm^3
# Si number density = 19.259932 Si / 1000 Ang^3
#
#
#
# Elastic Constant Matrix: (Units=GPa)
#
#
# Indices 1 2 3 4 5 6 
#
# 1 44.9686 21.3690 44.7875 0.0000 3.0505 0.0000
# 2 21.3690 125.6411 80.8622 0.0000 5.5759 0.0000
# 3 44.7875 80.8622 171.8460 0.0000 4.6521 0.0000
# 4 0.0000 0.0000 0.0000 24.5877 0.0000 -3.5313
# 5 3.0505 5.5759 4.6521 0.0000 27.4121 0.0000
# 6 0.0000 0.0000 0.0000 -3.5313 0.0000 7.6115
#
#
#
# Elastic Compliance Matrix: (Units=1/GPa)
#
#
# Indices 1 2 3 4 5 6 
#
# 1 0.030146 -0.000023 -0.007791 0.000000 -0.002028 0.000000
# 2 -0.000023 0.011472 -0.005354 0.000000 -0.001422 0.000000
# 3 -0.007791 -0.005354 0.010364 0.000000 0.000197 0.000000
# 4 0.000000 0.000000 0.000000 0.043574 0.000000 0.020216
# 5 -0.002028 -0.001422 0.000197 0.000000 0.036962 0.000000
# 6 0.000000 0.000000 0.000000 0.020216 0.000000 0.140759
#
#
# Mechanical properties :
#
#
# Convention : Reuss Voigt Hill
#
# Bulk Modulus (GPa) = 38.99235 70.72144 54.85690
# Shear Modulus (GPa) = 16.22536 24.95139 20.58837
#
# Velocity S-wave (km/s) = 2.90563 3.60322 3.27306
# Velocity P-wave (km/s) = 5.61660 7.35596 6.54432
#
# Compressibility (1/GPa) = 0.02564605
#
# Stress axis : x y z
#
# Youngs Moduli (GPa) = 33.17197 87.17078 96.49228
#
# Poissons Ratio (x) = 0.00199 0.75179
# Poissons Ratio (y) = 0.00076 0.51658
# Poissons Ratio (z) = 0.25845 0.46667
#
# Static dielectric constant tensor:
#      x y z
#    x 3.032100 0.000000 0.066130 
#    y 0.000000 3.845140 0.000000 
#    z 0.066130 0.000000 3.640980 
# 
# 
# High freq. dielectric constant tensor:
#      x y z
#    x 1.696530 0.000000 0.001840 
#    y 0.000000 1.762660 0.000000 
#    z 0.001840 0.000000 1.754200 
# 
# From -- ./inp_files/33814.got.cif
#   From: 2010.06.25/outbox.cif.g09.slc.cpg/sg10_17_cif.got.tgz:33814.got - 2010.06.27 22:07:45.
