data_PCOD8058283
_publ_section_title
;
Structure prediction by ZEFSAII (Michael W. Deem and Ramdas Pophale) SiO2 
 PCOD8058283
Probable space group: P 2/M
;
_chemical_formula_sum "Si O2"
_cell_formula_units_Z 32
_cell_length_a 20.963742
_cell_length_b 9.227851
_cell_length_c 24.136693
_cell_angle_alpha 90.000000
_cell_angle_beta 22.983436
_cell_angle_gamma 90.000000
_cell_volume 1823.178769
_symmetry_space_group_name_H-M "P 2/M"
_symmetry_group_IT_number 10
_symmetry_cell_setting 'monoclinic'
loop_
_space_group_symop_operation_xyz
x,y,z
-x,y,-z
-x,-y,-z
x,-y,z
loop_
_atom_site_type_symbol
_atom_site_label
_atom_site_fract_x
_atom_site_fract_y
_atom_site_fract_z
Si Si1 0.615282 0.170489 0.268203
Si Si2 0.566553 0.164222 0.756614
Si Si3 0.361731 0.668910 0.408351
Si Si4 0.214637 0.168207 0.076158
Si Si5 0.075861 0.167700 0.496814
Si Si6 0.870210 0.171864 0.147083
Si Si7 0.112918 0.828704 0.038568
Si Si8 0.999003 0.669843 0.667705
O O1 0.445284 0.254578 0.394644
O O2 0.689551 0.217581 0.269596
O O3 0.579695 0.000000 0.295101
O O4 0.742400 0.218451 0.118646
O O5 0.556495 0.270520 0.712710
O O6 0.729118 0.192795 0.662421
O O7 0.564642 0.000000 0.734546
O O8 0.410152 0.189739 0.920557
O O9 0.397031 0.500000 0.382983
O O10 0.169362 0.704202 0.562516
O O11 0.140960 0.233669 0.077617
O O12 0.146344 0.260854 0.181179
O O13 0.167231 0.000000 0.122123
O O14 0.996573 0.261236 0.608879
O O15 0.000000 0.222587 0.500000
O O16 0.032949 0.000000 0.541978
O O17 0.934376 0.223148 0.156756
O O18 0.879137 0.000000 0.137922
O O19 0.000000 0.235885 0.000000
O O20 0.119081 0.000000 0.038562
O O21 0.969296 0.500000 0.685133
#
# Coordination Sequence:
#
# PCOD8058283 Si02
#       8
#     4   4   4   4   4   4   4   4
#     4   9  14  24  44  68  92 120 158 203 248 290
#     4   9  17  31  52  77 100 123 158 199 238 283
#     4  10  19  30  45  67  95 127 163 203 243 283
#     4  10  18  30  50  74  99 127 160 202 244 282
#     4   9  18  35  59  82 102 126 157 194 236 282
#     4   7  11  19  36  63  92 119 150 194 246 293
#     4   8  13  23  41  68  96 121 153 196 248 292
#     4  10  22  36  49  70 101 134 165 196 234 284
#
# _framework density 17.551763000000001
#
# number of rings (size 3 to 8) (size 9 to 14) (size 15 to 20)
#    0.000    3.000    1.250    2.250    0.000    2.250 
#    0.000    0.625    0.000    8.625    0.000    5.250 
#    0.000    0.000    0.000    0.000    0.000    0.000 
#
# Total GULP energy -396495.919168 kJ/mol
# GULP energy per Si atom -12390.497474 kJ/mol
# Density = 1.751181 g / cm^3
# Si number density = 17.551763 Si / 1000 Ang^3
#
#
#
# Elastic Constant Matrix: (Units=GPa)
#
#
# Indices 1 2 3 4 5 6 
#
# 1 120.2809 31.2767 45.0226 0.0000 -15.1192 0.0000
# 2 31.2767 50.4640 32.0896 0.0000 -2.3621 0.0000
# 3 45.0226 32.0896 75.1257 0.0000 1.0284 0.0000
# 4 0.0000 0.0000 0.0000 15.5331 0.0000 -3.1754
# 5 -15.1192 -2.3621 1.0284 0.0000 23.3165 0.0000
# 6 0.0000 0.0000 0.0000 -3.1754 0.0000 12.4368
#
#
#
# Elastic Compliance Matrix: (Units=1/GPa)
#
#
# Indices 1 2 3 4 5 6 
#
# 1 0.012525 -0.003492 -0.006125 0.000000 0.008038 0.000000
# 2 -0.003492 0.028431 -0.010066 0.000000 0.001060 0.000000
# 3 -0.006125 -0.010066 0.021362 0.000000 -0.005933 0.000000
# 4 0.000000 0.000000 0.000000 0.067924 0.000000 0.017342
# 5 0.008038 0.001060 -0.005933 0.000000 0.048469 0.000000
# 6 0.000000 0.000000 0.000000 0.017342 0.000000 0.084834
#
#
# Mechanical properties :
#
#
# Convention : Reuss Voigt Hill
#
# Bulk Modulus (GPa) = 43.56702 51.40537 47.48620
# Shear Modulus (GPa) = 16.09993 19.42274 17.76133
#
# Velocity S-wave (km/s) = 3.03195 3.33016 3.18455
# Velocity P-wave (km/s) = 6.09368 6.64365 6.37460
#
# Compressibility (1/GPa) = 0.02295314
#
# Stress axis : x y z
#
# Youngs Moduli (GPa) = 79.84241 35.17323 46.81152
#
# Poissons Ratio (x) = 0.12282 0.28670
# Poissons Ratio (y) = 0.27879 0.47120
# Poissons Ratio (z) = 0.48900 0.35405
#
# Static dielectric constant tensor:
#      x y z
#    x 3.522600 0.000000 -0.297390 
#    y 0.000000 2.975200 0.000000 
#    z -0.297390 0.000000 3.058160 
# 
# 
# High freq. dielectric constant tensor:
#      x y z
#    x 1.679460 0.000000 -0.024210 
#    y 0.000000 1.647300 0.000000 
#    z -0.024210 0.000000 1.650870 
# 
# From -- ./inp_files/93865.got.cif
#   From: 2010.06.25/outbox.cif.g09.slc.cpg/sg10_47_cif.got.tgz:93865.got - 2010.06.27 22:07:45.
