data_PCOD8058910
_publ_section_title
;
Structure prediction by ZEFSAII (Michael W. Deem and Ramdas Pophale) SiO2 
 PCOD8058910
Probable space group: P 2/M
;
_chemical_formula_sum "Si O2"
_cell_formula_units_Z 24
_cell_length_a 16.702764
_cell_length_b 9.065818
_cell_length_c 23.188376
_cell_angle_alpha 90.000000
_cell_angle_beta 22.789270
_cell_angle_gamma 90.000000
_cell_volume 1360.070178
_symmetry_space_group_name_H-M "P 2/M"
_symmetry_group_IT_number 10
_symmetry_cell_setting 'monoclinic'
loop_
_space_group_symop_operation_xyz
x,y,z
-x,y,-z
-x,-y,-z
x,-y,z
loop_
_atom_site_type_symbol
_atom_site_label
_atom_site_fract_x
_atom_site_fract_y
_atom_site_fract_z
Si Si1 0.418031 0.325216 0.810714
Si Si2 0.112746 0.673983 0.111497
Si Si3 0.770311 0.324061 0.657371
Si Si4 0.225650 0.668645 0.823520
Si Si5 0.473798 0.674789 0.953597
Si Si6 0.723591 0.173698 0.329560
O O1 0.408111 0.500000 0.820183
O O2 0.638757 0.270453 0.688909
O O3 0.386018 0.273445 0.766125
O O4 0.232826 0.268855 0.974772
O O5 0.072282 0.500000 0.135978
O O6 0.892909 0.755225 0.259886
O O7 0.249346 0.717223 0.076807
O O8 0.779944 0.500000 0.652428
O O9 0.657102 0.265436 0.790432
O O10 0.000000 0.256123 0.500000
O O11 0.272761 0.500000 0.773984
O O12 0.247518 0.772842 0.754661
O O13 0.000000 0.680325 0.000000
O O14 0.492768 0.500000 0.943904
O O15 0.500000 0.744336 0.000000
O O16 0.500000 0.224259 0.500000
O O17 0.750642 0.000000 0.313550
#
# Coordination Sequence:
#
# PCOD8058910 Si02
#       6
#     4   4   4   4   4   4
#     4   8  14  26  45  70  97 125 155 193 240 288
#     4   9  16  31  53  72  97 131 164 202 248 293
#     4   8  13  22  37  59  95 130 148 176 232 290
#     4  10  18  32  55  77  98 124 163 208 247 296
#     4   8  14  25  43  68  96 124 156 195 238 286
#     4  11  24  38  49  68 102 136 168 208 254 298
#
# _framework density 17.646148
#
# number of rings (size 3 to 8) (size 9 to 14) (size 15 to 20)
#    0.000    3.000    1.667    2.500    0.000    1.667 
#    3.000    0.000    0.000    0.500    0.000    0.000 
#    0.000    4.000    0.000    0.000    0.000    0.000 
#
# Total GULP energy -297435.152436 kJ/mol
# GULP energy per Si atom -12393.131352 kJ/mol
# Density = 1.760598 g / cm^3
# Si number density = 17.646148 Si / 1000 Ang^3
#
#
#
# Elastic Constant Matrix: (Units=GPa)
#
#
# Indices 1 2 3 4 5 6 
#
# 1 148.3651 21.8269 68.8973 0.0000 -15.7895 0.0000
# 2 21.8269 26.5541 27.5481 0.0000 -6.5551 0.0000
# 3 68.8973 27.5481 111.6557 0.0000 -26.1486 0.0000
# 4 0.0000 0.0000 0.0000 13.0051 0.0000 5.4671
# 5 -15.7895 -6.5551 -26.1486 0.0000 28.8497 0.0000
# 6 0.0000 0.0000 0.0000 5.4671 0.0000 1.9563
#
#
#
# Elastic Compliance Matrix: (Units=1/GPa)
#
#
# Indices 1 2 3 4 5 6 
#
# 1 0.009554 -0.002336 -0.005356 0.000000 -0.000156 0.000000
# 2 -0.002336 0.051186 -0.011125 0.000000 0.000269 0.000000
# 3 -0.005356 -0.011125 0.017426 0.000000 0.010336 0.000000
# 4 0.000000 0.000000 0.000000 -0.439797 0.000000 1.229086
# 5 -0.000156 0.000269 0.010336 0.000000 0.044006 0.000000
# 6 0.000000 0.000000 0.000000 1.229086 0.000000 -2.923709
#
#
# Mechanical properties :
#
#
# Convention : Reuss Voigt Hill
#
# Bulk Modulus (GPa) = 24.67036 58.12439 41.39737
# Shear Modulus (GPa) = -1.56730 19.98238 9.20754
#
# Velocity S-wave (km/s) = -0.94346 3.36876 2.28674
# Velocity P-wave (km/s) = 3.58108 6.93842 5.52113
#
# Compressibility (1/GPa) = 0.04053447
#
# Stress axis : x y z
#
# Youngs Moduli (GPa) = 104.66598 19.53650 57.38540
#
# Poissons Ratio (x) = 0.04563 0.30734
# Poissons Ratio (y) = 0.24447 0.63839
# Poissons Ratio (z) = 0.56056 0.21734
#
# Static dielectric constant tensor:
#      x y z
#    x 3.978470 0.000000 -0.102830 
#    y 0.000000 2.714390 0.000000 
#    z -0.102830 0.000000 3.397060 
# 
# 
# High freq. dielectric constant tensor:
#      x y z
#    x 1.697430 0.000000 -0.013400 
#    y 0.000000 1.621400 0.000000 
#    z -0.013400 0.000000 1.671710 
# 
# From -- ./inp_files/80043.got.cif
#   From: 2010.06.25/outbox.cif.g09.slc.cpg/sg10_41_cif.got.tgz:80043.got - 2010.06.27 22:07:45.
