data_PCOD8058613
_publ_section_title
;
Structure prediction by ZEFSAII (Michael W. Deem and Ramdas Pophale) SiO2 
 PCOD8058613
Probable space group: P 2/M
;
_chemical_formula_sum "Si O2"
_cell_formula_units_Z 28
_cell_length_a 31.468074
_cell_length_b 8.526681
_cell_length_c 10.401228
_cell_angle_alpha 90.000000
_cell_angle_beta 147.541009
_cell_angle_gamma 90.000000
_cell_volume 1497.831665
_symmetry_space_group_name_H-M "P 2/M"
_symmetry_group_IT_number 10
_symmetry_cell_setting 'monoclinic'
loop_
_space_group_symop_operation_xyz
x,y,z
-x,y,-z
-x,-y,-z
x,-y,z
loop_
_atom_site_type_symbol
_atom_site_label
_atom_site_fract_x
_atom_site_fract_y
_atom_site_fract_z
Si Si1 0.762370 0.313584 0.160649
Si Si2 0.078527 0.313487 0.545217
Si Si3 0.347565 0.685900 0.353705
Si Si4 0.507593 0.815936 0.665506
Si Si5 0.329506 0.685928 0.828855
Si Si6 0.906625 0.686548 0.127524
Si Si7 0.740406 0.686644 0.614320
O O1 0.762010 0.500000 0.164482
O O2 0.852709 0.250262 0.374570
O O3 0.725270 0.244217 0.196679
O O4 0.710243 0.256726 0.907219
O O5 0.081233 0.500000 0.554429
O O6 0.096882 0.251149 0.735301
O O7 0.990187 0.257608 0.276439
O O8 0.360653 0.500000 0.382641
O O9 0.430746 0.772115 0.550746
O O10 0.310980 0.742333 0.395228
O O11 0.500000 0.752449 0.500000
O O12 0.521984 0.000000 0.702641
O O13 0.580408 0.733815 0.921445
O O14 0.323957 0.500000 0.813529
O O15 0.297842 0.755641 0.613271
O O16 0.903218 0.500000 0.120658
O O17 0.830612 0.752013 0.856358
O O18 0.741756 0.500000 0.614110
#
# Coordination Sequence:
#
# PCOD8058613 Si02
#       7
#     4   4   4   4   4   4   4
#     4   9  15  25  43  68  93 124 163 194 225 277
#     4   8  12  19  36  63  94 128 161 190 227 275
#     4  10  18  31  53  73  94 125 162 197 232 281
#     4  11  23  37  52  72  96 120 156 203 246 287
#     4  10  20  33  50  71  98 128 159 197 241 283
#     4   8  12  20  36  61  96 130 156 189 233 275
#     4   9  17  29  45  70 100 129 160 195 234 280
#
# _framework density 18.69369
#
# number of rings (size 3 to 8) (size 9 to 14) (size 15 to 20)
#    0.000    2.714    2.857    1.286    0.000    1.143 
#    0.000    4.286    0.000    4.286    0.000    0.000 
#    0.000    6.857    0.000    0.000    0.000    0.000 
#
# Total GULP energy -347025.497091 kJ/mol
# GULP energy per Si atom -12393.767753 kJ/mol
# Density = 1.865114 g / cm^3
# Si number density = 18.693690 Si / 1000 Ang^3
#
#
#
# Elastic Constant Matrix: (Units=GPa)
#
#
# Indices 1 2 3 4 5 6 
#
# 1 158.5672 5.1915 94.1223 0.0000 10.9514 0.0000
# 2 5.1915 5.3855 2.8995 0.0000 -3.6799 0.0000
# 3 94.1223 2.8995 160.2844 0.0000 6.2583 0.0000
# 4 0.0000 0.0000 0.0000 0.4014 0.0000 -4.8846
# 5 10.9514 -3.6799 6.2583 0.0000 40.4666 0.0000
# 6 0.0000 0.0000 0.0000 -4.8846 0.0000 5.0246
#
#
#
# Elastic Compliance Matrix: (Units=1/GPa)
#
#
# Indices 1 2 3 4 5 6 
#
# 1 0.010155 -0.008521 -0.005706 0.000000 -0.002641 0.000000
# 2 -0.008521 0.208141 0.000412 0.000000 0.021170 0.000000
# 3 -0.005706 0.000412 0.009578 0.000000 0.000100 0.000000
# 4 0.000000 0.000000 0.000000 -0.230032 0.000000 -0.223626
# 5 -0.002641 0.021170 0.000100 0.000000 0.027336 0.000000
# 6 0.000000 0.000000 0.000000 -0.223626 0.000000 -0.018376
#
#
# Mechanical properties :
#
#
# Convention : Reuss Voigt Hill
#
# Bulk Modulus (GPa) = 4.99392 58.74043 31.86717
# Shear Modulus (GPa) = 49.41722 23.98010 36.69866
#
# Velocity S-wave (km/s) = 5.14710 3.58549 4.43556
# Velocity P-wave (km/s) = 6.16448 6.97365 6.58151
#
# Compressibility (1/GPa) = 0.20024342
#
# Stress axis : x y z
#
# Youngs Moduli (GPa) = 98.47677 4.80444 104.40486
#
# Poissons Ratio (x) = 0.04094 0.59571
# Poissons Ratio (y) = 0.83915 -0.04303
# Poissons Ratio (z) = 0.56189 -0.00198
#
# Static dielectric constant tensor:
#      x y z
#    x 3.751960 0.000000 0.131900 
#    y 0.000000 2.750040 0.000000 
#    z 0.131900 0.000000 3.685630 
# 
# 
# High freq. dielectric constant tensor:
#      x y z
#    x 1.730440 0.000000 0.019860 
#    y 0.000000 1.659320 0.000000 
#    z 0.019860 0.000000 1.727700 
# 
# From -- ./inp_files/37266.got.cif
#   From: 2010.06.25/outbox.cif.g09.slc.cpg/sg10_19_cif.got.tgz:37266.got - 2010.06.27 22:07:45.
