data_PCOD8058093
_publ_section_title
;
Structure prediction by ZEFSAII (Michael W. Deem and Ramdas Pophale) SiO2 
 PCOD8058093
Probable space group: P 2/M
;
_chemical_formula_sum "Si O2"
_cell_formula_units_Z 30
_cell_length_a 11.914732
_cell_length_b 9.143813
_cell_length_c 17.931761
_cell_angle_alpha 90.000000
_cell_angle_beta 58.252155
_cell_angle_gamma 90.000000
_cell_volume 1661.282598
_symmetry_space_group_name_H-M "P 2/M"
_symmetry_group_IT_number 10
_symmetry_cell_setting 'monoclinic'
loop_
_space_group_symop_operation_xyz
x,y,z
-x,y,-z
-x,-y,-z
x,-y,z
loop_
_atom_site_type_symbol
_atom_site_label
_atom_site_fract_x
_atom_site_fract_y
_atom_site_fract_z
Si Si1 0.665179 0.666313 0.306878
Si Si2 0.832875 0.827721 0.750694
Si Si3 0.752429 0.664301 0.639038
Si Si4 0.085695 0.675045 0.692924
Si Si5 0.500000 0.764831 0.500000
Si Si6 0.542289 0.662662 0.202713
Si Si7 0.459741 0.829589 0.094746
Si Si8 0.238971 0.163087 0.516123
O O1 0.678896 0.500000 0.279156
O O2 0.808238 0.726300 0.281680
O O3 0.558760 0.670755 0.411146
O O4 0.617893 0.742522 0.246035
O O5 0.843055 0.751789 0.666030
O O6 0.694013 0.794639 0.838625
O O7 0.946538 0.751504 0.761212
O O8 0.858483 0.000000 0.733716
O O9 0.809231 0.500000 0.605244
O O10 0.608938 0.651209 0.722904
O O11 0.743078 0.757736 0.568064
O O12 0.072880 0.500000 0.693157
O O13 0.136713 0.736880 0.596569
O O14 0.620254 0.858284 0.491488
O O15 0.597229 0.500000 0.166593
O O16 0.554807 0.757493 0.123436
O O17 0.488738 0.000000 0.089520
O O18 0.500000 0.766721 0.000000
O O19 0.180752 0.000000 0.525550
#
# Coordination Sequence:
#
# PCOD8058093 Si02
#       8
#     4   4   4   4   2   4   4   4
#     4   9  17  30  50  74 103 139 178 218 256 298
#     4  10  20  36  55  75 102 131 163 210 260 308
#     4  10  19  32  51  73  99 134 174 216 260 307
#     4  10  21  35  51  71  99 140 181 212 249 302
#     4  10  18  30  46  70 103 142 179 222 257 298
#     4   9  17  31  51  79 107 132 167 214 261 303
#     4   9  19  36  58  83 106 130 160 201 260 323
#     4  11  21  32  46  70 102 137 179 221 259 296
#
# _framework density 18.058337000000002
#
# number of rings (size 3 to 8) (size 9 to 14) (size 15 to 20)
#    0.000    2.267    1.333    2.000    0.000    2.933 
#    0.000    4.000    0.000    0.800    0.000    5.600 
#    0.000    0.000    0.000    0.000    0.000    0.000 
#
# Total GULP energy -371779.132023 kJ/mol
# GULP energy per Si atom -12392.637734 kJ/mol
# Density = 1.801724 g / cm^3
# Si number density = 18.058337 Si / 1000 Ang^3
#
#
#
# Elastic Constant Matrix: (Units=GPa)
#
#
# Indices 1 2 3 4 5 6 
#
# 1 109.7701 47.3762 52.5293 0.0000 17.1263 0.0000
# 2 47.3762 92.0583 36.6579 0.0000 7.3504 0.0000
# 3 52.5293 36.6579 88.1976 0.0000 26.8590 0.0000
# 4 0.0000 0.0000 0.0000 21.3981 0.0000 1.3499
# 5 17.1263 7.3504 26.8590 0.0000 27.1925 0.0000
# 6 0.0000 0.0000 0.0000 1.3499 0.0000 21.7941
#
#
#
# Elastic Compliance Matrix: (Units=1/GPa)
#
#
# Indices 1 2 3 4 5 6 
#
# 1 0.014350 -0.004862 -0.005969 0.000000 -0.001828 0.000000
# 2 -0.004862 0.014795 -0.004245 0.000000 0.003256 0.000000
# 3 -0.005969 -0.004245 0.021687 0.000000 -0.016514 0.000000
# 4 0.000000 0.000000 0.000000 0.046916 0.000000 -0.002906
# 5 -0.001828 0.003256 -0.016514 0.000000 0.053357 0.000000
# 6 0.000000 0.000000 0.000000 -0.002906 0.000000 0.046064
#
#
# Mechanical properties :
#
#
# Convention : Reuss Voigt Hill
#
# Bulk Modulus (GPa) = 48.35820 62.57254 55.46537
# Shear Modulus (GPa) = 21.34782 24.30778 22.82780
#
# Velocity S-wave (km/s) = 3.44198 3.67286 3.55930
# Velocity P-wave (km/s) = 6.52942 7.26030 6.90454
#
# Compressibility (1/GPa) = 0.02067902
#
# Stress axis : x y z
#
# Youngs Moduli (GPa) = 69.68593 67.58879 46.11087
#
# Poissons Ratio (x) = 0.32862 0.27525
# Poissons Ratio (y) = 0.33882 0.19575
# Poissons Ratio (z) = 0.41598 0.28693
#
# Static dielectric constant tensor:
#      x y z
#    x 3.604710 0.000000 0.180830 
#    y 0.000000 3.349570 0.000000 
#    z 0.180830 0.000000 3.182580 
# 
# 
# High freq. dielectric constant tensor:
#      x y z
#    x 1.706000 0.000000 0.012100 
#    y 0.000000 1.696690 0.000000 
#    z 0.012100 0.000000 1.663940 
# 
# From -- ./inp_files/49725.got.cif
#   From: 2010.06.25/outbox.cif.g09.slc.cpg/sg10_25_cif.got.tgz:49725.got - 2010.06.27 22:07:45.
