data_PCOD8058843
_publ_section_title
;
Structure prediction by ZEFSAII (Michael W. Deem and Ramdas Pophale) SiO2 
 PCOD8058843
Probable space group: P 2/M
;
_chemical_formula_sum "Si O2"
_cell_formula_units_Z 24
_cell_length_a 13.601906
_cell_length_b 17.875326
_cell_length_c 15.531564
_cell_angle_alpha 90.000000
_cell_angle_beta 18.408585
_cell_angle_gamma 90.000000
_cell_volume 1192.529051
_symmetry_space_group_name_H-M "P 2/M"
_symmetry_group_IT_number 10
_symmetry_cell_setting 'monoclinic'
loop_
_space_group_symop_operation_xyz
x,y,z
-x,y,-z
-x,-y,-z
x,-y,z
loop_
_atom_site_type_symbol
_atom_site_label
_atom_site_fract_x
_atom_site_fract_y
_atom_site_fract_z
Si Si1 0.150355 0.413763 0.783292
Si Si2 0.131034 0.848913 0.305136
Si Si3 0.256440 0.086827 0.855107
Si Si4 0.884103 0.316628 0.854548
Si Si5 0.928118 0.145887 0.291822
Si Si6 0.848661 0.315926 0.542089
O O1 0.500000 0.383122 0.500000
O O2 0.145778 0.500000 0.758081
O O3 0.954769 0.367768 0.877024
O O4 0.000000 0.401306 0.000000
O O5 0.000000 0.891029 0.500000
O O6 0.020839 0.888256 0.308460
O O7 0.982901 0.767242 0.427123
O O8 0.500000 0.844138 0.000000
O O9 0.563563 0.133991 0.579045
O O10 0.335827 0.000000 0.776813
O O11 0.000000 0.114006 0.000000
O O12 0.134463 0.101200 0.052194
O O13 0.006502 0.233652 0.771175
O O14 0.050046 0.353550 0.632547
O O15 0.518500 0.314626 0.141650
O O16 0.000000 0.357206 0.500000
#
# Coordination Sequence:
#
# PCOD8058843 Si02
#       6
#     4   4   4   4   4   4
#     4  10  22  40  59  80 113 156 190 221 276 340
#     4  10  18  32  54  82 114 144 177 220 276 335
#     4  11  24  41  58  77 108 150 186 221 279 344
#     4  11  21  34  57  88 113 140 186 236 274 313
#     4  11  21  36  59  86 109 139 186 235 274 314
#     4  10  18  32  53  82 117 147 179 222 275 332
#
# _framework density 20.125295000000001
#
# number of rings (size 3 to 8) (size 9 to 14) (size 15 to 20)
#    0.000    1.500    0.000    9.500    0.000    3.333 
#    0.000    0.000    0.000   13.000    0.000    0.000 
#    0.000    0.000    0.000    0.000    0.000    0.000 
#
# Total GULP energy -297599.482693 kJ/mol
# GULP energy per Si atom -12399.978446 kJ/mol
# Density = 2.007949 g / cm^3
# Si number density = 20.125295 Si / 1000 Ang^3
#
#
#
# Elastic Constant Matrix: (Units=GPa)
#
#
# Indices 1 2 3 4 5 6 
#
# 1 99.3334 48.3050 30.7150 0.0000 -5.4353 0.0000
# 2 48.3050 42.9513 39.8111 0.0000 -13.3202 0.0000
# 3 30.7150 39.8111 155.5695 0.0000 -10.5055 0.0000
# 4 0.0000 0.0000 0.0000 17.7682 0.0000 14.8048
# 5 -5.4353 -13.3202 -10.5055 0.0000 41.8121 0.0000
# 6 0.0000 0.0000 0.0000 14.8048 0.0000 -0.3325
#
#
#
# Elastic Compliance Matrix: (Units=1/GPa)
#
#
# Indices 1 2 3 4 5 6 
#
# 1 0.024504 -0.032310 0.003001 0.000000 -0.006354 0.000000
# 2 -0.032310 0.075923 -0.011902 0.000000 0.016996 0.000000
# 3 0.003001 -0.011902 0.008801 0.000000 -0.001190 0.000000
# 4 0.000000 0.000000 0.000000 0.001477 0.000000 0.065773
# 5 -0.006354 0.016996 -0.001190 0.000000 0.028206 0.000000
# 6 0.000000 0.000000 0.000000 0.065773 0.000000 -0.078938
#
#
# Mechanical properties :
#
#
# Convention : Reuss Voigt Hill
#
# Bulk Modulus (GPa) = 37.30616 59.50184 48.40400
# Shear Modulus (GPa) = 33.04052 23.78442 28.41247
#
# Velocity S-wave (km/s) = 4.05624 3.44149 3.76144
# Velocity P-wave (km/s) = 6.36511 6.73956 6.55501
#
# Compressibility (1/GPa) = 0.02680523
#
# Stress axis : x y z
#
# Youngs Moduli (GPa) = 40.81033 13.17129 113.62565
#
# Poissons Ratio (x) = 0.42557 -0.34104
# Poissons Ratio (y) = 1.31859 1.35238
# Poissons Ratio (z) = -0.12249 0.15677
#
# Static dielectric constant tensor:
#      x y z
#    x 4.838880 0.000000 0.304340 
#    y 0.000000 3.225080 0.000000 
#    z 0.304340 0.000000 3.927030 
# 
# 
# High freq. dielectric constant tensor:
#      x y z
#    x 1.814370 0.000000 0.005330 
#    y 0.000000 1.732880 0.000000 
#    z 0.005330 0.000000 1.810180 
# 
# From -- ./inp_files/65468.got.cif
#   From: 2010.06.25/outbox.cif.g09.slc.cpg/sg10_33_cif.got.tgz:65468.got - 2010.06.27 22:07:45.
