data_PCOD8058425
_publ_section_title
;
Structure prediction by ZEFSAII (Michael W. Deem and Ramdas Pophale) SiO2 
 PCOD8058425
Probable space group: P 2/M
;
_chemical_formula_sum "Si O2"
_cell_formula_units_Z 32
_cell_length_a 15.209055
_cell_length_b 14.353142
_cell_length_c 9.445341
_cell_angle_alpha 90.000000
_cell_angle_beta 89.707332
_cell_angle_gamma 90.000000
_cell_volume 2061.869563
_symmetry_space_group_name_H-M "P 2/M"
_symmetry_group_IT_number 10
_symmetry_cell_setting 'monoclinic'
loop_
_space_group_symop_operation_xyz
x,y,z
-x,y,-z
-x,-y,-z
x,-y,z
loop_
_atom_site_type_symbol
_atom_site_label
_atom_site_fract_x
_atom_site_fract_y
_atom_site_fract_z
Si Si1 0.638418 0.398388 0.444170
Si Si2 0.334383 0.793895 0.653389
Si Si3 0.157710 0.110435 0.658891
Si Si4 0.835641 0.890488 0.659292
Si Si5 0.457542 0.601618 0.278381
Si Si6 0.361047 0.890156 0.361854
Si Si7 0.006401 0.111229 0.158367
Si Si8 0.496363 0.209071 0.161526
O O1 0.683080 0.500000 0.414928
O O2 0.695294 0.312469 0.383745
O O3 0.623883 0.385287 0.612773
O O4 0.545160 0.394002 0.368917
O O5 0.249112 0.846590 0.713355
O O6 0.376190 0.841204 0.513112
O O7 0.406205 0.796823 0.776075
O O8 0.140845 0.144478 0.498665
O O9 0.078120 0.147526 0.754996
O O10 0.167405 0.000000 0.667685
O O11 0.735567 0.863078 0.698163
O O12 0.904974 0.847316 0.770360
O O13 0.848109 0.000000 0.663043
O O14 0.449719 0.500000 0.202367
O O15 0.457692 0.685424 0.165512
O O16 0.433122 0.859184 0.248738
O O17 0.368220 0.000000 0.387744
O O18 0.007866 0.000000 0.157598
O O19 0.000000 0.151083 0.000000
O O20 0.500000 0.175138 0.000000
#
# Coordination Sequence:
#
# PCOD8058425 Si02
#       8
#     4   4   4   4   4   4   4   4
#     4   8  13  24  46  68  82 102 137 183 224 254
#     4  10  18  31  47  63  86 115 149 184 212 257
#     4   9  17  28  44  64  84 111 146 178 209 249
#     4   8  15  28  44  60  78 103 139 182 216 246
#     4   8  14  27  45  63  82 106 139 179 224 264
#     4  10  20  33  47  60  80 118 160 187 211 248
#     4   9  16  26  42  63  86 110 135 171 220 261
#     4  11  22  31  41  62  90 119 149 182 218 254
#
# _framework density 15.519895
#
# number of rings (size 3 to 8) (size 9 to 14) (size 15 to 20)
#    0.000    2.875    1.250    2.625    0.000    4.500 
#    0.000    1.250    0.000    0.000    0.000    0.000 
#    0.000    9.500    0.000    0.000    0.000    3.125 
#
# Total GULP energy -396575.124167 kJ/mol
# GULP energy per Si atom -12392.972630 kJ/mol
# Density = 1.548457 g / cm^3
# Si number density = 15.519895 Si / 1000 Ang^3
#
#
#
# Elastic Constant Matrix: (Units=GPa)
#
#
# Indices 1 2 3 4 5 6 
#
# 1 65.9862 17.3756 38.0501 0.0000 9.5566 0.0000
# 2 17.3756 58.3483 18.8972 0.0000 5.3346 0.0000
# 3 38.0501 18.8972 82.7079 0.0000 8.7700 0.0000
# 4 0.0000 0.0000 0.0000 12.9398 0.0000 -0.6736
# 5 9.5566 5.3346 8.7700 0.0000 16.3016 0.0000
# 6 0.0000 0.0000 0.0000 -0.6736 0.0000 5.9624
#
#
#
# Elastic Compliance Matrix: (Units=1/GPa)
#
#
# Indices 1 2 3 4 5 6 
#
# 1 0.022004 -0.003090 -0.008650 0.000000 -0.007235 0.000000
# 2 -0.003090 0.019192 -0.002640 0.000000 -0.003049 0.000000
# 3 -0.008650 -0.002640 0.017015 0.000000 -0.003219 0.000000
# 4 0.000000 0.000000 0.000000 0.077738 0.000000 0.008782
# 5 -0.007235 -0.003049 -0.003219 0.000000 0.068314 0.000000
# 6 0.000000 0.000000 0.000000 0.008782 0.000000 0.168710
#
#
# Mechanical properties :
#
#
# Convention : Reuss Voigt Hill
#
# Bulk Modulus (GPa) = 33.95456 39.52091 36.73774
# Shear Modulus (GPa) = 12.14919 15.88874 14.01897
#
# Velocity S-wave (km/s) = 2.80092 3.20311 3.00874
# Velocity P-wave (km/s) = 5.69085 6.26097 5.98271
#
# Compressibility (1/GPa) = 0.02945113
#
# Stress axis : x y z
#
# Youngs Moduli (GPa) = 45.44643 52.10392 58.77258
#
# Poissons Ratio (x) = 0.16098 0.50838
# Poissons Ratio (y) = 0.14042 0.15518
# Poissons Ratio (z) = 0.39311 0.13758
#
# Static dielectric constant tensor:
#      x y z
#    x 2.918380 0.000000 0.015390 
#    y 0.000000 3.037980 0.000000 
#    z 0.015390 0.000000 2.908270 
# 
# 
# High freq. dielectric constant tensor:
#      x y z
#    x 1.575200 0.000000 -0.002410 
#    y 0.000000 1.571120 0.000000 
#    z -0.002410 0.000000 1.581680 
# 
# From -- ./inp_files/29095.got.cif
#   From: 2010.06.25/outbox.cif.g09.slc.cpg/sg10_15_cif.got.tgz:29095.got - 2010.06.27 22:07:45.
