data_PCOD8058473
_publ_section_title
;
Structure prediction by ZEFSAII (Michael W. Deem and Ramdas Pophale) SiO2 
 PCOD8058473
Probable space group: P 2/M
;
_chemical_formula_sum "Si O2"
_cell_formula_units_Z 32
_cell_length_a 19.459710
_cell_length_b 8.907905
_cell_length_c 12.033892
_cell_angle_alpha 90.000000
_cell_angle_beta 110.348525
_cell_angle_gamma 90.000000
_cell_volume 1955.839563
_symmetry_space_group_name_H-M "P 2/M"
_symmetry_group_IT_number 10
_symmetry_cell_setting 'monoclinic'
loop_
_space_group_symop_operation_xyz
x,y,z
-x,y,-z
-x,-y,-z
x,-y,z
loop_
_atom_site_type_symbol
_atom_site_label
_atom_site_fract_x
_atom_site_fract_y
_atom_site_fract_z
Si Si1 0.810676 0.330006 0.225351
Si Si2 0.532482 0.321909 0.310765
Si Si3 0.632428 0.321914 0.765759
Si Si4 0.695683 0.176688 0.014474
Si Si5 0.917778 0.822897 0.431227
Si Si6 0.209774 0.670597 0.543239
Si Si7 0.660188 0.677768 0.533713
Si Si8 0.579182 0.668708 0.098074
O O1 0.824558 0.500000 0.193524
O O2 0.771664 0.240159 0.105035
O O3 0.888778 0.252186 0.299746
O O4 0.761343 0.326509 0.311592
O O5 0.525351 0.500000 0.310435
O O6 0.450354 0.256631 0.274145
O O7 0.583480 0.261190 0.439683
O O8 0.571225 0.271044 0.218736
O O9 0.633379 0.500000 0.785039
O O10 0.665876 0.276215 0.665264
O O11 0.683016 0.245714 0.886078
O O12 0.629798 0.218426 0.059207
O O13 0.701710 0.000000 0.007193
O O14 0.865594 0.767464 0.504099
O O15 0.000000 0.767621 0.500000
O O16 0.913105 0.000000 0.416960
O O17 0.191658 0.500000 0.497321
O O18 0.270497 0.743257 0.495803
O O19 0.660208 0.500000 0.518091
O O20 0.613078 0.500000 0.112666
O O21 0.500000 0.665630 0.000000
#
# Coordination Sequence:
#
# PCOD8058473 Si02
#       8
#     4   4   4   4   4   4   4   4
#     4   9  18  32  52  73  98 126 158 194 232 281
#     4   9  16  28  47  71  92 116 160 213 253 285
#     4  10  19  32  49  66  89 126 171 211 248 287
#     4  12  23  33  45  65  97 127 160 202 249 298
#     4   9  17  30  49  77 110 135 155 182 225 286
#     4   8  16  29  48  74 101 128 159 196 236 281
#     4   9  16  28  48  72  93 120 166 215 246 277
#     4  10  18  31  50  68  89 120 161 203 250 299
#
# _framework density 16.361260000000001
#
# number of rings (size 3 to 8) (size 9 to 14) (size 15 to 20)
#    0.750    1.750    1.250    2.625    0.000    4.750 
#    0.000    0.625    0.000    3.000    0.000    0.875 
#    0.000    7.000    0.000    0.000    0.000    0.000 
#
# Total GULP energy -396575.052702 kJ/mol
# GULP energy per Si atom -12392.970397 kJ/mol
# Density = 1.632402 g / cm^3
# Si number density = 16.361260 Si / 1000 Ang^3
#
#
#
# Elastic Constant Matrix: (Units=GPa)
#
#
# Indices 1 2 3 4 5 6 
#
# 1 75.0891 28.1123 61.2424 0.0000 13.6293 0.0000
# 2 28.1123 64.3096 45.3618 0.0000 5.9332 0.0000
# 3 61.2424 45.3618 127.8230 0.0000 8.0627 0.0000
# 4 0.0000 0.0000 0.0000 11.7499 0.0000 0.7583
# 5 13.6293 5.9332 8.0627 0.0000 24.3372 0.0000
# 6 0.0000 0.0000 0.0000 0.7583 0.0000 11.7326
#
#
#
# Elastic Compliance Matrix: (Units=1/GPa)
#
#
# Indices 1 2 3 4 5 6 
#
# 1 0.024274 -0.002599 -0.010102 0.000000 -0.009614 0.000000
# 2 -0.002599 0.021192 -0.006170 0.000000 -0.001667 0.000000
# 3 -0.010102 -0.006170 0.014708 0.000000 0.002288 0.000000
# 4 0.000000 0.000000 0.000000 0.085463 0.000000 -0.005524
# 5 -0.009614 -0.001667 0.002288 0.000000 0.046121 0.000000
# 6 0.000000 0.000000 0.000000 -0.005524 0.000000 0.085590
#
#
# Mechanical properties :
#
#
# Convention : Reuss Voigt Hill
#
# Bulk Modulus (GPa) = 44.57676 59.62829 52.10253
# Shear Modulus (GPa) = 15.50059 18.39764 16.94912
#
# Velocity S-wave (km/s) = 3.08132 3.35694 3.22208
# Velocity P-wave (km/s) = 6.32170 7.17979 6.76436
#
# Compressibility (1/GPa) = 0.02243321
#
# Stress axis : x y z
#
# Youngs Moduli (GPa) = 41.19588 47.18775 67.98804
#
# Poissons Ratio (x) = 0.12264 0.68678
# Poissons Ratio (y) = 0.10707 0.41950
# Poissons Ratio (z) = 0.41614 0.29116
#
# Static dielectric constant tensor:
#      x y z
#    x 2.977620 0.000000 -0.004430 
#    y 0.000000 2.806290 0.000000 
#    z -0.004430 0.000000 3.123150 
# 
# 
# High freq. dielectric constant tensor:
#      x y z
#    x 1.603440 0.000000 0.004930 
#    y 0.000000 1.604710 0.000000 
#    z 0.004930 0.000000 1.624510 
# 
# From -- ./inp_files/54927.got.cif
#   From: 2010.06.25/outbox.cif.g09.slc.cpg/sg10_28_cif.got.tgz:54927.got - 2010.06.27 22:07:45.
