data_PCOD8058262
_publ_section_title
;
Structure prediction by ZEFSAII (Michael W. Deem and Ramdas Pophale) SiO2 
 PCOD8058262
Probable space group: P 2/M
;
_chemical_formula_sum "Si O2"
_cell_formula_units_Z 32
_cell_length_a 18.772821
_cell_length_b 8.804866
_cell_length_c 24.005895
_cell_angle_alpha 90.000000
_cell_angle_beta 155.692069
_cell_angle_gamma 90.000000
_cell_volume 1633.384022
_symmetry_space_group_name_H-M "P 2/M"
_symmetry_group_IT_number 10
_symmetry_cell_setting 'monoclinic'
loop_
_space_group_symop_operation_xyz
x,y,z
-x,y,-z
-x,-y,-z
x,-y,z
loop_
_atom_site_type_symbol
_atom_site_label
_atom_site_fract_x
_atom_site_fract_y
_atom_site_fract_z
Si Si1 0.651042 0.167039 0.150374
Si Si2 0.671852 0.173502 0.378579
Si Si3 0.520456 0.819454 0.384574
Si Si4 0.182602 0.678867 0.104365
Si Si5 0.022172 0.176213 0.677546
Si Si6 0.477247 0.181736 0.135181
Si Si7 0.153503 0.322253 0.955946
Si Si8 0.849527 0.322775 0.660865
O O1 0.808773 0.251697 0.230943
O O2 0.571542 0.251588 0.147716
O O3 0.721067 0.000000 0.218277
O O4 0.500000 0.147109 0.000000
O O5 0.592006 0.245883 0.377155
O O6 0.592220 0.250206 0.267329
O O7 0.877625 0.190837 0.526480
O O8 0.612097 0.000000 0.335199
O O9 0.325061 0.756404 0.246646
O O10 0.658551 0.755883 0.528619
O O11 0.519775 0.000000 0.389828
O O12 0.212514 0.500000 0.127855
O O13 0.183345 0.737780 0.040535
O O14 0.000000 0.725718 0.000000
O O15 0.965961 0.263627 0.692755
O O16 0.052337 0.000000 0.716008
O O17 0.471822 0.000000 0.126429
O O18 0.282393 0.239629 0.004668
O O19 0.191673 0.500000 0.980628
O O20 0.957354 0.289053 0.794631
O O21 0.818153 0.500000 0.630411
#
# Coordination Sequence:
#
# PCOD8058262 Si02
#       8
#     4   4   4   4   4   4   4   4
#     4   9  17  27  42  67  98 135 178 222 267 312
#     4   8  15  27  46  73  97 126 168 214 259 304
#     4  10  19  35  57  83 111 139 177 219 263 315
#     4  10  21  38  60  84 110 142 176 213 263 318
#     4   9  17  31  48  70 103 137 178 226 266 309
#     4  10  18  30  50  73 100 136 178 221 267 314
#     4  10  21  36  54  80 109 137 177 222 262 315
#     4  10  20  34  54  79 107 143 182 218 262 315
#
# _framework density 19.591228999999998
#
# number of rings (size 3 to 8) (size 9 to 14) (size 15 to 20)
#    0.000    2.500    1.250    2.250    0.000    2.750 
#    0.000    3.750    0.000    6.000    0.000    2.625 
#    0.000    0.000    0.000    0.000    0.000    0.000 
#
# Total GULP energy -396501.097306 kJ/mol
# GULP energy per Si atom -12390.659291 kJ/mol
# Density = 1.954664 g / cm^3
# Si number density = 19.591229 Si / 1000 Ang^3
#
#
#
# Elastic Constant Matrix: (Units=GPa)
#
#
# Indices 1 2 3 4 5 6 
#
# 1 45.2148 14.1304 21.5749 0.0000 12.7343 0.0000
# 2 14.1304 48.3910 34.0869 0.0000 4.4729 0.0000
# 3 21.5749 34.0869 130.2895 0.0000 10.7808 0.0000
# 4 0.0000 0.0000 0.0000 23.4086 0.0000 1.4902
# 5 12.7343 4.4729 10.7808 0.0000 34.6629 0.0000
# 6 0.0000 0.0000 0.0000 1.4902 0.0000 16.4819
#
#
#
# Elastic Compliance Matrix: (Units=1/GPa)
#
#
# Indices 1 2 3 4 5 6 
#
# 1 0.027406 -0.005531 -0.002378 0.000000 -0.008615 0.000000
# 2 -0.005531 0.026502 -0.006059 0.000000 0.000497 0.000000
# 3 -0.002378 -0.006059 0.009769 0.000000 -0.001383 0.000000
# 4 0.000000 0.000000 0.000000 0.042967 0.000000 -0.003885
# 5 -0.008615 0.000497 -0.001383 0.000000 0.032380 0.000000
# 6 0.000000 0.000000 0.000000 -0.003885 0.000000 0.061024
#
#
# Mechanical properties :
#
#
# Convention : Reuss Voigt Hill
#
# Bulk Modulus (GPa) = 27.97947 40.38663 34.18305
# Shear Modulus (GPa) = 20.84223 25.18423 23.01323
#
# Velocity S-wave (km/s) = 3.26522 3.58926 3.43106
# Velocity P-wave (km/s) = 5.34118 6.15113 5.76041
#
# Compressibility (1/GPa) = 0.03574050
#
# Stress axis : x y z
#
# Youngs Moduli (GPa) = 36.48781 37.73293 102.36909
#
# Poissons Ratio (x) = 0.20871 0.24347
# Poissons Ratio (y) = 0.20182 0.62023
# Poissons Ratio (z) = 0.08678 0.22861
#
# Static dielectric constant tensor:
#      x y z
#    x 3.586590 0.000000 -0.057030 
#    y 0.000000 3.237410 0.000000 
#    z -0.057030 0.000000 3.862030 
# 
# 
# High freq. dielectric constant tensor:
#      x y z
#    x 1.744530 0.000000 -0.001490 
#    y 0.000000 1.724520 0.000000 
#    z -0.001490 0.000000 1.782670 
# 
# From -- ./inp_files/93758.got.cif
#   From: 2010.06.25/outbox.cif.g09.slc.cpg/sg10_47_cif.got.tgz:93758.got - 2010.06.27 22:07:45.
