data_PCOD8058000
_publ_section_title
;
Structure prediction by ZEFSAII (Michael W. Deem and Ramdas Pophale) SiO2 
 PCOD8058000
Probable space group: P 2/M
;
_chemical_formula_sum "Si O2"
_cell_formula_units_Z 32
_cell_length_a 11.847170
_cell_length_b 9.173736
_cell_length_c 17.800630
_cell_angle_alpha 90.000000
_cell_angle_beta 110.898710
_cell_angle_gamma 90.000000
_cell_volume 1807.348522
_symmetry_space_group_name_H-M "P 2/M"
_symmetry_group_IT_number 10
_symmetry_cell_setting 'monoclinic'
loop_
_space_group_symop_operation_xyz
x,y,z
-x,y,-z
-x,-y,-z
x,-y,z
loop_
_atom_site_type_symbol
_atom_site_label
_atom_site_fract_x
_atom_site_fract_y
_atom_site_fract_z
Si Si1 0.390242 0.335373 0.417581
Si Si2 0.031552 0.172194 0.671253
Si Si3 0.030954 0.173252 0.177888
Si Si4 0.244339 0.329398 0.144475
Si Si5 0.485755 0.329704 0.280934
Si Si6 0.202037 0.171845 0.467470
Si Si7 0.729739 0.173652 0.350893
Si Si8 0.112521 0.660460 0.971621
O O1 0.500000 0.326104 0.500000
O O2 0.341409 0.500000 0.398291
O O3 0.434310 0.275077 0.348250
O O4 0.283332 0.234547 0.420468
O O5 0.993146 0.232121 0.743725
O O6 0.162843 0.230508 0.677554
O O7 0.935179 0.218516 0.584364
O O8 0.037133 0.000000 0.677598
O O9 0.915881 0.225114 0.100905
O O10 0.156542 0.240312 0.178909
O O11 0.040038 0.000000 0.175327
O O12 0.215877 0.500000 0.151204
O O13 0.383989 0.293890 0.194790
O O14 0.223361 0.287635 0.051579
O O15 0.518256 0.500000 0.291658
O O16 0.606470 0.241458 0.289963
O O17 0.241511 0.232239 0.558187
O O18 0.216909 0.000000 0.469490
O O19 0.719186 0.000000 0.347870
O O20 0.138846 0.500000 0.943073
O O21 0.000000 0.649597 0.000000
#
# Coordination Sequence:
#
# PCOD8058000 Si02
#       8
#     4   4   4   4   4   4   4   4
#     4  10  19  31  47  68  99 129 149 187 245 287
#     4   9  19  34  49  69  97 126 158 200 243 278
#     4  10  18  29  49  75 101 125 153 193 238 283
#     4   9  18  32  50  72  99 130 156 187 234 286
#     4  10  20  34  50  69  97 129 161 194 235 284
#     4  10  19  32  52  72  91 122 166 204 232 277
#     4  10  20  34  51  68  91 127 166 201 238 276
#     4   8  15  29  48  70  98 127 154 186 232 286
#
# _framework density 17.705494000000002
#
# number of rings (size 3 to 8) (size 9 to 14) (size 15 to 20)
#    0.000    2.500    1.250    2.250    0.000    5.000 
#    0.000    2.500    0.000    2.250    0.000    5.250 
#    0.000    0.000    0.000    0.000    0.000    0.000 
#
# Total GULP energy -396701.232091 kJ/mol
# GULP energy per Si atom -12396.913503 kJ/mol
# Density = 1.766520 g / cm^3
# Si number density = 17.705494 Si / 1000 Ang^3
#
#
#
# Elastic Constant Matrix: (Units=GPa)
#
#
# Indices 1 2 3 4 5 6 
#
# 1 98.8077 32.5137 41.1707 0.0000 17.3682 0.0000
# 2 32.5137 42.6508 30.1987 0.0000 5.3322 0.0000
# 3 41.1707 30.1987 101.2914 0.0000 23.4695 0.0000
# 4 0.0000 0.0000 0.0000 23.9107 0.0000 4.7539
# 5 17.3682 5.3322 23.4695 0.0000 22.4551 0.0000
# 6 0.0000 0.0000 0.0000 4.7539 0.0000 -9.3974
#
#
#
# Elastic Compliance Matrix: (Units=1/GPa)
#
#
# Indices 1 2 3 4 5 6 
#
# 1 0.015315 -0.009607 -0.001510 0.000000 -0.007986 0.000000
# 2 -0.009607 0.035891 -0.008633 0.000000 0.007931 0.000000
# 3 -0.001510 -0.008633 0.016250 0.000000 -0.013766 0.000000
# 4 0.000000 0.000000 0.000000 0.038000 0.000000 0.019224
# 5 -0.007986 0.007931 -0.013766 0.000000 0.063214 0.000000
# 6 0.000000 0.000000 0.000000 0.019224 0.000000 -0.096688
#
#
# Mechanical properties :
#
#
# Convention : Reuss Voigt Hill
#
# Bulk Modulus (GPa) = 35.77255 50.05736 42.91496
# Shear Modulus (GPa) = 41.38980 16.65146 29.02063
#
# Velocity S-wave (km/s) = 4.84020 3.07003 4.05294
# Velocity P-wave (km/s) = 7.17529 6.39534 6.79651
#
# Compressibility (1/GPa) = 0.02795439
#
# Stress axis : x y z
#
# Youngs Moduli (GPa) = 65.29506 27.86194 61.53910
#
# Poissons Ratio (x) = 0.26768 0.09294
# Poissons Ratio (y) = 0.62731 0.53128
# Poissons Ratio (z) = 0.09862 0.24054
#
# Static dielectric constant tensor:
#      x y z
#    x 3.192710 0.000000 0.114220 
#    y 0.000000 3.109300 0.000000 
#    z 0.114220 0.000000 3.782800 
# 
# 
# High freq. dielectric constant tensor:
#      x y z
#    x 1.661120 0.000000 0.011980 
#    y 0.000000 1.666420 0.000000 
#    z 0.011980 0.000000 1.693760 
# 
# From -- ./inp_files/83394.got.cif
#   From: 2010.06.25/outbox.cif.g09.slc.cpg/sg10_42_cif.got.tgz:83394.got - 2010.06.27 22:07:45.
