data_PCOD8058211
_publ_section_title
;
Structure prediction by ZEFSAII (Michael W. Deem and Ramdas Pophale) SiO2 
 PCOD8058211
Probable space group: P 2/M
;
_chemical_formula_sum "Si O2"
_cell_formula_units_Z 32
_cell_length_a 28.175665
_cell_length_b 9.359574
_cell_length_c 21.709888
_cell_angle_alpha 90.000000
_cell_angle_beta 18.863177
_cell_angle_gamma 90.000000
_cell_volume 1850.998483
_symmetry_space_group_name_H-M "P 2/M"
_symmetry_group_IT_number 10
_symmetry_cell_setting 'monoclinic'
loop_
_space_group_symop_operation_xyz
x,y,z
-x,y,-z
-x,-y,-z
x,-y,z
loop_
_atom_site_type_symbol
_atom_site_label
_atom_site_fract_x
_atom_site_fract_y
_atom_site_fract_z
Si Si1 0.823120 0.669720 0.103779
Si Si2 0.811098 0.164744 0.477899
Si Si3 0.334068 0.669671 0.581843
Si Si4 0.332539 0.330491 0.828894
Si Si5 0.844561 0.669492 0.316895
Si Si6 0.340526 0.169937 0.212381
Si Si7 0.053667 0.830043 0.499243
Si Si8 0.889093 0.835259 0.821928
O O1 0.819696 0.500000 0.110607
O O2 0.744586 0.733550 0.260869
O O3 0.736942 0.724437 0.149663
O O4 0.989879 0.724461 0.896697
O O5 0.775931 0.260343 0.461957
O O6 0.701776 0.215603 0.666379
O O7 0.978056 0.189042 0.293878
O O8 0.783308 0.000000 0.495395
O O9 0.329564 0.500000 0.590870
O O10 0.500658 0.723922 0.374357
O O11 0.249321 0.723941 0.625678
O O12 0.320405 0.500000 0.850404
O O13 0.248274 0.260373 0.989599
O O14 0.837927 0.500000 0.332926
O O15 0.216611 0.227666 0.316784
O O16 0.343230 0.000000 0.204980
O O17 0.500000 0.235151 0.000000
O O18 0.000000 0.764897 0.500000
O O19 0.938069 0.784457 0.693787
O O20 0.060352 0.000000 0.487846
O O21 0.840708 0.000000 0.880610
#
# Coordination Sequence:
#
# PCOD8058211 Si02
#       8
#     4   4   4   4   4   4   4   4
#     4   9  16  28  49  71  88 115 158 194 223 269
#     4   9  17  30  48  69  95 124 151 186 229 269
#     4   9  18  30  45  69  98 119 144 196 243 261
#     4  10  18  30  49  71  92 119 155 190 227 272
#     4  10  18  30  49  71  92 119 155 190 227 272
#     4   8  14  26  44  65  88 115 149 185 220 260
#     4   8  14  26  44  65  88 115 149 185 220 260
#     4   9  17  30  48  69  95 124 151 186 229 269
#
# _framework density 17.287966000000001
#
# number of rings (size 3 to 8) (size 9 to 14) (size 15 to 20)
#    0.000    3.000    1.250    2.250    0.000    3.000 
#    2.250    0.625    0.000    5.250    0.000    0.000 
#    0.000    0.000    0.000    0.000    0.000    0.000 
#
# Total GULP energy -396713.789331 kJ/mol
# GULP energy per Si atom -12397.305917 kJ/mol
# Density = 1.724862 g / cm^3
# Si number density = 17.287966 Si / 1000 Ang^3
#
#
#
# Elastic Constant Matrix: (Units=GPa)
#
#
# Indices 1 2 3 4 5 6 
#
# 1 155.5126 24.4973 88.2870 0.0000 3.6446 0.0000
# 2 24.4973 19.6503 25.0381 0.0000 3.4812 0.0000
# 3 88.2870 25.0381 156.4516 0.0000 2.9306 0.0000
# 4 0.0000 0.0000 0.0000 18.6027 0.0000 6.2160
# 5 3.6446 3.4812 2.9306 0.0000 29.2902 0.0000
# 6 0.0000 0.0000 0.0000 6.2160 0.0000 17.6054
#
#
#
# Elastic Compliance Matrix: (Units=1/GPa)
#
#
# Indices 1 2 3 4 5 6 
#
# 1 0.010119 -0.006707 -0.004637 0.000000 0.000002 0.000000
# 2 -0.006707 0.069665 -0.007238 0.000000 -0.006721 0.000000
# 3 -0.004637 -0.007238 0.010159 0.000000 0.000421 0.000000
# 4 0.000000 0.000000 0.000000 0.060946 0.000000 -0.021518
# 5 0.000002 -0.006721 0.000421 0.000000 0.034898 0.000000
# 6 0.000000 0.000000 0.000000 -0.021518 0.000000 0.064398
#
#
# Mechanical properties :
#
#
# Convention : Reuss Voigt Hill
#
# Bulk Modulus (GPa) = 18.94723 67.47324 43.21024
# Shear Modulus (GPa) = 16.39655 26.01915 21.20785
#
# Velocity S-wave (km/s) = 3.08301 3.88370 3.50629
# Velocity P-wave (km/s) = 4.86383 7.69575 6.43745
#
# Compressibility (1/GPa) = 0.05277815
#
# Stress axis : x y z
#
# Youngs Moduli (GPa) = 98.81964 14.35447 98.43514
#
# Poissons Ratio (x) = 0.09628 0.45645
# Poissons Ratio (y) = 0.66282 0.71247
# Poissons Ratio (z) = 0.45824 0.10390
#
# Static dielectric constant tensor:
#      x y z
#    x 3.398430 0.000000 -0.013470 
#    y 0.000000 2.658920 0.000000 
#    z -0.013470 0.000000 3.396500 
# 
# 
# High freq. dielectric constant tensor:
#      x y z
#    x 1.672840 0.000000 0.006000 
#    y 0.000000 1.607700 0.000000 
#    z 0.006000 0.000000 1.673720 
# 
# From -- ./inp_files/80314.got.cif
#   From: 2010.06.25/outbox.cif.g09.slc.cpg/sg10_41_cif.got.tgz:80314.got - 2010.06.27 22:07:45.
