data_PCOD8058740
_publ_section_title
;
Structure prediction by ZEFSAII (Michael W. Deem and Ramdas Pophale) SiO2 
 PCOD8058740
Probable space group: P 2/M
;
_chemical_formula_sum "Si O2"
_cell_formula_units_Z 22
_cell_length_a 8.924985
_cell_length_b 25.263469
_cell_length_c 5.277212
_cell_angle_alpha 90.000000
_cell_angle_beta 107.196118
_cell_angle_gamma 90.000000
_cell_volume 1136.695312
_symmetry_space_group_name_H-M "P 2/M"
_symmetry_group_IT_number 10
_symmetry_cell_setting 'monoclinic'
loop_
_space_group_symop_operation_xyz
x,y,z
-x,y,-z
-x,-y,-z
x,-y,z
loop_
_atom_site_type_symbol
_atom_site_label
_atom_site_fract_x
_atom_site_fract_y
_atom_site_fract_z
Si Si1 0.816074 0.606264 0.158037
Si Si2 0.101779 0.000000 0.300889
Si Si3 0.316645 0.785193 0.408322
Si Si4 0.104812 0.885420 0.302406
Si Si5 0.315473 0.721324 0.907736
Si Si6 0.837449 0.561795 0.668724
O O1 0.784771 0.668208 0.142385
O O2 0.740115 0.578926 0.370147
O O3 0.001381 0.594769 0.250691
O O4 0.740115 0.578926 0.869968
O O5 0.192887 0.056529 0.346444
O O6 0.000000 0.000000 0.500000
O O7 0.000000 0.000000 0.000000
O O8 0.500000 0.795424 0.500000
O O9 0.239625 0.842338 0.369813
O O10 0.265283 0.753469 0.633117
O O11 0.265283 0.753469 0.132165
O O12 0.000000 0.878453 0.500000
O O13 0.000000 0.878453 0.000000
O O14 0.500000 0.707980 0.000000
O O15 0.876201 0.500000 0.688101
#
# Coordination Sequence:
#
# PCOD8058740 Si02
#       6
#     4   2   4   4   4   4
#     4  10  18  32  50  74  95 128 167 201 249 307
#     4   8  16  30  53  74 111 140 174 214 278 322
#     4  10  21  38  54  74 108 149 180 217 270 321
#     4  10  19  35  54  84 107 143 180 228 267 313
#     4  10  21  37  54  71 102 144 177 209 257 313
#     4  10  19  33  53  74 101 130 156 205 271 308
#
# _framework density 19.354351999999999
#
# number of rings (size 3 to 8) (size 9 to 14) (size 15 to 20)
#    0.000    2.182    0.000    4.909    0.000    0.000 
#   19.636    0.455    0.000    6.000    0.000   11.455 
#    0.000    0.000    0.000    0.000    0.000    0.000 
#
# Total GULP energy -272600.174197 kJ/mol
# GULP energy per Si atom -12390.917009 kJ/mol
# Density = 1.931030 g / cm^3
# Si number density = 19.354352 Si / 1000 Ang^3
#
#
#
# Elastic Constant Matrix: (Units=GPa)
#
#
# Indices 1 2 3 4 5 6 
#
# 1 30.7985 60.3027 40.3000 0.0000 -9.1072 0.0000
# 2 60.3027 221.5799 78.8464 0.0000 -7.6450 0.0000
# 3 40.3000 78.8464 176.0240 0.0000 -50.7641 0.0000
# 4 0.0000 0.0000 0.0000 28.8670 0.0000 -9.6721
# 5 -9.1072 -7.6450 -50.7641 0.0000 23.4680 0.0000
# 6 0.0000 0.0000 0.0000 -9.6721 0.0000 5.4061
#
#
#
# Elastic Compliance Matrix: (Units=1/GPa)
#
#
# Indices 1 2 3 4 5 6 
#
# 1 0.084181 -0.019910 -0.007453 0.000000 0.010059 0.000000
# 2 -0.019910 0.010941 -0.004102 0.000000 -0.013035 0.000000
# 3 -0.007453 -0.004102 0.021281 0.000000 0.041805 0.000000
# 4 0.000000 0.000000 0.000000 0.086486 0.000000 0.154732
# 5 0.010059 -0.013035 0.041805 0.000000 0.132697 0.000000
# 6 0.000000 0.000000 0.000000 0.154732 0.000000 0.461808
#
#
# Mechanical properties :
#
#
# Convention : Reuss Voigt Hill
#
# Bulk Modulus (GPa) = 18.70136 87.47786 53.08961
# Shear Modulus (GPa) = 5.69379 28.14510 16.91945
#
# Velocity S-wave (km/s) = 1.71705 3.81753 2.95988
# Velocity P-wave (km/s) = 3.68980 8.04535 6.25868
#
# Compressibility (1/GPa) = 0.05347205
#
# Stress axis : x y z
#
# Youngs Moduli (GPa) = 11.87922 91.39527 46.99043
#
# Poissons Ratio (x) = 1.81972 0.35023
# Poissons Ratio (y) = 0.23652 0.19274
# Poissons Ratio (z) = 0.08854 0.37488
#
# Static dielectric constant tensor:
#      x y z
#    x 3.268590 0.000000 -0.990080 
#    y 0.000000 3.796940 0.000000 
#    z -0.990080 0.000000 5.670170 
# 
# 
# High freq. dielectric constant tensor:
#      x y z
#    x 1.699480 0.000000 -0.035120 
#    y 0.000000 1.771240 0.000000 
#    z -0.035120 0.000000 1.784660 
# 
# From -- ./inp_files/5202.got.cif
#   From: 2010.06.25/outbox.cif.g09.slc.cpg/sg10_3_cif.got.tgz:5202.got - 2010.06.27 22:07:45.
