data_PCOD8058800
_publ_section_title
;
Structure prediction by ZEFSAII (Michael W. Deem and Ramdas Pophale) SiO2 
 PCOD8058800
Probable space group: P 2/M
;
_chemical_formula_sum "Si O2"
_cell_formula_units_Z 28
_cell_length_a 25.157339
_cell_length_b 9.118837
_cell_length_c 19.779342
_cell_angle_alpha 90.000000
_cell_angle_beta 20.251629
_cell_angle_gamma 90.000000
_cell_volume 1570.624852
_symmetry_space_group_name_H-M "P 2/M"
_symmetry_group_IT_number 10
_symmetry_cell_setting 'monoclinic'
loop_
_space_group_symop_operation_xyz
x,y,z
-x,y,-z
-x,-y,-z
x,-y,z
loop_
_atom_site_type_symbol
_atom_site_label
_atom_site_fract_x
_atom_site_fract_y
_atom_site_fract_z
Si Si1 0.338330 0.672237 0.159528
Si Si2 0.032254 0.833427 0.540568
Si Si3 0.728812 0.328567 0.914088
Si Si4 0.588889 0.168787 0.326981
Si Si5 0.134068 0.167702 0.918409
Si Si6 0.799894 0.827543 0.307387
Si Si7 0.490558 0.327464 0.311794
O O1 0.315669 0.500000 0.198926
O O2 0.193334 0.754370 0.367218
O O3 0.336414 0.711815 0.082264
O O4 0.500000 0.724718 0.000000
O O5 0.000000 0.826466 0.500000
O O6 0.886052 0.752706 0.748154
O O7 0.041091 0.000000 0.556560
O O8 0.764460 0.500000 0.876325
O O9 0.599613 0.277173 0.120777
O O10 0.500000 0.219188 0.500000
O O11 0.768545 0.188627 0.130100
O O12 0.559478 0.273502 0.300003
O O13 0.546679 0.000000 0.359202
O O14 0.225451 0.218428 0.741538
O O15 0.096098 0.000000 0.948122
O O16 0.966554 0.238757 0.129039
O O17 0.675433 0.744796 0.501753
O O18 0.779533 0.000000 0.345004
O O19 0.472248 0.500000 0.335713
#
# Coordination Sequence:
#
# PCOD8058800 Si02
#       7
#     4   4   4   4   4   4   4
#     4   9  17  32  56  80 100 132 173 205 239 293
#     4   9  17  30  51  78 104 129 162 205 247 288
#     4   9  19  35  51  70 101 137 169 201 244 301
#     4  10  18  32  53  73  93 125 168 211 250 293
#     4   8  15  29  51  73  90 116 163 212 250 294
#     4   9  16  31  52  70  91 124 164 205 248 299
#     4  11  22  33  47  72 104 134 164 205 254 300
#
# _framework density 17.827300999999999
#
# number of rings (size 3 to 8) (size 9 to 14) (size 15 to 20)
#    0.000    2.714    1.429    1.714    0.000    3.429 
#    0.000    3.571    0.000    5.143    0.000    0.000 
#    0.000    0.000    0.000    0.000    0.000    0.000 
#
# Total GULP energy -347020.269825 kJ/mol
# GULP energy per Si atom -12393.581065 kJ/mol
# Density = 1.778672 g / cm^3
# Si number density = 17.827301 Si / 1000 Ang^3
#
#
#
# Elastic Constant Matrix: (Units=GPa)
#
#
# Indices 1 2 3 4 5 6 
#
# 1 56.1835 23.6277 48.8124 0.0000 -7.4182 0.0000
# 2 23.6277 60.9284 61.3380 0.0000 -0.9544 0.0000
# 3 48.8124 61.3380 160.6968 0.0000 -2.1710 0.0000
# 4 0.0000 0.0000 0.0000 30.3005 0.0000 -1.5902
# 5 -7.4182 -0.9544 -2.1710 0.0000 27.6722 0.0000
# 6 0.0000 0.0000 0.0000 -1.5902 0.0000 16.7303
#
#
#
# Elastic Compliance Matrix: (Units=1/GPa)
#
#
# Indices 1 2 3 4 5 6 
#
# 1 0.025610 -0.003390 -0.006401 0.000000 0.006246 0.000000
# 2 -0.003390 0.027105 -0.009326 0.000000 -0.000705 0.000000
# 3 -0.006401 -0.009326 0.011712 0.000000 -0.001119 0.000000
# 4 0.000000 0.000000 0.000000 0.033168 0.000000 0.003153
# 5 0.006246 -0.000705 -0.001119 0.000000 0.037700 0.000000
# 6 0.000000 0.000000 0.000000 0.003153 0.000000 0.060072
#
#
# Mechanical properties :
#
#
# Convention : Reuss Voigt Hill
#
# Bulk Modulus (GPa) = 38.17690 60.59610 49.38650
# Shear Modulus (GPa) = 20.63299 24.54261 22.58780
#
# Velocity S-wave (km/s) = 3.40572 3.71440 3.56340
# Velocity P-wave (km/s) = 6.07673 7.24293 6.68531
#
# Compressibility (1/GPa) = 0.02619385
#
# Stress axis : x y z
#
# Youngs Moduli (GPa) = 39.04678 36.89410 85.38406
#
# Poissons Ratio (x) = 0.12506 0.54655
# Poissons Ratio (y) = 0.13235 0.79627
# Poissons Ratio (z) = 0.24994 0.34407
#
# Static dielectric constant tensor:
#      x y z
#    x 3.120230 0.000000 -0.180030 
#    y 0.000000 3.105770 0.000000 
#    z -0.180030 0.000000 3.540930 
# 
# 
# High freq. dielectric constant tensor:
#      x y z
#    x 1.663120 0.000000 -0.020100 
#    y 0.000000 1.668240 0.000000 
#    z -0.020100 0.000000 1.702580 
# 
# From -- ./inp_files/79234.got.cif
#   From: 2010.06.25/outbox.cif.g09.slc.cpg/sg10_40_cif.got.tgz:79234.got - 2010.06.27 22:07:45.
