data_PCOD8058839
_publ_section_title
;
Structure prediction by ZEFSAII (Michael W. Deem and Ramdas Pophale) SiO2 
 PCOD8058839
Probable space group: P 2/M
;
_chemical_formula_sum "Si O2"
_cell_formula_units_Z 28
_cell_length_a 14.467823
_cell_length_b 8.715155
_cell_length_c 14.528991
_cell_angle_alpha 90.000000
_cell_angle_beta 120.561818
_cell_angle_gamma 90.000000
_cell_volume 1577.457964
_symmetry_space_group_name_H-M "P 2/M"
_symmetry_group_IT_number 10
_symmetry_cell_setting 'monoclinic'
loop_
_space_group_symop_operation_xyz
x,y,z
-x,y,-z
-x,-y,-z
x,-y,z
loop_
_atom_site_type_symbol
_atom_site_label
_atom_site_fract_x
_atom_site_fract_y
_atom_site_fract_z
Si Si1 0.990172 0.181472 0.388182
Si Si2 0.203041 0.316612 0.433585
Si Si3 0.672148 0.326512 0.332622
Si Si4 0.608991 0.317694 0.603166
Si Si5 0.396392 0.179798 0.004507
Si Si6 0.226656 0.681834 0.796259
Si Si7 0.426274 0.674528 0.213124
O O1 0.889642 0.251996 0.283942
O O2 0.000000 0.240252 0.500000
O O3 0.087739 0.236551 0.372606
O O4 0.981253 0.000000 0.382600
O O5 0.190281 0.500000 0.426331
O O6 0.256253 0.248168 0.553153
O O7 0.282109 0.262452 0.391860
O O8 0.712672 0.500000 0.346332
O O9 0.694708 0.254309 0.244570
O O10 0.550643 0.316877 0.300846
O O11 0.500000 0.249829 0.500000
O O12 0.598799 0.500000 0.594418
O O13 0.626208 0.265470 0.718308
O O14 0.402318 0.216129 0.115649
O O15 0.390948 0.000000 0.986914
O O16 0.500000 0.246493 0.000000
O O17 0.283375 0.252953 0.915970
O O18 0.219186 0.500000 0.802261
O O19 0.392024 0.500000 0.171084
#
# Coordination Sequence:
#
# PCOD8058839 Si02
#       7
#     4   4   4   4   4   4   4
#     4  11  23  36  51  76 111 147 178 216 268 321
#     4  10  18  32  53  80 110 143 181 219 262 313
#     4   9  16  26  49  80 108 136 173 216 255 305
#     4   9  16  28  53  84 111 138 175 225 270 306
#     4  11  23  36  51  76 111 147 178 216 268 321
#     4  11  21  35  56  80 104 138 184 227 264 311
#     4  10  18  32  53  80 110 143 181 219 262 313
#
# _framework density 17.750074999999999
#
# number of rings (size 3 to 8) (size 9 to 14) (size 15 to 20)
#    0.000    1.857    4.286    1.286    0.000    1.143 
#    0.000    1.429    0.000    1.714    0.000    6.000 
#    0.000    0.000    0.000    0.000    0.000    0.000 
#
# Total GULP energy -346987.938950 kJ/mol
# GULP energy per Si atom -12392.426391 kJ/mol
# Density = 1.770967 g / cm^3
# Si number density = 17.750075 Si / 1000 Ang^3
#
#
#
# Elastic Constant Matrix: (Units=GPa)
#
#
# Indices 1 2 3 4 5 6 
#
# 1 114.0806 27.9736 49.8887 0.0000 -5.4900 0.0000
# 2 27.9736 52.2825 31.6171 0.0000 4.2434 0.0000
# 3 49.8887 31.6171 108.7246 0.0000 3.0428 0.0000
# 4 0.0000 0.0000 0.0000 12.2487 0.0000 -2.2784
# 5 -5.4900 4.2434 3.0428 0.0000 25.8264 0.0000
# 6 0.0000 0.0000 0.0000 -2.2784 0.0000 16.4041
#
#
#
# Elastic Compliance Matrix: (Units=1/GPa)
#
#
# Indices 1 2 3 4 5 6 
#
# 1 0.011833 -0.003985 -0.004374 0.000000 0.003686 0.000000
# 2 -0.003985 0.024789 -0.005260 0.000000 -0.004300 0.000000
# 3 -0.004374 -0.005260 0.012778 0.000000 -0.001571 0.000000
# 4 0.000000 0.000000 0.000000 0.083807 0.000000 0.011640
# 5 0.003686 -0.004300 -0.001571 0.000000 0.040395 0.000000
# 6 0.000000 0.000000 0.000000 0.011640 0.000000 0.062577
#
#
# Mechanical properties :
#
#
# Convention : Reuss Voigt Hill
#
# Bulk Modulus (GPa) = 45.12152 54.89408 50.00780
# Shear Modulus (GPa) = 18.46355 21.93640 20.19998
#
# Velocity S-wave (km/s) = 3.22871 3.51928 3.37712
# Velocity P-wave (km/s) = 6.27495 6.89253 6.59098
#
# Compressibility (1/GPa) = 0.02216237
#
# Stress axis : x y z
#
# Youngs Moduli (GPa) = 84.50885 40.34064 78.25981
#
# Poissons Ratio (x) = 0.16077 0.34230
# Poissons Ratio (y) = 0.33680 0.41161
# Poissons Ratio (z) = 0.36963 0.21217
#
# Static dielectric constant tensor:
#      x y z
#    x 3.413390 0.000000 -0.106470 
#    y 0.000000 2.978220 0.000000 
#    z -0.106470 0.000000 3.267570 
# 
# 
# High freq. dielectric constant tensor:
#      x y z
#    x 1.680590 0.000000 -0.002180 
#    y 0.000000 1.658460 0.000000 
#    z -0.002180 0.000000 1.680970 
# 
# From -- ./inp_files/65935.got.cif
#   From: 2010.06.25/outbox.cif.g09.slc.cpg/sg10_33_cif.got.tgz:65935.got - 2010.06.27 22:07:45.
