data_PCOD8058526
_publ_section_title
;
Structure prediction by ZEFSAII (Michael W. Deem and Ramdas Pophale) SiO2 
 PCOD8058526
Probable space group: P 2/M
;
_chemical_formula_sum "Si O2"
_cell_formula_units_Z 28
_cell_length_a 15.018577
_cell_length_b 9.496758
_cell_length_c 16.779821
_cell_angle_alpha 90.000000
_cell_angle_beta 45.425055
_cell_angle_gamma 90.000000
_cell_volume 1704.804407
_symmetry_space_group_name_H-M "P 2/M"
_symmetry_group_IT_number 10
_symmetry_cell_setting 'monoclinic'
loop_
_space_group_symop_operation_xyz
x,y,z
-x,y,-z
-x,-y,-z
x,-y,z
loop_
_atom_site_type_symbol
_atom_site_label
_atom_site_fract_x
_atom_site_fract_y
_atom_site_fract_z
Si Si1 0.013053 0.663188 0.201594
Si Si2 0.661025 0.838166 0.248483
Si Si3 0.377690 0.165467 0.398337
Si Si4 0.197533 0.333086 0.409289
Si Si5 0.875436 0.337026 0.034004
Si Si6 0.235202 0.837731 0.646630
Si Si7 0.946021 0.665532 0.650151
O O1 0.974187 0.500000 0.231852
O O2 0.077762 0.713637 0.243794
O O3 0.888353 0.748094 0.262599
O O4 0.111061 0.688061 0.069149
O O5 0.522043 0.791665 0.312599
O O6 0.755923 0.747328 0.137356
O O7 0.676289 0.813119 0.333048
O O8 0.685753 0.000000 0.211150
O O9 0.320266 0.250406 0.360167
O O10 0.310472 0.213412 0.522009
O O11 0.360865 0.000000 0.394478
O O12 0.222230 0.500000 0.399536
O O13 0.164000 0.282338 0.339952
O O14 0.082751 0.281797 0.537138
O O15 0.854408 0.500000 0.068311
O O16 0.000000 0.281581 0.000000
O O17 0.195585 0.000000 0.663410
O O18 0.948210 0.500000 0.639141
#
# Coordination Sequence:
#
# PCOD8058526 Si02
#       7
#     4   4   4   4   4   4   4
#     4  10  18  31  51  72 100 129 154 194 245 286
#     4  10  21  35  50  67  96 136 168 194 233 287
#     4  10  20  33  48  71 101 130 160 198 241 283
#     4   9  16  29  50  73  96 125 160 195 236 291
#     4  10  20  33  50  73  98 124 160 207 244 273
#     4  10  19  31  48  71  98 129 162 194 232 286
#     4   8  15  28  48  73  98 125 157 192 238 291
#
# _framework density 16.424173
#
# number of rings (size 3 to 8) (size 9 to 14) (size 15 to 20)
#    0.000    2.429    2.857    1.286    0.000    3.143 
#    0.000    2.143    0.000    3.429    0.000    6.000 
#    0.000    0.000    0.000    0.000    0.000    0.000 
#
# Total GULP energy -347146.773511 kJ/mol
# GULP energy per Si atom -12398.099054 kJ/mol
# Density = 1.638679 g / cm^3
# Si number density = 16.424173 Si / 1000 Ang^3
#
#
#
# Elastic Constant Matrix: (Units=GPa)
#
#
# Indices 1 2 3 4 5 6 
#
# 1 135.3141 41.6178 48.8553 0.0000 0.4281 0.0000
# 2 41.6178 42.7534 32.4034 0.0000 -8.0914 0.0000
# 3 48.8553 32.4034 73.7276 0.0000 -3.5346 0.0000
# 4 0.0000 0.0000 0.0000 21.8067 0.0000 -4.6466
# 5 0.4281 -8.0914 -3.5346 0.0000 27.8904 0.0000
# 6 0.0000 0.0000 0.0000 -4.6466 0.0000 25.3735
#
#
#
# Elastic Compliance Matrix: (Units=1/GPa)
#
#
# Indices 1 2 3 4 5 6 
#
# 1 0.011544 -0.008903 -0.003893 0.000000 -0.003253 0.000000
# 2 -0.008903 0.043944 -0.012874 0.000000 0.011254 0.000000
# 3 -0.003893 -0.012874 0.021757 0.000000 -0.000918 0.000000
# 4 0.000000 0.000000 0.000000 0.047720 0.000000 0.008739
# 5 -0.003253 0.011254 -0.000918 0.000000 0.039053 0.000000
# 6 0.000000 0.000000 0.000000 0.008739 0.000000 0.041012
#
#
# Mechanical properties :
#
#
# Convention : Reuss Voigt Hill
#
# Bulk Modulus (GPa) = 38.60240 55.28312 46.94276
# Shear Modulus (GPa) = 18.86753 23.60868 21.23811
#
# Velocity S-wave (km/s) = 3.39302 3.79546 3.59987
# Velocity P-wave (km/s) = 6.23735 7.27599 6.77660
#
# Compressibility (1/GPa) = 0.02590512
#
# Stress axis : x y z
#
# Youngs Moduli (GPa) = 86.62332 22.75625 45.96136
#
# Poissons Ratio (x) = 0.20260 0.17892
# Poissons Ratio (y) = 0.77120 0.59173
# Poissons Ratio (z) = 0.33721 0.29298
#
# Static dielectric constant tensor:
#      x y z
#    x 3.353130 0.000000 0.212410 
#    y 0.000000 2.930130 0.000000 
#    z 0.212410 0.000000 2.984440 
# 
# 
# High freq. dielectric constant tensor:
#      x y z
#    x 1.638520 0.000000 0.011990 
#    y 0.000000 1.616820 0.000000 
#    z 0.011990 0.000000 1.612690 
# 
# From -- ./inp_files/55013.got.cif
#   From: 2010.06.25/outbox.cif.g09.slc.cpg/sg10_28_cif.got.tgz:55013.got - 2010.06.27 22:07:45.
