data_PCOD8058684
_publ_section_title
;
Structure prediction by ZEFSAII (Michael W. Deem and Ramdas Pophale) SiO2 
 PCOD8058684
Probable space group: P 2/M
;
_chemical_formula_sum "Si O2"
_cell_formula_units_Z 20
_cell_length_a 11.674010
_cell_length_b 7.697054
_cell_length_c 16.591882
_cell_angle_alpha 90.000000
_cell_angle_beta 43.664638
_cell_angle_gamma 90.000000
_cell_volume 1029.351545
_symmetry_space_group_name_H-M "P 2/M"
_symmetry_group_IT_number 10
_symmetry_cell_setting 'monoclinic'
loop_
_space_group_symop_operation_xyz
x,y,z
-x,y,-z
-x,-y,-z
x,-y,z
loop_
_atom_site_type_symbol
_atom_site_label
_atom_site_fract_x
_atom_site_fract_y
_atom_site_fract_z
Si Si1 0.490328 0.302010 0.762311
Si Si2 0.385288 0.696670 0.987698
Si Si3 0.471978 0.000000 0.648010
Si Si4 0.909580 0.808865 0.771627
Si Si5 0.841437 0.793594 0.630134
Si Si6 0.229159 0.000000 0.622273
O O1 0.428868 0.500000 0.775128
O O2 0.414648 0.221769 0.884161
O O3 0.687921 0.305001 0.669344
O O4 0.438960 0.173756 0.716228
O O5 0.445240 0.500000 0.948008
O O6 0.500000 0.783752 0.000000
O O7 0.188710 0.704088 0.109162
O O8 0.338451 0.000000 0.645588
O O9 0.658074 0.000000 0.515753
O O10 0.870469 0.723009 0.705636
O O11 0.109548 0.827893 0.683231
O O12 0.828123 0.000000 0.814459
O O13 0.000000 0.735835 0.500000
O O14 0.812935 0.000000 0.640905
#
# Coordination Sequence:
#
# PCOD8058684 Si02
#       6
#     4   4   2   4   4   2
#     4  11  23  36  58  92 118 155 202 233 296 361
#     4  10  20  35  53  83 126 160 188 233 290 355
#     4  11  22  44  67  78 122 156 192 265 292 333
#     4   9  19  33  56  85 113 144 203 235 282 359
#     4  10  18  31  54  85 122 152 185 241 300 353
#     4   9  22  42  63  88 104 158 208 237 304 357
#
# _framework density 19.429708999999999
#
# number of rings (size 3 to 8) (size 9 to 14) (size 15 to 20)
#    0.600    1.400    3.000    1.200    1.400    0.800 
#    0.000    8.000    0.000    2.400    0.000    0.000 
#    0.000    0.000    0.000    0.000    0.000    0.000 
#
# Total GULP energy -247825.856836 kJ/mol
# GULP energy per Si atom -12391.292842 kJ/mol
# Density = 1.938549 g / cm^3
# Si number density = 19.429709 Si / 1000 Ang^3
#
#
#
# Elastic Constant Matrix: (Units=GPa)
#
#
# Indices 1 2 3 4 5 6 
#
# 1 65.9238 19.3118 21.2175 0.0000 11.4876 0.0000
# 2 19.3118 57.3719 28.5361 0.0000 12.2151 0.0000
# 3 21.2175 28.5361 129.7893 0.0000 12.9680 0.0000
# 4 0.0000 0.0000 0.0000 3.2021 0.0000 -3.5656
# 5 11.4876 12.2151 12.9680 0.0000 31.5151 0.0000
# 6 0.0000 0.0000 0.0000 -3.5656 0.0000 12.0442
#
#
#
# Elastic Compliance Matrix: (Units=1/GPa)
#
#
# Indices 1 2 3 4 5 6 
#
# 1 0.017640 -0.004298 -0.001525 0.000000 -0.004136 0.000000
# 2 -0.004298 0.021796 -0.003548 0.000000 -0.005421 0.000000
# 3 -0.001525 -0.003548 0.008907 0.000000 -0.001734 0.000000
# 4 0.000000 0.000000 0.000000 0.465870 0.000000 0.137916
# 5 -0.004136 -0.005421 -0.001734 0.000000 0.036053 0.000000
# 6 0.000000 0.000000 0.000000 0.137916 0.000000 0.123856
#
#
# Mechanical properties :
#
#
# Convention : Reuss Voigt Hill
#
# Bulk Modulus (GPa) = 33.78355 43.46840 38.62598
# Shear Modulus (GPa) = 7.11508 21.62024 14.36766
#
# Velocity S-wave (km/s) = 1.91570 3.33940 2.72227
# Velocity P-wave (km/s) = 4.72425 6.10651 5.45930
#
# Compressibility (1/GPa) = 0.02960020
#
# Stress axis : x y z
#
# Youngs Moduli (GPa) = 56.68963 45.88020 112.26542
#
# Poissons Ratio (x) = 0.19721 0.17125
# Poissons Ratio (y) = 0.24367 0.39829
# Poissons Ratio (z) = 0.08647 0.16277
#
# Static dielectric constant tensor:
#      x y z
#    x 3.206110 0.000000 0.050020 
#    y 0.000000 3.322400 0.000000 
#    z 0.050020 0.000000 3.763220 
# 
# 
# High freq. dielectric constant tensor:
#      x y z
#    x 1.721250 0.000000 0.002000 
#    y 0.000000 1.732090 0.000000 
#    z 0.002000 0.000000 1.777520 
# 
# From -- ./inp_files/48935.got.cif
#   From: 2010.06.25/outbox.cif.g09.slc.cpg/sg10_25_cif.got.tgz:48935.got - 2010.06.27 22:07:45.
