data_PCOD8058762
_publ_section_title
;
Structure prediction by ZEFSAII (Michael W. Deem and Ramdas Pophale) SiO2 
 PCOD8058762
Probable space group: P 2/M
;
_chemical_formula_sum "Si O2"
_cell_formula_units_Z 32
_cell_length_a 12.345527
_cell_length_b 8.649386
_cell_length_c 33.445354
_cell_angle_alpha 90.000000
_cell_angle_beta 149.414527
_cell_angle_gamma 90.000000
_cell_volume 1817.178473
_symmetry_space_group_name_H-M "P 2/M"
_symmetry_group_IT_number 10
_symmetry_cell_setting 'monoclinic'
loop_
_space_group_symop_operation_xyz
x,y,z
-x,y,-z
-x,-y,-z
x,-y,z
loop_
_atom_site_type_symbol
_atom_site_label
_atom_site_fract_x
_atom_site_fract_y
_atom_site_fract_z
Si Si1 0.652724 0.319721 0.084900
Si Si2 0.025143 0.319372 0.084191
Si Si3 0.459576 0.679523 0.178607
Si Si4 0.494669 0.680713 0.336791
Si Si5 0.137896 0.174172 0.504031
Si Si6 0.940250 0.180007 0.818394
Si Si7 0.596872 0.820509 0.922489
Si Si8 0.763845 0.320673 0.346126
O O1 0.709121 0.500000 0.101508
O O2 0.538073 0.280772 0.089721
O O3 0.868148 0.220848 0.150624
O O4 0.500000 0.271800 0.000000
O O5 0.974684 0.500000 0.063521
O O6 0.247790 0.273695 0.135128
O O7 0.031201 0.279886 0.132660
O O8 0.844466 0.223918 0.003928
O O9 0.451123 0.500000 0.163662
O O10 0.486206 0.784522 0.148232
O O11 0.662049 0.715253 0.270877
O O12 0.442695 0.500000 0.320597
O O13 0.650218 0.722836 0.423178
O O14 0.277678 0.775549 0.273056
O O15 0.600667 0.734291 0.328705
O O16 0.000000 0.187966 0.500000
O O17 0.990961 0.234371 0.420985
O O18 0.208867 0.000000 0.517525
O O19 0.943175 0.000000 0.830142
O O20 0.566051 0.000000 0.922457
O O21 0.809972 0.500000 0.367210
#
# Coordination Sequence:
#
# PCOD8058762 Si02
#       8
#     4   4   4   4   4   4   4   4
#     4  11  23  40  61  77  98 138 182 221 265 321
#     4  11  21  37  56  76 104 144 184 217 259 317
#     4  10  21  37  55  76 106 145 186 220 256 315
#     4  10  18  32  51  74 105 142 180 214 255 317
#     4   9  17  28  44  72 106 139 172 214 265 312
#     4  12  23  34  54  82 110 137 172 224 275 315
#     4  12  25  38  54  79 107 137 177 227 275 314
#     4   9  17  31  50  73 102 142 182 214 253 310
#
# _framework density 17.609717
#
# number of rings (size 3 to 8) (size 9 to 14) (size 15 to 20)
#    0.000    1.500    2.500    4.125    0.000    5.500 
#    0.000    0.000    0.000    0.000    0.000    0.875 
#    0.000    7.000    0.000    0.000    0.000    0.000 
#
# Total GULP energy -396951.109016 kJ/mol
# GULP energy per Si atom -12404.722157 kJ/mol
# Density = 1.756964 g / cm^3
# Si number density = 17.609717 Si / 1000 Ang^3
#
#
#
# Elastic Constant Matrix: (Units=GPa)
#
#
# Indices 1 2 3 4 5 6 
#
# 1 53.9670 17.1959 29.1874 0.0000 -4.0234 0.0000
# 2 17.1959 64.8383 32.5032 0.0000 4.5964 0.0000
# 3 29.1874 32.5032 115.2588 0.0000 2.7960 0.0000
# 4 0.0000 0.0000 0.0000 29.2538 0.0000 1.1318
# 5 -4.0234 4.5964 2.7960 0.0000 17.2654 0.0000
# 6 0.0000 0.0000 0.0000 1.1318 0.0000 21.5595
#
#
#
# Elastic Compliance Matrix: (Units=1/GPa)
#
#
# Indices 1 2 3 4 5 6 
#
# 1 0.023017 -0.004203 -0.004820 0.000000 0.007263 0.000000
# 2 -0.004203 0.019006 -0.004165 0.000000 -0.005365 0.000000
# 3 -0.004820 -0.004165 0.011115 0.000000 -0.001814 0.000000
# 4 0.000000 0.000000 0.000000 0.034253 0.000000 -0.001798
# 5 0.007263 -0.005365 -0.001814 0.000000 0.061334 0.000000
# 6 0.000000 0.000000 0.000000 -0.001798 0.000000 0.046478
#
#
# Mechanical properties :
#
#
# Convention : Reuss Voigt Hill
#
# Bulk Modulus (GPa) = 37.36590 43.53747 40.45168
# Shear Modulus (GPa) = 21.69195 23.96093 22.82644
#
# Velocity S-wave (km/s) = 3.51353 3.69272 3.60424
# Velocity P-wave (km/s) = 6.14206 6.55430 6.35152
#
# Compressibility (1/GPa) = 0.02676237
#
# Stress axis : x y z
#
# Youngs Moduli (GPa) = 43.44556 52.61476 89.96677
#
# Poissons Ratio (x) = 0.22116 0.43360
# Poissons Ratio (y) = 0.18262 0.37473
# Poissons Ratio (z) = 0.20939 0.21915
#
# Static dielectric constant tensor:
#      x y z
#    x 3.009310 0.000000 0.081620 
#    y 0.000000 3.273890 0.000000 
#    z 0.081620 0.000000 3.440790 
# 
# 
# High freq. dielectric constant tensor:
#      x y z
#    x 1.639450 0.000000 0.006080 
#    y 0.000000 1.689440 0.000000 
#    z 0.006080 0.000000 1.687580 
# 
# From -- ./inp_files/58099.got.cif
#   From: 2010.06.25/outbox.cif.g09.slc.cpg/sg10_30_cif.got.tgz:58099.got - 2010.06.27 22:07:45.
