data_PCOD8058420
_publ_section_title
;
Structure prediction by ZEFSAII (Michael W. Deem and Ramdas Pophale) SiO2 
 PCOD8058420
Probable space group: P 2/M
;
_chemical_formula_sum "Si O2"
_cell_formula_units_Z 28
_cell_length_a 5.206388
_cell_length_b 20.193675
_cell_length_c 20.304712
_cell_angle_alpha 90.000000
_cell_angle_beta 61.057366
_cell_angle_gamma 90.000000
_cell_volume 1868.137031
_symmetry_space_group_name_H-M "P 2/M"
_symmetry_group_IT_number 10
_symmetry_cell_setting 'monoclinic'
loop_
_space_group_symop_operation_xyz
x,y,z
-x,y,-z
-x,-y,-z
x,-y,z
loop_
_atom_site_type_symbol
_atom_site_label
_atom_site_fract_x
_atom_site_fract_y
_atom_site_fract_z
Si Si1 0.326374 0.378082 0.213479
Si Si2 0.878243 0.250415 0.704512
Si Si3 0.660935 0.075905 0.548187
Si Si4 0.662896 0.422240 0.045945
Si Si5 0.533932 0.194370 0.345353
Si Si6 0.330598 0.575710 0.701012
Si Si7 0.397999 0.316801 0.585240
O O1 0.292570 0.298809 0.225090
O O2 0.518237 0.385717 0.124992
O O3 0.492537 0.409417 0.254731
O O4 0.012559 0.412758 0.242915
O O5 0.650702 0.201201 0.698291
O O6 0.120142 0.205952 0.713231
O O7 0.050765 0.297801 0.630109
O O8 0.500000 0.090089 0.500000
O O9 0.511272 0.120945 0.621747
O O10 0.000000 0.095609 0.500000
O O11 0.624269 0.000000 0.575005
O O12 0.630395 0.500000 0.061754
O O13 0.500000 0.399600 0.000000
O O14 0.000000 0.400473 0.000000
O O15 0.427036 0.251203 0.410689
O O16 0.383298 0.500000 0.673560
O O17 0.454797 0.621576 0.626909
O O18 0.500000 0.336976 0.500000
#
# Coordination Sequence:
#
# PCOD8058420 Si02
#       7
#     4   4   4   4   4   4   4
#     4  11  19  37  49  65  91 115 148 190 225 280
#     4   9  19  31  47  66  82 115 155 182 225 273
#     4  10  20  31  45  68  93 119 149 186 237 278
#     4  10  20  31  47  71  90 112 144 179 227 278
#     4  10  18  31  46  64  85 113 153 188 223 263
#     4  11  21  33  48  64  83 118 152 189 242 278
#     4   9  20  31  45  64  82 111 151 201 228 268
#
# _framework density 14.988193000000001
#
# number of rings (size 3 to 8) (size 9 to 14) (size 15 to 20)
#    0.857    1.143    1.429    3.429    2.000    1.429 
#    0.000    0.000    0.000    2.571    0.000    0.000 
#    0.000    0.000    0.000    0.000    0.000   14.286 
#
# Total GULP energy -347076.106888 kJ/mol
# GULP energy per Si atom -12395.575246 kJ/mol
# Density = 1.495408 g / cm^3
# Si number density = 14.988193 Si / 1000 Ang^3
#
#
#
# Elastic Constant Matrix: (Units=GPa)
#
#
# Indices 1 2 3 4 5 6 
#
# 1 107.4190 25.9473 18.4450 0.0000 -4.5761 0.0000
# 2 25.9473 79.9925 24.0055 0.0000 -1.0839 0.0000
# 3 18.4450 24.0055 75.0510 0.0000 -0.0429 0.0000
# 4 0.0000 0.0000 0.0000 19.6322 0.0000 0.0746
# 5 -4.5761 -1.0839 -0.0429 0.0000 16.2107 0.0000
# 6 0.0000 0.0000 0.0000 0.0746 0.0000 15.1012
#
#
#
# Elastic Compliance Matrix: (Units=1/GPa)
#
#
# Indices 1 2 3 4 5 6 
#
# 1 0.010395 -0.002841 -0.001644 0.000000 0.002740 0.000000
# 2 -0.002841 0.014619 -0.003977 0.000000 0.000165 0.000000
# 3 -0.001644 -0.003977 0.015000 0.000000 -0.000690 0.000000
# 4 0.000000 0.000000 0.000000 0.050938 0.000000 -0.000252
# 5 0.002740 0.000165 -0.000690 0.000000 0.062470 0.000000
# 6 0.000000 0.000000 0.000000 -0.000252 0.000000 0.066221
#
#
# Mechanical properties :
#
#
# Convention : Reuss Voigt Hill
#
# Bulk Modulus (GPa) = 43.31336 44.36202 43.83769
# Shear Modulus (GPa) = 20.46961 23.12646 21.79804
#
# Velocity S-wave (km/s) = 3.69957 3.93234 3.81773
# Velocity P-wave (km/s) = 6.87096 7.09084 6.98176
#
# Compressibility (1/GPa) = 0.02308757
#
# Stress axis : x y z
#
# Youngs Moduli (GPa) = 96.20282 68.40589 66.66560
#
# Poissons Ratio (x) = 0.19435 0.10962
# Poissons Ratio (y) = 0.27333 0.26516
# Poissons Ratio (z) = 0.15819 0.27208
#
# Static dielectric constant tensor:
#      x y z
#    x 3.926020 0.000000 -0.009750 
#    y 0.000000 2.763260 0.000000 
#    z -0.009750 0.000000 2.592020 
# 
# 
# High freq. dielectric constant tensor:
#      x y z
#    x 1.596830 0.000000 -0.004080 
#    y 0.000000 1.554840 0.000000 
#    z -0.004080 0.000000 1.535060 
# 
# From -- ./inp_files/81430.got.cif
#   From: 2010.06.25/outbox.cif.g09.slc.cpg/sg10_41_cif.got.tgz:81430.got - 2010.06.27 22:07:45.
