data_PCOD8058061
_publ_section_title
;
Structure prediction by ZEFSAII (Michael W. Deem and Ramdas Pophale) SiO2 
 PCOD8058061
Probable space group: P 2/M
;
_chemical_formula_sum "Si O2"
_cell_formula_units_Z 32
_cell_length_a 24.668556
_cell_length_b 9.110629
_cell_length_c 13.903150
_cell_angle_alpha 90.000000
_cell_angle_beta 30.244704
_cell_angle_gamma 90.000000
_cell_volume 1573.882066
_symmetry_space_group_name_H-M "P 2/M"
_symmetry_group_IT_number 10
_symmetry_cell_setting 'monoclinic'
loop_
_space_group_symop_operation_xyz
x,y,z
-x,y,-z
-x,-y,-z
x,-y,z
loop_
_atom_site_type_symbol
_atom_site_label
_atom_site_fract_x
_atom_site_fract_y
_atom_site_fract_z
Si Si1 0.216480 0.334689 0.584199
Si Si2 0.339934 0.329235 0.052562
Si Si3 0.010956 0.333544 0.275618
Si Si4 0.867096 0.665915 0.092685
Si Si5 0.567560 0.668682 0.626529
Si Si6 0.198382 0.172527 0.417158
Si Si7 0.759085 0.670733 0.996928
Si Si8 0.326764 0.827401 0.699015
O O1 0.210174 0.500000 0.551301
O O2 0.120662 0.311101 0.810857
O O3 0.330287 0.307806 0.461626
O O4 0.204713 0.217729 0.518515
O O5 0.335492 0.500000 0.086478
O O6 0.299601 0.237939 0.205516
O O7 0.263596 0.293357 0.078966
O O8 0.461484 0.277672 0.845189
O O9 0.982173 0.500000 0.348502
O O10 0.912690 0.231737 0.458792
O O11 0.118666 0.281776 0.165306
O O12 0.024541 0.320667 0.137488
O O13 0.819069 0.500000 0.150131
O O14 0.785838 0.787250 0.177977
O O15 0.553072 0.500000 0.618561
O O16 0.577618 0.761221 0.512661
O O17 0.200680 0.000000 0.404961
O O18 0.742693 0.500000 0.045202
O O19 0.673811 0.759611 0.192880
O O20 0.342238 0.000000 0.682709
#
# Coordination Sequence:
#
# PCOD8058061 Si02
#       8
#     4   4   4   4   4   4   4   4
#     4   9  18  36  60  83 109 142 181 224 271 323
#     4  10  22  41  62  81 103 140 192 238 271 314
#     4   9  18  36  60  83 109 142 181 224 271 323
#     4   8  16  33  58  85 110 140 182 227 269 319
#     4   9  19  37  61  85 109 141 183 229 272 318
#     4  12  26  39  52  77 113 148 184 228 277 330
#     4   9  19  37  61  85 109 141 183 229 272 318
#     4  10  18  29  52  85 120 150 174 211 269 333
#
# _framework density 20.331893000000001
#
# number of rings (size 3 to 8) (size 9 to 14) (size 15 to 20)
#    0.000    2.500    0.000    3.750    0.000    7.000 
#    0.000   10.000    0.000    0.000    0.000    0.000 
#    0.000    0.000    0.000    0.000    0.000    0.000 
#
# Total GULP energy -396711.550664 kJ/mol
# GULP energy per Si atom -12397.235958 kJ/mol
# Density = 2.028562 g / cm^3
# Si number density = 20.331893 Si / 1000 Ang^3
#
#
#
# Elastic Constant Matrix: (Units=GPa)
#
#
# Indices 1 2 3 4 5 6 
#
# 1 29.5923 12.1145 -3.1083 0.0000 9.2149 0.0000
# 2 12.1145 90.8114 40.5633 0.0000 4.7331 0.0000
# 3 -3.1083 40.5633 98.2848 0.0000 4.5444 0.0000
# 4 0.0000 0.0000 0.0000 18.2349 0.0000 2.4417
# 5 9.2149 4.7331 4.5444 0.0000 24.0989 0.0000
# 6 0.0000 0.0000 0.0000 2.4417 0.0000 14.3708
#
#
#
# Elastic Compliance Matrix: (Units=1/GPa)
#
#
# Indices 1 2 3 4 5 6 
#
# 1 0.042047 -0.007002 0.004942 0.000000 -0.015635 0.000000
# 2 -0.007002 0.014729 -0.006346 0.000000 0.000981 0.000000
# 3 0.004942 -0.006346 0.013094 0.000000 -0.003113 0.000000
# 4 0.000000 0.000000 0.000000 0.056117 0.000000 -0.009535
# 5 -0.015635 0.000981 -0.003113 0.000000 0.047868 0.000000
# 6 0.000000 0.000000 0.000000 -0.009535 0.000000 0.071205
#
#
# Mechanical properties :
#
#
# Convention : Reuss Voigt Hill
#
# Bulk Modulus (GPa) = 18.84690 35.31417 27.08053
# Shear Modulus (GPa) = 17.88545 22.61552 20.25049
#
# Velocity S-wave (km/s) = 2.96915 3.33876 3.15936
# Velocity P-wave (km/s) = 4.58740 5.68064 5.16304
#
# Compressibility (1/GPa) = 0.05305913
#
# Stress axis : x y z
#
# Youngs Moduli (GPa) = 23.78310 67.89204 76.37257
#
# Poissons Ratio (x) = 0.47537 -0.37746
# Poissons Ratio (y) = 0.16653 0.48464
# Poissons Ratio (z) = -0.11755 0.43083
#
# Static dielectric constant tensor:
#      x y z
#    x 3.556470 0.000000 0.092980 
#    y 0.000000 3.391850 0.000000 
#    z 0.092980 0.000000 3.832750 
# 
# 
# High freq. dielectric constant tensor:
#      x y z
#    x 1.782720 0.000000 0.006370 
#    y 0.000000 1.768680 0.000000 
#    z 0.006370 0.000000 1.800180 
# 
# From -- ./inp_files/72201.got.cif
#   From: 2010.06.25/outbox.cif.g09.slc.cpg/sg10_37_cif.got.tgz:72201.got - 2010.06.27 22:07:45.
