data_PCOD8058895
_publ_section_title
;
Structure prediction by ZEFSAII (Michael W. Deem and Ramdas Pophale) SiO2 
 PCOD8058895
Probable space group: P 2/M
;
_chemical_formula_sum "Si O2"
_cell_formula_units_Z 28
_cell_length_a 18.754752
_cell_length_b 14.117217
_cell_length_c 9.976750
_cell_angle_alpha 90.000000
_cell_angle_beta 37.827221
_cell_angle_gamma 90.000000
_cell_volume 1619.981280
_symmetry_space_group_name_H-M "P 2/M"
_symmetry_group_IT_number 10
_symmetry_cell_setting 'monoclinic'
loop_
_space_group_symop_operation_xyz
x,y,z
-x,y,-z
-x,-y,-z
x,-y,z
loop_
_atom_site_type_symbol
_atom_site_label
_atom_site_fract_x
_atom_site_fract_y
_atom_site_fract_z
Si Si1 0.455970 0.894639 0.214112
Si Si2 0.036607 0.105804 0.791573
Si Si3 0.054486 0.607119 0.277653
Si Si4 0.902850 0.394194 0.247174
Si Si5 0.397192 0.108182 0.750057
Si Si6 0.761899 0.775997 0.412507
Si Si7 0.824672 0.215506 0.011424
O O1 0.563684 0.882934 0.154440
O O2 0.368412 0.809034 0.370558
O O3 0.399704 0.000000 0.319898
O O4 0.500000 0.883836 0.000000
O O5 0.157449 0.161925 0.608533
O O6 0.055496 0.000000 0.708590
O O7 0.000000 0.104107 0.000000
O O8 0.944597 0.155971 0.828586
O O9 0.106940 0.500000 0.208097
O O10 0.000000 0.638466 0.500000
O O11 0.950191 0.608678 0.326530
O O12 0.154745 0.680121 0.082178
O O13 0.871607 0.500000 0.246096
O O14 0.784543 0.333581 0.417188
O O15 0.000000 0.350841 0.000000
O O16 0.500000 0.146907 0.500000
O O17 0.278823 0.167371 0.917296
O O18 0.369189 0.000000 0.750249
O O19 0.786651 0.784611 0.220284
#
# Coordination Sequence:
#
# PCOD8058895 Si02
#       7
#     4   4   4   4   4   4   4
#     4  10  22  38  55  77 107 145 188 228 267 318
#     4   9  17  27  45  79 111 135 165 216 274 316
#     4  10  21  36  54  80 114 145 175 218 276 335
#     4  10  18  32  54  82 110 137 179 223 265 327
#     4  10  20  35  55  78 104 144 190 226 263 314
#     4  11  18  31  55  81 105 140 182 228 267 315
#     4  11  19  32  55  80 108 139 182 226 266 321
#
# _framework density 17.284148999999999
#
# number of rings (size 3 to 8) (size 9 to 14) (size 15 to 20)
#    0.000    1.857    4.286    1.286    0.000    2.286 
#    0.000    0.000    0.000    2.571    0.000    0.000 
#    0.000    0.000    0.000    0.000    0.000    0.000 
#
# Total GULP energy -347104.794473 kJ/mol
# GULP energy per Si atom -12396.599803 kJ/mol
# Density = 1.724481 g / cm^3
# Si number density = 17.284149 Si / 1000 Ang^3
#
#
#
# Elastic Constant Matrix: (Units=GPa)
#
#
# Indices 1 2 3 4 5 6 
#
# 1 96.2620 44.5854 42.3663 0.0000 -0.8262 0.0000
# 2 44.5854 116.8454 41.1578 0.0000 -15.1555 0.0000
# 3 42.3663 41.1578 59.0292 0.0000 2.4562 0.0000
# 4 0.0000 0.0000 0.0000 22.7733 0.0000 -4.3931
# 5 -0.8262 -15.1555 2.4562 0.0000 29.4128 0.0000
# 6 0.0000 0.0000 0.0000 -4.3931 0.0000 23.0589
#
#
#
# Elastic Compliance Matrix: (Units=1/GPa)
#
#
# Indices 1 2 3 4 5 6 
#
# 1 0.015802 -0.002731 -0.009430 0.000000 -0.000176 0.000000
# 2 -0.002731 0.013220 -0.007564 0.000000 0.007367 0.000000
# 3 -0.009430 -0.007564 0.029258 0.000000 -0.006606 0.000000
# 4 0.000000 0.000000 0.000000 0.045586 0.000000 0.008685
# 5 -0.000176 0.007367 -0.006606 0.000000 0.038342 0.000000
# 6 0.000000 0.000000 0.000000 0.008685 0.000000 0.045022
#
#
# Mechanical properties :
#
#
# Convention : Reuss Voigt Hill
#
# Bulk Modulus (GPa) = 53.10721 58.70619 55.90670
# Shear Modulus (GPa) = 21.46318 24.65080 23.05699
#
# Velocity S-wave (km/s) = 3.52772 3.78061 3.65635
# Velocity P-wave (km/s) = 6.88373 7.28673 7.08810
#
# Compressibility (1/GPa) = 0.01882983
#
# Stress axis : x y z
#
# Youngs Moduli (GPa) = 63.28356 75.64088 34.17879
#
# Poissons Ratio (x) = 0.20656 0.32230
# Poissons Ratio (y) = 0.17281 0.25854
# Poissons Ratio (z) = 0.59676 0.57218
#
# Static dielectric constant tensor:
#      x y z
#    x 3.100000 0.000000 0.202770 
#    y 0.000000 3.447920 0.000000 
#    z 0.202770 0.000000 2.770400 
# 
# 
# High freq. dielectric constant tensor:
#      x y z
#    x 1.667900 0.000000 0.011320 
#    y 0.000000 1.670020 0.000000 
#    z 0.011320 0.000000 1.632430 
# 
# From -- ./inp_files/25050.got.cif
#   From: 2010.06.25/outbox.cif.g09.slc.cpg/sg10_13_cif.got.tgz:25050.got - 2010.06.27 22:07:45.
