data_PCOD8058445
_publ_section_title
;
Structure prediction by ZEFSAII (Michael W. Deem and Ramdas Pophale) SiO2 
 PCOD8058445
Probable space group: P 2/M
;
_chemical_formula_sum "Si O2"
_cell_formula_units_Z 32
_cell_length_a 21.136640
_cell_length_b 8.672830
_cell_length_c 12.620323
_cell_angle_alpha 90.000000
_cell_angle_beta 126.798228
_cell_angle_gamma 90.000000
_cell_volume 1852.525291
_symmetry_space_group_name_H-M "P 2/M"
_symmetry_group_IT_number 10
_symmetry_cell_setting 'monoclinic'
loop_
_space_group_symop_operation_xyz
x,y,z
-x,y,-z
-x,-y,-z
x,-y,z
loop_
_atom_site_type_symbol
_atom_site_label
_atom_site_fract_x
_atom_site_fract_y
_atom_site_fract_z
Si Si1 0.003310 0.673825 0.629087
Si Si2 0.592052 0.678567 0.101913
Si Si3 0.836733 0.180454 0.212900
Si Si4 0.844605 0.820762 0.462695
Si Si5 0.323157 0.821105 0.616800
Si Si6 0.414055 0.319526 0.520851
Si Si7 0.419874 0.180778 0.302807
Si Si8 0.681831 0.679975 0.978445
O O1 0.016130 0.500000 0.681108
O O2 0.076311 0.776621 0.744037
O O3 0.000000 0.686599 0.500000
O O4 0.919845 0.735392 0.590203
O O5 0.607759 0.500000 0.145064
O O6 0.626469 0.783196 0.228996
O O7 0.633838 0.727194 0.035067
O O8 0.500000 0.714411 0.000000
O O9 0.828264 0.234785 0.326297
O O10 0.773165 0.275228 0.081890
O O11 0.821097 0.000000 0.183376
O O12 0.768546 0.781384 0.456495
O O13 0.864886 0.000000 0.481216
O O14 0.349572 0.718544 0.544614
O O15 0.335341 0.000000 0.602320
O O16 0.414200 0.500000 0.496887
O O17 0.392114 0.229057 0.392062
O O18 0.500119 0.269473 0.649430
O O19 0.436881 0.000000 0.317219
O O20 0.351556 0.223829 0.152910
O O21 0.673409 0.500000 0.945460
#
# Coordination Sequence:
#
# PCOD8058445 Si02
#       8
#     4   4   4   4   4   4   4   4
#     4   9  17  28  45  69  97 132 172 211 253 302
#     4  10  21  34  48  69 101 139 173 207 253 308
#     4  10  18  31  48  70 102 139 174 210 254 304
#     4   9  18  31  47  70 102 137 171 209 253 303
#     4  11  21  34  52  76 104 136 174 213 255 305
#     4  11  22  38  57  77 102 133 172 218 266 307
#     4  11  22  38  58  78 100 131 174 220 264 307
#     4  11  21  33  51  76 107 138 172 213 258 308
#
# _framework density 17.273717999999999
#
# number of rings (size 3 to 8) (size 9 to 14) (size 15 to 20)
#    0.000    1.750    1.250    5.250    0.000    4.750 
#    0.000    0.000    0.000    0.000    0.000    0.875 
#    0.000    7.000    0.000    0.000    0.000    0.000 
#
# Total GULP energy -396933.031115 kJ/mol
# GULP energy per Si atom -12404.157222 kJ/mol
# Density = 1.723440 g / cm^3
# Si number density = 17.273718 Si / 1000 Ang^3
#
#
#
# Elastic Constant Matrix: (Units=GPa)
#
#
# Indices 1 2 3 4 5 6 
#
# 1 80.1310 28.8741 51.0396 0.0000 13.1259 0.0000
# 2 28.8741 67.2264 21.0510 0.0000 4.0492 0.0000
# 3 51.0396 21.0510 72.5697 0.0000 9.9928 0.0000
# 4 0.0000 0.0000 0.0000 30.0863 0.0000 3.6689
# 5 13.1259 4.0492 9.9928 0.0000 22.5829 0.0000
# 6 0.0000 0.0000 0.0000 3.6689 0.0000 26.8529
#
#
#
# Elastic Compliance Matrix: (Units=1/GPa)
#
#
# Indices 1 2 3 4 5 6 
#
# 1 0.025387 -0.005712 -0.015236 0.000000 -0.006990 0.000000
# 2 -0.005712 0.017663 -0.001201 0.000000 0.000684 0.000000
# 3 -0.015236 -0.001201 0.025126 0.000000 -0.002047 0.000000
# 4 0.000000 0.000000 0.000000 0.033801 0.000000 -0.004618
# 5 -0.006990 0.000684 -0.002047 0.000000 0.049127 0.000000
# 6 0.000000 0.000000 0.000000 -0.004618 0.000000 0.037871
#
#
# Mechanical properties :
#
#
# Convention : Reuss Voigt Hill
#
# Bulk Modulus (GPa) = 41.87751 46.87294 44.37523
# Shear Modulus (GPa) = 20.72691 23.83525 22.28108
#
# Velocity S-wave (km/s) = 3.46773 3.71867 3.59539
# Velocity P-wave (km/s) = 6.35056 6.75517 6.55599
#
# Compressibility (1/GPa) = 0.02387917
#
# Stress axis : x y z
#
# Youngs Moduli (GPa) = 39.38956 56.61487 39.79989
#
# Poissons Ratio (x) = 0.32339 0.60639
# Poissons Ratio (y) = 0.22500 0.04778
# Poissons Ratio (z) = 0.60014 0.06797
#
# Static dielectric constant tensor:
#      x y z
#    x 3.234190 0.000000 0.161310 
#    y 0.000000 3.270310 0.000000 
#    z 0.161310 0.000000 3.049210 
# 
# 
# High freq. dielectric constant tensor:
#      x y z
#    x 1.656760 0.000000 0.021060 
#    y 0.000000 1.680440 0.000000 
#    z 0.021060 0.000000 1.644440 
# 
# From -- ./inp_files/55384.got.cif
#   From: 2010.06.25/outbox.cif.g09.slc.cpg/sg10_28_cif.got.tgz:55384.got - 2010.06.27 22:07:45.
