data_PCOD8058353
_publ_section_title
;
Structure prediction by ZEFSAII (Michael W. Deem and Ramdas Pophale) SiO2 
 PCOD8058353
Probable space group: P 2/M
;
_chemical_formula_sum "Si O2"
_cell_formula_units_Z 32
_cell_length_a 26.390729
_cell_length_b 9.158903
_cell_length_c 21.254021
_cell_angle_alpha 90.000000
_cell_angle_beta 20.498925
_cell_angle_gamma 90.000000
_cell_volume 1799.034339
_symmetry_space_group_name_H-M "P 2/M"
_symmetry_group_IT_number 10
_symmetry_cell_setting 'monoclinic'
loop_
_space_group_symop_operation_xyz
x,y,z
-x,y,-z
-x,-y,-z
x,-y,z
loop_
_atom_site_type_symbol
_atom_site_label
_atom_site_fract_x
_atom_site_fract_y
_atom_site_fract_z
Si Si1 0.338458 0.670945 0.707260
Si Si2 0.642772 0.167404 0.534644
Si Si3 0.453076 0.170889 0.985630
Si Si4 0.170014 0.165443 0.799443
Si Si5 0.233716 0.665005 0.072916
Si Si6 0.858754 0.170121 0.702975
Si Si7 0.330435 0.171285 0.844623
Si Si8 0.555951 0.664003 0.750433
O O1 0.500000 0.713279 0.500000
O O2 0.321579 0.500000 0.740304
O O3 0.234772 0.717740 0.771586
O O4 0.291366 0.759514 0.823376
O O5 0.776890 0.202287 0.332935
O O6 0.496771 0.207493 0.666889
O O7 0.661193 0.261521 0.576721
O O8 0.638440 0.000000 0.561216
O O9 0.557947 0.250715 0.814045
O O10 0.480361 0.000000 0.945656
O O11 0.500000 0.224925 0.000000
O O12 0.284616 0.210684 0.170262
O O13 0.219379 0.000000 0.759516
O O14 0.000000 0.181590 0.000000
O O15 0.180438 0.500000 0.123064
O O16 0.132137 0.740525 0.242828
O O17 0.224510 0.755932 0.019156
O O18 0.395997 0.668307 0.909039
O O19 0.000000 0.215387 0.500000
O O20 0.858620 0.000000 0.720423
O O21 0.298929 0.000000 0.879372
O O22 0.610433 0.500000 0.698802
#
# Coordination Sequence:
#
# PCOD8058353 Si02
#       8
#     4   4   4   4   4   4   4   4
#     4  11  22  34  52  79 108 136 169 211 260 309
#     4   9  17  30  50  75 100 129 165 209 253 297
#     4   9  17  30  49  72  97 125 158 200 244 286
#     4  10  21  37  56  77 103 136 176 215 256 307
#     4   9  17  29  46  72 103 130 162 204 252 299
#     4   9  17  30  49  72  98 128 165 201 238 291
#     4  10  18  30  52  77 102 131 168 215 259 297
#     4   9  17  28  46  72  99 127 161 203 245 292
#
# _framework density 17.787320999999999
#
# number of rings (size 3 to 8) (size 9 to 14) (size 15 to 20)
#    0.000    2.500    1.250    1.500    0.000    5.250 
#    0.000    0.000    2.750    0.000    0.000    0.000 
#    0.000    0.000    0.000    0.000    0.000    0.000 
#
# Total GULP energy -396844.361061 kJ/mol
# GULP energy per Si atom -12401.386283 kJ/mol
# Density = 1.774684 g / cm^3
# Si number density = 17.787321 Si / 1000 Ang^3
#
#
#
# Elastic Constant Matrix: (Units=GPa)
#
#
# Indices 1 2 3 4 5 6 
#
# 1 100.7620 56.2989 50.2664 0.0000 32.3469 0.0000
# 2 56.2989 95.2129 49.3685 0.0000 23.9705 0.0000
# 3 50.2664 49.3685 104.3667 0.0000 30.8835 0.0000
# 4 0.0000 0.0000 0.0000 11.5697 0.0000 13.6585
# 5 32.3469 23.9705 30.8835 0.0000 30.5909 0.0000
# 6 0.0000 0.0000 0.0000 13.6585 0.0000 15.9855
#
#
#
# Elastic Compliance Matrix: (Units=1/GPa)
#
#
# Indices 1 2 3 4 5 6 
#
# 1 0.018806 -0.006908 -0.002149 0.000000 -0.012302 0.000000
# 2 -0.006908 0.017292 -0.004285 0.000000 -0.001920 0.000000
# 3 -0.002149 -0.004285 0.015654 0.000000 -0.010174 0.000000
# 4 0.000000 0.000000 0.000000 -9.948052 0.000000 8.499885
# 5 -0.012302 -0.001920 -0.010174 0.000000 0.057473 0.000000
# 6 0.000000 0.000000 0.000000 8.499885 0.000000 -7.199976
#
#
# Mechanical properties :
#
#
# Convention : Reuss Voigt Hill
#
# Bulk Modulus (GPa) = 39.89111 68.02326 53.95718
# Shear Modulus (GPa) = -0.29405 21.25640 10.48117
#
# Velocity S-wave (km/s) = -0.40703 3.46067 2.43008
# Velocity P-wave (km/s) = 4.71747 7.36844 6.18662
#
# Compressibility (1/GPa) = 0.02506824
#
# Stress axis : x y z
#
# Youngs Moduli (GPa) = 53.17548 57.82882 63.88130
#
# Poissons Ratio (x) = 0.39949 0.13730
# Poissons Ratio (y) = 0.36734 0.27370
# Poissons Ratio (z) = 0.11429 0.24777
#
# Static dielectric constant tensor:
#      x y z
#    x 3.156150 0.000000 0.306310 
#    y 0.000000 3.380760 0.000000 
#    z 0.306310 0.000000 3.149930 
# 
# 
# High freq. dielectric constant tensor:
#      x y z
#    x 1.672450 0.000000 0.032760 
#    y 0.000000 1.693790 0.000000 
#    z 0.032760 0.000000 1.669080 
# 
# From -- ./inp_files/52719.got.cif
#   From: 2010.06.25/outbox.cif.g09.slc.cpg/sg10_27_cif.got.tgz:52719.got - 2010.06.27 22:07:45.
