data_PCOD8058107
_publ_section_title
;
Structure prediction by ZEFSAII (Michael W. Deem and Ramdas Pophale) SiO2 
 PCOD8058107
Probable space group: P 2/M
;
_chemical_formula_sum "Si O2"
_cell_formula_units_Z 32
_cell_length_a 20.585347
_cell_length_b 9.109132
_cell_length_c 14.918506
_cell_angle_alpha 90.000000
_cell_angle_beta 41.724908
_cell_angle_gamma 90.000000
_cell_volume 1861.848717
_symmetry_space_group_name_H-M "P 2/M"
_symmetry_group_IT_number 10
_symmetry_cell_setting 'monoclinic'
loop_
_space_group_symop_operation_xyz
x,y,z
-x,y,-z
-x,-y,-z
x,-y,z
loop_
_atom_site_type_symbol
_atom_site_label
_atom_site_fract_x
_atom_site_fract_y
_atom_site_fract_z
Si Si1 0.126462 0.175317 0.615518
Si Si2 0.015438 0.174795 0.083344
Si Si3 0.671858 0.664716 0.010692
Si Si4 0.962192 0.162000 0.655383
Si Si5 0.814173 0.835842 0.971694
Si Si6 0.492027 0.173923 0.112132
Si Si7 0.179918 0.662579 0.304410
Si Si8 0.704882 0.675022 0.642948
O O1 0.229640 0.260115 0.505508
O O2 0.073715 0.225656 0.761492
O O3 0.060781 0.229553 0.597752
O O4 0.140958 0.000000 0.597909
O O5 0.017709 0.000000 0.079776
O O6 0.119954 0.228874 0.014695
O O7 0.000000 0.240790 0.000000
O O8 0.632729 0.500000 0.070469
O O9 0.721152 0.730921 0.050059
O O10 0.585997 0.771475 0.068632
O O11 0.753429 0.659325 0.851249
O O12 0.919635 0.247866 0.612598
O O13 0.985175 0.000000 0.597181
O O14 0.881135 0.156881 0.815475
O O15 0.776236 0.000000 0.033342
O O16 0.400957 0.252932 0.252358
O O17 0.481900 0.000000 0.132641
O O18 0.500000 0.221046 0.000000
O O19 0.146466 0.500000 0.366147
O O20 0.243813 0.730946 0.318509
O O21 0.694992 0.500000 0.646677
#
# Coordination Sequence:
#
# PCOD8058107 Si02
#       8
#     4   4   4   4   4   4   4   4
#     4   9  18  32  47  68  96 124 159 199 237 282
#     4   8  14  28  53  80 103 128 158 195 238 285
#     4  10  18  30  47  66  94 128 162 201 244 284
#     4   8  15  27  43  61  87 122 157 195 233 270
#     4   8  14  26  45  71  98 123 158 197 235 282
#     4  11  22  34  50  70  90 120 165 213 251 281
#     4   9  18  29  42  61  86 121 162 199 232 274
#     4  11  22  34  46  63  92 128 164 200 242 286
#
# _framework density 17.187218000000001
#
# number of rings (size 3 to 8) (size 9 to 14) (size 15 to 20)
#    0.000    2.750    1.250    2.625    0.000    3.000 
#    0.000    4.375    0.000    1.500    0.000    0.875 
#    0.000    7.000    0.000    0.000    0.000    0.000 
#
# Total GULP energy -396650.895877 kJ/mol
# GULP energy per Si atom -12395.340496 kJ/mol
# Density = 1.714810 g / cm^3
# Si number density = 17.187218 Si / 1000 Ang^3
#
#
#
# Elastic Constant Matrix: (Units=GPa)
#
#
# Indices 1 2 3 4 5 6 
#
# 1 104.7900 32.7418 39.5866 0.0000 -3.9743 0.0000
# 2 32.7418 66.6882 27.3468 0.0000 -12.0228 0.0000
# 3 39.5866 27.3468 58.3358 0.0000 -11.7393 0.0000
# 4 0.0000 0.0000 0.0000 16.0213 0.0000 -4.3844
# 5 -3.9743 -12.0228 -11.7393 0.0000 25.7659 0.0000
# 6 0.0000 0.0000 0.0000 -4.3844 0.0000 16.5013
#
#
#
# Elastic Compliance Matrix: (Units=1/GPa)
#
#
# Indices 1 2 3 4 5 6 
#
# 1 0.013746 -0.004039 -0.008132 0.000000 -0.003470 0.000000
# 2 -0.004039 0.020398 -0.005539 0.000000 0.006371 0.000000
# 3 -0.008132 -0.005539 0.026956 0.000000 0.008443 0.000000
# 4 0.000000 0.000000 0.000000 0.067311 0.000000 0.017885
# 5 -0.003470 0.006371 0.008443 0.000000 0.045095 0.000000
# 6 0.000000 0.000000 0.000000 0.017885 0.000000 0.065353
#
#
# Mechanical properties :
#
#
# Convention : Reuss Voigt Hill
#
# Bulk Modulus (GPa) = 38.94296 47.68494 43.31395
# Shear Modulus (GPa) = 17.67772 20.33361 19.00566
#
# Velocity S-wave (km/s) = 3.21056 3.44330 3.32897
# Velocity P-wave (km/s) = 6.03746 6.60402 6.32709
#
# Compressibility (1/GPa) = 0.02567858
#
# Stress axis : x y z
#
# Youngs Moduli (GPa) = 72.75051 49.02322 37.09686
#
# Poissons Ratio (x) = 0.19802 0.30169
# Poissons Ratio (y) = 0.29387 0.20549
# Poissons Ratio (z) = 0.59164 0.27155
#
# Static dielectric constant tensor:
#      x y z
#    x 3.334900 0.000000 -0.065010 
#    y 0.000000 3.242710 0.000000 
#    z -0.065010 0.000000 3.007060 
# 
# 
# High freq. dielectric constant tensor:
#      x y z
#    x 1.651350 0.000000 -0.018810 
#    y 0.000000 1.653870 0.000000 
#    z -0.018810 0.000000 1.634010 
# 
# From -- ./inp_files/69989.got.cif
#   From: 2010.06.25/outbox.cif.g09.slc.cpg/sg10_35_cif.got.tgz:69989.got - 2010.06.27 22:07:45.
