data_PCOD8058248
_publ_section_title
;
Structure prediction by ZEFSAII (Michael W. Deem and Ramdas Pophale) SiO2 
 PCOD8058248
Probable space group: P 2/M
;
_chemical_formula_sum "Si O2"
_cell_formula_units_Z 32
_cell_length_a 14.210189
_cell_length_b 9.326109
_cell_length_c 14.838208
_cell_angle_alpha 90.000000
_cell_angle_beta 72.727653
_cell_angle_gamma 90.000000
_cell_volume 1877.766578
_symmetry_space_group_name_H-M "P 2/M"
_symmetry_group_IT_number 10
_symmetry_cell_setting 'monoclinic'
loop_
_space_group_symop_operation_xyz
x,y,z
-x,y,-z
-x,-y,-z
x,-y,z
loop_
_atom_site_type_symbol
_atom_site_label
_atom_site_fract_x
_atom_site_fract_y
_atom_site_fract_z
Si Si1 0.008762 0.161439 0.896186
Si Si2 0.502577 0.666570 0.100385
Si Si3 0.788243 0.162863 0.950268
Si Si4 0.298237 0.330965 0.869588
Si Si5 0.123979 0.670300 0.375912
Si Si6 0.830715 0.332442 0.253613
Si Si7 0.096667 0.330031 0.581338
Si Si8 0.713270 0.332744 0.807925
O O1 0.900218 0.164651 0.883872
O O2 0.075946 0.265680 0.820995
O O3 0.052721 0.000000 0.882737
O O4 0.000000 0.218346 0.000000
O O5 0.522880 0.500000 0.080999
O O6 0.592278 0.726516 0.136567
O O7 0.401506 0.692511 0.185128
O O8 0.500000 0.736166 0.000000
O O9 0.723424 0.249772 0.898252
O O10 0.749402 0.000000 0.969940
O O11 0.779688 0.241978 0.048965
O O12 0.285684 0.500000 0.892220
O O13 0.270502 0.297594 0.772137
O O14 0.131005 0.500000 0.373385
O O15 0.137620 0.729840 0.474347
O O16 0.213286 0.731291 0.288976
O O17 0.016748 0.721260 0.370103
O O18 0.851075 0.500000 0.248922
O O19 0.831988 0.276570 0.357329
O O20 0.095615 0.500000 0.574776
O O21 0.735064 0.500000 0.819111
#
# Coordination Sequence:
#
# PCOD8058248 Si02
#       8
#     4   4   4   4   4   4   4   4
#     4  10  20  32  42  58  92 128 149 174 221 274
#     4   9  16  28  45  64  89 119 151 191 230 264
#     4  11  21  31  44  64  92 123 149 184 227 269
#     4  10  19  31  45  63  88 121 155 188 224 263
#     4   8  14  25  45  68  91 116 143 181 229 279
#     4  10  19  29  47  69  89 117 156 195 221 256
#     4   8  14  26  42  68  97 113 137 187 238 264
#     4  10  18  30  50  69  86 117 158 190 221 272
#
# _framework density 17.041520999999999
#
# number of rings (size 3 to 8) (size 9 to 14) (size 15 to 20)
#    0.000    2.500    2.500    1.875    0.000    2.250 
#    0.000    1.250    0.000    1.500    0.000    8.750 
#    0.000    0.000    0.000    3.375    0.000    4.000 
#
# Total GULP energy -396489.001206 kJ/mol
# GULP energy per Si atom -12390.281288 kJ/mol
# Density = 1.700273 g / cm^3
# Si number density = 17.041521 Si / 1000 Ang^3
#
#
#
# Elastic Constant Matrix: (Units=GPa)
#
#
# Indices 1 2 3 4 5 6 
#
# 1 101.5012 17.2951 53.0507 0.0000 16.0967 0.0000
# 2 17.2951 26.7412 16.8997 0.0000 6.3527 0.0000
# 3 53.0507 16.8997 101.9551 0.0000 17.9129 0.0000
# 4 0.0000 0.0000 0.0000 2.2372 0.0000 1.5314
# 5 16.0967 6.3527 17.9129 0.0000 30.8508 0.0000
# 6 0.0000 0.0000 0.0000 1.5314 0.0000 9.7001
#
#
#
# Elastic Compliance Matrix: (Units=1/GPa)
#
#
# Indices 1 2 3 4 5 6 
#
# 1 0.014340 -0.004677 -0.006170 0.000000 -0.002936 0.000000
# 2 -0.004677 0.044031 -0.004121 0.000000 -0.004234 0.000000
# 3 -0.006170 -0.004121 0.014463 0.000000 -0.004329 0.000000
# 4 0.000000 0.000000 0.000000 0.501138 0.000000 -0.079119
# 5 -0.002936 -0.004234 -0.004329 0.000000 0.037332 0.000000
# 6 0.000000 0.000000 0.000000 -0.079119 0.000000 0.115583
#
#
# Mechanical properties :
#
#
# Convention : Reuss Voigt Hill
#
# Bulk Modulus (GPa) = 23.31219 44.96540 34.13880
# Shear Modulus (GPa) = 6.48407 18.08776 12.28591
#
# Velocity S-wave (km/s) = 1.95272 3.26144 2.68795
# Velocity P-wave (km/s) = 4.33515 6.37383 5.45065
#
# Compressibility (1/GPa) = 0.04289601
#
# Stress axis : x y z
#
# Youngs Moduli (GPa) = 69.73668 22.71150 69.14420
#
# Poissons Ratio (x) = 0.10623 0.42664
# Poissons Ratio (y) = 0.32618 0.28493
# Poissons Ratio (z) = 0.43029 0.09359
#
# Static dielectric constant tensor:
#      x y z
#    x 3.368200 0.000000 0.203270 
#    y 0.000000 2.820660 0.000000 
#    z 0.203270 0.000000 3.384140 
# 
# 
# High freq. dielectric constant tensor:
#      x y z
#    x 1.655120 0.000000 0.013870 
#    y 0.000000 1.616360 0.000000 
#    z 0.013870 0.000000 1.642460 
# 
# From -- ./inp_files/65983.got.cif
#   From: 2010.06.25/outbox.cif.g09.slc.cpg/sg10_33_cif.got.tgz:65983.got - 2010.06.27 22:07:45.
