data_PCOD8058942
_publ_section_title
;
Structure prediction by ZEFSAII (Michael W. Deem and Ramdas Pophale) SiO2 
 PCOD8058942
Probable space group: P 2/M
;
_chemical_formula_sum "Si O2"
_cell_formula_units_Z 22
_cell_length_a 10.857346
_cell_length_b 9.930809
_cell_length_c 11.342344
_cell_angle_alpha 90.000000
_cell_angle_beta 109.299547
_cell_angle_gamma 90.000000
_cell_volume 1154.231003
_symmetry_space_group_name_H-M "P 2/M"
_symmetry_group_IT_number 10
_symmetry_cell_setting 'monoclinic'
loop_
_space_group_symop_operation_xyz
x,y,z
-x,y,-z
-x,-y,-z
x,-y,z
loop_
_atom_site_type_symbol
_atom_site_label
_atom_site_fract_x
_atom_site_fract_y
_atom_site_fract_z
Si Si1 0.771978 0.653764 0.572829
Si Si2 0.137894 0.154821 0.990229
Si Si3 0.797485 0.851020 0.252253
Si Si4 0.697998 0.342823 0.801151
Si Si5 0.608546 0.343836 0.305489
Si Si6 0.000000 0.759686 0.500000
O O1 0.738290 0.500000 0.584419
O O2 0.758063 0.718513 0.698353
O O3 0.661928 0.710084 0.448553
O O4 0.915941 0.668868 0.563400
O O5 0.247755 0.253574 0.075666
O O6 0.171248 0.000000 0.033210
O O7 0.130039 0.176888 0.847764
O O8 0.000000 0.198694 0.000000
O O9 0.682305 0.742132 0.228899
O O10 0.903607 0.848813 0.390752
O O11 0.734509 0.000000 0.232610
O O12 0.733103 0.500000 0.833185
O O13 0.543833 0.320699 0.750153
O O14 0.647048 0.500000 0.299044
#
# Coordination Sequence:
#
# PCOD8058942 Si02
#       6
#     4   4   4   4   4   2
#     4   9  17  31  53  81 110 138 171 213 262 311
#     4  10  22  39  55  75 106 141 174 211 261 315
#     4  10  21  36  55  78 105 137 174 217 262 310
#     4  10  20  35  56  80 106 139 177 215 256 305
#     4   9  19  35  55  79 107 138 173 216 262 307
#     4  10  18  32  56  80 105 134 173 218 263 308
#
# _framework density 19.060310000000001
#
# number of rings (size 3 to 8) (size 9 to 14) (size 15 to 20)
#    0.000    2.364    0.000    2.182    0.000    5.455 
#    0.000    7.273    0.000    5.455    0.000    0.000 
#    0.000    0.000    0.000    0.000    0.000    0.000 
#
# Total GULP energy -272747.946149 kJ/mol
# GULP energy per Si atom -12397.633916 kJ/mol
# Density = 1.901693 g / cm^3
# Si number density = 19.060310 Si / 1000 Ang^3
#
#
#
# Elastic Constant Matrix: (Units=GPa)
#
#
# Indices 1 2 3 4 5 6 
#
# 1 109.0378 43.1866 45.7138 0.0000 -7.5397 0.0000
# 2 43.1866 69.9291 42.7438 0.0000 -1.3993 0.0000
# 3 45.7138 42.7438 91.1560 0.0000 -10.2810 0.0000
# 4 0.0000 0.0000 0.0000 26.0378 0.0000 -1.7642
# 5 -7.5397 -1.3993 -10.2810 0.0000 32.3808 0.0000
# 6 0.0000 0.0000 0.0000 -1.7642 0.0000 27.8754
#
#
#
# Elastic Compliance Matrix: (Units=1/GPa)
#
#
# Indices 1 2 3 4 5 6 
#
# 1 0.013133 -0.005839 -0.003663 0.000000 0.001643 0.000000
# 2 -0.005839 0.022793 -0.008092 0.000000 -0.002944 0.000000
# 3 -0.003663 -0.008092 0.017077 0.000000 0.004220 0.000000
# 4 0.000000 0.000000 0.000000 0.038571 0.000000 0.002441
# 5 0.001643 -0.002944 0.004220 0.000000 0.032478 0.000000
# 6 0.000000 0.000000 0.000000 0.002441 0.000000 0.036028
#
#
# Mechanical properties :
#
#
# Convention : Reuss Voigt Hill
#
# Bulk Modulus (GPa) = 56.12794 59.26792 57.69793
# Shear Modulus (GPa) = 24.85005 26.49070 25.67037
#
# Velocity S-wave (km/s) = 3.61468 3.73209 3.67385
# Velocity P-wave (km/s) = 6.85074 7.05222 6.95221
#
# Compressibility (1/GPa) = 0.01781644
#
# Stress axis : x y z
#
# Youngs Moduli (GPa) = 76.14428 43.87245 58.55702
#
# Poissons Ratio (x) = 0.25616 0.21449
# Poissons Ratio (y) = 0.44459 0.47384
# Poissons Ratio (z) = 0.27891 0.35501
#
# Static dielectric constant tensor:
#      x y z
#    x 3.457970 0.000000 -0.141230 
#    y 0.000000 3.351540 0.000000 
#    z -0.141230 0.000000 3.562070 
# 
# 
# High freq. dielectric constant tensor:
#      x y z
#    x 1.742620 0.000000 -0.007910 
#    y 0.000000 1.724650 0.000000 
#    z -0.007910 0.000000 1.744640 
# 
# From -- ./inp_files/45013.got.cif
#   From: 2010.06.25/outbox.cif.g09.slc.cpg/sg10_23_cif.got.tgz:45013.got - 2010.06.27 22:07:45.
