data_PCOD8058710
_publ_section_title
;
Structure prediction by ZEFSAII (Michael W. Deem and Ramdas Pophale) SiO2 
 PCOD8058710
Probable space group: P 2/M
;
_chemical_formula_sum "Si O2"
_cell_formula_units_Z 30
_cell_length_a 12.053483
_cell_length_b 17.419821
_cell_length_c 9.913666
_cell_angle_alpha 90.000000
_cell_angle_beta 127.506789
_cell_angle_gamma 90.000000
_cell_volume 1651.268492
_symmetry_space_group_name_H-M "P 2/M"
_symmetry_group_IT_number 10
_symmetry_cell_setting 'monoclinic'
loop_
_space_group_symop_operation_xyz
x,y,z
-x,y,-z
-x,-y,-z
x,-y,z
loop_
_atom_site_type_symbol
_atom_site_label
_atom_site_fract_x
_atom_site_fract_y
_atom_site_fract_z
Si Si1 0.641495 0.913706 0.529396
Si Si2 0.815820 0.819383 0.138724
Si Si3 0.349114 0.696265 0.837864
Si Si4 0.091483 0.588916 0.699462
Si Si5 0.025243 0.303853 0.175910
Si Si6 0.244511 0.764231 0.511123
Si Si7 0.148180 0.914764 0.074757
Si Si8 0.000000 0.176067 0.500000
O O1 0.500000 0.890329 0.500000
O O2 0.682139 0.847683 0.453290
O O3 0.763957 0.915067 0.726655
O O4 0.628142 0.000000 0.453965
O O5 0.685954 0.777540 0.113557
O O6 0.915229 0.758141 0.143239
O O7 0.910033 0.868845 0.318877
O O8 0.765352 0.875222 0.982524
O O9 0.240203 0.630837 0.797110
O O10 0.351269 0.710717 0.676121
O O11 0.500000 0.668554 0.000000
O O12 0.123904 0.500000 0.744505
O O13 0.000000 0.604628 0.500000
O O14 0.004167 0.617839 0.764534
O O15 0.185889 0.274104 0.328407
O O16 0.000000 0.319884 0.000000
O O17 0.109475 0.768072 0.507961
O O18 0.114806 0.000000 0.998716
O O19 0.000000 0.872896 0.000000
#
# Coordination Sequence:
#
# PCOD8058710 Si02
#       8
#     4   4   4   4   4   4   4   2
#     4  10  22  36  51  72 106 151 190 225 280 340
#     4   9  17  30  50  72 108 132 173 224 276 311
#     4  10  21  34  54  83 106 139 183 222 268 331
#     4  10  20  38  61  82 112 149 178 215 272 336
#     4  10  18  31  56  88 110 138 179 230 273 319
#     4  10  18  34  55  78 113 142 183 239 283 320
#     4  10  19  32  50  73  99 136 183 227 272 327
#     4   8  16  30  49  74  97 134 170 226 280 326
#
# _framework density 18.167850999999999
#
# number of rings (size 3 to 8) (size 9 to 14) (size 15 to 20)
#    0.000    2.267    1.333    3.600    3.733    0.533 
#    0.000    3.333    0.000    0.800    0.000    0.933 
#    0.000    0.000    0.000    0.000    0.000    0.000 
#
# Total GULP energy -371658.589643 kJ/mol
# GULP energy per Si atom -12388.619655 kJ/mol
# Density = 1.812650 g / cm^3
# Si number density = 18.167851 Si / 1000 Ang^3
#
#
#
# Elastic Constant Matrix: (Units=GPa)
#
#
# Indices 1 2 3 4 5 6 
#
# 1 71.8723 36.9314 34.5573 0.0000 6.7461 0.0000
# 2 36.9314 84.1273 30.7008 0.0000 -4.1348 0.0000
# 3 34.5573 30.7008 94.1259 0.0000 -4.2841 0.0000
# 4 0.0000 0.0000 0.0000 24.6974 0.0000 -7.8629
# 5 6.7461 -4.1348 -4.2841 0.0000 33.5113 0.0000
# 6 0.0000 0.0000 0.0000 -7.8629 0.0000 21.1837
#
#
#
# Elastic Compliance Matrix: (Units=1/GPa)
#
#
# Indices 1 2 3 4 5 6 
#
# 1 0.020958 -0.007472 -0.005523 0.000000 -0.005847 0.000000
# 2 -0.007472 0.016198 -0.002394 0.000000 0.003197 0.000000
# 3 -0.005523 -0.002394 0.013549 0.000000 0.002549 0.000000
# 4 0.000000 0.000000 0.000000 0.045916 0.000000 0.017043
# 5 -0.005847 0.003197 0.002549 0.000000 0.031738 0.000000
# 6 0.000000 0.000000 0.000000 0.017043 0.000000 0.053532
#
#
# Mechanical properties :
#
#
# Convention : Reuss Voigt Hill
#
# Bulk Modulus (GPa) = 50.18890 50.50050 50.34470
# Shear Modulus (GPa) = 22.79860 25.74086 24.26973
#
# Velocity S-wave (km/s) = 3.54628 3.76817 3.65891
# Velocity P-wave (km/s) = 6.66733 6.84026 6.75435
#
# Compressibility (1/GPa) = 0.01992473
#
# Stress axis : x y z
#
# Youngs Moduli (GPa) = 47.71556 61.73670 73.80671
#
# Poissons Ratio (x) = 0.46129 0.40766
# Poissons Ratio (y) = 0.35653 0.17673
# Poissons Ratio (z) = 0.26355 0.14783
#
# Static dielectric constant tensor:
#      x y z
#    x 3.291240 0.000000 -0.180660 
#    y 0.000000 3.354040 0.000000 
#    z -0.180660 0.000000 3.744480 
# 
# 
# High freq. dielectric constant tensor:
#      x y z
#    x 1.681520 0.000000 -0.000870 
#    y 0.000000 1.677630 0.000000 
#    z -0.000870 0.000000 1.715030 
# 
# From -- ./inp_files/25858.got.cif
#   From: 2010.06.25/outbox.cif.g09.slc.cpg/sg10_13_cif.got.tgz:25858.got - 2010.06.27 22:07:45.
