data_PCOD8058434
_publ_section_title
;
Structure prediction by ZEFSAII (Michael W. Deem and Ramdas Pophale) SiO2 
 PCOD8058434
Probable space group: P 2/M
;
_chemical_formula_sum "Si O2"
_cell_formula_units_Z 26
_cell_length_a 14.467227
_cell_length_b 12.041135
_cell_length_c 10.442741
_cell_angle_alpha 90.000000
_cell_angle_beta 50.175159
_cell_angle_gamma 90.000000
_cell_volume 1397.113857
_symmetry_space_group_name_H-M "P 2/M"
_symmetry_group_IT_number 10
_symmetry_cell_setting 'monoclinic'
loop_
_space_group_symop_operation_xyz
x,y,z
-x,y,-z
-x,-y,-z
x,-y,z
loop_
_atom_site_type_symbol
_atom_site_label
_atom_site_fract_x
_atom_site_fract_y
_atom_site_fract_z
Si Si1 0.964532 0.234130 0.394356
Si Si2 0.060707 0.374314 0.074937
Si Si3 0.287841 0.000000 0.899301
Si Si4 0.729466 0.218884 0.470000
Si Si5 0.469495 0.815207 0.667610
Si Si6 0.692353 0.374495 0.269678
Si Si7 0.834790 0.000000 0.254304
Si Si8 0.048331 0.000000 0.239153
O O1 0.819532 0.244824 0.507304
O O2 0.000000 0.286465 0.500000
O O3 0.030138 0.299208 0.222664
O O4 0.008182 0.107245 0.354553
O O5 0.013511 0.500000 0.140070
O O6 0.203209 0.371818 0.928830
O O7 0.000000 0.324973 0.000000
O O8 0.373429 0.892157 0.825449
O O9 0.189879 0.000000 0.873698
O O10 0.194682 0.000000 0.100368
O O11 0.592470 0.198152 0.640506
O O12 0.735878 0.320017 0.363897
O O13 0.771725 0.108132 0.364408
O O14 0.500000 0.867176 0.500000
O O15 0.418602 0.691816 0.692547
O O16 0.651445 0.500000 0.334418
O O17 0.976516 0.000000 0.165847
#
# Coordination Sequence:
#
# PCOD8058434 Si02
#       8
#     4   4   2   4   4   4   2   2
#     4  11  23  39  58  80 111 148 185 226 278 330
#     4  10  20  36  58  83 111 140 178 231 279 322
#     4  12  17  31  53  80 108 142 184 229 268 325
#     4  10  20  33  51  77 111 144 178 222 273 320
#     4  10  19  29  48  77 113 143 178 218 273 322
#     4  10  19  32  52  79 111 141 173 217 273 326
#     4  10  18  31  47  79 108 141 175 227 273 321
#     4  10  24  33  53  76 109 147 187 229 272 325
#
# _framework density 18.609791999999999
#
# number of rings (size 3 to 8) (size 9 to 14) (size 15 to 20)
#    0.000    1.692    4.615    2.077    0.000    3.077 
#    0.000    0.000    0.000    4.615    0.000    2.154 
#    0.000    0.000    0.000    0.000    0.000    0.000 
#
# Total GULP energy -322306.056506 kJ/mol
# GULP energy per Si atom -12396.386789 kJ/mol
# Density = 1.856744 g / cm^3
# Si number density = 18.609792 Si / 1000 Ang^3
#
#
#
# Elastic Constant Matrix: (Units=GPa)
#
#
# Indices 1 2 3 4 5 6 
#
# 1 120.9744 34.9487 56.1140 0.0000 -14.9833 0.0000
# 2 34.9487 116.0151 31.8018 0.0000 -4.6280 0.0000
# 3 56.1140 31.8018 71.0771 0.0000 -14.3580 0.0000
# 4 0.0000 0.0000 0.0000 14.4618 0.0000 -8.0833
# 5 -14.9833 -4.6280 -14.3580 0.0000 36.3245 0.0000
# 6 0.0000 0.0000 0.0000 -8.0833 0.0000 20.7546
#
#
#
# Elastic Compliance Matrix: (Units=1/GPa)
#
#
# Indices 1 2 3 4 5 6 
#
# 1 0.013283 -0.001311 -0.009593 0.000000 0.001520 0.000000
# 2 -0.001311 0.009963 -0.003560 0.000000 -0.000679 0.000000
# 3 -0.009593 -0.003560 0.024283 0.000000 0.005188 0.000000
# 4 0.000000 0.000000 0.000000 0.088389 0.000000 0.034425
# 5 0.001520 -0.000679 0.005188 0.000000 0.030121 0.000000
# 6 0.000000 0.000000 0.000000 0.034425 0.000000 0.061590
#
#
# Mechanical properties :
#
#
# Convention : Reuss Voigt Hill
#
# Bulk Modulus (GPa) = 53.75779 61.53286 57.64532
# Shear Modulus (GPa) = 19.02892 26.65499 22.84196
#
# Velocity S-wave (km/s) = 3.20116 3.78869 3.50725
# Velocity P-wave (km/s) = 6.52785 7.23018 6.88797
#
# Compressibility (1/GPa) = 0.01860195
#
# Stress axis : x y z
#
# Youngs Moduli (GPa) = 75.28444 100.36869 41.18046
#
# Poissons Ratio (x) = 0.13160 0.39504
# Poissons Ratio (y) = 0.09871 0.14659
# Poissons Ratio (z) = 0.72220 0.35729
#
# Static dielectric constant tensor:
#      x y z
#    x 3.527330 0.000000 -0.404380 
#    y 0.000000 3.357490 0.000000 
#    z -0.404380 0.000000 3.178690 
# 
# 
# High freq. dielectric constant tensor:
#      x y z
#    x 1.705370 0.000000 -0.040490 
#    y 0.000000 1.730400 0.000000 
#    z -0.040490 0.000000 1.696190 
# 
# From -- ./inp_files/50656.got.cif
#   From: 2010.06.25/outbox.cif.g09.slc.cpg/sg10_26_cif.got.tgz:50656.got - 2010.06.27 22:07:45.
