data_PCOD8058247
_publ_section_title
;
Structure prediction by ZEFSAII (Michael W. Deem and Ramdas Pophale) SiO2 
 PCOD8058247
Probable space group: P 2/M
;
_chemical_formula_sum "Si O2"
_cell_formula_units_Z 30
_cell_length_a 11.152564
_cell_length_b 10.158874
_cell_length_c 16.648143
_cell_angle_alpha 90.000000
_cell_angle_beta 112.154642
_cell_angle_gamma 90.000000
_cell_volume 1746.934126
_symmetry_space_group_name_H-M "P 2/M"
_symmetry_group_IT_number 10
_symmetry_cell_setting 'monoclinic'
loop_
_space_group_symop_operation_xyz
x,y,z
-x,y,-z
-x,-y,-z
x,-y,z
loop_
_atom_site_type_symbol
_atom_site_label
_atom_site_fract_x
_atom_site_fract_y
_atom_site_fract_z
Si Si1 0.100866 0.358110 0.359560
Si Si2 0.919431 0.150237 0.243148
Si Si3 0.228556 0.852024 0.630165
Si Si4 0.302894 0.843877 0.921260
Si Si5 0.449697 0.844456 0.108736
Si Si6 0.520822 0.842494 0.704495
Si Si7 0.000000 0.704964 0.500000
Si Si8 0.392584 0.348722 0.407777
O O1 0.083906 0.500000 0.311737
O O2 0.026217 0.375669 0.425660
O O3 0.252130 0.330042 0.412597
O O4 0.042115 0.243880 0.288748
O O5 0.819986 0.159943 0.291364
O O6 0.839143 0.202236 0.145028
O O7 0.969798 0.000000 0.245485
O O8 0.372434 0.792972 0.660732
O O9 0.130096 0.788723 0.542759
O O10 0.237949 0.000000 0.603705
O O11 0.416714 0.784833 0.893369
O O12 0.305479 0.000000 0.913476
O O13 0.329733 0.800547 0.020621
O O14 0.425781 0.800774 0.194081
O O15 0.464176 0.000000 0.109997
O O16 0.602299 0.755519 0.663294
O O17 0.536553 0.000000 0.693019
O O18 0.500000 0.309604 0.500000
O O19 0.413528 0.500000 0.383662
#
# Coordination Sequence:
#
# PCOD8058247 Si02
#       8
#     4   4   4   4   4   4   2   4
#     4  10  21  35  50  69  92 120 158 201 246 290
#     4   9  16  28  48  72 100 127 154 187 233 290
#     4   9  16  26  42  70 101 125 150 189 239 282
#     4   8  12  22  43  73 105 133 155 184 235 292
#     4   8  13  22  43  74 105 130 156 192 235 282
#     4  10  18  30  50  75 101 126 161 203 238 278
#     4  10  18  30  50  68  91 120 157 194 239 296
#     4  10  22  39  53  66  91 129 168 204 243 289
#
# _framework density 17.172944000000001
#
# number of rings (size 3 to 8) (size 9 to 14) (size 15 to 20)
#    0.000    2.800    1.333    2.000    0.000    1.333 
#    0.000    2.667    0.000    1.600    0.000    7.467 
#    0.000    0.000    0.000    0.000    0.000    0.000 
#
# Total GULP energy -371678.855112 kJ/mol
# GULP energy per Si atom -12389.295170 kJ/mol
# Density = 1.713386 g / cm^3
# Si number density = 17.172944 Si / 1000 Ang^3
#
#
#
# Elastic Constant Matrix: (Units=GPa)
#
#
# Indices 1 2 3 4 5 6 
#
# 1 67.9906 30.9820 36.0220 0.0000 9.3223 0.0000
# 2 30.9820 58.1066 44.6506 0.0000 6.7048 0.0000
# 3 36.0220 44.6506 122.9108 0.0000 13.8560 0.0000
# 4 0.0000 0.0000 0.0000 10.4174 0.0000 2.2814
# 5 9.3223 6.7048 13.8560 0.0000 29.1609 0.0000
# 6 0.0000 0.0000 0.0000 2.2814 0.0000 19.1040
#
#
#
# Elastic Compliance Matrix: (Units=1/GPa)
#
#
# Indices 1 2 3 4 5 6 
#
# 1 0.020393 -0.008579 -0.002481 0.000000 -0.003368 0.000000
# 2 -0.008579 0.027541 -0.007487 0.000000 -0.000032 0.000000
# 3 -0.002481 -0.007487 0.011939 0.000000 -0.003158 0.000000
# 4 0.000000 0.000000 0.000000 0.098571 0.000000 -0.011771
# 5 -0.003368 -0.000032 -0.003158 0.000000 0.036877 0.000000
# 6 0.000000 0.000000 0.000000 -0.011771 0.000000 0.053751
#
#
# Mechanical properties :
#
#
# Convention : Reuss Voigt Hill
#
# Bulk Modulus (GPa) = 43.89781 52.47970 48.18875
# Shear Modulus (GPa) = 17.02081 20.89336 18.95709
#
# Velocity S-wave (km/s) = 3.15166 3.49183 3.32609
# Velocity P-wave (km/s) = 6.23391 6.84712 6.54769
#
# Compressibility (1/GPa) = 0.02278018
#
# Stress axis : x y z
#
# Youngs Moduli (GPa) = 49.03618 36.30967 83.75974
#
# Poissons Ratio (x) = 0.31149 0.20777
# Poissons Ratio (y) = 0.42067 0.62712
# Poissons Ratio (z) = 0.12164 0.27185
#
# Static dielectric constant tensor:
#      x y z
#    x 2.991050 0.000000 0.180810 
#    y 0.000000 2.931780 0.000000 
#    z 0.180810 0.000000 3.515910 
# 
# 
# High freq. dielectric constant tensor:
#      x y z
#    x 1.640380 0.000000 0.015980 
#    y 0.000000 1.627740 0.000000 
#    z 0.015980 0.000000 1.666350 
# 
# From -- ./inp_files/74869.got.cif
#   From: 2010.06.25/outbox.cif.g09.slc.cpg/sg10_38_cif.got.tgz:74869.got - 2010.06.27 22:07:45.
