data_PCOD8058673
_publ_section_title
;
Structure prediction by ZEFSAII (Michael W. Deem and Ramdas Pophale) SiO2 
 PCOD8058673
Probable space group: P 2/M
;
_chemical_formula_sum "Si O2"
_cell_formula_units_Z 32
_cell_length_a 13.296422
_cell_length_b 10.051379
_cell_length_c 25.068796
_cell_angle_alpha 90.000000
_cell_angle_beta 29.118529
_cell_angle_gamma 90.000000
_cell_volume 1630.354396
_symmetry_space_group_name_H-M "P 2/M"
_symmetry_group_IT_number 10
_symmetry_cell_setting 'monoclinic'
loop_
_space_group_symop_operation_xyz
x,y,z
-x,y,-z
-x,-y,-z
x,-y,z
loop_
_atom_site_type_symbol
_atom_site_label
_atom_site_fract_x
_atom_site_fract_y
_atom_site_fract_z
Si Si1 0.868144 0.842099 0.916136
Si Si2 0.780021 0.352639 0.710090
Si Si3 0.955190 0.850472 0.762416
Si Si4 0.443891 0.271471 0.084741
Si Si5 0.151866 0.849015 0.880470
Si Si6 0.344863 0.155028 0.523467
Si Si7 0.527539 0.653875 0.728394
Si Si8 0.759872 0.346451 0.512817
O O1 0.968650 0.786398 0.814993
O O2 0.016786 0.793872 0.893911
O O3 0.840175 0.000000 0.928802
O O4 0.640200 0.779954 0.026437
O O5 0.817241 0.500000 0.671051
O O6 0.680164 0.363501 0.815870
O O7 0.626025 0.287714 0.737716
O O8 0.007512 0.287016 0.602757
O O9 0.718647 0.847196 0.851574
O O10 0.121844 0.786401 0.645877
O O11 0.031480 0.000000 0.732738
O O12 0.500000 0.336847 0.000000
O O13 0.335383 0.747070 0.804067
O O14 0.234053 0.000000 0.831799
O O15 0.000000 0.850088 0.000000
O O16 0.500000 0.178514 0.500000
O O17 0.394282 0.250889 0.450315
O O18 0.345538 0.000000 0.504986
O O19 0.452696 0.500000 0.768937
O O20 0.697199 0.666301 0.603410
O O21 0.740181 0.500000 0.502427
#
# Coordination Sequence:
#
# PCOD8058673 Si02
#       8
#     4   4   4   4   4   4   4   4
#     4   9  18  31  51  76 108 147 183 224 276 334
#     4  10  20  37  58  79 108 146 187 237 286 336
#     4   9  17  31  50  77 107 143 182 221 271 334
#     4  10  18  31  54  81 109 141 185 234 281 332
#     4  10  21  37  57  84 116 149 186 231 287 337
#     4  10  21  35  56  85 117 148 184 227 281 340
#     4  10  22  39  61  84 109 150 197 233 278 339
#     4  10  21  39  61  84 112 148 193 236 281 335
#
# _framework density 19.627635000000001
#
# number of rings (size 3 to 8) (size 9 to 14) (size 15 to 20)
#    0.000    2.250    1.250    1.500    1.750    4.250 
#    0.000    1.875    0.000    2.250    0.000    0.000 
#    0.000    0.000    0.000    0.000    0.000    0.000 
#
# Total GULP energy -396429.185651 kJ/mol
# GULP energy per Si atom -12388.412052 kJ/mol
# Density = 1.958296 g / cm^3
# Si number density = 19.627635 Si / 1000 Ang^3
#
#
#
# Elastic Constant Matrix: (Units=GPa)
#
#
# Indices 1 2 3 4 5 6 
#
# 1 142.4916 47.3881 42.5917 0.0000 -3.4811 0.0000
# 2 47.3881 63.0433 29.8752 0.0000 -6.2779 0.0000
# 3 42.5917 29.8752 88.5808 0.0000 1.5490 0.0000
# 4 0.0000 0.0000 0.0000 24.3435 0.0000 -0.0847
# 5 -3.4811 -6.2779 1.5490 0.0000 33.6068 0.0000
# 6 0.0000 0.0000 0.0000 -0.0847 0.0000 29.4140
#
#
#
# Elastic Compliance Matrix: (Units=1/GPa)
#
#
# Indices 1 2 3 4 5 6 
#
# 1 0.009860 -0.006148 -0.002667 0.000000 -0.000004 0.000000
# 2 -0.006148 0.023217 -0.004943 0.000000 0.003928 0.000000
# 3 -0.002667 -0.004943 0.014271 0.000000 -0.001857 0.000000
# 4 0.000000 0.000000 0.000000 0.041079 0.000000 0.000118
# 5 -0.000004 0.003928 -0.001857 0.000000 0.030575 0.000000
# 6 0.000000 0.000000 0.000000 0.000118 0.000000 0.033998
#
#
# Mechanical properties :
#
#
# Convention : Reuss Voigt Hill
#
# Bulk Modulus (GPa) = 50.42418 59.31398 54.86908
# Shear Modulus (GPa) = 26.72002 29.09024 27.90513
#
# Velocity S-wave (km/s) = 3.69365 3.85399 3.77467
# Velocity P-wave (km/s) = 6.62849 7.07740 6.85662
#
# Compressibility (1/GPa) = 0.01983175
#
# Stress axis : x y z
#
# Youngs Moduli (GPa) = 101.42350 43.07237 70.07139
#
# Poissons Ratio (x) = 0.26480 0.18690
# Poissons Ratio (y) = 0.62352 0.34636
# Poissons Ratio (z) = 0.27052 0.21290
#
# Static dielectric constant tensor:
#      x y z
#    x 3.846410 0.000000 0.048980 
#    y 0.000000 3.286920 0.000000 
#    z 0.048980 0.000000 3.713650 
# 
# 
# High freq. dielectric constant tensor:
#      x y z
#    x 1.778300 0.000000 0.005610 
#    y 0.000000 1.727020 0.000000 
#    z 0.005610 0.000000 1.772160 
# 
# From -- ./inp_files/88912.got.cif
#   From: 2010.06.25/outbox.cif.g09.slc.cpg/sg10_45_cif.got.tgz:88912.got - 2010.06.27 22:07:45.
