data_PCOD8058599
_publ_section_title
;
Structure prediction by ZEFSAII (Michael W. Deem and Ramdas Pophale) SiO2 
 PCOD8058599
Probable space group: P 2/M
;
_chemical_formula_sum "Si O2"
_cell_formula_units_Z 32
_cell_length_a 12.546914
_cell_length_b 9.197732
_cell_length_c 31.788673
_cell_angle_alpha 90.000000
_cell_angle_beta 27.070218
_cell_angle_gamma 90.000000
_cell_volume 1669.474702
_symmetry_space_group_name_H-M "P 2/M"
_symmetry_group_IT_number 10
_symmetry_cell_setting 'monoclinic'
loop_
_space_group_symop_operation_xyz
x,y,z
-x,y,-z
-x,-y,-z
x,-y,z
loop_
_atom_site_type_symbol
_atom_site_label
_atom_site_fract_x
_atom_site_fract_y
_atom_site_fract_z
Si Si1 0.512228 0.668891 0.749375
Si Si2 0.618389 0.166862 0.000303
Si Si3 0.857300 0.171235 0.685989
Si Si4 0.260465 0.657291 0.415213
Si Si5 0.777908 0.330809 0.298802
Si Si6 0.675549 0.828873 0.526594
Si Si7 0.830218 0.166969 0.791392
Si Si8 0.094210 0.332626 0.840178
O O1 0.545388 0.500000 0.748636
O O2 0.620998 0.759477 0.749498
O O3 0.652018 0.718497 0.659387
O O4 0.243415 0.702656 0.830220
O O5 0.442489 0.186101 0.101212
O O6 0.680644 0.000000 0.969596
O O7 0.500000 0.234167 0.000000
O O8 0.858677 0.243532 0.926992
O O9 0.867230 0.219771 0.730818
O O10 0.102220 0.224732 0.579143
O O11 0.830525 0.000000 0.690039
O O12 0.387556 0.500000 0.383393
O O13 0.277050 0.787645 0.442128
O O14 0.000000 0.610859 0.500000
O O15 0.779296 0.500000 0.308980
O O16 0.565065 0.256086 0.399916
O O17 0.759631 0.298311 0.254580
O O18 0.020081 0.263963 0.229584
O O19 0.634376 0.000000 0.535534
O O20 0.909011 0.000000 0.769203
O O21 0.021807 0.500000 0.864567
#
# Coordination Sequence:
#
# PCOD8058599 Si02
#       8
#     4   4   4   4   4   4   4   4
#     4  10  20  36  57  82 115 153 191 234 282 333
#     4  10  20  36  62  91 112 140 185 234 288 344
#     4  10  23  40  57  80 114 158 197 231 277 336
#     4  10  18  31  52  78 110 148 188 236 284 324
#     4  11  22  37  58  86 117 149 188 232 287 343
#     4  11  22  34  53  83 116 152 194 235 279 333
#     4  10  22  42  61  81 115 150 187 236 288 341
#     4  10  21  36  57  88 120 146 178 232 293 339
#
# _framework density 19.167705999999999
#
# number of rings (size 3 to 8) (size 9 to 14) (size 15 to 20)
#    0.000    1.750    3.750    0.750    0.000    4.000 
#    0.000    3.125    0.000    3.750    0.000    0.000 
#    0.000    0.000    0.000    0.000    0.000    0.000 
#
# Total GULP energy -396599.809917 kJ/mol
# GULP energy per Si atom -12393.744060 kJ/mol
# Density = 1.912408 g / cm^3
# Si number density = 19.167706 Si / 1000 Ang^3
#
#
#
# Elastic Constant Matrix: (Units=GPa)
#
#
# Indices 1 2 3 4 5 6 
#
# 1 75.8904 36.0416 28.2780 0.0000 -8.0043 0.0000
# 2 36.0416 68.5773 35.9170 0.0000 -8.7986 0.0000
# 3 28.2780 35.9170 81.0039 0.0000 -15.5532 0.0000
# 4 0.0000 0.0000 0.0000 27.9725 0.0000 -7.9682
# 5 -8.0043 -8.7986 -15.5532 0.0000 28.5799 0.0000
# 6 0.0000 0.0000 0.0000 -7.9682 0.0000 29.6012
#
#
#
# Elastic Compliance Matrix: (Units=1/GPa)
#
#
# Indices 1 2 3 4 5 6 
#
# 1 0.018047 -0.008012 -0.002513 0.000000 0.001220 0.000000
# 2 -0.008012 0.022601 -0.007056 0.000000 0.000874 0.000000
# 3 -0.002513 -0.007056 0.017642 0.000000 0.006725 0.000000
# 4 0.000000 0.000000 0.000000 0.038718 0.000000 0.010422
# 5 0.001220 0.000874 0.006725 0.000000 0.039260 0.000000
# 6 0.000000 0.000000 0.000000 0.010422 0.000000 0.036588
#
#
# Mechanical properties :
#
#
# Convention : Reuss Voigt Hill
#
# Bulk Modulus (GPa) = 43.23989 47.32721 45.28355
# Shear Modulus (GPa) = 23.17722 25.57973 24.37848
#
# Velocity S-wave (km/s) = 3.48110 3.65707 3.57017
# Velocity P-wave (km/s) = 6.22616 6.52510 6.37739
#
# Compressibility (1/GPa) = 0.02312679
#
# Stress axis : x y z
#
# Youngs Moduli (GPa) = 55.41050 44.24635 56.68139
#
# Poissons Ratio (x) = 0.35450 0.14246
# Poissons Ratio (y) = 0.44395 0.39997
# Poissons Ratio (z) = 0.13927 0.31222
#
# Static dielectric constant tensor:
#      x y z
#    x 3.424890 0.000000 -0.095890 
#    y 0.000000 3.356950 0.000000 
#    z -0.095890 0.000000 3.577670 
# 
# 
# High freq. dielectric constant tensor:
#      x y z
#    x 1.736860 0.000000 -0.017280 
#    y 0.000000 1.739160 0.000000 
#    z -0.017280 0.000000 1.746100 
# 
# From -- ./inp_files/94985.got.cif
#   From: 2010.06.25/outbox.cif.g09.slc.cpg/sg10_48_cif.got.tgz:94985.got - 2010.06.27 22:07:45.
