data_PCOD8058591
_publ_section_title
;
Structure prediction by ZEFSAII (Michael W. Deem and Ramdas Pophale) SiO2 
 PCOD8058591
Probable space group: P 2/M
;
_chemical_formula_sum "Si O2"
_cell_formula_units_Z 32
_cell_length_a 12.128005
_cell_length_b 8.784848
_cell_length_c 21.630489
_cell_angle_alpha 90.000000
_cell_angle_beta 50.672578
_cell_angle_gamma 90.000000
_cell_volume 1782.670338
_symmetry_space_group_name_H-M "P 2/M"
_symmetry_group_IT_number 10
_symmetry_cell_setting 'monoclinic'
loop_
_space_group_symop_operation_xyz
x,y,z
-x,y,-z
-x,-y,-z
x,-y,z
loop_
_atom_site_type_symbol
_atom_site_label
_atom_site_fract_x
_atom_site_fract_y
_atom_site_fract_z
Si Si1 0.281624 0.179660 0.154784
Si Si2 0.288509 0.679706 0.560640
Si Si3 0.966570 0.178508 0.292197
Si Si4 0.441071 0.821698 0.873479
Si Si5 0.759782 0.675933 0.959167
Si Si6 0.653100 0.176213 0.226953
Si Si7 0.519894 0.821710 0.403310
Si Si8 0.079570 0.324050 0.818848
O O1 0.407094 0.237651 0.154979
O O2 0.305959 0.248502 0.078575
O O3 0.130975 0.232850 0.237687
O O4 0.281608 0.000000 0.146795
O O5 0.298207 0.500000 0.548994
O O6 0.123828 0.732911 0.623434
O O7 0.361627 0.761226 0.475709
O O8 0.367542 0.730273 0.595228
O O9 0.903968 0.219598 0.247333
O O10 0.949280 0.000000 0.309412
O O11 0.432590 0.779295 0.804330
O O12 0.427300 0.000000 0.889725
O O13 0.310977 0.743536 0.954792
O O14 0.723590 0.500000 0.967739
O O15 0.928414 0.706637 0.905153
O O16 0.549596 0.213139 0.321104
O O17 0.796376 0.276595 0.178068
O O18 0.698294 0.000000 0.210363
O O19 0.532573 0.000000 0.414172
O O20 0.094722 0.500000 0.793902
#
# Coordination Sequence:
#
# PCOD8058591 Si02
#       8
#     4   4   4   4   4   4   4   4
#     4   9  19  35  56  77 100 131 171 217 259 299
#     4  11  20  30  49  78 107 134 165 205 252 304
#     4  10  18  31  52  77 103 132 167 210 257 302
#     4  10  21  37  54  75 100 134 175 213 255 302
#     4  10  21  35  52  77 104 132 168 215 262 303
#     4  10  21  35  53  74 103 137 171 209 250 304
#     4  10  19  32  50  74 104 137 169 206 248 301
#     4  10  20  33  50  73 104 136 168 207 255 306
#
# _framework density 17.950599
#
# number of rings (size 3 to 8) (size 9 to 14) (size 15 to 20)
#    0.000    2.000    1.250    3.750    0.000    5.500 
#    0.000    2.500    0.000    0.750    0.000    5.250 
#    0.000    0.000    0.000    0.000    0.000    0.000 
#
# Total GULP energy -396863.341415 kJ/mol
# GULP energy per Si atom -12401.979419 kJ/mol
# Density = 1.790974 g / cm^3
# Si number density = 17.950599 Si / 1000 Ang^3
#
#
#
# Elastic Constant Matrix: (Units=GPa)
#
#
# Indices 1 2 3 4 5 6 
#
# 1 86.2720 24.5711 59.1906 0.0000 5.6543 0.0000
# 2 24.5711 51.3569 34.0239 0.0000 -0.7631 0.0000
# 3 59.1906 34.0239 130.7210 0.0000 -3.8593 0.0000
# 4 0.0000 0.0000 0.0000 21.0857 0.0000 -10.7540
# 5 5.6543 -0.7631 -3.8593 0.0000 22.3350 0.0000
# 6 0.0000 0.0000 0.0000 -10.7540 0.0000 11.4702
#
#
#
# Elastic Compliance Matrix: (Units=1/GPa)
#
#
# Indices 1 2 3 4 5 6 
#
# 1 0.018161 -0.003882 -0.007390 0.000000 -0.006007 0.000000
# 2 -0.003882 0.024360 -0.004552 0.000000 0.001028 0.000000
# 3 -0.007390 -0.004552 0.012294 0.000000 0.003840 0.000000
# 4 0.000000 0.000000 0.000000 0.090882 0.000000 0.085207
# 5 -0.006007 0.001028 0.003840 0.000000 0.046992 0.000000
# 6 0.000000 0.000000 0.000000 0.085207 0.000000 0.167069
#
#
# Mechanical properties :
#
#
# Convention : Reuss Voigt Hill
#
# Bulk Modulus (GPa) = 43.16618 55.99123 49.57870
# Shear Modulus (GPa) = 12.52724 21.01580 16.77152
#
# Velocity S-wave (km/s) = 2.64459 3.42535 3.05997
# Velocity P-wave (km/s) = 5.78140 6.84862 6.33751
#
# Compressibility (1/GPa) = 0.02316629
#
# Stress axis : x y z
#
# Youngs Moduli (GPa) = 55.06296 41.05082 81.33787
#
# Poissons Ratio (x) = 0.15937 0.60111
# Poissons Ratio (y) = 0.21376 0.37027
# Poissons Ratio (z) = 0.40693 0.18687
#
# Static dielectric constant tensor:
#      x y z
#    x 3.269150 0.000000 -0.210940 
#    y 0.000000 3.324250 0.000000 
#    z -0.210940 0.000000 3.530900 
# 
# 
# High freq. dielectric constant tensor:
#      x y z
#    x 1.666330 0.000000 -0.019390 
#    y 0.000000 1.700650 0.000000 
#    z -0.019390 0.000000 1.700270 
# 
# From -- ./inp_files/83565.got.cif
#   From: 2010.06.25/outbox.cif.g09.slc.cpg/sg10_42_cif.got.tgz:83565.got - 2010.06.27 22:07:45.
