data_PCOD8058851
_publ_section_title
;
Structure prediction by ZEFSAII (Michael W. Deem and Ramdas Pophale) SiO2 
 PCOD8058851
Probable space group: P 2/M
;
_chemical_formula_sum "Si O2"
_cell_formula_units_Z 24
_cell_length_a 23.371433
_cell_length_b 8.832649
_cell_length_c 16.656642
_cell_angle_alpha 90.000000
_cell_angle_beta 22.958502
_cell_angle_gamma 90.000000
_cell_volume 1341.219930
_symmetry_space_group_name_H-M "P 2/M"
_symmetry_group_IT_number 10
_symmetry_cell_setting 'monoclinic'
loop_
_space_group_symop_operation_xyz
x,y,z
-x,y,-z
-x,-y,-z
x,-y,z
loop_
_atom_site_type_symbol
_atom_site_label
_atom_site_fract_x
_atom_site_fract_y
_atom_site_fract_z
Si Si1 0.583501 0.177056 0.144921
Si Si2 0.445877 0.822312 0.486003
Si Si3 0.840424 0.820303 0.234227
Si Si4 0.332152 0.178531 0.230447
Si Si5 0.161752 0.178830 0.295205
Si Si6 0.695053 0.678465 0.569469
O O1 0.565730 0.216524 0.262159
O O2 0.468376 0.269367 0.241071
O O3 0.550539 0.000000 0.172091
O O4 0.745845 0.221575 0.904406
O O5 0.500000 0.746449 0.500000
O O6 0.285190 0.762393 0.666031
O O7 0.433394 0.000000 0.515327
O O8 0.813170 0.748802 0.356167
O O9 0.832112 0.000000 0.253594
O O10 0.000000 0.765243 0.000000
O O11 0.242970 0.239856 0.269125
O O12 0.265313 0.263810 0.393241
O O13 0.314614 0.000000 0.266133
O O14 0.500000 0.223917 0.000000
O O15 0.000000 0.252868 0.500000
O O16 0.148193 0.000000 0.319499
O O17 0.706061 0.500000 0.551096
#
# Coordination Sequence:
#
# PCOD8058851 Si02
#       6
#     4   4   4   4   4   4
#     4   9  16  31  52  71  99 133 169 208 253 299
#     4   8  14  26  47  74  98 122 157 202 247 293
#     4   9  18  34  54  76 102 130 164 208 257 301
#     4  10  18  32  54  76 100 131 170 213 254 296
#     4   9  17  30  49  76 102 128 164 210 259 299
#     4  11  21  32  51  77 103 134 175 209 249 301
#
# _framework density 17.894155000000001
#
# number of rings (size 3 to 8) (size 9 to 14) (size 15 to 20)
#    0.000    2.667    1.667    2.500    0.000    0.667 
#    3.000    0.000    0.000   10.000    0.000    0.000 
#    0.000    0.000    0.000    0.000    0.000    0.000 
#
# Total GULP energy -297511.156962 kJ/mol
# GULP energy per Si atom -12396.298207 kJ/mol
# Density = 1.785343 g / cm^3
# Si number density = 17.894155 Si / 1000 Ang^3
#
#
#
# Elastic Constant Matrix: (Units=GPa)
#
#
# Indices 1 2 3 4 5 6 
#
# 1 149.5250 21.3776 86.2278 0.0000 11.8353 0.0000
# 2 21.3776 30.5178 25.7839 0.0000 5.2003 0.0000
# 3 86.2278 25.7839 170.0410 0.0000 8.6635 0.0000
# 4 0.0000 0.0000 0.0000 6.9764 0.0000 -0.0273
# 5 11.8353 5.2003 8.6635 0.0000 26.8577 0.0000
# 6 0.0000 0.0000 0.0000 -0.0273 0.0000 4.5822
#
#
#
# Elastic Compliance Matrix: (Units=1/GPa)
#
#
# Indices 1 2 3 4 5 6 
#
# 1 0.009832 -0.002722 -0.004452 0.000000 -0.002369 0.000000
# 2 -0.002722 0.039161 -0.004303 0.000000 -0.004995 0.000000
# 3 -0.004452 -0.004303 0.008793 0.000000 -0.000041 0.000000
# 4 0.000000 0.000000 0.000000 0.143344 0.000000 0.000855
# 5 -0.002369 -0.004995 -0.000041 0.000000 0.039258 0.000000
# 6 0.000000 0.000000 0.000000 0.000855 0.000000 0.218242
#
#
# Mechanical properties :
#
#
# Convention : Reuss Voigt Hill
#
# Bulk Modulus (GPa) = 28.70961 68.54027 48.62494
# Shear Modulus (GPa) = 10.13795 22.12956 16.13375
#
# Velocity S-wave (km/s) = 2.38281 3.52048 3.00596
# Velocity P-wave (km/s) = 4.86306 7.41022 6.26740
#
# Compressibility (1/GPa) = 0.03483154
#
# Stress axis : x y z
#
# Youngs Moduli (GPa) = 101.70697 25.53533 113.72150
#
# Poissons Ratio (x) = 0.06950 0.50634
# Poissons Ratio (y) = 0.27683 0.48939
# Poissons Ratio (z) = 0.45284 0.10989
#
# Static dielectric constant tensor:
#      x y z
#    x 3.563000 0.000000 0.040580 
#    y 0.000000 2.852330 0.000000 
#    z 0.040580 0.000000 3.504810 
# 
# 
# High freq. dielectric constant tensor:
#      x y z
#    x 1.694110 0.000000 0.014340 
#    y 0.000000 1.646910 0.000000 
#    z 0.014340 0.000000 1.691340 
# 
# From -- ./inp_files/52625.got.cif
#   From: 2010.06.25/outbox.cif.g09.slc.cpg/sg10_27_cif.got.tgz:52625.got - 2010.06.27 22:07:45.
