data_PCOD8058965
_publ_section_title
;
Structure prediction by ZEFSAII (Michael W. Deem and Ramdas Pophale) SiO2 
 PCOD8058965
Probable space group: P 2/M
;
_chemical_formula_sum "Si O2"
_cell_formula_units_Z 28
_cell_length_a 11.567985
_cell_length_b 9.101620
_cell_length_c 14.654171
_cell_angle_alpha 90.000000
_cell_angle_beta 69.430307
_cell_angle_gamma 90.000000
_cell_volume 1444.532845
_symmetry_space_group_name_H-M "P 2/M"
_symmetry_group_IT_number 10
_symmetry_cell_setting 'monoclinic'
loop_
_space_group_symop_operation_xyz
x,y,z
-x,y,-z
-x,-y,-z
x,-y,z
loop_
_atom_site_type_symbol
_atom_site_label
_atom_site_fract_x
_atom_site_fract_y
_atom_site_fract_z
Si Si1 0.823976 0.671690 0.805277
Si Si2 0.385466 0.825614 0.642114
Si Si3 0.671233 0.169305 0.150430
Si Si4 0.337223 0.173523 0.457676
Si Si5 0.879380 0.671428 0.586143
Si Si6 0.568435 0.168927 0.890113
Si Si7 0.113196 0.826921 0.033366
O O1 0.818082 0.500000 0.827250
O O2 0.892385 0.704655 0.690441
O O3 0.685270 0.731490 0.837622
O O4 0.900644 0.749114 0.864909
O O5 0.314173 0.762974 0.751494
O O6 0.525994 0.767048 0.602861
O O7 0.311505 0.782114 0.570944
O O8 0.395280 0.000000 0.645911
O O9 0.527934 0.188556 0.165119
O O10 0.710322 0.000000 0.142251
O O11 0.764088 0.239109 0.050449
O O12 0.240963 0.249345 0.418284
O O13 0.326139 0.000000 0.446285
O O14 0.862345 0.500000 0.572056
O O15 0.000000 0.731876 0.500000
O O16 0.612154 0.000000 0.888859
O O17 0.500000 0.222386 0.000000
O O18 0.120751 0.000000 0.049957
O O19 0.000000 0.785165 0.000000
#
# Coordination Sequence:
#
# PCOD8058965 Si02
#       7
#     4   4   4   4   4   4   4
#     4  11  23  38  57  80 109 143 181 230 277 320
#     4   8  15  28  50  80 112 138 165 214 278 326
#     4   9  16  29  50  78 110 143 174 210 265 326
#     4   9  17  32  55  82 106 133 175 227 273 317
#     4  10  23  41  56  73 105 149 187 222 272 326
#     4  10  18  32  57  84 111 143 179 218 267 328
#     4  10  21  37  56  78 107 144 184 222 263 321
#
# _framework density 19.383430000000001
#
# number of rings (size 3 to 8) (size 9 to 14) (size 15 to 20)
#    0.000    2.429    1.429    2.143    0.000    4.286 
#    0.000    2.857    0.000    1.714    0.000    0.000 
#    0.000    0.000    0.000    0.000    0.000    0.000 
#
# Total GULP energy -347072.696597 kJ/mol
# GULP energy per Si atom -12395.453450 kJ/mol
# Density = 1.933931 g / cm^3
# Si number density = 19.383430 Si / 1000 Ang^3
#
#
#
# Elastic Constant Matrix: (Units=GPa)
#
#
# Indices 1 2 3 4 5 6 
#
# 1 90.1588 35.5856 43.8257 0.0000 9.1140 0.0000
# 2 35.5856 47.4061 42.7088 0.0000 4.4102 0.0000
# 3 43.8257 42.7088 148.5667 0.0000 13.2997 0.0000
# 4 0.0000 0.0000 0.0000 18.7059 0.0000 -7.7447
# 5 9.1140 4.4102 13.2997 0.0000 28.9764 0.0000
# 6 0.0000 0.0000 0.0000 -7.7447 0.0000 -0.8762
#
#
#
# Elastic Compliance Matrix: (Units=1/GPa)
#
#
# Indices 1 2 3 4 5 6 
#
# 1 0.016298 -0.010618 -0.001503 0.000000 -0.002820 0.000000
# 2 -0.010618 0.035394 -0.007153 0.000000 0.001236 0.000000
# 3 -0.001503 -0.007153 0.009480 0.000000 -0.002790 0.000000
# 4 0.000000 0.000000 0.000000 0.011473 0.000000 -0.101410
# 5 -0.002820 0.001236 -0.002790 0.000000 0.036490 0.000000
# 6 0.000000 0.000000 0.000000 -0.101410 0.000000 -0.244938
#
#
# Mechanical properties :
#
#
# Convention : Reuss Voigt Hill
#
# Bulk Modulus (GPa) = 44.19979 58.93020 51.56499
# Shear Modulus (GPa) = -55.73356 20.29532 -17.71912
#
# Velocity S-wave (km/s) = -5.36802 3.23932 -3.02675
# Velocity P-wave (km/s) = 3.94569 6.66778 3.80071
#
# Compressibility (1/GPa) = 0.02262454
#
# Stress axis : x y z
#
# Youngs Moduli (GPa) = 61.35689 28.25320 105.47992
#
# Poissons Ratio (x) = 0.29999 0.15853
# Poissons Ratio (y) = 0.65148 0.75453
# Poissons Ratio (z) = 0.09222 0.20210
#
# Static dielectric constant tensor:
#      x y z
#    x 3.418570 0.000000 0.057810 
#    y 0.000000 3.115120 0.000000 
#    z 0.057810 0.000000 4.031210 
# 
# 
# High freq. dielectric constant tensor:
#      x y z
#    x 1.746540 0.000000 0.011060 
#    y 0.000000 1.707360 0.000000 
#    z 0.011060 0.000000 1.776740 
# 
# From -- ./inp_files/63355.got.cif
#   From: 2010.06.25/outbox.cif.g09.slc.cpg/sg10_32_cif.got.tgz:63355.got - 2010.06.27 22:07:45.
