data_PCOD8058752
_publ_section_title
;
Structure prediction by ZEFSAII (Michael W. Deem and Ramdas Pophale) SiO2 
 PCOD8058752
Probable space group: P 2/M
;
_chemical_formula_sum "Si O2"
_cell_formula_units_Z 28
_cell_length_a 19.024807
_cell_length_b 19.268655
_cell_length_c 12.460880
_cell_angle_alpha 90.000000
_cell_angle_beta 160.093965
_cell_angle_gamma 90.000000
_cell_volume 1555.285709
_symmetry_space_group_name_H-M "P 2/M"
_symmetry_group_IT_number 10
_symmetry_cell_setting 'monoclinic'
loop_
_space_group_symop_operation_xyz
x,y,z
-x,y,-z
-x,-y,-z
x,-y,z
loop_
_atom_site_type_symbol
_atom_site_label
_atom_site_fract_x
_atom_site_fract_y
_atom_site_fract_z
Si Si1 0.180929 0.424369 0.590826
Si Si2 0.635871 0.823645 0.594241
Si Si3 0.220169 0.076750 0.370971
Si Si4 0.858483 0.276639 0.393680
Si Si5 0.424696 0.281697 0.661237
Si Si6 0.612782 0.574101 0.330226
Si Si7 0.898825 0.198927 0.669638
O O1 0.068136 0.500000 0.450649
O O2 0.062485 0.354943 0.461540
O O3 0.211209 0.415111 0.506973
O O4 0.396773 0.426997 0.960119
O O5 0.500000 0.846789 0.500000
O O6 0.628836 0.886404 0.498273
O O7 0.532553 0.756142 0.390059
O O8 0.864155 0.802345 0.955966
O O9 0.201036 0.122473 0.452626
O O10 0.305824 0.000000 0.522859
O O11 0.000000 0.070207 0.000000
O O12 0.883276 0.221304 0.524393
O O13 0.000000 0.249906 0.500000
O O14 0.618474 0.274668 0.018848
O O15 0.380737 0.363187 0.575180
O O16 0.221424 0.251902 0.426424
O O17 0.647211 0.500000 0.439220
#
# Coordination Sequence:
#
# PCOD8058752 Si02
#       7
#     4   4   4   4   4   4   4
#     4   8  14  25  41  65  95 124 160 205 247 281
#     4  10  20  33  51  76 103 127 154 199 249 288
#     4   8  16  32  54  76  96 125 164 197 229 279
#     4  11  20  29  47  75 103 130 161 203 250 289
#     4  10  18  32  51  70  96 132 169 201 239 291
#     4   8  13  24  45  67  87 120 168 210 236 273
#     4  10  19  33  52  73  99 129 164 199 237 285
#
# _framework density 18.003122000000001
#
# number of rings (size 3 to 8) (size 9 to 14) (size 15 to 20)
#    0.000    2.714    1.429    3.429    0.000    0.571 
#    0.000    0.000    0.000   10.286    0.000    0.000 
#    0.000    0.000    0.000    0.000    0.000    0.000 
#
# Total GULP energy -346902.355656 kJ/mol
# GULP energy per Si atom -12389.369845 kJ/mol
# Density = 1.796215 g / cm^3
# Si number density = 18.003122 Si / 1000 Ang^3
#
#
#
# Elastic Constant Matrix: (Units=GPa)
#
#
# Indices 1 2 3 4 5 6 
#
# 1 101.0283 70.0135 10.6080 0.0000 1.1568 0.0000
# 2 70.0135 170.6431 29.4730 0.0000 -7.3863 0.0000
# 3 10.6080 29.4730 40.4020 0.0000 1.4350 0.0000
# 4 0.0000 0.0000 0.0000 17.4449 0.0000 -3.9626
# 5 1.1568 -7.3863 1.4350 0.0000 19.4157 0.0000
# 6 0.0000 0.0000 0.0000 -3.9626 0.0000 21.0547
#
#
#
# Elastic Compliance Matrix: (Units=1/GPa)
#
#
# Indices 1 2 3 4 5 6 
#
# 1 0.014033 -0.006040 0.000835 0.000000 -0.003196 0.000000
# 2 -0.006040 0.009474 -0.005481 0.000000 0.004369 0.000000
# 3 0.000835 -0.005481 0.028681 0.000000 -0.004255 0.000000
# 4 0.000000 0.000000 0.000000 0.059883 0.000000 0.011270
# 5 -0.003196 0.004369 -0.004255 0.000000 0.053672 0.000000
# 6 0.000000 0.000000 0.000000 0.011270 0.000000 0.049616
#
#
# Mechanical properties :
#
#
# Convention : Reuss Voigt Hill
#
# Bulk Modulus (GPa) = 32.44936 59.14027 45.79481
# Shear Modulus (GPa) = 20.24264 25.04831 22.64548
#
# Velocity S-wave (km/s) = 3.35684 3.73410 3.55049
# Velocity P-wave (km/s) = 5.75221 7.17723 6.50387
#
# Compressibility (1/GPa) = 0.03081725
#
# Stress axis : x y z
#
# Youngs Moduli (GPa) = 71.26034 105.55016 34.86613
#
# Poissons Ratio (x) = 0.63755 -0.02912
# Poissons Ratio (y) = 0.43043 0.19109
# Poissons Ratio (z) = -0.05952 0.57848
#
# Static dielectric constant tensor:
#      x y z
#    x 3.222610 0.000000 0.008130 
#    y 0.000000 3.960420 0.000000 
#    z 0.008130 0.000000 2.970160 
# 
# 
# High freq. dielectric constant tensor:
#      x y z
#    x 1.678890 0.000000 0.009160 
#    y 0.000000 1.706160 0.000000 
#    z 0.009160 0.000000 1.655720 
# 
# From -- ./inp_files/54248.got.cif
#   From: 2010.06.25/outbox.cif.g09.slc.cpg/sg10_28_cif.got.tgz:54248.got - 2010.06.27 22:07:45.
