data_PCOD8058176
_publ_section_title
;
Structure prediction by ZEFSAII (Michael W. Deem and Ramdas Pophale) SiO2 
 PCOD8058176
Probable space group: P 2/M
;
_chemical_formula_sum "Si O2"
_cell_formula_units_Z 32
_cell_length_a 14.812338
_cell_length_b 13.154119
_cell_length_c 17.176445
_cell_angle_alpha 90.000000
_cell_angle_beta 33.240889
_cell_angle_gamma 90.000000
_cell_volume 1834.535810
_symmetry_space_group_name_H-M "P 2/M"
_symmetry_group_IT_number 10
_symmetry_cell_setting 'monoclinic'
loop_
_space_group_symop_operation_xyz
x,y,z
-x,y,-z
-x,-y,-z
x,-y,z
loop_
_atom_site_type_symbol
_atom_site_label
_atom_site_fract_x
_atom_site_fract_y
_atom_site_fract_z
Si Si1 0.672822 0.618524 0.334140
Si Si2 0.528739 0.305204 0.811580
Si Si3 0.521703 0.886693 0.074700
Si Si4 0.001042 0.312489 0.170114
Si Si5 0.714202 0.283815 0.140566
Si Si6 0.235025 0.617108 0.125462
Si Si7 0.830574 0.885066 0.956734
Si Si8 0.839658 0.383743 0.653116
O O1 0.500000 0.641149 0.500000
O O2 0.685565 0.500000 0.300340
O O3 0.817016 0.648557 0.289591
O O4 0.694042 0.693756 0.245698
O O5 0.582765 0.189627 0.794384
O O6 0.453637 0.322124 0.780116
O O7 0.686290 0.377290 0.704470
O O8 0.386287 0.325438 0.977457
O O9 0.451694 0.000000 0.138887
O O10 0.500000 0.856878 0.000000
O O11 0.712593 0.882193 0.966099
O O12 0.065899 0.369239 0.200017
O O13 0.012350 0.188960 0.174062
O O14 0.124086 0.343085 0.009528
O O15 0.736929 0.163877 0.100632
O O16 0.285454 0.500000 0.095071
O O17 0.207977 0.666639 0.230153
O O18 0.887994 0.000000 0.934652
O O19 0.884983 0.500000 0.637146
O O20 0.000000 0.329623 0.500000
#
# Coordination Sequence:
#
# PCOD8058176 Si02
#       8
#     4   4   4   4   4   4   4   4
#     4  11  23  37  53  74 105 140 173 212 257 310
#     4  10  18  31  50  73 101 127 169 207 256 299
#     4   9  15  25  47  79 107 129 162 208 251 295
#     4   9  19  34  53  80  98 133 167 216 261 304
#     4   8  19  34  53  80  96 133 167 217 260 303
#     4  10  18  30  48  72 100 128 165 210 251 294
#     4   8  16  32  53  81 108 131 165 212 267 307
#     4  10  21  32  44  66  99 140 174 201 241 301
#
# _framework density 17.443104999999999
#
# number of rings (size 3 to 8) (size 9 to 14) (size 15 to 20)
#    0.750    1.875    1.250    2.250    0.000    5.500 
#    0.000    3.750    0.000    1.875    0.000    1.750 
#    0.000    0.000    0.000    0.000    0.000    0.000 
#
# Total GULP energy -396417.734476 kJ/mol
# GULP energy per Si atom -12388.054202 kJ/mol
# Density = 1.740340 g / cm^3
# Si number density = 17.443105 Si / 1000 Ang^3
#
#
#
# Elastic Constant Matrix: (Units=GPa)
#
#
# Indices 1 2 3 4 5 6 
#
# 1 70.8650 13.2883 29.7001 0.0000 -21.0152 0.0000
# 2 13.2883 60.0761 9.3567 0.0000 0.0994 0.0000
# 3 29.7001 9.3567 56.2802 0.0000 -19.3233 0.0000
# 4 0.0000 0.0000 0.0000 10.9187 0.0000 -3.7901
# 5 -21.0152 0.0994 -19.3233 0.0000 19.2406 0.0000
# 6 0.0000 0.0000 0.0000 -3.7901 0.0000 23.8175
#
#
#
# Elastic Compliance Matrix: (Units=1/GPa)
#
#
# Indices 1 2 3 4 5 6 
#
# 1 0.022865 -0.004439 -0.004191 0.000000 0.020788 0.000000
# 2 -0.004439 0.018208 -0.003635 0.000000 -0.008593 0.000000
# 3 -0.004191 -0.003635 0.029029 0.000000 0.024595 0.000000
# 4 0.000000 0.000000 0.000000 0.096941 0.000000 0.015426
# 5 0.020788 -0.008593 0.024595 0.000000 0.099424 0.000000
# 6 0.000000 0.000000 0.000000 0.015426 0.000000 0.044441
#
#
# Mechanical properties :
#
#
# Convention : Reuss Voigt Hill
#
# Bulk Modulus (GPa) = 21.94357 32.43460 27.18909
# Shear Modulus (GPa) = 14.26019 19.78710 17.02364
#
# Velocity S-wave (km/s) = 2.86234 3.37171 3.12741
# Velocity P-wave (km/s) = 4.85092 5.81316 5.35370
#
# Compressibility (1/GPa) = 0.04557143
#
# Stress axis : x y z
#
# Youngs Moduli (GPa) = 43.73524 54.92148 34.44889
#
# Poissons Ratio (x) = 0.24381 0.14437
# Poissons Ratio (y) = 0.19415 0.12522
# Poissons Ratio (z) = 0.18329 0.19963
#
# Static dielectric constant tensor:
#      x y z
#    x 3.264670 0.000000 -0.042480 
#    y 0.000000 3.295660 0.000000 
#    z -0.042480 0.000000 2.930070 
# 
# 
# High freq. dielectric constant tensor:
#      x y z
#    x 1.681620 0.000000 -0.009460 
#    y 0.000000 1.666330 0.000000 
#    z -0.009460 0.000000 1.628610 
# 
# From -- ./inp_files/78288.got.cif
#   From: 2010.06.25/outbox.cif.g09.slc.cpg/sg10_40_cif.got.tgz:78288.got - 2010.06.27 22:07:45.
