data_PCOD8058674
_publ_section_title
;
Structure prediction by ZEFSAII (Michael W. Deem and Ramdas Pophale) SiO2 
 PCOD8058674
Probable space group: P 2/M
;
_chemical_formula_sum "Si O2"
_cell_formula_units_Z 32
_cell_length_a 17.517936
_cell_length_b 13.928380
_cell_length_c 24.264527
_cell_angle_alpha 90.000000
_cell_angle_beta 163.428393
_cell_angle_gamma 90.000000
_cell_volume 1688.594421
_symmetry_space_group_name_H-M "P 2/M"
_symmetry_group_IT_number 10
_symmetry_cell_setting 'monoclinic'
loop_
_space_group_symop_operation_xyz
x,y,z
-x,y,-z
-x,-y,-z
x,-y,z
loop_
_atom_site_type_symbol
_atom_site_label
_atom_site_fract_x
_atom_site_fract_y
_atom_site_fract_z
Si Si1 0.258341 0.893167 0.943016
Si Si2 0.763744 0.104753 0.791778
Si Si3 0.907320 0.786830 0.063285
Si Si4 0.883827 0.893048 0.362459
Si Si5 0.816843 0.227884 0.212657
Si Si6 0.806078 0.390224 0.563587
Si Si7 0.305897 0.275021 0.193078
Si Si8 0.200113 0.392295 0.311656
O O1 0.120701 0.838618 0.796899
O O2 0.225298 0.833990 0.975835
O O3 0.132377 0.000000 0.860898
O O4 0.568533 0.902398 0.146515
O O5 0.871960 0.138214 0.807029
O O6 0.573908 0.189539 0.684043
O O7 0.623507 0.000000 0.688722
O O8 0.000000 0.097698 0.000000
O O9 0.023594 0.682710 0.156712
O O10 0.686157 0.765627 0.863573
O O11 0.952436 0.823161 0.359313
O O12 0.000000 0.849994 0.500000
O O13 0.006843 0.000000 0.437628
O O14 0.967025 0.328895 0.310137
O O15 0.500000 0.247248 0.000000
O O16 0.856355 0.500000 0.581892
O O17 0.504686 0.364217 0.335819
O O18 0.829634 0.373269 0.644574
O O19 0.000000 0.302568 0.000000
O O20 0.500000 0.376726 0.500000
O O21 0.103249 0.500000 0.229639
#
# Coordination Sequence:
#
# PCOD8058674 Si02
#       8
#     4   4   4   4   4   4   4   4
#     4  10  19  33  55  84 114 147 181 225 281 336
#     4   8  15  30  49  73 109 150 182 215 265 331
#     4  10  18  31  54  81 110 143 184 232 278 335
#     4   9  19  35  58  87 114 144 183 227 279 342
#     4  10  21  39  60  81 114 153 186 236 284 338
#     4  11  23  39  59  83 112 149 196 241 288 341
#     4   9  20  35  55  81 113 153 186 233 284 341
#     4  10  20  35  56  78 107 148 193 240 282 329
#
# _framework density 18.950672999999998
#
# number of rings (size 3 to 8) (size 9 to 14) (size 15 to 20)
#    0.000    2.625    1.250    2.250    1.750    3.000 
#    0.000    1.250    0.000    2.250    0.000    0.000 
#    0.000    0.000    0.000    0.000    0.000    0.000 
#
# Total GULP energy -396603.387206 kJ/mol
# GULP energy per Si atom -12393.855850 kJ/mol
# Density = 1.890754 g / cm^3
# Si number density = 18.950673 Si / 1000 Ang^3
#
#
#
# Elastic Constant Matrix: (Units=GPa)
#
#
# Indices 1 2 3 4 5 6 
#
# 1 101.6569 51.1063 12.8087 0.0000 -8.2955 0.0000
# 2 51.1063 133.5521 32.8574 0.0000 -0.3455 0.0000
# 3 12.8087 32.8574 41.9598 0.0000 -3.0316 0.0000
# 4 0.0000 0.0000 0.0000 26.0058 0.0000 3.0159
# 5 -8.2955 -0.3455 -3.0316 0.0000 21.0900 0.0000
# 6 0.0000 0.0000 0.0000 3.0159 0.0000 29.4247
#
#
#
# Elastic Compliance Matrix: (Units=1/GPa)
#
#
# Indices 1 2 3 4 5 6 
#
# 1 0.012672 -0.004921 0.000343 0.000000 0.004953 0.000000
# 2 -0.004921 0.011202 -0.007474 0.000000 -0.002826 0.000000
# 3 0.000343 -0.007474 0.029892 0.000000 0.004309 0.000000
# 4 0.000000 0.000000 0.000000 0.038916 0.000000 -0.003989
# 5 0.004953 -0.002826 0.004309 0.000000 0.049937 0.000000
# 6 0.000000 0.000000 0.000000 -0.003989 0.000000 0.034394
#
#
# Mechanical properties :
#
#
# Convention : Reuss Voigt Hill
#
# Bulk Modulus (GPa) = 33.71343 52.30151 43.00747
# Shear Modulus (GPa) = 23.69628 27.33053 25.51341
#
# Velocity S-wave (km/s) = 3.53996 3.80174 3.67318
# Velocity P-wave (km/s) = 5.87683 6.85052 6.38227
#
# Compressibility (1/GPa) = 0.02966177
#
# Stress axis : x y z
#
# Youngs Moduli (GPa) = 78.91569 89.26794 33.45396
#
# Poissons Ratio (x) = 0.43925 -0.01147
# Poissons Ratio (y) = 0.38831 0.25004
# Poissons Ratio (z) = -0.02705 0.66721
#
# Static dielectric constant tensor:
#      x y z
#    x 3.557740 0.000000 -0.155000 
#    y 0.000000 3.809650 0.000000 
#    z -0.155000 0.000000 3.112530 
# 
# 
# High freq. dielectric constant tensor:
#      x y z
#    x 1.742670 0.000000 -0.012680 
#    y 0.000000 1.741490 0.000000 
#    z -0.012680 0.000000 1.705840 
# 
# From -- ./inp_files/85418.got.cif
#   From: 2010.06.25/outbox.cif.g09.slc.cpg/sg10_43_cif.got.tgz:85418.got - 2010.06.27 22:07:45.
