data_PCOD8058081
_publ_section_title
;
Structure prediction by ZEFSAII (Michael W. Deem and Ramdas Pophale) SiO2 
 PCOD8058081
Probable space group: P 2/M
;
_chemical_formula_sum "Si O2"
_cell_formula_units_Z 28
_cell_length_a 10.915114
_cell_length_b 7.990727
_cell_length_c 25.011431
_cell_angle_alpha 90.000000
_cell_angle_beta 132.474389
_cell_angle_gamma 90.000000
_cell_volume 1609.021323
_symmetry_space_group_name_H-M "P 2/M"
_symmetry_group_IT_number 10
_symmetry_cell_setting 'monoclinic'
loop_
_space_group_symop_operation_xyz
x,y,z
-x,y,-z
-x,-y,-z
x,-y,z
loop_
_atom_site_type_symbol
_atom_site_label
_atom_site_fract_x
_atom_site_fract_y
_atom_site_fract_z
Si Si1 0.976915 0.308237 0.202000
Si Si2 0.274487 0.692114 0.211430
Si Si3 0.645616 0.691368 0.504947
Si Si4 0.199934 0.000000 0.119699
Si Si5 0.460126 0.807576 0.359124
Si Si6 0.831252 0.809477 0.650257
Si Si7 0.190468 0.000000 0.992757
Si Si8 0.689588 0.692738 0.040300
O O1 0.998302 0.500000 0.222068
O O2 0.796691 0.266063 0.124932
O O3 0.114400 0.253714 0.199122
O O4 0.998425 0.216831 0.266073
O O5 0.260730 0.500000 0.185683
O O6 0.282708 0.828528 0.166523
O O7 0.440672 0.707702 0.297409
O O8 0.500000 0.766899 0.500000
O O9 0.615702 0.500000 0.484128
O O10 0.633685 0.778665 0.442550
O O11 0.819685 0.720010 0.588279
O O12 0.005152 0.000000 0.074828
O O13 0.237415 0.000000 0.068342
O O14 0.314425 0.737683 0.354717
O O15 0.434792 0.000000 0.337361
O O16 0.803499 0.000000 0.628418
O O17 0.266673 0.828495 0.991693
O O18 0.727033 0.500000 0.032089
O O19 0.500000 0.713778 0.000000
#
# Coordination Sequence:
#
# PCOD8058081 Si02
#       8
#     4   4   4   2   4   4   2   4
#     4   9  17  28  44  64  87 118 156 194 235 284
#     4  10  18  30  46  65  92 126 161 198 237 279
#     4   9  15  22  30  47  76 111 153 190 225 269
#     4  11  22  34  50  74  98 130 161 204 246 292
#     4   9  15  23  37  54  79 113 156 196 227 270
#     4   9  16  22  34  52  78 113 149 191 230 269
#     4  11  23  36  54  74 100 126 162 201 252 296
#     4  10  21  37  56  76  98 126 162 204 247 294
#
# _framework density 17.401883000000002
#
# number of rings (size 3 to 8) (size 9 to 14) (size 15 to 20)
#    0.000    2.429    2.143    1.500    2.000    5.714 
#    0.000    1.429    0.000    0.000    0.000    0.000 
#    0.000    0.000    0.000    2.571    0.000   16.000 
#
# Total GULP energy -346882.162547 kJ/mol
# GULP energy per Si atom -12388.648662 kJ/mol
# Density = 1.736228 g / cm^3
# Si number density = 17.401883 Si / 1000 Ang^3
#
#
#
# Elastic Constant Matrix: (Units=GPa)
#
#
# Indices 1 2 3 4 5 6 
#
# 1 27.8737 23.7252 30.5671 0.0000 -1.5832 0.0000
# 2 23.7252 102.3948 58.3721 0.0000 -11.7297 0.0000
# 3 30.5671 58.3721 155.2477 0.0000 -9.0789 0.0000
# 4 0.0000 0.0000 0.0000 31.6055 0.0000 -0.9751
# 5 -1.5832 -11.7297 -9.0789 0.0000 12.3641 0.0000
# 6 0.0000 0.0000 0.0000 -0.9751 0.0000 10.0702
#
#
#
# Elastic Compliance Matrix: (Units=1/GPa)
#
#
# Indices 1 2 3 4 5 6 
#
# 1 0.050508 -0.008379 -0.007190 0.000000 -0.006761 0.000000
# 2 -0.008379 0.014794 -0.003296 0.000000 0.010542 0.000000
# 3 -0.007190 -0.003296 0.009257 0.000000 0.002750 0.000000
# 4 0.000000 0.000000 0.000000 0.031735 0.000000 0.003073
# 5 -0.006761 0.010542 0.002750 0.000000 0.092034 0.000000
# 6 0.000000 0.000000 0.000000 0.003073 0.000000 0.099600
#
#
# Mechanical properties :
#
#
# Convention : Reuss Voigt Hill
#
# Bulk Modulus (GPa) = 27.15172 56.76057 41.95614
# Shear Modulus (GPa) = 14.37051 22.33141 18.35096
#
# Velocity S-wave (km/s) = 2.87679 3.58617 3.25089
# Velocity P-wave (km/s) = 5.16442 7.05945 6.18494
#
# Compressibility (1/GPa) = 0.03683008
#
# Stress axis : x y z
#
# Youngs Moduli (GPa) = 19.79868 67.59386 108.02497
#
# Poissons Ratio (x) = 0.56635 0.77667
# Poissons Ratio (y) = 0.16589 0.35609
# Poissons Ratio (z) = 0.14235 0.22281
#
# Static dielectric constant tensor:
#      x y z
#    x 2.452810 0.000000 0.020830 
#    y 0.000000 3.278380 0.000000 
#    z 0.020830 0.000000 3.695700 
# 
# 
# High freq. dielectric constant tensor:
#      x y z
#    x 1.559630 0.000000 -0.002190 
#    y 0.000000 1.688840 0.000000 
#    z -0.002190 0.000000 1.702590 
# 
# From -- ./inp_files/88464.got.cif
#   From: 2010.06.25/outbox.cif.g09.slc.cpg/sg10_45_cif.got.tgz:88464.got - 2010.06.27 22:07:45.
