data_PCOD8058018
_publ_section_title
;
Structure prediction by ZEFSAII (Michael W. Deem and Ramdas Pophale) SiO2 
 PCOD8058018
Probable space group: P 2/M
;
_chemical_formula_sum "Si O2"
_cell_formula_units_Z 26
_cell_length_a 11.539542
_cell_length_b 10.672645
_cell_length_c 16.693851
_cell_angle_alpha 90.000000
_cell_angle_beta 138.068645
_cell_angle_gamma 90.000000
_cell_volume 1373.882189
_symmetry_space_group_name_H-M "P 2/M"
_symmetry_group_IT_number 10
_symmetry_cell_setting 'monoclinic'
loop_
_space_group_symop_operation_xyz
x,y,z
-x,y,-z
-x,-y,-z
x,-y,z
loop_
_atom_site_type_symbol
_atom_site_label
_atom_site_fract_x
_atom_site_fract_y
_atom_site_fract_z
Si Si1 0.936789 0.713068 0.049682
Si Si2 0.127307 0.635820 0.811066
Si Si3 0.583086 0.855654 0.879193
Si Si4 0.254591 0.858664 0.273486
Si Si5 0.108880 0.145244 0.368420
Si Si6 0.500000 0.265465 0.000000
Si Si7 0.406832 0.854009 0.629940
O O1 0.927672 0.626395 0.123580
O O2 0.082020 0.816293 0.140240
O O3 0.750607 0.776337 0.940810
O O4 0.000000 0.642289 0.000000
O O5 0.072384 0.500000 0.745735
O O6 0.333506 0.645944 0.909510
O O7 0.047283 0.756156 0.724306
O O8 0.509549 0.823592 0.928025
O O9 0.429668 0.827503 0.736225
O O10 0.638072 0.000000 0.905333
O O11 0.239606 0.844825 0.361047
O O12 0.430509 0.789740 0.333556
O O13 0.275456 0.000000 0.256335
O O14 0.219719 0.194421 0.501995
O O15 0.039020 0.000000 0.340585
O O16 0.401305 0.000000 0.606392
#
# Coordination Sequence:
#
# PCOD8058018 Si02
#       7
#     4   4   4   4   4   2   4
#     4  10  18  29  49  80 111 142 175 217 263 323
#     4  10  22  39  59  77 101 141 181 222 272 324
#     4  10  19  30  50  82 116 145 175 221 270 313
#     4   9  15  24  44  75 112 148 174 205 254 316
#     4   9  18  32  52  80 109 139 177 218 261 313
#     4  10  22  38  56  74  99 138 187 226 267 320
#     4   9  16  27  47  76 111 146 177 210 258 316
#
# _framework density 18.924475999999999
#
# number of rings (size 3 to 8) (size 9 to 14) (size 15 to 20)
#    0.000    2.462    1.538    1.385    0.000    7.077 
#    0.000    0.769    0.000   15.692    0.000    0.000 
#    0.000    0.000    0.000    0.000    0.000    0.000 
#
# Total GULP energy -322097.545784 kJ/mol
# GULP energy per Si atom -12388.367146 kJ/mol
# Density = 1.888140 g / cm^3
# Si number density = 18.924476 Si / 1000 Ang^3
#
#
#
# Elastic Constant Matrix: (Units=GPa)
#
#
# Indices 1 2 3 4 5 6 
#
# 1 85.2849 19.0338 37.2341 0.0000 2.6462 0.0000
# 2 19.0338 82.5825 44.6330 0.0000 6.0959 0.0000
# 3 37.2341 44.6330 126.4753 0.0000 0.8433 0.0000
# 4 0.0000 0.0000 0.0000 8.4491 0.0000 0.5184
# 5 2.6462 6.0959 0.8433 0.0000 23.4071 0.0000
# 6 0.0000 0.0000 0.0000 0.5184 0.0000 2.7245
#
#
#
# Elastic Compliance Matrix: (Units=1/GPa)
#
#
# Indices 1 2 3 4 5 6 
#
# 1 0.013578 -0.001100 -0.003602 0.000000 -0.001119 0.000000
# 2 -0.001100 0.015381 -0.005079 0.000000 -0.003698 0.000000
# 3 -0.003602 -0.005079 0.010751 0.000000 0.001343 0.000000
# 4 0.000000 0.000000 0.000000 0.119753 0.000000 -0.022785
# 5 -0.001119 -0.003698 0.001343 0.000000 0.043763 0.000000
# 6 0.000000 0.000000 0.000000 -0.022785 0.000000 0.371376
#
#
# Mechanical properties :
#
#
# Convention : Reuss Voigt Hill
#
# Bulk Modulus (GPa) = 49.63526 55.12716 52.38121
# Shear Modulus (GPa) = 8.32112 19.81227 14.06669
#
# Velocity S-wave (km/s) = 2.09918 3.23911 2.72932
# Velocity P-wave (km/s) = 5.67102 6.57134 6.13771
#
# Compressibility (1/GPa) = 0.02014697
#
# Stress axis : x y z
#
# Youngs Moduli (GPa) = 73.64804 65.01574 93.01887
#
# Poissons Ratio (x) = 0.07154 0.33501
# Poissons Ratio (y) = 0.08104 0.47247
# Poissons Ratio (z) = 0.26525 0.33023
#
# Static dielectric constant tensor:
#      x y z
#    x 3.508280 0.000000 -0.079470 
#    y 0.000000 3.067500 0.000000 
#    z -0.079470 0.000000 3.617320 
# 
# 
# High freq. dielectric constant tensor:
#      x y z
#    x 1.731530 0.000000 -0.002290 
#    y 0.000000 1.689300 0.000000 
#    z -0.002290 0.000000 1.740790 
# 
# From -- ./inp_files/64465.got.cif
#   From: 2010.06.25/outbox.cif.g09.slc.cpg/sg10_33_cif.got.tgz:64465.got - 2010.06.27 22:07:45.
