data_PCOD8058016
_publ_section_title
;
Structure prediction by ZEFSAII (Michael W. Deem and Ramdas Pophale) SiO2 
 PCOD8058016
Probable space group: P 2/M
;
_chemical_formula_sum "Si O2"
_cell_formula_units_Z 32
_cell_length_a 15.345995
_cell_length_b 9.167409
_cell_length_c 12.259229
_cell_angle_alpha 90.000000
_cell_angle_beta 98.567005
_cell_angle_gamma 90.000000
_cell_volume 1705.422023
_symmetry_space_group_name_H-M "P 2/M"
_symmetry_group_IT_number 10
_symmetry_cell_setting 'monoclinic'
loop_
_space_group_symop_operation_xyz
x,y,z
-x,y,-z
-x,-y,-z
x,-y,z
loop_
_atom_site_type_symbol
_atom_site_label
_atom_site_fract_x
_atom_site_fract_y
_atom_site_fract_z
Si Si1 0.037551 0.670430 0.328717
Si Si2 0.696759 0.826782 0.416697
Si Si3 0.868015 0.329848 0.434471
Si Si4 0.485301 0.165219 0.716966
Si Si5 0.068622 0.171598 0.104884
Si Si6 0.570333 0.671311 0.924764
Si Si7 0.340620 0.164461 0.356883
Si Si8 0.268216 0.828054 0.117801
O O1 0.047870 0.500000 0.305686
O O2 0.104614 0.719150 0.437538
O O3 0.053027 0.755446 0.219264
O O4 0.941196 0.706447 0.357842
O O5 0.782798 0.758241 0.377933
O O6 0.610963 0.779268 0.333669
O O7 0.689027 0.758252 0.536949
O O8 0.703515 0.000000 0.419756
O O9 0.847335 0.500000 0.431246
O O10 0.524956 0.283255 0.804853
O O11 0.552754 0.166750 0.627644
O O12 0.482294 0.000000 0.765318
O O13 0.166064 0.209499 0.076994
O O14 0.057822 0.000000 0.121505
O O15 0.000000 0.228036 0.000000
O O16 0.586876 0.500000 0.933437
O O17 0.666289 0.749416 0.956601
O O18 0.500000 0.725475 0.000000
O O19 0.294094 0.235650 0.242299
O O20 0.305404 0.000000 0.355007
O O21 0.287081 0.000000 0.113474
#
# Coordination Sequence:
#
# PCOD8058016 Si02
#       8
#     4   4   4   4   4   4   4   4
#     4   9  19  37  57  75 102 144 186 220 263 323
#     4  10  18  29  49  79 108 136 171 208 257 318
#     4   9  19  35  53  75 106 143 181 221 265 315
#     4   9  18  32  50  74 104 137 170 208 258 315
#     4  10  21  37  57  84 114 139 173 230 284 321
#     4  10  21  37  55  75 100 134 178 225 262 300
#     4   8  14  27  49  73  99 131 168 205 244 300
#     4   9  18  34  56  79 103 137 174 210 263 319
#
# _framework density 18.763683
#
# number of rings (size 3 to 8) (size 9 to 14) (size 15 to 20)
#    0.000    2.750    0.000    3.000    0.000    5.750 
#    2.250    5.000    0.000    3.750    0.000    0.000 
#    0.000    0.000    0.000    0.000    0.000    0.000 
#
# Total GULP energy -396555.438291 kJ/mol
# GULP energy per Si atom -12392.357447 kJ/mol
# Density = 1.872098 g / cm^3
# Si number density = 18.763683 Si / 1000 Ang^3
#
#
#
# Elastic Constant Matrix: (Units=GPa)
#
#
# Indices 1 2 3 4 5 6 
#
# 1 155.8345 40.1414 44.6029 0.0000 6.8538 0.0000
# 2 40.1414 35.9447 26.0169 0.0000 -5.1325 0.0000
# 3 44.6029 26.0169 61.7424 0.0000 -8.7398 0.0000
# 4 0.0000 0.0000 0.0000 20.2459 0.0000 -13.1454
# 5 6.8538 -5.1325 -8.7398 0.0000 27.8748 0.0000
# 6 0.0000 0.0000 0.0000 -13.1454 0.0000 14.6606
#
#
#
# Elastic Compliance Matrix: (Units=1/GPa)
#
#
# Indices 1 2 3 4 5 6 
#
# 1 0.010250 -0.009082 -0.004365 0.000000 -0.005561 0.000000
# 2 -0.009082 0.048202 -0.012744 0.000000 0.007113 0.000000
# 3 -0.004365 -0.012744 0.025679 0.000000 0.006778 0.000000
# 4 0.000000 0.000000 0.000000 0.118214 0.000000 0.105996
# 5 -0.005561 0.007113 0.006778 0.000000 0.040677 0.000000
# 6 0.000000 0.000000 0.000000 0.105996 0.000000 0.163251
#
#
# Mechanical properties :
#
#
# Convention : Reuss Voigt Hill
#
# Bulk Modulus (GPa) = 31.49597 52.78269 42.13933
# Shear Modulus (GPa) = 10.65555 22.07365 16.36460
#
# Velocity S-wave (km/s) = 2.38561 3.43359 2.95641
# Velocity P-wave (km/s) = 4.94067 6.62652 5.84470
#
# Compressibility (1/GPa) = 0.03175009
#
# Stress axis : x y z
#
# Youngs Moduli (GPa) = 97.55679 20.74598 38.94176
#
# Poissons Ratio (x) = 0.18841 0.16999
# Poissons Ratio (y) = 0.88597 0.49627
# Poissons Ratio (z) = 0.42587 0.26439
#
# Static dielectric constant tensor:
#      x y z
#    x 3.773660 0.000000 -0.067500 
#    y 0.000000 3.140730 0.000000 
#    z -0.067500 0.000000 3.344960 
# 
# 
# High freq. dielectric constant tensor:
#      x y z
#    x 1.744180 0.000000 -0.004690 
#    y 0.000000 1.703320 0.000000 
#    z -0.004690 0.000000 1.708600 
# 
# From -- ./inp_files/49826.got.cif
#   From: 2010.06.25/outbox.cif.g09.slc.cpg/sg10_25_cif.got.tgz:49826.got - 2010.06.27 22:07:45.
