data_PCOD8058996
_publ_section_title
;
Structure prediction by ZEFSAII (Michael W. Deem and Ramdas Pophale) SiO2 
 PCOD8058996
Probable space group: P 2/M
;
_chemical_formula_sum "Si O2"
_cell_formula_units_Z 32
_cell_length_a 9.280765
_cell_length_b 13.969652
_cell_length_c 31.081602
_cell_angle_alpha 90.000000
_cell_angle_beta 28.226871
_cell_angle_gamma 90.000000
_cell_volume 1905.903353
_symmetry_space_group_name_H-M "P 2/M"
_symmetry_group_IT_number 10
_symmetry_cell_setting 'monoclinic'
loop_
_space_group_symop_operation_xyz
x,y,z
-x,y,-z
-x,-y,-z
x,-y,z
loop_
_atom_site_type_symbol
_atom_site_label
_atom_site_fract_x
_atom_site_fract_y
_atom_site_fract_z
Si Si1 0.454162 0.107722 0.964345
Si Si2 0.765983 0.387437 0.528553
Si Si3 0.336414 0.287923 0.135330
Si Si4 0.064037 0.394043 0.033354
Si Si5 0.220847 0.610970 0.340227
Si Si6 0.527483 0.715706 0.803235
Si Si7 0.272682 0.610851 0.719795
Si Si8 0.165357 0.107068 0.913883
O O1 0.626856 0.174887 0.884307
O O2 0.586031 0.000000 0.923929
O O3 0.500000 0.148001 0.000000
O O4 0.089908 0.106177 0.055343
O O5 0.784382 0.500000 0.531019
O O6 0.426192 0.356941 0.633262
O O7 0.000000 0.337551 0.500000
O O8 0.886499 0.364012 0.448761
O O9 0.333146 0.311183 0.187081
O O10 0.027585 0.325638 0.194828
O O11 0.622054 0.340976 0.038129
O O12 0.078810 0.500000 0.049586
O O13 0.783523 0.338227 0.128038
O O14 0.000000 0.398600 0.000000
O O15 0.229557 0.500000 0.322515
O O16 0.238443 0.683467 0.295275
O O17 0.490353 0.629267 0.303728
O O18 0.451596 0.829060 0.823718
O O19 0.174188 0.500000 0.744356
O O20 0.287392 0.000000 0.892036
O O21 0.000000 0.151409 0.000000
#
# Coordination Sequence:
#
# PCOD8058996 Si02
#       8
#     4   4   4   4   4   4   4   4
#     4  10  21  35  50  68  92 122 156 198 241 274
#     4   7  12  28  49  66  87 120 158 194 231 271
#     4  11  20  30  46  69  96 123 154 193 234 275
#     4   9  17  28  40  57  89 128 157 178 213 264
#     4   9  18  31  49  70  94 124 159 195 230 275
#     4  11  19  30  44  69  94 124 157 190 232 275
#     4   9  18  31  48  69  94 125 160 194 231 275
#     4  10  18  33  52  67  88 122 162 196 228 273
#
# _framework density 16.789939
#
# number of rings (size 3 to 8) (size 9 to 14) (size 15 to 20)
#    0.000    2.500    2.500    2.625    1.750    1.500 
#    0.000    0.625    0.000    5.250    0.000    0.875 
#    0.000    5.000    0.000    0.000    0.000    0.000 
#
# Total GULP energy -396487.363675 kJ/mol
# GULP energy per Si atom -12390.230115 kJ/mol
# Density = 1.675172 g / cm^3
# Si number density = 16.789939 Si / 1000 Ang^3
#
#
#
# Elastic Constant Matrix: (Units=GPa)
#
#
# Indices 1 2 3 4 5 6 
#
# 1 47.3939 10.9569 10.4497 0.0000 8.3945 0.0000
# 2 10.9569 78.8777 23.9590 0.0000 8.2201 0.0000
# 3 10.4497 23.9590 52.4855 0.0000 12.9337 0.0000
# 4 0.0000 0.0000 0.0000 13.2265 0.0000 5.7702
# 5 8.3945 8.2201 12.9337 0.0000 22.4520 0.0000
# 6 0.0000 0.0000 0.0000 5.7702 0.0000 18.9232
#
#
#
# Elastic Compliance Matrix: (Units=1/GPa)
#
#
# Indices 1 2 3 4 5 6 
#
# 1 0.023196 -0.001881 -0.002089 0.000000 -0.006781 0.000000
# 2 -0.001881 0.014932 -0.006139 0.000000 -0.001227 0.000000
# 3 -0.002089 -0.006139 0.025086 0.000000 -0.011422 0.000000
# 4 0.000000 0.000000 0.000000 0.087207 0.000000 -0.026592
# 5 -0.006781 -0.001227 -0.011422 0.000000 0.054104 0.000000
# 6 0.000000 0.000000 0.000000 -0.026592 0.000000 0.060954
#
#
# Mechanical properties :
#
#
# Convention : Reuss Voigt Hill
#
# Bulk Modulus (GPa) = 23.25803 29.94314 26.60059
# Shear Modulus (GPa) = 16.66509 19.81312 18.23910
#
# Velocity S-wave (km/s) = 3.15392 3.43893 3.29950
# Velocity P-wave (km/s) = 5.21012 5.80008 5.51300
#
# Compressibility (1/GPa) = 0.04299590
#
# Stress axis : x y z
#
# Youngs Moduli (GPa) = 43.11055 66.97105 39.86288
#
# Poissons Ratio (x) = 0.12598 0.08326
# Poissons Ratio (y) = 0.08110 0.24473
# Poissons Ratio (z) = 0.09004 0.41116
#
# Static dielectric constant tensor:
#      x y z
#    x 2.991740 0.000000 0.064880 
#    y 0.000000 3.062130 0.000000 
#    z 0.064880 0.000000 3.191110 
# 
# 
# High freq. dielectric constant tensor:
#      x y z
#    x 1.636240 0.000000 0.005090 
#    y 0.000000 1.624610 0.000000 
#    z 0.005090 0.000000 1.624170 
# 
# From -- ./inp_files/29067.got.cif
#   From: 2010.06.25/outbox.cif.g09.slc.cpg/sg10_15_cif.got.tgz:29067.got - 2010.06.27 22:07:45.
