data_PCOD8058314
_publ_section_title
;
Structure prediction by ZEFSAII (Michael W. Deem and Ramdas Pophale) SiO2 
 PCOD8058314
Probable space group: P 2/M
;
_chemical_formula_sum "Si O2"
_cell_formula_units_Z 32
_cell_length_a 20.596978
_cell_length_b 9.292120
_cell_length_c 21.207343
_cell_angle_alpha 90.000000
_cell_angle_beta 25.707469
_cell_angle_gamma 90.000000
_cell_volume 1760.640306
_symmetry_space_group_name_H-M "P 2/M"
_symmetry_group_IT_number 10
_symmetry_cell_setting 'monoclinic'
loop_
_space_group_symop_operation_xyz
x,y,z
-x,y,-z
-x,-y,-z
x,-y,z
loop_
_atom_site_type_symbol
_atom_site_label
_atom_site_fract_x
_atom_site_fract_y
_atom_site_fract_z
Si Si1 0.357103 0.168588 0.661801
Si Si2 0.244490 0.170798 0.891416
Si Si3 0.853660 0.332889 0.806023
Si Si4 0.706881 0.837320 0.604673
Si Si5 0.008970 0.167094 0.563925
Si Si6 0.851250 0.333570 0.373483
Si Si7 0.093592 0.832077 0.798804
Si Si8 0.366970 0.165608 0.918015
O O1 0.500000 0.238719 0.500000
O O2 0.336529 0.233256 0.750581
O O3 0.201573 0.199977 0.762728
O O4 0.387678 0.000000 0.640323
O O5 0.322506 0.224084 0.887467
O O6 0.246582 0.000000 0.885249
O O7 0.072571 0.224767 0.039463
O O8 0.823874 0.500000 0.819837
O O9 0.890097 0.258747 0.707684
O O10 0.986055 0.305917 0.739640
O O11 0.706975 0.260821 0.963214
O O12 0.726544 0.730449 0.529006
O O13 0.542518 0.816766 0.776287
O O14 0.823347 0.802232 0.558415
O O15 0.730327 0.000000 0.559215
O O16 0.000000 0.219757 0.500000
O O17 0.965404 0.000000 0.608325
O O18 0.816736 0.500000 0.393361
O O19 0.838380 0.253092 0.319081
O O20 0.090511 0.000000 0.783834
O O21 0.314805 0.000000 0.970615
#
# Coordination Sequence:
#
# PCOD8058314 Si02
#       8
#     4   4   4   4   4   4   4   4
#     4   9  18  29  45  72 102 128 165 217 264 308
#     4   9  17  29  46  72 100 129 164 207 260 307
#     4  10  20  34  53  78 108 139 174 211 252 305
#     4   9  19  33  53  80 106 133 171 212 257 303
#     4   9  18  35  58  81 107 139 174 211 252 301
#     4  10  20  33  50  74 103 135 172 213 257 306
#     4  10  18  30  51  72  97 131 169 211 258 310
#     4  10  19  32  53  79 107 133 168 218 262 304
#
# _framework density 18.175204999999998
#
# number of rings (size 3 to 8) (size 9 to 14) (size 15 to 20)
#    0.000    2.500    1.250    1.125    1.750    3.250 
#    0.000    0.625    0.000    6.375    0.000    0.000 
#    0.000    0.000    0.000    0.000    0.000    0.000 
#
# Total GULP energy -396814.120340 kJ/mol
# GULP energy per Si atom -12400.441261 kJ/mol
# Density = 1.813384 g / cm^3
# Si number density = 18.175205 Si / 1000 Ang^3
#
#
#
# Elastic Constant Matrix: (Units=GPa)
#
#
# Indices 1 2 3 4 5 6 
#
# 1 99.9525 39.3598 62.1537 0.0000 23.8859 0.0000
# 2 39.3598 62.7159 43.8522 0.0000 15.1408 0.0000
# 3 62.1537 43.8522 124.5838 0.0000 13.5982 0.0000
# 4 0.0000 0.0000 0.0000 10.9205 0.0000 -3.2695
# 5 23.8859 15.1408 13.5982 0.0000 30.3227 0.0000
# 6 0.0000 0.0000 0.0000 -3.2695 0.0000 9.2059
#
#
#
# Elastic Compliance Matrix: (Units=1/GPa)
#
#
# Indices 1 2 3 4 5 6 
#
# 1 0.017905 -0.004662 -0.006316 0.000000 -0.008944 0.000000
# 2 -0.004662 0.024169 -0.005536 0.000000 -0.005913 0.000000
# 3 -0.006316 -0.005536 0.012914 0.000000 0.001948 0.000000
# 4 0.000000 0.000000 0.000000 0.102466 0.000000 0.036391
# 5 -0.008944 -0.005913 0.001948 0.000000 0.042103 0.000000
# 6 0.000000 0.000000 0.000000 0.036391 0.000000 0.121550
#
#
# Mechanical properties :
#
#
# Convention : Reuss Voigt Hill
#
# Bulk Modulus (GPa) = 45.53550 64.22041 54.87796
# Shear Modulus (GPa) = 13.83302 19.54892 16.69097
#
# Velocity S-wave (km/s) = 2.76178 3.28316 3.03370
# Velocity P-wave (km/s) = 5.93953 7.05571 6.52154
#
# Compressibility (1/GPa) = 0.02196089
#
# Stress axis : x y z
#
# Youngs Moduli (GPa) = 55.84983 41.37501 77.43823
#
# Poissons Ratio (x) = 0.19288 0.48906
# Poissons Ratio (y) = 0.26036 0.42871
# Poissons Ratio (z) = 0.35272 0.22906
#
# Static dielectric constant tensor:
#      x y z
#    x 3.308780 0.000000 0.068810 
#    y 0.000000 3.068520 0.000000 
#    z 0.068810 0.000000 3.423460 
# 
# 
# High freq. dielectric constant tensor:
#      x y z
#    x 1.696900 0.000000 0.005380 
#    y 0.000000 1.670200 0.000000 
#    z 0.005380 0.000000 1.709950 
# 
# From -- ./inp_files/90612.got.cif
#   From: 2010.06.25/outbox.cif.g09.slc.cpg/sg10_46_cif.got.tgz:90612.got - 2010.06.27 22:07:45.
