data_PCOD8058570
_publ_section_title
;
Structure prediction by ZEFSAII (Michael W. Deem and Ramdas Pophale) SiO2 
 PCOD8058570
Probable space group: P 2/M
;
_chemical_formula_sum "Si O2"
_cell_formula_units_Z 32
_cell_length_a 23.309033
_cell_length_b 8.841347
_cell_length_c 21.072554
_cell_angle_alpha 90.000000
_cell_angle_beta 24.302214
_cell_angle_gamma 90.000000
_cell_volume 1787.236507
_symmetry_space_group_name_H-M "P 2/M"
_symmetry_group_IT_number 10
_symmetry_cell_setting 'monoclinic'
loop_
_space_group_symop_operation_xyz
x,y,z
-x,y,-z
-x,-y,-z
x,-y,z
loop_
_atom_site_type_symbol
_atom_site_label
_atom_site_fract_x
_atom_site_fract_y
_atom_site_fract_z
Si Si1 0.036870 0.821439 0.321727
Si Si2 0.579679 0.820846 0.479946
Si Si3 0.681410 0.822211 0.185898
Si Si4 0.538498 0.677521 0.095274
Si Si5 0.237260 0.320731 0.367845
Si Si6 0.777764 0.678463 0.763297
Si Si7 0.750704 0.677681 0.985532
Si Si8 0.845418 0.178760 0.148200
O O1 0.094056 0.758560 0.330829
O O2 0.119647 0.759938 0.177668
O O3 0.878799 0.764484 0.474161
O O4 0.044017 0.000000 0.314326
O O5 0.500000 0.752300 0.500000
O O6 0.483272 0.775621 0.637575
O O7 0.741730 0.764881 0.310738
O O8 0.580666 0.000000 0.473457
O O9 0.776338 0.777162 0.150594
O O10 0.693529 0.000000 0.159366
O O11 0.739498 0.728089 0.068990
O O12 0.523029 0.500000 0.103460
O O13 0.383885 0.745525 0.245950
O O14 0.634659 0.735302 0.940327
O O15 0.608872 0.722496 0.091242
O O16 0.222185 0.500000 0.392151
O O17 0.224432 0.274476 0.307318
O O18 0.798201 0.500000 0.752032
O O19 0.777787 0.500000 0.954046
O O20 0.860418 0.000000 0.137349
O O21 0.000000 0.252637 0.000000
#
# Coordination Sequence:
#
# PCOD8058570 Si02
#       8
#     4   4   4   4   4   4   4   4
#     4  11  22  34  48  69  99 130 161 199 242 289
#     4   7  11  21  39  64  92 121 149 178 218 267
#     4   9  16  28  48  71  95 124 159 196 234 278
#     4   8  16  31  51  72  92 120 161 204 239 281
#     4  10  18  31  52  74  96 123 157 199 247 295
#     4   9  17  31  52  75  96 123 159 195 239 297
#     4  10  20  36  54  69  90 126 170 205 241 290
#     4   8  13  23  43  72 102 128 155 189 228 272
#
# _framework density 17.904737999999998
#
# number of rings (size 3 to 8) (size 9 to 14) (size 15 to 20)
#    0.000    3.000    0.000    4.500    0.000    3.500 
#    0.000    4.375    0.000    9.000    0.000    0.000 
#    0.000    0.000    0.000    0.000    0.000    0.000 
#
# Total GULP energy -396471.228284 kJ/mol
# GULP energy per Si atom -12389.725884 kJ/mol
# Density = 1.786399 g / cm^3
# Si number density = 17.904738 Si / 1000 Ang^3
#
#
#
# Elastic Constant Matrix: (Units=GPa)
#
#
# Indices 1 2 3 4 5 6 
#
# 1 62.2000 22.7128 57.7301 0.0000 1.6197 0.0000
# 2 22.7128 44.1504 33.4467 0.0000 1.7160 0.0000
# 3 57.7301 33.4467 144.0564 0.0000 -21.8817 0.0000
# 4 0.0000 0.0000 0.0000 16.8781 0.0000 9.0250
# 5 1.6197 1.7160 -21.8817 0.0000 23.8537 0.0000
# 6 0.0000 0.0000 0.0000 9.0250 0.0000 14.7373
#
#
#
# Elastic Compliance Matrix: (Units=1/GPa)
#
#
# Indices 1 2 3 4 5 6 
#
# 1 0.030489 -0.005243 -0.013081 0.000000 -0.013693 0.000000
# 2 -0.005243 0.030197 -0.006025 0.000000 -0.007344 0.000000
# 3 -0.013081 -0.006025 0.016015 0.000000 0.016013 0.000000
# 4 0.000000 0.000000 0.000000 0.088096 0.000000 -0.053949
# 5 -0.013693 -0.007344 0.016013 0.000000 0.058069 0.000000
# 6 0.000000 0.000000 0.000000 -0.053949 0.000000 0.100893
#
#
# Mechanical properties :
#
#
# Convention : Reuss Voigt Hill
#
# Bulk Modulus (GPa) = 35.71105 53.13179 44.42142
# Shear Modulus (GPa) = 13.09612 20.19498 16.64555
#
# Velocity S-wave (km/s) = 2.70744 3.36208 3.05236
# Velocity P-wave (km/s) = 5.45545 6.69407 6.10625
#
# Compressibility (1/GPa) = 0.02800254
#
# Stress axis : x y z
#
# Youngs Moduli (GPa) = 32.79838 33.11572 62.44076
#
# Poissons Ratio (x) = 0.17363 0.81679
# Poissons Ratio (y) = 0.17196 0.37623
# Poissons Ratio (z) = 0.42904 0.19954
#
# Static dielectric constant tensor:
#      x y z
#    x 3.166240 0.000000 -0.158390 
#    y 0.000000 2.877430 0.000000 
#    z -0.158390 0.000000 3.849130 
# 
# 
# High freq. dielectric constant tensor:
#      x y z
#    x 1.664590 0.000000 -0.001140 
#    y 0.000000 1.651140 0.000000 
#    z -0.001140 0.000000 1.713790 
# 
# From -- ./inp_files/91218.got.cif
#   From: 2010.06.25/outbox.cif.g09.slc.cpg/sg10_46_cif.got.tgz:91218.got - 2010.06.27 22:07:45.
