data_PCOD8058961
_publ_section_title
;
Structure prediction by ZEFSAII (Michael W. Deem and Ramdas Pophale) SiO2 
 PCOD8058961
Probable space group: P 2/M
;
_chemical_formula_sum "Si O2"
_cell_formula_units_Z 28
_cell_length_a 9.053173
_cell_length_b 16.151332
_cell_length_c 21.121515
_cell_angle_alpha 90.000000
_cell_angle_beta 150.230682
_cell_angle_gamma 90.000000
_cell_volume 1533.421435
_symmetry_space_group_name_H-M "P 2/M"
_symmetry_group_IT_number 10
_symmetry_cell_setting 'monoclinic'
loop_
_space_group_symop_operation_xyz
x,y,z
-x,y,-z
-x,-y,-z
x,-y,z
loop_
_atom_site_type_symbol
_atom_site_label
_atom_site_fract_x
_atom_site_fract_y
_atom_site_fract_z
Si Si1 0.794467 0.906481 0.148149
Si Si2 0.161686 0.242969 0.740700
Si Si3 0.189574 0.187265 0.216683
Si Si4 0.223165 0.731287 0.524768
Si Si5 0.703510 0.720146 0.858738
Si Si6 0.403843 0.593884 0.291080
Si Si7 0.843012 0.663581 0.139249
O O1 0.847099 0.845536 0.227083
O O2 0.067573 0.899223 0.198707
O O3 0.784953 0.000000 0.170724
O O4 0.500000 0.883264 0.000000
O O5 0.486647 0.256609 0.834039
O O6 0.101292 0.319153 0.765755
O O7 0.922335 0.246743 0.596003
O O8 0.495594 0.207967 0.365984
O O9 0.239166 0.194386 0.159573
O O10 0.922962 0.252469 0.132026
O O11 0.347281 0.636448 0.571104
O O12 0.000000 0.747662 0.500000
O O13 0.578349 0.648172 0.766558
O O14 0.000000 0.684389 0.000000
O O15 0.496006 0.500000 0.310669
O O16 0.075058 0.594117 0.200722
O O17 0.500000 0.636815 0.000000
#
# Coordination Sequence:
#
# PCOD8058961 Si02
#       7
#     4   4   4   4   4   4   4
#     4  10  21  37  58  88 120 142 169 221 281 325
#     4  11  18  34  60  81 106 144 191 224 263 324
#     4   9  18  33  54  79 111 144 184 221 263 320
#     4  10  19  37  55  81 105 147 190 228 266 319
#     4  10  18  32  57  82 104 144 196 229 268 327
#     4  10  22  37  52  76 114 146 179 237 290 323
#     4   9  18  33  53  78 106 143 184 223 275 332
#
# _framework density 18.259820999999999
#
# number of rings (size 3 to 8) (size 9 to 14) (size 15 to 20)
#    0.000    2.429    2.857    4.286    0.000    6.000 
#    0.000    4.286    0.000    3.429    0.000    0.000 
#    0.000    0.000    0.000    0.000    0.000    0.000 
#
# Total GULP energy -346932.454406 kJ/mol
# GULP energy per Si atom -12390.444800 kJ/mol
# Density = 1.821826 g / cm^3
# Si number density = 18.259821 Si / 1000 Ang^3
#
#
#
# Elastic Constant Matrix: (Units=GPa)
#
#
# Indices 1 2 3 4 5 6 
#
# 1 86.1534 31.4790 9.1531 0.0000 -0.7932 0.0000
# 2 31.4790 81.8612 40.8225 0.0000 -4.3290 0.0000
# 3 9.1531 40.8225 92.8841 0.0000 -6.1291 0.0000
# 4 0.0000 0.0000 0.0000 17.2080 0.0000 0.0461
# 5 -0.7932 -4.3290 -6.1291 0.0000 38.6392 0.0000
# 6 0.0000 0.0000 0.0000 0.0461 0.0000 15.6084
#
#
#
# Elastic Compliance Matrix: (Units=1/GPa)
#
#
# Indices 1 2 3 4 5 6 
#
# 1 0.013615 -0.005853 0.001219 0.000000 -0.000183 0.000000
# 2 -0.005853 0.018178 -0.007363 0.000000 0.000749 0.000000
# 3 0.001219 -0.007363 0.013976 0.000000 0.001417 0.000000
# 4 0.000000 0.000000 0.000000 0.058113 0.000000 -0.000171
# 5 -0.000183 0.000749 0.001417 0.000000 0.026185 0.000000
# 6 0.000000 0.000000 0.000000 -0.000171 0.000000 0.064068
#
#
# Mechanical properties :
#
#
# Convention : Reuss Voigt Hill
#
# Bulk Modulus (GPa) = 45.92714 47.08975 46.50845
# Shear Modulus (GPa) = 22.18411 26.25406 24.21908
#
# Velocity S-wave (km/s) = 3.48934 3.79595 3.64587
# Velocity P-wave (km/s) = 6.43744 6.71246 6.57639
#
# Compressibility (1/GPa) = 0.02177362
#
# Stress axis : x y z
#
# Youngs Moduli (GPa) = 73.45096 55.01238 71.55356
#
# Poissons Ratio (x) = 0.32197 -0.08719
# Poissons Ratio (y) = 0.42989 0.52685
# Poissons Ratio (z) = -0.08950 0.40505
#
# Static dielectric constant tensor:
#      x y z
#    x 3.677000 0.000000 0.130140 
#    y 0.000000 3.091980 0.000000 
#    z 0.130140 0.000000 3.446830 
# 
# 
# High freq. dielectric constant tensor:
#      x y z
#    x 1.721080 0.000000 0.009400 
#    y 0.000000 1.662060 0.000000 
#    z 0.009400 0.000000 1.716880 
# 
# From -- ./inp_files/82984.got.cif
#   From: 2010.06.25/outbox.cif.g09.slc.cpg/sg10_42_cif.got.tgz:82984.got - 2010.06.27 22:07:45.
