data_PCOD8058639
_publ_section_title
;
Structure prediction by ZEFSAII (Michael W. Deem and Ramdas Pophale) SiO2 
 PCOD8058639
Probable space group: P 2/M
;
_chemical_formula_sum "Si O2"
_cell_formula_units_Z 32
_cell_length_a 24.861412
_cell_length_b 8.935720
_cell_length_c 20.004447
_cell_angle_alpha 90.000000
_cell_angle_beta 22.798646
_cell_angle_gamma 90.000000
_cell_volume 1722.053549
_symmetry_space_group_name_H-M "P 2/M"
_symmetry_group_IT_number 10
_symmetry_cell_setting 'monoclinic'
loop_
_space_group_symop_operation_xyz
x,y,z
-x,y,-z
-x,-y,-z
x,-y,z
loop_
_atom_site_type_symbol
_atom_site_label
_atom_site_fract_x
_atom_site_fract_y
_atom_site_fract_z
Si Si1 0.661102 0.669155 0.332722
Si Si2 0.139768 0.672039 0.143404
Si Si3 0.410606 0.173381 0.458235
Si Si4 0.821465 0.325736 0.528779
Si Si5 0.278929 0.824332 0.865842
Si Si6 0.367285 0.176041 0.356263
Si Si7 0.340542 0.824494 0.166031
Si Si8 0.647828 0.677611 0.985797
O O1 0.500000 0.682952 0.500000
O O2 0.713957 0.500000 0.273941
O O3 0.684558 0.740082 0.379056
O O4 0.748437 0.755600 0.176167
O O5 0.168115 0.500000 0.093244
O O6 0.985366 0.698391 0.346577
O O7 0.163072 0.765904 0.049429
O O8 0.243888 0.727387 0.081597
O O9 0.570716 0.225920 0.278358
O O10 0.352562 0.209831 0.451586
O O11 0.400615 0.000000 0.487664
O O12 0.781571 0.500000 0.570356
O O13 0.769351 0.241123 0.522063
O O14 0.754048 0.253020 0.670676
O O15 0.265400 0.000000 0.874813
O O16 0.498010 0.259345 0.175387
O O17 0.383574 0.000000 0.323170
O O18 0.308565 0.000000 0.200945
O O19 0.500000 0.791665 0.000000
O O20 0.299670 0.751178 0.142656
O O21 0.640115 0.500000 0.986143
#
# Coordination Sequence:
#
# PCOD8058639 Si02
#       8
#     4   4   4   4   4   4   4   4
#     4   9  17  28  46  76 112 147 185 230 276 326
#     4  10  23  40  57  83 117 149 187 233 278 333
#     4   9  18  31  50  79 113 145 182 231 278 328
#     4  11  24  41  60  83 113 150 189 229 280 338
#     4  10  18  31  53  79 111 151 187 225 279 335
#     4  11  21  36  57  85 116 146 187 235 279 329
#     4  11  23  39  60  85 115 146 183 233 282 332
#     4  11  22  37  61  86 111 147 187 230 280 333
#
# _framework density 18.582464999999999
#
# number of rings (size 3 to 8) (size 9 to 14) (size 15 to 20)
#    0.000    1.750    2.500    2.250    0.000    5.500 
#    0.000    2.500    0.000    0.750    0.000    5.250 
#    0.000    0.000    0.000    0.000    0.000    0.000 
#
# Total GULP energy -396930.494979 kJ/mol
# GULP energy per Si atom -12404.077968 kJ/mol
# Density = 1.854017 g / cm^3
# Si number density = 18.582465 Si / 1000 Ang^3
#
#
#
# Elastic Constant Matrix: (Units=GPa)
#
#
# Indices 1 2 3 4 5 6 
#
# 1 98.6966 47.1765 40.2099 0.0000 28.8489 0.0000
# 2 47.1765 103.0456 39.9186 0.0000 23.1608 0.0000
# 3 40.2099 39.9186 70.4553 0.0000 21.9505 0.0000
# 4 0.0000 0.0000 0.0000 25.6256 0.0000 10.9306
# 5 28.8489 23.1608 21.9505 0.0000 34.0683 0.0000
# 6 0.0000 0.0000 0.0000 10.9306 0.0000 32.3366
#
#
#
# Elastic Compliance Matrix: (Units=1/GPa)
#
#
# Indices 1 2 3 4 5 6 
#
# 1 0.016200 -0.003819 -0.004525 0.000000 -0.008206 0.000000
# 2 -0.003819 0.014023 -0.004758 0.000000 -0.003233 0.000000
# 3 -0.004525 -0.004758 0.021607 0.000000 -0.006856 0.000000
# 4 0.000000 0.000000 0.000000 0.045598 0.000000 -0.015413
# 5 -0.008206 -0.003233 -0.006856 0.000000 0.042917 0.000000
# 6 0.000000 0.000000 0.000000 -0.015413 0.000000 0.036135
#
#
# Mechanical properties :
#
#
# Convention : Reuss Voigt Hill
#
# Bulk Modulus (GPa) = 39.02328 58.53419 48.77873
# Shear Modulus (GPa) = 23.67131 28.06561 25.86846
#
# Velocity S-wave (km/s) = 3.57298 3.89051 3.73512
# Velocity P-wave (km/s) = 6.16986 7.19371 6.70137
#
# Compressibility (1/GPa) = 0.02562573
#
# Stress axis : x y z
#
# Youngs Moduli (GPa) = 61.72937 71.31162 46.28023
#
# Poissons Ratio (x) = 0.27236 0.20941
# Poissons Ratio (y) = 0.23576 0.22020
# Poissons Ratio (z) = 0.27932 0.33930
#
# Static dielectric constant tensor:
#      x y z
#    x 3.560000 0.000000 0.176570 
#    y 0.000000 3.519200 0.000000 
#    z 0.176570 0.000000 3.212650 
# 
# 
# High freq. dielectric constant tensor:
#      x y z
#    x 1.723460 0.000000 0.024250 
#    y 0.000000 1.734120 0.000000 
#    z 0.024250 0.000000 1.699640 
# 
# From -- ./inp_files/86908.got.cif
#   From: 2010.06.25/outbox.cif.g09.slc.cpg/sg10_44_cif.got.tgz:86908.got - 2010.06.27 22:07:45.
