data_PCOD8058128
_publ_section_title
;
Structure prediction by ZEFSAII (Michael W. Deem and Ramdas Pophale) SiO2 
 PCOD8058128
Probable space group: P 2/M
;
_chemical_formula_sum "Si O2"
_cell_formula_units_Z 30
_cell_length_a 11.411342
_cell_length_b 12.857397
_cell_length_c 14.813873
_cell_angle_alpha 90.000000
_cell_angle_beta 130.168003
_cell_angle_gamma 90.000000
_cell_volume 1660.889076
_symmetry_space_group_name_H-M "P 2/M"
_symmetry_group_IT_number 10
_symmetry_cell_setting 'monoclinic'
loop_
_space_group_symop_operation_xyz
x,y,z
-x,y,-z
-x,-y,-z
x,-y,z
loop_
_atom_site_type_symbol
_atom_site_label
_atom_site_fract_x
_atom_site_fract_y
_atom_site_fract_z
Si Si1 0.773705 0.619845 0.035617
Si Si2 0.153148 0.387198 0.516291
Si Si3 0.002104 0.282307 0.718519
Si Si4 0.229117 0.812956 0.081266
Si Si5 0.945997 0.120108 0.832901
Si Si6 0.500000 0.278344 0.000000
Si Si7 0.453856 0.114899 0.827086
Si Si8 0.839007 0.201700 0.372954
O O1 0.771411 0.500000 0.004433
O O2 0.923556 0.642821 0.169776
O O3 0.773020 0.690314 0.944852
O O4 0.627605 0.646012 0.023997
O O5 0.236997 0.500000 0.556754
O O6 0.244945 0.296573 0.613415
O O7 0.000000 0.395936 0.500000
O O8 0.120317 0.351818 0.397199
O O9 0.127969 0.236220 0.712912
O O10 0.922972 0.183832 0.728868
O O11 0.168065 0.828976 0.151234
O O12 0.399566 0.859475 0.161947
O O13 0.121497 0.872553 0.955168
O O14 0.903907 0.000000 0.794946
O O15 0.569340 0.202130 0.109226
O O16 0.293021 0.114053 0.691028
O O17 0.475025 0.000000 0.879185
O O18 0.000000 0.165400 0.500000
#
# Coordination Sequence:
#
# PCOD8058128 Si02
#       8
#     4   4   4   4   4   2   4   4
#     4  10  18  30  47  70 105 136 164 206 258 300
#     4   8  15  30  51  71  96 130 166 208 254 295
#     4   9  17  30  48  77 101 124 172 210 246 310
#     4   9  20  34  49  73 102 133 181 209 244 314
#     4  10  18  33  53  73 101 139 172 211 253 297
#     4  10  20  32  44  74 104 136 170 202 246 328
#     4  11  20  33  51  73 104 138 168 213 258 298
#     4   9  19  34  49  75 105 131 172 211 251 311
#
# _framework density 18.062615000000001
#
# number of rings (size 3 to 8) (size 9 to 14) (size 15 to 20)
#    0.000    2.800    1.333    2.400    0.000    1.333 
#    0.000    8.667    0.000    3.600    0.000    8.400 
#    0.000    0.000    0.000    0.000    0.000    0.000 
#
# Total GULP energy -371703.006596 kJ/mol
# GULP energy per Si atom -12390.100220 kJ/mol
# Density = 1.802150 g / cm^3
# Si number density = 18.062615 Si / 1000 Ang^3
#
#
#
# Elastic Constant Matrix: (Units=GPa)
#
#
# Indices 1 2 3 4 5 6 
#
# 1 67.9338 43.7613 36.1473 0.0000 -0.6165 0.0000
# 2 43.7613 134.1410 30.1089 0.0000 -13.7153 0.0000
# 3 36.1473 30.1089 53.9135 0.0000 -6.9011 0.0000
# 4 0.0000 0.0000 0.0000 -13.9848 0.0000 21.5422
# 5 -0.6165 -13.7153 -6.9011 0.0000 25.6882 0.0000
# 6 0.0000 0.0000 0.0000 21.5422 0.0000 4.4359
#
#
#
# Elastic Compliance Matrix: (Units=1/GPa)
#
#
# Indices 1 2 3 4 5 6 
#
# 1 0.026692 -0.005924 -0.015442 0.000000 -0.006671 0.000000
# 2 -0.005924 0.010133 -0.001049 0.000000 0.004986 0.000000
# 3 -0.015442 -0.001049 0.030414 0.000000 0.007240 0.000000
# 4 0.000000 0.000000 0.000000 -0.008432 0.000000 0.040947
# 5 -0.006671 0.004986 0.007240 0.000000 0.043375 0.000000
# 6 0.000000 0.000000 0.000000 0.040947 0.000000 0.026582
#
#
# Mechanical properties :
#
#
# Convention : Reuss Voigt Hill
#
# Bulk Modulus (GPa) = 44.62329 52.89148 48.75738
# Shear Modulus (GPa) = 27.61465 12.95926 20.28696
#
# Velocity S-wave (km/s) = 3.91427 2.68146 3.35497
# Velocity P-wave (km/s) = 6.72213 6.23962 6.48536
#
# Compressibility (1/GPa) = 0.02240982
#
# Stress axis : x y z
#
# Youngs Moduli (GPa) = 37.46405 98.69125 32.87967
#
# Poissons Ratio (x) = 0.58464 0.50772
# Poissons Ratio (y) = 0.22193 0.03448
# Poissons Ratio (z) = 0.57851 0.10350
#
# Static dielectric constant tensor:
#      x y z
#    x 3.122480 0.000000 -0.068580 
#    y 0.000000 3.626440 0.000000 
#    z -0.068580 0.000000 3.174540 
# 
# 
# High freq. dielectric constant tensor:
#      x y z
#    x 1.672970 0.000000 -0.008190 
#    y 0.000000 1.704860 0.000000 
#    z -0.008190 0.000000 1.676590 
# 
# From -- ./inp_files/64689.got.cif
#   From: 2010.06.25/outbox.cif.g09.slc.cpg/sg10_33_cif.got.tgz:64689.got - 2010.06.27 22:07:45.
