data_PCOD8058063
_publ_section_title
;
Structure prediction by ZEFSAII (Michael W. Deem and Ramdas Pophale) SiO2 
 PCOD8058063
Probable space group: P 2/M
;
_chemical_formula_sum "Si O2"
_cell_formula_units_Z 26
_cell_length_a 5.284836
_cell_length_b 16.444846
_cell_length_c 20.942727
_cell_angle_alpha 90.000000
_cell_angle_beta 98.140540
_cell_angle_gamma 90.000000
_cell_volume 1801.757279
_symmetry_space_group_name_H-M "P 2/M"
_symmetry_group_IT_number 10
_symmetry_cell_setting 'monoclinic'
loop_
_space_group_symop_operation_xyz
x,y,z
-x,y,-z
-x,-y,-z
x,-y,z
loop_
_atom_site_type_symbol
_atom_site_label
_atom_site_fract_x
_atom_site_fract_y
_atom_site_fract_z
Si Si1 0.227044 0.500000 0.958025
Si Si2 0.711179 0.747319 0.930126
Si Si3 0.207399 0.321465 0.924451
Si Si4 0.280238 0.905978 0.133284
Si Si5 0.080254 0.097179 0.644881
Si Si6 0.166285 0.094116 0.788536
Si Si7 0.539129 0.096855 0.572921
O O1 0.206252 0.418590 0.915634
O O2 0.500000 0.500000 0.000000
O O3 0.000000 0.500000 0.000000
O O4 0.440006 0.716132 0.891781
O O5 0.719220 0.846229 0.928624
O O6 0.933704 0.712182 0.891811
O O7 0.750028 0.710443 0.001565
O O8 0.543501 0.890583 0.179926
O O9 0.043532 0.875279 0.168025
O O10 0.253879 0.000000 0.109838
O O11 0.121867 0.133827 0.717430
O O12 0.308564 0.130358 0.608388
O O13 0.809308 0.129552 0.609103
O O14 0.086137 0.000000 0.645461
O O15 0.109418 0.000000 0.778801
O O16 0.500000 0.130178 0.500000
O O17 0.539019 0.000000 0.573140
#
# Coordination Sequence:
#
# PCOD8058063 Si02
#       7
#     2   4   4   4   4   4   4
#     4  12  16  30  48  68  84 100 120 136 170 230
#     4  10  18  30  42  59  80  98 121 151 188 225
#     4  10  19  30  45  64  82 100 116 143 181 238
#     4  10  19  30  42  54  71  97 129 164 195 225
#     4   9  15  23  34  46  62  83 110 146 181 222
#     4   9  17  28  40  52  64  87 126 163 193 221
#     4   9  15  21  30  46  66  85 103 130 179 238
#
# _framework density 14.430356
#
# number of rings (size 3 to 8) (size 9 to 14) (size 15 to 20)
#    0.000    2.308    3.077    2.308    0.000    5.538 
#    0.000    3.077    0.000    0.000    0.000    0.000 
#    0.000    0.000    0.000    0.000    0.000    0.000 
#
# Total GULP energy -322117.708886 kJ/mol
# GULP energy per Si atom -12389.142649 kJ/mol
# Density = 1.439751 g / cm^3
# Si number density = 14.430356 Si / 1000 Ang^3
#
#
#
# Elastic Constant Matrix: (Units=GPa)
#
#
# Indices 1 2 3 4 5 6 
#
# 1 130.5679 21.8499 3.7951 0.0000 -8.7202 0.0000
# 2 21.8499 74.5177 17.7719 0.0000 -6.5080 0.0000
# 3 3.7951 17.7719 29.4569 0.0000 -6.0600 0.0000
# 4 0.0000 0.0000 0.0000 0.4669 0.0000 -1.7762
# 5 -8.7202 -6.5080 -6.0600 0.0000 14.7727 0.0000
# 6 0.0000 0.0000 0.0000 -1.7762 0.0000 7.0101
#
#
#
# Elastic Compliance Matrix: (Units=1/GPa)
#
#
# Indices 1 2 3 4 5 6 
#
# 1 0.008309 -0.002352 0.001250 0.000000 0.004381 0.000000
# 2 -0.002352 0.016490 -0.009214 0.000000 0.002096 0.000000
# 3 0.001250 -0.009214 0.042226 0.000000 0.014000 0.000000
# 4 0.000000 0.000000 0.000000 59.122253 0.000000 14.979904
# 5 0.004381 0.002096 0.014000 0.000000 0.076945 0.000000
# 6 0.000000 0.000000 0.000000 14.979904 0.000000 3.938134
#
#
# Mechanical properties :
#
#
# Convention : Reuss Voigt Hill
#
# Bulk Modulus (GPa) = 21.55538 35.70846 28.63192
# Shear Modulus (GPa) = 0.07906 17.19167 8.63537
#
# Velocity S-wave (km/s) = 0.23433 3.45534 2.44891
# Velocity P-wave (km/s) = 3.87855 6.38109 5.28022
#
# Compressibility (1/GPa) = 0.04639213
#
# Stress axis : x y z
#
# Youngs Moduli (GPa) = 120.35617 60.64348 23.68192
#
# Poissons Ratio (x) = 0.14261 -0.02959
# Poissons Ratio (y) = 0.28304 0.21821
# Poissons Ratio (z) = -0.15041 0.55879
#
# Static dielectric constant tensor:
#      x y z
#    x 5.244900 0.000000 -0.140890 
#    y 0.000000 2.684310 0.000000 
#    z -0.140890 0.000000 2.622040 
# 
# 
# High freq. dielectric constant tensor:
#      x y z
#    x 1.590820 0.000000 -0.001200 
#    y 0.000000 1.495430 0.000000 
#    z -0.001200 0.000000 1.508240 
# 
# From -- ./inp_files/11157.got.cif
#   From: 2010.06.25/outbox.cif.g09.slc.cpg/sg10_6_cif.got.tgz:11157.got - 2010.06.27 22:07:45.
