data_PCOD8058340
_publ_section_title
;
Structure prediction by ZEFSAII (Michael W. Deem and Ramdas Pophale) SiO2 
 PCOD8058340
Probable space group: P 2/M
;
_chemical_formula_sum "Si O2"
_cell_formula_units_Z 32
_cell_length_a 12.050307
_cell_length_b 8.737924
_cell_length_c 19.806399
_cell_angle_alpha 90.000000
_cell_angle_beta 57.820478
_cell_angle_gamma 90.000000
_cell_volume 1765.139853
_symmetry_space_group_name_H-M "P 2/M"
_symmetry_group_IT_number 10
_symmetry_cell_setting 'monoclinic'
loop_
_space_group_symop_operation_xyz
x,y,z
-x,y,-z
-x,-y,-z
x,-y,z
loop_
_atom_site_type_symbol
_atom_site_label
_atom_site_fract_x
_atom_site_fract_y
_atom_site_fract_z
Si Si1 0.189890 0.178267 0.127998
Si Si2 0.107073 0.822452 0.758674
Si Si3 0.412935 0.822983 0.442573
Si Si4 0.749517 0.678834 0.169537
Si Si5 0.305247 0.320306 0.962360
Si Si6 0.420825 0.820876 0.147605
Si Si7 0.479847 0.823031 0.276753
Si Si8 0.681061 0.679382 0.401722
O O1 0.293478 0.241149 0.149555
O O2 0.045934 0.211034 0.203550
O O3 0.210987 0.000000 0.106724
O O4 0.207771 0.265873 0.051948
O O5 0.142980 0.771863 0.823052
O O6 0.184244 0.723941 0.678204
O O7 0.141026 0.000000 0.737984
O O8 0.384748 0.795180 0.371915
O O9 0.562609 0.774642 0.407878
O O10 0.312669 0.723455 0.520539
O O11 0.395031 0.000000 0.467375
O O12 0.777582 0.500000 0.169237
O O13 0.756448 0.731822 0.089271
O O14 0.606171 0.716149 0.245257
O O15 0.320778 0.500000 0.958922
O O16 0.449530 0.251886 0.926529
O O17 0.404617 0.778566 0.232125
O O18 0.434535 0.000000 0.132838
O O19 0.526330 0.000000 0.259520
O O20 0.655112 0.500000 0.401739
#
# Coordination Sequence:
#
# PCOD8058340 Si02
#       8
#     4   4   4   4   4   4   4   4
#     4  10  22  37  54  74  99 136 177 215 255 301
#     4  11  22  36  52  72 102 138 175 213 253 303
#     4  10  18  30  51  79 107 134 167 206 249 301
#     4  10  20  33  50  74 104 136 167 206 257 309
#     4  10  21  35  53  78 105 131 166 214 263 307
#     4   9  18  35  56  78 102 131 171 215 257 300
#     4   9  17  30  53  79 104 132 164 208 256 301
#     4  11  21  32  49  75 106 139 168 204 252 305
#
# _framework density 18.128874
#
# number of rings (size 3 to 8) (size 9 to 14) (size 15 to 20)
#    0.000    2.000    1.250    3.750    0.000    5.500 
#    0.000    2.500    0.000    0.750    0.000    5.250 
#    0.000    0.000    0.000    0.000    0.000    0.000 
#
# Total GULP energy -396804.505029 kJ/mol
# GULP energy per Si atom -12400.140782 kJ/mol
# Density = 1.808761 g / cm^3
# Si number density = 18.128874 Si / 1000 Ang^3
#
#
#
# Elastic Constant Matrix: (Units=GPa)
#
#
# Indices 1 2 3 4 5 6 
#
# 1 58.9236 16.1749 33.2621 0.0000 -2.6866 0.0000
# 2 16.1749 44.9711 20.3816 0.0000 -2.1520 0.0000
# 3 33.2621 20.3816 100.5222 0.0000 7.8474 0.0000
# 4 0.0000 0.0000 0.0000 23.4038 0.0000 6.9794
# 5 -2.6866 -2.1520 7.8474 0.0000 22.3178 0.0000
# 6 0.0000 0.0000 0.0000 6.9794 0.0000 10.0605
#
#
#
# Elastic Compliance Matrix: (Units=1/GPa)
#
#
# Indices 1 2 3 4 5 6 
#
# 1 0.022309 -0.004729 -0.006783 0.000000 0.004615 0.000000
# 2 -0.004729 0.025882 -0.003942 0.000000 0.003312 0.000000
# 3 -0.006783 -0.003942 0.013455 0.000000 -0.005928 0.000000
# 4 0.000000 0.000000 0.000000 0.053873 0.000000 -0.037374
# 5 0.004615 0.003312 -0.005928 0.000000 0.047766 0.000000
# 6 0.000000 0.000000 0.000000 -0.037374 0.000000 0.125326
#
#
# Mechanical properties :
#
#
# Convention : Reuss Voigt Hill
#
# Bulk Modulus (GPa) = 32.53288 38.22822 35.38055
# Shear Modulus (GPa) = 15.16233 20.12967 17.64600
#
# Velocity S-wave (km/s) = 2.89513 3.33583 3.12326
# Velocity P-wave (km/s) = 5.40000 5.99748 5.70656
#
# Compressibility (1/GPa) = 0.03073813
#
# Stress axis : x y z
#
# Youngs Moduli (GPa) = 44.82552 38.63647 74.32434
#
# Poissons Ratio (x) = 0.18270 0.50416
# Poissons Ratio (y) = 0.21197 0.29297
# Poissons Ratio (z) = 0.30406 0.15229
#
# Static dielectric constant tensor:
#      x y z
#    x 3.364940 0.000000 0.332610 
#    y 0.000000 3.348230 0.000000 
#    z 0.332610 0.000000 3.501390 
# 
# 
# High freq. dielectric constant tensor:
#      x y z
#    x 1.675240 0.000000 0.022280 
#    y 0.000000 1.707000 0.000000 
#    z 0.022280 0.000000 1.703840 
# 
# From -- ./inp_files/75993.got.cif
#   From: 2010.06.25/outbox.cif.g09.slc.cpg/sg10_38_cif.got.tgz:75993.got - 2010.06.27 22:07:45.
