data_PCOD8058653
_publ_section_title
;
Structure prediction by ZEFSAII (Michael W. Deem and Ramdas Pophale) SiO2 
 PCOD8058653
Probable space group: P 2/M
;
_chemical_formula_sum "Si O2"
_cell_formula_units_Z 22
_cell_length_a 8.815147
_cell_length_b 14.063833
_cell_length_c 10.672652
_cell_angle_alpha 90.000000
_cell_angle_beta 109.568559
_cell_angle_gamma 90.000000
_cell_volume 1246.716726
_symmetry_space_group_name_H-M "P 2/M"
_symmetry_group_IT_number 10
_symmetry_cell_setting 'monoclinic'
loop_
_space_group_symop_operation_xyz
x,y,z
-x,y,-z
-x,-y,-z
x,-y,z
loop_
_atom_site_type_symbol
_atom_site_label
_atom_site_fract_x
_atom_site_fract_y
_atom_site_fract_z
Si Si1 0.780212 0.500000 0.048336
Si Si2 0.168576 0.201827 0.478295
Si Si3 0.866729 0.000000 0.566965
Si Si4 0.538252 0.687129 0.366940
Si Si5 0.000000 0.656217 0.000000
Si Si6 0.877239 0.000000 0.849894
Si Si7 0.465491 0.500000 0.795179
Si Si8 0.773132 0.790906 0.783084
O O1 0.897509 0.591321 0.068348
O O2 0.686824 0.500000 0.153883
O O3 0.641961 0.500000 0.904789
O O4 0.288517 0.263683 0.593858
O O5 0.148178 0.234523 0.329475
O O6 0.000000 0.205757 0.500000
O O7 0.239802 0.094129 0.484672
O O8 0.000000 0.000000 0.500000
O O9 0.952510 0.000000 0.729530
O O10 0.500000 0.663873 0.500000
O O11 0.548400 0.590961 0.294657
O O12 0.412592 0.759532 0.269523
O O13 0.129502 0.724513 0.097498
O O14 0.775387 0.098400 0.828573
O O15 0.000000 0.000000 0.000000
#
# Coordination Sequence:
#
# PCOD8058653 Si02
#       8
#     2   4   2   4   2   2   2   4
#     4  10  24  36  59  77 108 144 191 228 268 341
#     4   9  19  34  56  83 106 144 185 225 274 332
#     4   8  16  33  53  79 111 146 181 228 275 321
#     4  10  21  37  56  80 113 145 179 232 281 325
#     4  11  20  39  56  82 108 147 184 225 272 328
#     4  10  18  31  53  89 114 145 187 225 265 334
#     4  11  21  40  54  82 105 144 188 229 285 318
#     4  10  20  34  57  81 115 146 180 224 276 322
#
# _framework density 17.646350999999999
#
# number of rings (size 3 to 8) (size 9 to 14) (size 15 to 20)
#    0.000    2.182    2.727    0.273    2.545    0.727 
#    0.000    4.091    0.000    0.000    0.000    5.091 
#    0.000    0.000    0.000    0.000    0.000    0.000 
#
# Total GULP energy -272563.236825 kJ/mol
# GULP energy per Si atom -12389.238038 kJ/mol
# Density = 1.760619 g / cm^3
# Si number density = 17.646351 Si / 1000 Ang^3
#
#
#
# Elastic Constant Matrix: (Units=GPa)
#
#
# Indices 1 2 3 4 5 6 
#
# 1 91.7685 56.5126 36.7409 0.0000 5.4227 0.0000
# 2 56.5126 153.6360 68.1447 0.0000 8.2660 0.0000
# 3 36.7409 68.1447 92.9232 0.0000 10.7205 0.0000
# 4 0.0000 0.0000 0.0000 38.2331 0.0000 1.0099
# 5 5.4227 8.2660 10.7205 0.0000 18.3911 0.0000
# 6 0.0000 0.0000 0.0000 1.0099 0.0000 -36.8174
#
#
#
# Elastic Compliance Matrix: (Units=1/GPa)
#
#
# Indices 1 2 3 4 5 6 
#
# 1 0.014547 -0.004146 -0.002607 0.000000 -0.000906 0.000000
# 2 -0.004146 0.010829 -0.006306 0.000000 0.000031 0.000000
# 3 -0.002607 -0.006306 0.017155 0.000000 -0.006397 0.000000
# 4 0.000000 0.000000 0.000000 0.026136 0.000000 0.000717
# 5 -0.000906 0.000031 -0.006397 0.000000 0.058356 0.000000
# 6 0.000000 0.000000 0.000000 0.000717 0.000000 -0.027141
#
#
# Mechanical properties :
#
#
# Convention : Reuss Voigt Hill
#
# Bulk Modulus (GPa) = 60.92413 73.45821 67.19117
# Shear Modulus (GPa) = 38.03117 15.75667 26.89392
#
# Velocity S-wave (km/s) = 4.64743 2.99141 3.90814
# Velocity P-wave (km/s) = 7.96230 7.32460 7.65010
#
# Compressibility (1/GPa) = 0.01641386
#
# Stress axis : x y z
#
# Youngs Moduli (GPa) = 68.74069 92.34312 58.29325
#
# Poissons Ratio (x) = 0.38285 0.15196
# Poissons Ratio (y) = 0.28500 0.36759
# Poissons Ratio (z) = 0.17920 0.58230
#
# Static dielectric constant tensor:
#      x y z
#    x 3.152450 0.000000 -0.001540 
#    y 0.000000 3.762330 0.000000 
#    z -0.001540 0.000000 3.378700 
# 
# 
# High freq. dielectric constant tensor:
#      x y z
#    x 1.665740 0.000000 -0.000890 
#    y 0.000000 1.702610 0.000000 
#    z -0.000890 0.000000 1.683150 
# 
# From -- ./inp_files/18603.got.cif
#   From: 2010.06.25/outbox.cif.g09.slc.cpg/sg10_10_cif.got.tgz:18603.got - 2010.06.27 22:07:45.
