data_PCOD8058580
_publ_section_title
;
Structure prediction by ZEFSAII (Michael W. Deem and Ramdas Pophale) SiO2 
 PCOD8058580
Probable space group: P 2/M
;
_chemical_formula_sum "Si O2"
_cell_formula_units_Z 28
_cell_length_a 12.160316
_cell_length_b 9.043278
_cell_length_c 14.082837
_cell_angle_alpha 90.000000
_cell_angle_beta 70.819396
_cell_angle_gamma 90.000000
_cell_volume 1462.706450
_symmetry_space_group_name_H-M "P 2/M"
_symmetry_group_IT_number 10
_symmetry_cell_setting 'monoclinic'
loop_
_space_group_symop_operation_xyz
x,y,z
-x,y,-z
-x,-y,-z
x,-y,z
loop_
_atom_site_type_symbol
_atom_site_label
_atom_site_fract_x
_atom_site_fract_y
_atom_site_fract_z
Si Si1 0.126377 0.665207 0.007400
Si Si2 0.226333 0.328978 0.273030
Si Si3 0.819339 0.323876 0.313622
Si Si4 0.874485 0.329241 0.504691
Si Si5 0.949870 0.173402 0.797794
Si Si6 0.468818 0.323803 0.115646
Si Si7 0.672553 0.673955 0.187731
O O1 0.161011 0.500000 0.033184
O O2 0.132983 0.779741 0.091774
O O3 0.216884 0.723405 0.904875
O O4 0.000000 0.663759 0.000000
O O5 0.204138 0.500000 0.252707
O O6 0.226881 0.309329 0.387395
O O7 0.115802 0.230369 0.276709
O O8 0.342698 0.269816 0.188265
O O9 0.831881 0.500000 0.304289
O O10 0.822096 0.262050 0.421125
O O11 0.701181 0.275761 0.288969
O O12 0.927230 0.254431 0.226562
O O13 0.899414 0.500000 0.476698
O O14 0.000000 0.258275 0.500000
O O15 0.969324 0.000000 0.788677
O O16 0.473531 0.500000 0.113301
O O17 0.558441 0.257334 0.169156
O O18 0.500000 0.265333 0.000000
O O19 0.655636 0.500000 0.191450
#
# Coordination Sequence:
#
# PCOD8058580 Si02
#       7
#     4   4   4   4   4   4   4
#     4  10  18  31  52  75  99 136 175 204 251 315
#     4  10  19  34  55  75 100 138 179 213 258 312
#     4  10  18  33  53  74 103 136 172 212 261 318
#     4   9  16  28  51  78 102 131 173 218 260 306
#     4  12  23  32  47  76 110 137 169 216 267 306
#     4   9  17  30  51  78 104 131 172 221 256 299
#     4   9  17  30  51  78 103 131 171 216 256 305
#
# _framework density 19.142596999999999
#
# number of rings (size 3 to 8) (size 9 to 14) (size 15 to 20)
#    0.000    2.143    2.857    2.143    0.000    2.571 
#    0.000    2.143    0.000    9.000    0.000    0.000 
#    0.000    2.286    0.000    0.000    0.000    0.000 
#
# Total GULP energy -346893.074791 kJ/mol
# GULP energy per Si atom -12389.038385 kJ/mol
# Density = 1.909903 g / cm^3
# Si number density = 19.142597 Si / 1000 Ang^3
#
#
#
# Elastic Constant Matrix: (Units=GPa)
#
#
# Indices 1 2 3 4 5 6 
#
# 1 110.0783 11.6411 45.7172 0.0000 19.9489 0.0000
# 2 11.6411 31.7112 13.8501 0.0000 4.5799 0.0000
# 3 45.7172 13.8501 111.5957 0.0000 17.2420 0.0000
# 4 0.0000 0.0000 0.0000 2.0159 0.0000 1.6011
# 5 19.9489 4.5799 17.2420 0.0000 38.7339 0.0000
# 6 0.0000 0.0000 0.0000 1.6011 0.0000 2.1806
#
#
#
# Elastic Compliance Matrix: (Units=1/GPa)
#
#
# Indices 1 2 3 4 5 6 
#
# 1 0.011645 -0.001989 -0.003902 0.000000 -0.004025 0.000000
# 2 -0.001989 0.033866 -0.003144 0.000000 -0.001580 0.000000
# 3 -0.003902 -0.003144 0.011363 0.000000 -0.002677 0.000000
# 4 0.000000 0.000000 0.000000 1.189988 0.000000 -0.873722
# 5 -0.004025 -0.001580 -0.002677 0.000000 0.029269 0.000000
# 6 0.000000 0.000000 0.000000 -0.873722 0.000000 1.100095
#
#
# Mechanical properties :
#
#
# Convention : Reuss Voigt Hill
#
# Bulk Modulus (GPa) = 25.77043 43.97799 34.87421
# Shear Modulus (GPa) = 2.07708 20.73121 11.40414
#
# Velocity S-wave (km/s) = 1.04279 3.29445 2.44344
# Velocity P-wave (km/s) = 3.86542 6.12331 5.12037
#
# Compressibility (1/GPa) = 0.03880416
#
# Stress axis : x y z
#
# Youngs Moduli (GPa) = 85.87580 29.52793 88.00410
#
# Poissons Ratio (x) = 0.05874 0.34336
# Poissons Ratio (y) = 0.17083 0.27668
# Poissons Ratio (z) = 0.33506 0.09284
#
# Static dielectric constant tensor:
#      x y z
#    x 3.695420 0.000000 0.273300 
#    y 0.000000 2.872560 0.000000 
#    z 0.273300 0.000000 3.764500 
# 
# 
# High freq. dielectric constant tensor:
#      x y z
#    x 1.739690 0.000000 0.018870 
#    y 0.000000 1.672500 0.000000 
#    z 0.018870 0.000000 1.751440 
# 
# From -- ./inp_files/49198.got.cif
#   From: 2010.06.25/outbox.cif.g09.slc.cpg/sg10_25_cif.got.tgz:49198.got - 2010.06.27 22:07:45.
