data_PCOD8058609
_publ_section_title
;
Structure prediction by ZEFSAII (Michael W. Deem and Ramdas Pophale) SiO2 
 PCOD8058609
Probable space group: P 2/M
;
_chemical_formula_sum "Si O2"
_cell_formula_units_Z 30
_cell_length_a 16.688158
_cell_length_b 13.081798
_cell_length_c 10.479313
_cell_angle_alpha 90.000000
_cell_angle_beta 133.999476
_cell_angle_gamma 90.000000
_cell_volume 1645.684503
_symmetry_space_group_name_H-M "P 2/M"
_symmetry_group_IT_number 10
_symmetry_cell_setting 'monoclinic'
loop_
_space_group_symop_operation_xyz
x,y,z
-x,y,-z
-x,-y,-z
x,-y,z
loop_
_atom_site_type_symbol
_atom_site_label
_atom_site_fract_x
_atom_site_fract_y
_atom_site_fract_z
Si Si1 0.668424 0.621060 0.001280
Si Si2 0.418902 0.227654 0.298853
Si Si3 0.990042 0.257836 0.141531
Si Si4 0.823682 0.109942 0.636595
Si Si5 0.500000 0.271701 0.000000
Si Si6 0.422843 0.881940 0.714369
Si Si7 0.923327 0.619930 0.300329
Si Si8 0.800313 0.111534 0.897347
O O1 0.660442 0.500000 0.973314
O O2 0.586063 0.655584 0.022323
O O3 0.794677 0.656669 0.172796
O O4 0.627063 0.673324 0.825016
O O5 0.500000 0.267572 0.500000
O O6 0.480549 0.147030 0.276627
O O7 0.318607 0.164346 0.247746
O O8 0.971343 0.355452 0.211585
O O9 0.098792 0.202892 0.321728
O O10 0.887337 0.184066 0.064885
O O11 0.000000 0.286808 0.000000
O O12 0.695643 0.138319 0.479890
O O13 0.850952 0.095036 0.814508
O O14 0.850553 0.000000 0.598184
O O15 0.425696 0.195853 0.834167
O O16 0.438333 0.000000 0.774033
O O17 0.926609 0.500000 0.316417
O O18 0.000000 0.667090 0.500000
O O19 0.791168 0.000000 0.955345
#
# Coordination Sequence:
#
# PCOD8058609 Si02
#       8
#     4   4   4   4   2   4   4   4
#     4  10  22  41  61  81 108 142 187 239 289 339
#     4  11  20  33  56  83 113 147 185 224 278 334
#     4  10  20  35  58  82 113 145 188 236 279 329
#     4   9  18  31  51  78 110 146 180 221 269 323
#     4  10  22  36  58  80 104 146 188 226 274 334
#     4  10  20  33  51  79 113 147 181 222 270 326
#     4  10  22  40  62  83 109 146 187 236 293 343
#     4  10  18  31  52  81 112 146 183 221 271 332
#
# _framework density 18.229496000000001
#
# number of rings (size 3 to 8) (size 9 to 14) (size 15 to 20)
#    0.000    2.000    2.667    1.200    1.867    2.667 
#    0.000    0.000    0.000    1.600    0.000    0.000 
#    0.000    0.000    0.000    0.000    0.000    0.000 
#
# Total GULP energy -371760.861443 kJ/mol
# GULP energy per Si atom -12392.028715 kJ/mol
# Density = 1.818800 g / cm^3
# Si number density = 18.229496 Si / 1000 Ang^3
#
#
#
# Elastic Constant Matrix: (Units=GPa)
#
#
# Indices 1 2 3 4 5 6 
#
# 1 72.8610 28.9597 34.6932 0.0000 4.2661 0.0000
# 2 28.9597 56.5177 34.0365 0.0000 3.7507 0.0000
# 3 34.6932 34.0365 88.6615 0.0000 8.1293 0.0000
# 4 0.0000 0.0000 0.0000 22.1028 0.0000 8.0846
# 5 4.2661 3.7507 8.1293 0.0000 30.8691 0.0000
# 6 0.0000 0.0000 0.0000 8.0846 0.0000 16.1218
#
#
#
# Elastic Compliance Matrix: (Units=1/GPa)
#
#
# Indices 1 2 3 4 5 6 
#
# 1 0.018646 -0.006704 -0.004674 0.000000 -0.000531 0.000000
# 2 -0.006704 0.025432 -0.007113 0.000000 -0.000290 0.000000
# 3 -0.004674 -0.007113 0.016088 0.000000 -0.002727 0.000000
# 4 0.000000 0.000000 0.000000 0.055406 0.000000 -0.027784
# 5 -0.000531 -0.000290 -0.002727 0.000000 0.033222 0.000000
# 6 0.000000 0.000000 0.000000 -0.027784 0.000000 0.075961
#
#
# Mechanical properties :
#
#
# Convention : Reuss Voigt Hill
#
# Bulk Modulus (GPa) = 43.13324 45.93542 44.53433
# Shear Modulus (GPa) = 18.55534 21.84214 20.19874
#
# Velocity S-wave (km/s) = 3.19388 3.46522 3.33231
# Velocity P-wave (km/s) = 6.10850 6.42366 6.26806
#
# Compressibility (1/GPa) = 0.02318397
#
# Stress axis : x y z
#
# Youngs Moduli (GPa) = 53.63076 39.32085 62.15692
#
# Poissons Ratio (x) = 0.26362 0.29050
# Poissons Ratio (y) = 0.35956 0.44213
# Poissons Ratio (z) = 0.25065 0.27969
#
# Static dielectric constant tensor:
#      x y z
#    x 3.310100 0.000000 0.101260 
#    y 0.000000 3.364900 0.000000 
#    z 0.101260 0.000000 3.552230 
# 
# 
# High freq. dielectric constant tensor:
#      x y z
#    x 1.698110 0.000000 0.018410 
#    y 0.000000 1.701850 0.000000 
#    z 0.018410 0.000000 1.711480 
# 
# From -- ./inp_files/53682.got.cif
#   From: 2010.06.25/outbox.cif.g09.slc.cpg/sg10_27_cif.got.tgz:53682.got - 2010.06.27 22:07:45.
