data_PCOD8058542
_publ_section_title
;
Structure prediction by ZEFSAII (Michael W. Deem and Ramdas Pophale) SiO2 
 PCOD8058542
Probable space group: P 2/M
;
_chemical_formula_sum "Si O2"
_cell_formula_units_Z 32
_cell_length_a 20.397171
_cell_length_b 9.048971
_cell_length_c 20.051908
_cell_angle_alpha 90.000000
_cell_angle_beta 29.552307
_cell_angle_gamma 90.000000
_cell_volume 1825.423726
_symmetry_space_group_name_H-M "P 2/M"
_symmetry_group_IT_number 10
_symmetry_cell_setting 'monoclinic'
loop_
_space_group_symop_operation_xyz
x,y,z
-x,y,-z
-x,-y,-z
x,-y,z
loop_
_atom_site_type_symbol
_atom_site_label
_atom_site_fract_x
_atom_site_fract_y
_atom_site_fract_z
Si Si1 0.151237 0.337084 0.842100
Si Si2 0.189229 0.171312 0.169139
Si Si3 0.673627 0.674359 0.686054
Si Si4 0.642399 0.829625 0.850030
Si Si5 0.082677 0.675241 0.619936
Si Si6 0.386635 0.325707 0.893054
Si Si7 0.058057 0.323870 0.790086
Si Si8 0.775038 0.675247 0.086331
O O1 0.212240 0.500000 0.778204
O O2 0.150162 0.258306 0.769615
O O3 0.233629 0.257298 0.829936
O O4 0.000000 0.348337 0.000000
O O5 0.248223 0.193991 0.190305
O O6 0.046858 0.248161 0.295102
O O7 0.173860 0.000000 0.164788
O O8 0.287097 0.244041 0.029900
O O9 0.675211 0.500000 0.692514
O O10 0.694064 0.742961 0.740298
O O11 0.791947 0.728769 0.533841
O O12 0.535686 0.728132 0.775298
O O13 0.624699 0.000000 0.845804
O O14 0.500000 0.765581 0.000000
O O15 0.061187 0.500000 0.635588
O O16 0.110190 0.727328 0.671774
O O17 0.368760 0.500000 0.920429
O O18 0.351438 0.282628 0.847424
O O19 0.060398 0.500000 0.793925
O O20 0.906890 0.265909 0.931863
O O21 0.787262 0.500000 0.083859
#
# Coordination Sequence:
#
# PCOD8058542 Si02
#       8
#     4   4   4   4   4   4   4   4
#     4   7  10  16  31  62  95 121 158 197 232 280
#     4  11  22  35  54  77  96 125 167 206 245 293
#     4  10  22  35  52  77 102 131 165 201 244 299
#     4  10  21  38  56  73  98 129 161 203 250 294
#     4  10  20  35  51  73 105 135 164 200 246 293
#     4  10  18  31  51  75 101 130 163 203 248 290
#     4   8  12  21  40  64  94 130 160 194 239 284
#     4   8  12  20  39  67  95 124 159 201 242 279
#
# _framework density 17.530177999999999
#
# number of rings (size 3 to 8) (size 9 to 14) (size 15 to 20)
#    0.000    2.750    2.500    1.875    0.000    2.250 
#    0.000    2.500    0.000    0.750    0.000    7.000 
#    0.000    0.000    0.000    3.375    0.000    3.750 
#
# Total GULP energy -396484.559158 kJ/mol
# GULP energy per Si atom -12390.142474 kJ/mol
# Density = 1.749028 g / cm^3
# Si number density = 17.530178 Si / 1000 Ang^3
#
#
#
# Elastic Constant Matrix: (Units=GPa)
#
#
# Indices 1 2 3 4 5 6 
#
# 1 148.2754 28.6373 72.1461 0.0000 7.3949 0.0000
# 2 28.6373 20.8767 24.8061 0.0000 -2.6159 0.0000
# 3 72.1461 24.8061 108.4268 0.0000 2.0047 0.0000
# 4 0.0000 0.0000 0.0000 5.0117 0.0000 -5.9434
# 5 7.3949 -2.6159 2.0047 0.0000 24.4926 0.0000
# 6 0.0000 0.0000 0.0000 -5.9434 0.0000 2.8968
#
#
#
# Elastic Compliance Matrix: (Units=1/GPa)
#
#
# Indices 1 2 3 4 5 6 
#
# 1 0.011422 -0.009941 -0.005251 0.000000 -0.004081 0.000000
# 2 -0.009941 0.076151 -0.011030 0.000000 0.012038 0.000000
# 3 -0.005251 -0.011030 0.015256 0.000000 -0.000841 0.000000
# 4 0.000000 0.000000 0.000000 -0.139224 0.000000 -0.285652
# 5 -0.004081 0.012038 -0.000841 0.000000 0.043415 0.000000
# 6 0.000000 0.000000 0.000000 -0.285652 0.000000 -0.240873
#
#
# Mechanical properties :
#
#
# Convention : Reuss Voigt Hill
#
# Bulk Modulus (GPa) = 19.84681 58.75087 39.29884
# Shear Modulus (GPa) = -30.37402 16.61284 -6.88059
#
# Velocity S-wave (km/s) = -4.16705 3.08177 -1.98331
# Velocity P-wave (km/s) = 3.43603 6.80073 4.14992
#
# Compressibility (1/GPa) = 0.05038594
#
# Stress axis : x y z
#
# Youngs Moduli (GPa) = 87.54666 13.13178 65.55001
#
# Poissons Ratio (x) = 0.13054 0.34418
# Poissons Ratio (y) = 0.87031 0.72301
# Poissons Ratio (z) = 0.45967 0.14484
#
# Static dielectric constant tensor:
#      x y z
#    x 3.855390 0.000000 0.054250 
#    y 0.000000 2.866720 0.000000 
#    z 0.054250 0.000000 3.137230 
# 
# 
# High freq. dielectric constant tensor:
#      x y z
#    x 1.706040 0.000000 0.008470 
#    y 0.000000 1.629260 0.000000 
#    z 0.008470 0.000000 1.645980 
# 
# From -- ./inp_files/86116.got.cif
#   From: 2010.06.25/outbox.cif.g09.slc.cpg/sg10_44_cif.got.tgz:86116.got - 2010.06.27 22:07:45.
