data_PCOD8058173
_publ_section_title
;
Structure prediction by ZEFSAII (Michael W. Deem and Ramdas Pophale) SiO2 
 PCOD8058173
Probable space group: P 2/M
;
_chemical_formula_sum "Si O2"
_cell_formula_units_Z 32
_cell_length_a 27.287829
_cell_length_b 9.396044
_cell_length_c 21.441585
_cell_angle_alpha 90.000000
_cell_angle_beta 18.803143
_cell_angle_gamma 90.000000
_cell_volume 1771.964290
_symmetry_space_group_name_H-M "P 2/M"
_symmetry_group_IT_number 10
_symmetry_cell_setting 'monoclinic'
loop_
_space_group_symop_operation_xyz
x,y,z
-x,y,-z
-x,-y,-z
x,-y,z
loop_
_atom_site_type_symbol
_atom_site_label
_atom_site_fract_x
_atom_site_fract_y
_atom_site_fract_z
Si Si1 0.762226 0.659158 0.811761
Si Si2 0.366859 0.835242 0.929594
Si Si3 0.560622 0.838163 0.358635
Si Si4 0.642440 0.835922 0.512266
Si Si5 0.859657 0.334492 0.983682
Si Si6 0.945098 0.166491 0.765509
Si Si7 0.058958 0.664339 0.862602
Si Si8 0.919936 0.660704 0.500692
O O1 0.696005 0.500000 0.891507
O O2 0.789552 0.709453 0.707160
O O3 0.920623 0.663931 0.656526
O O4 0.642417 0.757693 0.992355
O O5 0.517010 0.782305 0.712990
O O6 0.375665 0.000000 0.934444
O O7 0.222690 0.803070 0.059307
O O8 0.500000 0.808797 0.500000
O O9 0.420453 0.812327 0.481400
O O10 0.623442 0.000000 0.275132
O O11 0.690667 0.726747 0.186241
O O12 0.793759 0.746261 0.338840
O O13 0.682232 0.000000 0.476184
O O14 0.855392 0.500000 0.969847
O O15 0.961213 0.248351 0.811570
O O16 0.927011 0.312309 0.971236
O O17 0.074391 0.229923 0.563795
O O18 0.976606 0.000000 0.737068
O O19 0.104091 0.500000 0.815301
O O20 0.000000 0.724825 0.000000
O O21 0.887172 0.500000 0.516388
#
# Coordination Sequence:
#
# PCOD8058173 Si02
#       8
#     4   4   4   4   4   4   4   4
#     4   8  14  24  40  64  97 135 171 205 244 297
#     4   9  17  29  45  69 103 133 165 212 252 297
#     4  10  20  35  55  78 104 131 165 210 257 310
#     4  10  20  35  53  77 104 133 171 212 257 307
#     4  11  22  35  53  76 103 135 171 213 260 309
#     4  10  18  30  48  71 103 136 170 212 254 302
#     4  10  23  41  56  74 102 133 171 218 261 309
#     4   8  14  25  40  64  99 134 170 208 246 294
#
# _framework density 18.059052999999999
#
# number of rings (size 3 to 8) (size 9 to 14) (size 15 to 20)
#    0.000    2.500    1.250    2.250    0.000    3.500 
#    0.000    2.500    0.000    0.000    0.000    0.875 
#    0.000    7.000    0.000    0.000    0.000    0.000 
#
# Total GULP energy -396757.898926 kJ/mol
# GULP energy per Si atom -12398.684341 kJ/mol
# Density = 1.801795 g / cm^3
# Si number density = 18.059053 Si / 1000 Ang^3
#
#
#
# Elastic Constant Matrix: (Units=GPa)
#
#
# Indices 1 2 3 4 5 6 
#
# 1 53.2185 37.6859 23.5083 0.0000 25.0270 0.0000
# 2 37.6859 83.4132 37.4624 0.0000 21.6997 0.0000
# 3 23.5083 37.4624 72.5883 0.0000 25.2572 0.0000
# 4 0.0000 0.0000 0.0000 33.5359 0.0000 8.2556
# 5 25.0270 21.6997 25.2572 0.0000 29.5657 0.0000
# 6 0.0000 0.0000 0.0000 8.2556 0.0000 25.0733
#
#
#
# Elastic Compliance Matrix: (Units=1/GPa)
#
#
# Indices 1 2 3 4 5 6 
#
# 1 0.038070 -0.011665 0.002739 0.000000 -0.026004 0.000000
# 2 -0.011665 0.020113 -0.006975 0.000000 0.001071 0.000000
# 3 0.002739 -0.006975 0.022077 0.000000 -0.016059 0.000000
# 4 0.000000 0.000000 0.000000 0.032449 0.000000 -0.010684
# 5 -0.026004 0.001071 -0.016059 0.000000 0.068767 0.000000
# 6 0.000000 0.000000 0.000000 -0.010684 0.000000 0.043401
#
#
# Mechanical properties :
#
#
# Convention : Reuss Voigt Hill
#
# Bulk Modulus (GPa) = 20.63670 45.17038 32.90354
# Shear Modulus (GPa) = 18.32637 25.00587 21.66612
#
# Velocity S-wave (km/s) = 3.18905 3.72516 3.46748
# Velocity P-wave (km/s) = 5.00122 6.60070 5.85583
#
# Compressibility (1/GPa) = 0.04845735
#
# Stress axis : x y z
#
# Youngs Moduli (GPa) = 26.26752 49.71969 45.29665
#
# Poissons Ratio (x) = 0.57999 -0.12408
# Poissons Ratio (y) = 0.30642 0.31594
# Poissons Ratio (z) = -0.07195 0.34679
#
# Static dielectric constant tensor:
#      x y z
#    x 3.313310 0.000000 0.464150 
#    y 0.000000 3.377320 0.000000 
#    z 0.464150 0.000000 3.305400 
# 
# 
# High freq. dielectric constant tensor:
#      x y z
#    x 1.681840 0.000000 0.036010 
#    y 0.000000 1.699120 0.000000 
#    z 0.036010 0.000000 1.683690 
# 
# From -- ./inp_files/86853.got.cif
#   From: 2010.06.25/outbox.cif.g09.slc.cpg/sg10_44_cif.got.tgz:86853.got - 2010.06.27 22:07:45.
