data_PCOD8058646
_publ_section_title
;
Structure prediction by ZEFSAII (Michael W. Deem and Ramdas Pophale) SiO2 
 PCOD8058646
Probable space group: P 2/M
;
_chemical_formula_sum "Si O2"
_cell_formula_units_Z 28
_cell_length_a 27.803948
_cell_length_b 13.436431
_cell_length_c 22.005909
_cell_angle_alpha 90.000000
_cell_angle_beta 11.231766
_cell_angle_gamma 90.000000
_cell_volume 1601.290099
_symmetry_space_group_name_H-M "P 2/M"
_symmetry_group_IT_number 10
_symmetry_cell_setting 'monoclinic'
loop_
_space_group_symop_operation_xyz
x,y,z
-x,y,-z
-x,-y,-z
x,-y,z
loop_
_atom_site_type_symbol
_atom_site_label
_atom_site_fract_x
_atom_site_fract_y
_atom_site_fract_z
Si Si1 0.826953 0.612936 0.382573
Si Si2 0.087667 0.886293 0.123936
Si Si3 0.427475 0.799145 0.257487
Si Si4 0.179862 0.116356 0.147463
Si Si5 0.349635 0.294909 0.748024
Si Si6 0.255543 0.384600 0.655675
Si Si7 0.317545 0.113573 0.170364
O O1 0.767943 0.500000 0.474809
O O2 0.667981 0.685505 0.622626
O O3 0.747363 0.633832 0.412330
O O4 0.117395 0.631367 0.031660
O O5 0.114839 0.851692 0.159875
O O6 0.802193 0.874592 0.459823
O O7 0.169080 0.000000 0.013137
O O8 0.259887 0.818419 0.868115
O O9 0.580551 0.823034 0.128535
O O10 0.601287 0.812942 0.983691
O O11 0.954630 0.144119 0.471092
O O12 0.236748 0.000000 0.080452
O O13 0.500000 0.303620 0.500000
O O14 0.517127 0.324961 0.597510
O O15 0.287036 0.500000 0.633648
O O16 0.000000 0.343253 0.000000
O O17 0.322673 0.000000 0.139634
O O18 0.500000 0.125762 0.000000
#
# Coordination Sequence:
#
# PCOD8058646 Si02
#       7
#     4   4   4   4   4   4   4
#     4  10  22  37  54  78 104 133 171 218 263 307
#     4  10  21  35  50  74 109 143 172 209 253 305
#     4  11  20  33  54  77 105 138 171 210 260 309
#     4  10  19  32  54  80 105 135 173 213 252 299
#     4  11  21  34  55  79 103 136 175 213 259 313
#     4  10  19  33  55  78 100 124 163 223 271 301
#     4  10  18  31  53  81 109 135 169 213 254 296
#
# _framework density 17.485900000000001
#
# number of rings (size 3 to 8) (size 9 to 14) (size 15 to 20)
#    0.000    1.714    2.857    3.000    0.000    2.000 
#    0.000    0.000    0.000    2.571    0.000    0.000 
#    0.000    0.000    0.000    0.000    0.000    0.000 
#
# Total GULP energy -347301.768770 kJ/mol
# GULP energy per Si atom -12403.634599 kJ/mol
# Density = 1.744610 g / cm^3
# Si number density = 17.485900 Si / 1000 Ang^3
#
#
#
# Elastic Constant Matrix: (Units=GPa)
#
#
# Indices 1 2 3 4 5 6 
#
# 1 70.4399 33.3645 37.2569 0.0000 -13.2864 0.0000
# 2 33.3645 71.1127 33.7277 0.0000 -0.1901 0.0000
# 3 37.2569 33.7277 89.0909 0.0000 -19.7502 0.0000
# 4 0.0000 0.0000 0.0000 14.5905 0.0000 -1.4665
# 5 -13.2864 -0.1901 -19.7502 0.0000 34.3130 0.0000
# 6 0.0000 0.0000 0.0000 -1.4665 0.0000 24.8015
#
#
#
# Elastic Compliance Matrix: (Units=1/GPa)
#
#
# Indices 1 2 3 4 5 6 
#
# 1 0.021460 -0.007770 -0.004814 0.000000 0.005495 0.000000
# 2 -0.007770 0.020491 -0.005903 0.000000 -0.006293 0.000000
# 3 -0.004814 -0.005903 0.017254 0.000000 0.008034 0.000000
# 4 0.000000 0.000000 0.000000 0.068948 0.000000 0.004077
# 5 0.005495 -0.006293 0.008034 0.000000 0.035861 0.000000
# 6 0.000000 0.000000 0.000000 0.004077 0.000000 0.040561
#
#
# Mechanical properties :
#
#
# Convention : Reuss Voigt Hill
#
# Bulk Modulus (GPa) = 44.98649 48.81576 46.90112
# Shear Modulus (GPa) = 20.08362 23.16061 21.62212
#
# Velocity S-wave (km/s) = 3.39272 3.64336 3.52027
# Velocity P-wave (km/s) = 6.41331 6.75844 6.58814
#
# Compressibility (1/GPa) = 0.02222890
#
# Stress axis : x y z
#
# Youngs Moduli (GPa) = 46.59824 48.80256 57.95914
#
# Poissons Ratio (x) = 0.37922 0.27904
# Poissons Ratio (y) = 0.36209 0.34212
# Poissons Ratio (z) = 0.22434 0.28807
#
# Static dielectric constant tensor:
#      x y z
#    x 3.289040 0.000000 -0.150370 
#    y 0.000000 3.080740 0.000000 
#    z -0.150370 0.000000 3.294740 
# 
# 
# High freq. dielectric constant tensor:
#      x y z
#    x 1.683340 0.000000 -0.016610 
#    y 0.000000 1.655030 0.000000 
#    z -0.016610 0.000000 1.680770 
# 
# From -- ./inp_files/79508.got.cif
#   From: 2010.06.25/outbox.cif.g09.slc.cpg/sg10_40_cif.got.tgz:79508.got - 2010.06.27 22:07:45.
