data_PCOD8058536
_publ_section_title
;
Structure prediction by ZEFSAII (Michael W. Deem and Ramdas Pophale) SiO2 
 PCOD8058536
Probable space group: P 2/M
;
_chemical_formula_sum "Si O2"
_cell_formula_units_Z 28
_cell_length_a 25.103320
_cell_length_b 8.553962
_cell_length_c 19.324031
_cell_angle_alpha 90.000000
_cell_angle_beta 20.602178
_cell_angle_gamma 90.000000
_cell_volume 1460.116033
_symmetry_space_group_name_H-M "P 2/M"
_symmetry_group_IT_number 10
_symmetry_cell_setting 'monoclinic'
loop_
_space_group_symop_operation_xyz
x,y,z
-x,y,-z
-x,-y,-z
x,-y,z
loop_
_atom_site_type_symbol
_atom_site_label
_atom_site_fract_x
_atom_site_fract_y
_atom_site_fract_z
Si Si1 0.844744 0.313896 0.722454
Si Si2 0.641477 0.817563 0.571057
Si Si3 0.309675 0.686858 0.949973
Si Si4 0.942620 0.313535 0.144431
Si Si5 0.107842 0.675085 0.074841
Si Si6 0.218132 0.676089 0.469237
Si Si7 0.662041 0.685528 0.818053
O O1 0.855813 0.500000 0.712600
O O2 0.718002 0.251344 0.823489
O O3 0.000000 0.247514 0.500000
O O4 0.793999 0.250109 0.859765
O O5 0.482417 0.739953 0.744824
O O6 0.774198 0.751241 0.360529
O O7 0.683707 0.783551 0.599135
O O8 0.626869 0.000000 0.576205
O O9 0.303682 0.500000 0.957037
O O10 0.238601 0.754018 0.963657
O O11 0.933400 0.500000 0.163496
O O12 0.063317 0.245637 0.054919
O O13 0.000000 0.259254 0.000000
O O14 0.161692 0.500000 0.993038
O O15 0.958232 0.678364 0.302535
O O16 0.283621 0.500000 0.397548
O O17 0.230672 0.737493 0.375632
O O18 0.654865 0.500000 0.831180
O O19 0.500000 0.760436 0.000000
#
# Coordination Sequence:
#
# PCOD8058536 Si02
#       7
#     4   4   4   4   4   4   4
#     4   9  16  25  42  71 100 126 162 212 264 301
#     4  11  22  34  50  74 104 137 172 207 245 296
#     4  10  18  31  51  74 104 137 169 209 255 303
#     4   9  18  36  61  84 104 127 159 201 250 304
#     4   8  15  28  50  77  98 123 162 203 244 294
#     4   9  16  30  50  70  95 128 169 214 256 299
#     4   9  15  22  37  64  93 120 156 204 253 295
#
# _framework density 19.176559000000001
#
# number of rings (size 3 to 8) (size 9 to 14) (size 15 to 20)
#    0.000    2.714    0.000    3.857    0.000    6.000 
#    0.000    3.571    0.000    8.571    0.000    0.000 
#    0.000    0.000    0.000    0.000    0.000    0.000 
#
# Total GULP energy -346869.687603 kJ/mol
# GULP energy per Si atom -12388.203129 kJ/mol
# Density = 1.913291 g / cm^3
# Si number density = 19.176559 Si / 1000 Ang^3
#
#
#
# Elastic Constant Matrix: (Units=GPa)
#
#
# Indices 1 2 3 4 5 6 
#
# 1 155.2183 15.1885 72.0416 0.0000 -0.5969 0.0000
# 2 15.1885 24.1727 13.2879 0.0000 1.1136 0.0000
# 3 72.0416 13.2879 94.3243 0.0000 -4.7579 0.0000
# 4 0.0000 0.0000 0.0000 4.6781 0.0000 0.9596
# 5 -0.5969 1.1136 -4.7579 0.0000 39.6358 0.0000
# 6 0.0000 0.0000 0.0000 0.9596 0.0000 3.8335
#
#
#
# Elastic Compliance Matrix: (Units=1/GPa)
#
#
# Indices 1 2 3 4 5 6 
#
# 1 0.010113 -0.002231 -0.007444 0.000000 -0.000679 0.000000
# 2 -0.002231 0.045497 -0.004801 0.000000 -0.001888 0.000000
# 3 -0.007444 -0.004801 0.017068 0.000000 0.002072 0.000000
# 4 0.000000 0.000000 0.000000 0.225329 0.000000 -0.056402
# 5 -0.000679 -0.001888 0.002072 0.000000 0.025521 0.000000
# 6 0.000000 0.000000 0.000000 -0.056402 0.000000 0.274974
#
#
# Mechanical properties :
#
#
# Convention : Reuss Voigt Hill
#
# Bulk Modulus (GPa) = 22.86938 52.75013 37.80975
# Shear Modulus (GPa) = 7.78781 21.17599 14.48190
#
# Velocity S-wave (km/s) = 2.01741 3.32665 2.75105
# Velocity P-wave (km/s) = 4.16871 6.50560 5.46356
#
# Compressibility (1/GPa) = 0.04372659
#
# Stress axis : x y z
#
# Youngs Moduli (GPa) = 98.87988 21.97956 58.58915
#
# Poissons Ratio (x) = 0.04904 0.43614
# Poissons Ratio (y) = 0.22062 0.28126
# Poissons Ratio (z) = 0.73607 0.10551
#
# Static dielectric constant tensor:
#      x y z
#    x 3.912900 0.000000 -0.069550 
#    y 0.000000 2.942960 0.000000 
#    z -0.069550 0.000000 3.498160 
# 
# 
# High freq. dielectric constant tensor:
#      x y z
#    x 1.760020 0.000000 -0.006380 
#    y 0.000000 1.681430 0.000000 
#    z -0.006380 0.000000 1.740410 
# 
# From -- ./inp_files/86670.got.cif
#   From: 2010.06.25/outbox.cif.g09.slc.cpg/sg10_44_cif.got.tgz:86670.got - 2010.06.27 22:07:45.
