data_PCOD8058230
_publ_section_title
;
Structure prediction by ZEFSAII (Michael W. Deem and Ramdas Pophale) SiO2 
 PCOD8058230
Probable space group: P 2/M
;
_chemical_formula_sum "Si O2"
_cell_formula_units_Z 28
_cell_length_a 15.046228
_cell_length_b 9.156765
_cell_length_c 12.589592
_cell_angle_alpha 90.000000
_cell_angle_beta 105.555386
_cell_angle_gamma 90.000000
_cell_volume 1670.995325
_symmetry_space_group_name_H-M "P 2/M"
_symmetry_group_IT_number 10
_symmetry_cell_setting 'monoclinic'
loop_
_space_group_symop_operation_xyz
x,y,z
-x,y,-z
-x,-y,-z
x,-y,z
loop_
_atom_site_type_symbol
_atom_site_label
_atom_site_fract_x
_atom_site_fract_y
_atom_site_fract_z
Si Si1 0.732783 0.829154 0.716611
Si Si2 0.403251 0.170168 0.516392
Si Si3 0.892740 0.327095 0.075765
Si Si4 0.296533 0.672846 0.898860
Si Si5 0.385595 0.328665 0.145842
Si Si6 0.095974 0.672611 0.162468
Si Si7 0.406895 0.327297 0.733903
O O1 0.678012 0.795497 0.591566
O O2 0.681152 0.758263 0.798690
O O3 0.834276 0.758155 0.737860
O O4 0.741640 0.000000 0.740182
O O5 0.500000 0.228704 0.500000
O O6 0.377458 0.254666 0.614689
O O7 0.412176 0.000000 0.545892
O O8 0.887795 0.500000 0.071295
O O9 0.807016 0.263265 0.116308
O O10 0.990858 0.280464 0.158210
O O11 0.884155 0.274744 0.951446
O O12 0.292335 0.500000 0.888542
O O13 0.339167 0.735383 0.803668
O O14 0.362346 0.716325 0.017885
O O15 0.368965 0.500000 0.159621
O O16 0.489840 0.281658 0.202052
O O17 0.110533 0.500000 0.180972
O O18 0.398065 0.500000 0.719243
#
# Coordination Sequence:
#
# PCOD8058230 Si02
#       7
#     4   4   4   4   4   4   4
#     4  11  21  32  49  71  97 129 164 202 245 285
#     4  10  21  37  51  64  93 135 168 200 245 288
#     4   8  14  26  49  75 100 128 157 188 238 299
#     4   9  16  29  49  75 105 131 154 191 242 294
#     4  10  18  30  49  73 102 132 157 191 240 293
#     4   9  16  29  50  75  97 126 162 196 239 290
#     4  10  20  31  50  77  99 125 166 205 236 279
#
# _framework density 16.75648
#
# number of rings (size 3 to 8) (size 9 to 14) (size 15 to 20)
#    0.000    2.429    2.857    1.714    0.000    3.143 
#    0.000    2.143    0.000    2.571    0.000    6.000 
#    0.000    0.000    0.000    0.000    0.000    0.000 
#
# Total GULP energy -347130.393961 kJ/mol
# GULP energy per Si atom -12397.514070 kJ/mol
# Density = 1.671834 g / cm^3
# Si number density = 16.756480 Si / 1000 Ang^3
#
#
#
# Elastic Constant Matrix: (Units=GPa)
#
#
# Indices 1 2 3 4 5 6 
#
# 1 94.1070 19.6234 51.2339 0.0000 22.3042 0.0000
# 2 19.6234 28.9530 30.4741 0.0000 10.1103 0.0000
# 3 51.2339 30.4741 99.0218 0.0000 6.5828 0.0000
# 4 0.0000 0.0000 0.0000 7.0837 0.0000 9.6591
# 5 22.3042 10.1103 6.5828 0.0000 27.0307 0.0000
# 6 0.0000 0.0000 0.0000 9.6591 0.0000 12.6865
#
#
#
# Elastic Compliance Matrix: (Units=1/GPa)
#
#
# Indices 1 2 3 4 5 6 
#
# 1 0.018532 0.002045 -0.009301 0.000000 -0.013792 0.000000
# 2 0.002045 0.058648 -0.017825 0.000000 -0.019283 0.000000
# 3 -0.009301 -0.017825 0.019763 0.000000 0.009529 0.000000
# 4 0.000000 0.000000 0.000000 -3.698520 0.000000 2.815930
# 5 -0.013792 -0.019283 0.009529 0.000000 0.053267 0.000000
# 6 0.000000 0.000000 0.000000 2.815930 0.000000 -2.065131
#
#
# Mechanical properties :
#
#
# Convention : Reuss Voigt Hill
#
# Bulk Modulus (GPa) = 21.37613 47.19382 34.28497
# Shear Modulus (GPa) = -0.90128 17.41021 8.25447
#
# Velocity S-wave (km/s) = -0.73419 3.22687 2.22190
# Velocity P-wave (km/s) = 3.47360 6.48916 5.20457
#
# Compressibility (1/GPa) = 0.04678116
#
# Stress axis : x y z
#
# Youngs Moduli (GPa) = 53.96012 17.05097 50.59835
#
# Poissons Ratio (x) = -0.03487 0.47062
# Poissons Ratio (y) = -0.11037 0.90193
# Poissons Ratio (z) = 0.50189 0.30394
#
# Static dielectric constant tensor:
#      x y z
#    x 3.598630 0.000000 0.064430 
#    y 0.000000 2.851810 0.000000 
#    z 0.064430 0.000000 3.101520 
# 
# 
# High freq. dielectric constant tensor:
#      x y z
#    x 1.651840 0.000000 0.012230 
#    y 0.000000 1.613900 0.000000 
#    z 0.012230 0.000000 1.632160 
# 
# From -- ./inp_files/49070.got.cif
#   From: 2010.06.25/outbox.cif.g09.slc.cpg/sg10_25_cif.got.tgz:49070.got - 2010.06.27 22:07:45.
