data_PCOD8058909
_publ_section_title
;
Structure prediction by ZEFSAII (Michael W. Deem and Ramdas Pophale) SiO2 
 PCOD8058909
Probable space group: P 2/M
;
_chemical_formula_sum "Si O2"
_cell_formula_units_Z 28
_cell_length_a 11.816478
_cell_length_b 8.815991
_cell_length_c 14.640786
_cell_angle_alpha 90.000000
_cell_angle_beta 69.685860
_cell_angle_gamma 90.000000
_cell_volume 1430.326983
_symmetry_space_group_name_H-M "P 2/M"
_symmetry_group_IT_number 10
_symmetry_cell_setting 'monoclinic'
loop_
_space_group_symop_operation_xyz
x,y,z
-x,y,-z
-x,-y,-z
x,-y,z
loop_
_atom_site_type_symbol
_atom_site_label
_atom_site_fract_x
_atom_site_fract_y
_atom_site_fract_z
Si Si1 0.394187 0.822008 0.141549
Si Si2 0.117582 0.320051 0.915422
Si Si3 0.817047 0.679927 0.300758
Si Si4 0.455761 0.326776 0.615186
Si Si5 0.337996 0.179556 0.959638
Si Si6 0.113319 0.320249 0.523323
Si Si7 0.327726 0.823261 0.355595
O O1 0.531187 0.758978 0.109850
O O2 0.315500 0.777646 0.252136
O O3 0.412636 0.000000 0.129489
O O4 0.324426 0.768969 0.069830
O O5 0.117751 0.500000 0.919373
O O6 0.115493 0.264270 0.810106
O O7 0.237833 0.263071 0.929302
O O8 0.000000 0.253737 0.000000
O O9 0.813955 0.500000 0.307039
O O10 0.679494 0.738511 0.339302
O O11 0.885282 0.742175 0.372548
O O12 0.500000 0.316848 0.500000
O O13 0.464578 0.500000 0.648440
O O14 0.536540 0.216529 0.653756
O O15 0.321573 0.000000 0.951845
O O16 0.105208 0.500000 0.525852
O O17 0.235778 0.275768 0.439012
O O18 0.000000 0.249579 0.500000
O O19 0.302037 0.000000 0.379037
#
# Coordination Sequence:
#
# PCOD8058909 Si02
#       7
#     4   4   4   4   4   4   4
#     4   8  17  33  54  79 107 139 166 210 270 314
#     4  10  21  35  52  76 108 139 170 216 271 309
#     4   9  18  35  55  76 105 139 172 215 266 310
#     4  10  18  32  55  77 104 140 178 213 254 312
#     4   9  17  35  58  76 101 138 180 212 252 315
#     4  10  21  38  57  74  99 142 188 215 247 312
#     4  11  21  33  52  81 113 136 168 217 270 314
#
# _framework density 19.575942000000001
#
# number of rings (size 3 to 8) (size 9 to 14) (size 15 to 20)
#    0.000    2.429    1.429    2.143    0.000    2.000 
#    0.000    5.714    0.000    0.000    0.000    0.000 
#    0.000    0.000    0.000    0.000    0.000    0.000 
#
# Total GULP energy -347089.306453 kJ/mol
# GULP energy per Si atom -12396.046659 kJ/mol
# Density = 1.953139 g / cm^3
# Si number density = 19.575942 Si / 1000 Ang^3
#
#
#
# Elastic Constant Matrix: (Units=GPa)
#
#
# Indices 1 2 3 4 5 6 
#
# 1 116.2035 8.4351 68.6071 0.0000 15.7413 0.0000
# 2 8.4351 9.1989 14.6010 0.0000 3.3314 0.0000
# 3 68.6071 14.6010 160.7923 0.0000 10.4055 0.0000
# 4 0.0000 0.0000 0.0000 6.6937 0.0000 9.8496
# 5 15.7413 3.3314 10.4055 0.0000 31.0058 0.0000
# 6 0.0000 0.0000 0.0000 9.8496 0.0000 14.2372
#
#
#
# Elastic Compliance Matrix: (Units=1/GPa)
#
#
# Indices 1 2 3 4 5 6 
#
# 1 0.012122 -0.002076 -0.004702 0.000000 -0.004353 0.000000
# 2 -0.002076 0.130475 -0.010348 0.000000 -0.009492 0.000000
# 3 -0.004702 -0.010348 0.009137 0.000000 0.000433 0.000000
# 4 0.000000 0.000000 0.000000 -8.306766 0.000000 5.746767
# 5 -0.004353 -0.009492 0.000433 0.000000 0.035337 0.000000
# 6 0.000000 0.000000 0.000000 5.746767 0.000000 -3.905476
#
#
# Mechanical properties :
#
#
# Convention : Reuss Voigt Hill
#
# Bulk Modulus (GPa) = 8.51190 52.16458 30.33824
# Shear Modulus (GPa) = -0.41835 23.35744 11.46955
#
# Velocity S-wave (km/s) = -0.46278 3.45798 2.42316
# Velocity P-wave (km/s) = 2.01793 6.53059 4.83325
#
# Compressibility (1/GPa) = 0.11748255
#
# Stress axis : x y z
#
# Youngs Moduli (GPa) = 82.49406 7.66432 109.44319
#
# Poissons Ratio (x) = 0.01591 0.51461
# Poissons Ratio (y) = 0.17123 1.13252
# Poissons Ratio (z) = 0.38789 0.07931
#
# Static dielectric constant tensor:
#      x y z
#    x 3.677530 0.000000 0.257610 
#    y 0.000000 3.138320 0.000000 
#    z 0.257610 0.000000 4.166960 
# 
# 
# High freq. dielectric constant tensor:
#      x y z
#    x 1.757950 0.000000 0.009470 
#    y 0.000000 1.721690 0.000000 
#    z 0.009470 0.000000 1.780000 
# 
# From -- ./inp_files/63356.got.cif
#   From: 2010.06.25/outbox.cif.g09.slc.cpg/sg10_32_cif.got.tgz:63356.got - 2010.06.27 22:07:45.
