data_PCOD8058194
_publ_section_title
;
Structure prediction by ZEFSAII (Michael W. Deem and Ramdas Pophale) SiO2 
 PCOD8058194
Probable space group: P 2/M
;
_chemical_formula_sum "Si O2"
_cell_formula_units_Z 30
_cell_length_a 23.414593
_cell_length_b 9.748812
_cell_length_c 10.851796
_cell_angle_alpha 90.000000
_cell_angle_beta 44.474177
_cell_angle_gamma 90.000000
_cell_volume 1735.411451
_symmetry_space_group_name_H-M "P 2/M"
_symmetry_group_IT_number 10
_symmetry_cell_setting 'monoclinic'
loop_
_space_group_symop_operation_xyz
x,y,z
-x,y,-z
-x,-y,-z
x,-y,z
loop_
_atom_site_type_symbol
_atom_site_label
_atom_site_fract_x
_atom_site_fract_y
_atom_site_fract_z
Si Si1 0.789245 0.849292 0.428456
Si Si2 0.511207 0.343829 0.617350
Si Si3 0.933271 0.659102 0.496732
Si Si4 0.063845 0.341179 0.794230
Si Si5 0.612775 0.152051 0.619158
Si Si6 0.218029 0.845825 0.272421
Si Si7 0.629043 0.653226 0.981323
Si Si8 0.500000 0.237240 0.000000
O O1 0.856826 0.741139 0.284176
O O2 0.700955 0.794340 0.525176
O O3 0.789193 0.864424 0.573060
O O4 0.807777 0.000000 0.342311
O O5 0.500000 0.283615 0.500000
O O6 0.541405 0.500000 0.570761
O O7 0.583999 0.258545 0.563048
O O8 0.424304 0.327584 0.815074
O O9 0.906332 0.500000 0.542772
O O10 0.962317 0.693491 0.309165
O O11 0.858287 0.754643 0.654760
O O12 0.000000 0.688167 0.500000
O O13 0.086040 0.500000 0.768152
O O14 0.000000 0.301914 0.000000
O O15 0.619326 0.000000 0.552498
O O16 0.547798 0.142614 0.830211
O O17 0.217836 0.000000 0.212449
O O18 0.301538 0.767331 0.114120
O O19 0.667388 0.500000 0.914963
O O20 0.568528 0.668601 0.958448
#
# Coordination Sequence:
#
# PCOD8058194 Si02
#       8
#     4   4   4   4   4   4   4   2
#     4   9  18  32  48  73 104 132 161 200 252 306
#     4   9  20  37  51  66  94 134 177 216 253 296
#     4   9  18  34  55  77 102 134 168 210 260 313
#     4   9  18  33  53  77 101 129 168 211 254 306
#     4  10  19  31  50  74 101 131 166 206 251 304
#     4  10  19  32  50  75 106 134 163 206 257 308
#     4  10  19  31  50  74  99 130 169 211 254 302
#     4  10  18  30  48  76 106 132 160 206 254 304
#
# _framework density 17.286967000000001
#
# number of rings (size 3 to 8) (size 9 to 14) (size 15 to 20)
#    0.000    2.533    1.333    0.800    0.000    4.533 
#    0.000    1.333    0.000    6.400    0.000    0.000 
#    0.000    0.000    0.000    0.000    0.000    0.000 
#
# Total GULP energy -371725.427086 kJ/mol
# GULP energy per Si atom -12390.847570 kJ/mol
# Density = 1.724762 g / cm^3
# Si number density = 17.286967 Si / 1000 Ang^3
#
#
#
# Elastic Constant Matrix: (Units=GPa)
#
#
# Indices 1 2 3 4 5 6 
#
# 1 112.4586 55.3877 54.8995 0.0000 -15.1756 0.0000
# 2 55.3877 97.3431 41.8023 0.0000 -20.0236 0.0000
# 3 54.8995 41.8023 59.0150 0.0000 -13.3628 0.0000
# 4 0.0000 0.0000 0.0000 23.2120 0.0000 -8.7095
# 5 -15.1756 -20.0236 -13.3628 0.0000 27.3502 0.0000
# 6 0.0000 0.0000 0.0000 -8.7095 0.0000 27.8279
#
#
#
# Elastic Compliance Matrix: (Units=1/GPa)
#
#
# Indices 1 2 3 4 5 6 
#
# 1 0.017432 -0.004226 -0.013193 0.000000 0.000133 0.000000
# 2 -0.004226 0.016860 -0.006462 0.000000 0.006841 0.000000
# 3 -0.013193 -0.006462 0.034931 0.000000 0.005015 0.000000
# 4 0.000000 0.000000 0.000000 0.048813 0.000000 0.015277
# 5 0.000133 0.006841 0.005015 0.000000 0.044095 0.000000
# 6 0.000000 0.000000 0.000000 0.015277 0.000000 0.040717
#
#
# Mechanical properties :
#
#
# Convention : Reuss Voigt Hill
#
# Bulk Modulus (GPa) = 46.59703 63.66619 55.13161
# Shear Modulus (GPa) = 19.39769 23.45983 21.42876
#
# Velocity S-wave (km/s) = 3.35341 3.68786 3.52460
# Velocity P-wave (km/s) = 6.48131 7.41907 6.96599
#
# Compressibility (1/GPa) = 0.02146060
#
# Stress axis : x y z
#
# Youngs Moduli (GPa) = 57.36644 59.31286 28.62825
#
# Poissons Ratio (x) = 0.25065 0.37769
# Poissons Ratio (y) = 0.24243 0.18500
# Poissons Ratio (z) = 0.75682 0.38328
#
# Static dielectric constant tensor:
#      x y z
#    x 3.080980 0.000000 0.077750 
#    y 0.000000 3.523640 0.000000 
#    z 0.077750 0.000000 3.092200 
# 
# 
# High freq. dielectric constant tensor:
#      x y z
#    x 1.655670 0.000000 -0.008410 
#    y 0.000000 1.676470 0.000000 
#    z -0.008410 0.000000 1.652370 
# 
# From -- ./inp_files/56616.got.cif
#   From: 2010.06.25/outbox.cif.g09.slc.cpg/sg10_29_cif.got.tgz:56616.got - 2010.06.27 22:07:45.
