data_PCOD8058458
_publ_section_title
;
Structure prediction by ZEFSAII (Michael W. Deem and Ramdas Pophale) SiO2 
 PCOD8058458
Probable space group: P 2/M
;
_chemical_formula_sum "Si O2"
_cell_formula_units_Z 32
_cell_length_a 12.363971
_cell_length_b 9.065891
_cell_length_c 23.547721
_cell_angle_alpha 90.000000
_cell_angle_beta 133.849288
_cell_angle_gamma 90.000000
_cell_volume 1903.494931
_symmetry_space_group_name_H-M "P 2/M"
_symmetry_group_IT_number 10
_symmetry_cell_setting 'monoclinic'
loop_
_space_group_symop_operation_xyz
x,y,z
-x,y,-z
-x,-y,-z
x,-y,z
loop_
_atom_site_type_symbol
_atom_site_label
_atom_site_fract_x
_atom_site_fract_y
_atom_site_fract_z
Si Si1 0.920951 0.827775 0.842983
Si Si2 0.230103 0.329586 0.311180
Si Si3 0.939004 0.673246 0.417514
Si Si4 0.453792 0.825563 0.588262
Si Si5 0.673301 0.170905 0.846831
Si Si6 0.362651 0.173020 0.680499
Si Si7 0.796886 0.330974 0.568635
Si Si8 0.872889 0.333755 0.001122
O O1 0.893000 0.747125 0.773338
O O2 0.778263 0.796687 0.831002
O O3 0.072218 0.761229 0.925226
O O4 0.945763 0.000000 0.841436
O O5 0.248240 0.500000 0.300482
O O6 0.387981 0.250439 0.362502
O O7 0.169427 0.312518 0.352866
O O8 0.912525 0.500000 0.409925
O O9 0.781112 0.747709 0.345444
O O10 0.000000 0.732130 0.500000
O O11 0.055345 0.720292 0.411167
O O12 0.385789 0.777211 0.623941
O O13 0.342633 0.771624 0.498668
O O14 0.477417 0.000000 0.593013
O O15 0.506190 0.220368 0.769781
O O16 0.683088 0.000000 0.866807
O O17 0.722898 0.263249 0.920005
O O18 0.337049 0.000000 0.674544
O O19 0.755776 0.500000 0.538320
O O20 0.838256 0.500000 0.008290
O O21 0.000000 0.329781 0.000000
#
# Coordination Sequence:
#
# PCOD8058458 Si02
#       8
#     4   4   4   4   4   4   4   4
#     4  10  18  31  49  70 100 135 167 198 242 295
#     4  11  22  34  50  71 101 135 168 207 249 296
#     4  10  20  35  54  72  93 127 170 212 253 298
#     4  11  21  34  51  73 100 131 168 207 248 298
#     4   9  17  31  47  68 100 133 162 198 245 293
#     4  10  20  33  50  74 101 130 165 206 251 294
#     4  10  22  38  51  70  98 131 170 212 255 295
#     4   9  17  28  44  71 101 130 165 199 237 290
#
# _framework density 16.811181000000001
#
# number of rings (size 3 to 8) (size 9 to 14) (size 15 to 20)
#    0.000    2.000    2.500    1.875    0.000    6.250 
#    0.000    0.000    0.000    0.000    0.000    0.875 
#    0.000    7.000    0.000    0.000    0.000    0.000 
#
# Total GULP energy -396910.017335 kJ/mol
# GULP energy per Si atom -12403.438042 kJ/mol
# Density = 1.677292 g / cm^3
# Si number density = 16.811181 Si / 1000 Ang^3
#
#
#
# Elastic Constant Matrix: (Units=GPa)
#
#
# Indices 1 2 3 4 5 6 
#
# 1 47.1398 33.5777 40.0505 0.0000 -6.4802 0.0000
# 2 33.5777 87.7683 60.7433 0.0000 -3.2853 0.0000
# 3 40.0505 60.7433 134.2242 0.0000 2.4520 0.0000
# 4 0.0000 0.0000 0.0000 34.7778 0.0000 3.4760
# 5 -6.4802 -3.2853 2.4520 0.0000 18.4555 0.0000
# 6 0.0000 0.0000 0.0000 3.4760 0.0000 21.1826
#
#
#
# Elastic Compliance Matrix: (Units=1/GPa)
#
#
# Indices 1 2 3 4 5 6 
#
# 1 0.034269 -0.007945 -0.006841 0.000000 0.011527 0.000000
# 2 -0.007945 0.018725 -0.006128 0.000000 0.001358 0.000000
# 3 -0.006841 -0.006128 0.012359 0.000000 -0.005135 0.000000
# 4 0.000000 0.000000 0.000000 0.029233 0.000000 -0.004797
# 5 0.011527 0.001358 -0.005135 0.000000 0.059156 0.000000
# 6 0.000000 0.000000 0.000000 -0.004797 0.000000 0.047996
#
#
# Mechanical properties :
#
#
# Convention : Reuss Voigt Hill
#
# Bulk Modulus (GPa) = 42.50687 59.76393 51.13540
# Shear Modulus (GPa) = 19.88809 23.86723 21.87766
#
# Velocity S-wave (km/s) = 3.44325 3.77201 3.61137
# Velocity P-wave (km/s) = 6.41465 7.38905 6.91902
#
# Compressibility (1/GPa) = 0.02352561
#
# Stress axis : x y z
#
# Youngs Moduli (GPa) = 29.18098 53.40396 80.91556
#
# Poissons Ratio (x) = 0.42427 0.55351
# Poissons Ratio (y) = 0.23183 0.49588
# Poissons Ratio (z) = 0.19962 0.32728
#
# Static dielectric constant tensor:
#      x y z
#    x 2.897560 0.000000 -0.004070 
#    y 0.000000 3.224900 0.000000 
#    z -0.004070 0.000000 3.293160 
# 
# 
# High freq. dielectric constant tensor:
#      x y z
#    x 1.609050 0.000000 0.004000 
#    y 0.000000 1.656830 0.000000 
#    z 0.004000 0.000000 1.653530 
# 
# From -- ./inp_files/55231.got.cif
#   From: 2010.06.25/outbox.cif.g09.slc.cpg/sg10_28_cif.got.tgz:55231.got - 2010.06.27 22:07:45.
