data_PCOD8058794
_publ_section_title
;
Structure prediction by ZEFSAII (Michael W. Deem and Ramdas Pophale) SiO2 
 PCOD8058794
Probable space group: P 2/M
;
_chemical_formula_sum "Si O2"
_cell_formula_units_Z 28
_cell_length_a 9.465163
_cell_length_b 18.244840
_cell_length_c 16.180849
_cell_angle_alpha 90.000000
_cell_angle_beta 147.512822
_cell_angle_gamma 90.000000
_cell_volume 1500.836529
_symmetry_space_group_name_H-M "P 2/M"
_symmetry_group_IT_number 10
_symmetry_cell_setting 'monoclinic'
loop_
_space_group_symop_operation_xyz
x,y,z
-x,y,-z
-x,-y,-z
x,-y,z
loop_
_atom_site_type_symbol
_atom_site_label
_atom_site_fract_x
_atom_site_fract_y
_atom_site_fract_z
Si Si1 0.946928 0.417510 0.569475
Si Si2 0.684559 0.700089 0.166020
Si Si3 0.484226 0.677843 0.584085
Si Si4 0.179078 0.792124 0.203176
Si Si5 0.866437 0.808394 0.638890
Si Si6 0.594134 0.809251 0.857861
Si Si7 0.870084 0.084631 0.347564
O O1 0.955030 0.500000 0.608526
O O2 0.652662 0.384603 0.429965
O O3 0.000000 0.416119 0.500000
O O4 0.151502 0.369981 0.722945
O O5 0.535571 0.733501 0.173201
O O6 0.864640 0.762947 0.214688
O O7 0.500000 0.673439 0.000000
O O8 0.500000 0.645582 0.500000
O O9 0.771307 0.703075 0.760769
O O10 0.324402 0.755264 0.507248
O O11 0.250339 0.829000 0.327683
O O12 0.376018 0.815090 0.226527
O O13 0.882918 0.814211 0.038537
O O14 0.927400 0.882338 0.619263
O O15 0.415383 0.877263 0.798286
O O16 0.000000 0.098028 0.500000
O O17 0.827572 0.000000 0.305990
#
# Coordination Sequence:
#
# PCOD8058794 Si02
#       7
#     4   4   4   4   4   4   4
#     4  10  21  35  52  78 110 145 185 224 267 324
#     4  10  18  33  56  78 107 140 182 233 275 320
#     4   9  18  32  55  78 101 135 175 220 266 312
#     4  10  18  32  52  81 106 132 171 224 273 314
#     4   9  18  33  55  79 103 133 182 226 264 314
#     4  10  20  32  55  79 107 137 175 223 269 319
#     4  10  21  37  55  77 108 145 180 217 266 321
#
# _framework density 18.656262000000002
#
# number of rings (size 3 to 8) (size 9 to 14) (size 15 to 20)
#    0.000    2.286    1.429    1.714    0.000    4.571 
#    0.000    3.571    0.000    6.429    0.000    4.000 
#    0.000    0.000    0.000    0.000    0.000    0.000 
#
# Total GULP energy -346924.931775 kJ/mol
# GULP energy per Si atom -12390.176135 kJ/mol
# Density = 1.861380 g / cm^3
# Si number density = 18.656262 Si / 1000 Ang^3
#
#
#
# Elastic Constant Matrix: (Units=GPa)
#
#
# Indices 1 2 3 4 5 6 
#
# 1 116.4654 58.7709 13.5114 0.0000 -8.2538 0.0000
# 2 58.7709 118.5687 39.0892 0.0000 -6.6078 0.0000
# 3 13.5114 39.0892 67.3979 0.0000 -4.5771 0.0000
# 4 0.0000 0.0000 0.0000 6.4082 0.0000 -28.2305
# 5 -8.2538 -6.6078 -4.5771 0.0000 26.4247 0.0000
# 6 0.0000 0.0000 0.0000 -28.2305 0.0000 -37.9791
#
#
#
# Elastic Compliance Matrix: (Units=1/GPa)
#
#
# Indices 1 2 3 4 5 6 
#
# 1 0.011676 -0.006104 0.001360 0.000000 0.002356 0.000000
# 2 -0.006104 0.013685 -0.006689 0.000000 0.000357 0.000000
# 3 0.001360 -0.006689 0.018578 0.000000 0.001970 0.000000
# 4 0.000000 0.000000 0.000000 0.036507 0.000000 -0.027136
# 5 0.002356 0.000357 0.001970 0.000000 0.039010 0.000000
# 6 0.000000 0.000000 0.000000 -0.027136 0.000000 -0.006160
#
#
# Mechanical properties :
#
#
# Convention : Reuss Voigt Hill
#
# Bulk Modulus (GPa) = 47.45766 58.35280 52.90523
# Shear Modulus (GPa) = 34.91974 11.70813 23.31393
#
# Velocity S-wave (km/s) = 4.33106 2.50785 3.53888
# Velocity P-wave (km/s) = 7.10661 6.30330 6.71697
#
# Compressibility (1/GPa) = 0.02107141
#
# Stress axis : x y z
#
# Youngs Moduli (GPa) = 85.64700 73.07448 53.82766
#
# Poissons Ratio (x) = 0.44607 -0.07319
# Poissons Ratio (y) = 0.52282 0.36004
# Poissons Ratio (z) = -0.11645 0.48878
#
# Static dielectric constant tensor:
#      x y z
#    x 3.768850 0.000000 0.116180 
#    y 0.000000 3.208900 0.000000 
#    z 0.116180 0.000000 3.497710 
# 
# 
# High freq. dielectric constant tensor:
#      x y z
#    x 1.747610 0.000000 0.001020 
#    y 0.000000 1.682260 0.000000 
#    z 0.001020 0.000000 1.724530 
# 
# From -- ./inp_files/30086.got.cif
#   From: 2010.06.25/outbox.cif.g09.slc.cpg/sg10_16_cif.got.tgz:30086.got - 2010.06.27 22:07:45.
