data_PCOD8058332
_publ_section_title
;
Structure prediction by ZEFSAII (Michael W. Deem and Ramdas Pophale) SiO2 
 PCOD8058332
Probable space group: P 2/M
;
_chemical_formula_sum "Si O2"
_cell_formula_units_Z 20
_cell_length_a 12.501964
_cell_length_b 9.049820
_cell_length_c 29.027656
_cell_angle_alpha 90.000000
_cell_angle_beta 160.069730
_cell_angle_gamma 90.000000
_cell_volume 1119.507271
_symmetry_space_group_name_H-M "P 2/M"
_symmetry_group_IT_number 10
_symmetry_cell_setting 'monoclinic'
loop_
_space_group_symop_operation_xyz
x,y,z
-x,y,-z
-x,-y,-z
x,-y,z
loop_
_atom_site_type_symbol
_atom_site_label
_atom_site_fract_x
_atom_site_fract_y
_atom_site_fract_z
Si Si1 0.355589 0.669927 0.656189
Si Si2 0.360319 0.825776 0.142789
Si Si3 0.890762 0.669707 0.803509
Si Si4 0.181096 0.166787 0.842387
Si Si5 0.497741 0.326462 0.892084
O O1 0.401642 0.500000 0.690662
O O2 0.460970 0.778630 0.738958
O O3 0.558628 0.701977 0.692744
O O4 0.000000 0.706010 0.500000
O O5 0.529439 0.746513 0.168784
O O6 0.386502 0.000000 0.146577
O O7 0.000000 0.773819 0.000000
O O8 0.931827 0.500000 0.805717
O O9 0.907720 0.764687 0.763559
O O10 0.163336 0.714517 0.949711
O O11 0.221230 0.260500 0.811991
O O12 0.089473 0.000000 0.792288
O O13 0.500000 0.174509 0.000000
O O14 0.445780 0.500000 0.866424
#
# Coordination Sequence:
#
# PCOD8058332 Si02
#       5
#     4   4   4   4   4
#     4  10  21  37  56  78 106 142 181 218 259 311
#     4  11  22  34  52  78 109 141 175 218 266 313
#     4   9  17  30  49  74 103 136 174 214 256 308
#     4   9  17  28  45  72 105 136 168 211 262 313
#     4  10  18  30  51  76 104 136 173 217 262 309
#
# _framework density 17.865002
#
# number of rings (size 3 to 8) (size 9 to 14) (size 15 to 20)
#    0.000    2.200    2.000    1.800    0.000    5.200 
#    0.000    0.000    0.000    1.200    0.000    8.400 
#    0.000    0.000    0.000    0.000    0.000    0.000 
#
# Total GULP energy -248062.430668 kJ/mol
# GULP energy per Si atom -12403.121533 kJ/mol
# Density = 1.782434 g / cm^3
# Si number density = 17.865002 Si / 1000 Ang^3
#
#
#
# Elastic Constant Matrix: (Units=GPa)
#
#
# Indices 1 2 3 4 5 6 
#
# 1 132.9464 63.6037 43.0615 0.0000 17.8863 0.0000
# 2 63.6037 94.8773 30.3584 0.0000 4.2984 0.0000
# 3 43.0615 30.3584 66.2386 -0.0001 11.5022 -0.0001
# 4 0.0000 0.0000 -0.0001 13.9472 0.0000 -1.3749
# 5 17.8863 4.2984 11.5022 0.0000 20.2433 0.0000
# 6 0.0000 0.0000 -0.0001 -1.3749 0.0000 36.7252
#
#
#
# Elastic Compliance Matrix: (Units=1/GPa)
#
#
# Indices 1 2 3 4 5 6 
#
# 1 0.013400 -0.007357 -0.003944 0.000000 -0.008037 0.000000
# 2 -0.007357 0.016399 -0.003614 0.000000 0.005072 0.000000
# 3 -0.003944 -0.003614 0.020612 0.000000 -0.007460 0.000000
# 4 0.000000 0.000000 0.000000 0.071964 0.000000 0.002694
# 5 -0.008037 0.005072 -0.007460 0.000000 0.059662 0.000000
# 6 0.000000 0.000000 0.000000 0.002694 0.000000 0.027330
#
#
# Mechanical properties :
#
#
# Convention : Reuss Voigt Hill
#
# Bulk Modulus (GPa) = 48.58658 63.12331 55.85494
# Shear Modulus (GPa) = 20.32041 24.65239 22.48640
#
# Velocity S-wave (km/s) = 3.37626 3.71877 3.55164
# Velocity P-wave (km/s) = 6.51570 7.33820 6.93915
#
# Compressibility (1/GPa) = 0.02058182
#
# Stress axis : x y z
#
# Youngs Moduli (GPa) = 74.62469 60.98107 48.51440
#
# Poissons Ratio (x) = 0.44865 0.19134
# Poissons Ratio (y) = 0.54903 0.17531
# Poissons Ratio (z) = 0.29432 0.22036
#
# Static dielectric constant tensor:
#      x y z
#    x 3.406430 0.000000 0.232960 
#    y 0.000000 3.354980 0.000000 
#    z 0.232960 0.000000 2.921430 
# 
# 
# High freq. dielectric constant tensor:
#      x y z
#    x 1.703920 0.000000 0.019080 
#    y 0.000000 1.699430 0.000000 
#    z 0.019080 0.000000 1.641250 
# 
# From -- ./inp_files/22152.got.cif
#   From: 2010.06.25/outbox.cif.g09.slc.cpg/sg10_12_cif.got.tgz:22152.got - 2010.06.27 22:07:45.
