data_PCOD8058589
_publ_section_title
;
Structure prediction by ZEFSAII (Michael W. Deem and Ramdas Pophale) SiO2 
 PCOD8058589
Probable space group: P 2/M
;
_chemical_formula_sum "Si O2"
_cell_formula_units_Z 28
_cell_length_a 11.773123
_cell_length_b 16.497381
_cell_length_c 10.342627
_cell_angle_alpha 90.000000
_cell_angle_beta 48.989015
_cell_angle_gamma 90.000000
_cell_volume 1515.810866
_symmetry_space_group_name_H-M "P 2/M"
_symmetry_group_IT_number 10
_symmetry_cell_setting 'monoclinic'
loop_
_space_group_symop_operation_xyz
x,y,z
-x,y,-z
-x,-y,-z
x,-y,z
loop_
_atom_site_type_symbol
_atom_site_label
_atom_site_fract_x
_atom_site_fract_y
_atom_site_fract_z
Si Si1 0.105486 0.093263 0.799925
Si Si2 0.319338 0.500000 0.282813
Si Si3 0.320666 0.240607 0.634636
Si Si4 0.322441 0.226171 0.130912
Si Si5 0.912114 0.093370 0.692216
Si Si6 0.320006 0.328881 0.377416
Si Si7 0.323120 0.669618 0.887989
Si Si8 0.321277 0.500000 0.986765
O O1 0.250851 0.150942 0.693951
O O2 0.013537 0.112249 0.739837
O O3 0.161909 0.000000 0.760913
O O4 0.000000 0.112338 0.000000
O O5 0.258092 0.420472 0.403952
O O6 0.498942 0.500000 0.144330
O O7 0.259631 0.500000 0.179813
O O8 0.500000 0.229400 0.500000
O O9 0.260682 0.289329 0.554299
O O10 0.263043 0.293235 0.799230
O O11 0.245979 0.138985 0.181435
O O12 0.265495 0.273963 0.299366
O O13 0.500000 0.212072 0.000000
O O14 0.267069 0.276011 0.048287
O O15 0.000000 0.122771 0.500000
O O16 0.867965 0.000000 0.715957
O O17 0.498349 0.332378 0.246837
O O18 0.260557 0.578660 0.955366
#
# Coordination Sequence:
#
# PCOD8058589 Si02
#       8
#     4   2   4   4   4   4   4   2
#     4  10  21  38  57  75 100 138 179 212 250 313
#     4   9  14  25  45  71 105 141 170 201 252 307
#     4  10  20  33  50  79 110 132 167 220 268 300
#     4  10  18  31  52  77 102 131 170 213 255 300
#     4  10  21  36  53  75 102 133 170 209 255 312
#     4   9  17  28  46  74 107 136 165 210 258 302
#     4   9  17  28  46  74 105 135 170 210 253 302
#     4   9  14  25  45  71 105 140 170 204 252 303
#
# _framework density 18.471962999999999
#
# number of rings (size 3 to 8) (size 9 to 14) (size 15 to 20)
#    0.000    2.429    1.429    1.714    0.000    1.143 
#    0.000    2.857    0.000   10.286    0.000   20.000 
#    0.000    0.000    0.000    0.000    0.000    0.000 
#
# Total GULP energy -347168.095016 kJ/mol
# GULP energy per Si atom -12398.860536 kJ/mol
# Density = 1.842992 g / cm^3
# Si number density = 18.471963 Si / 1000 Ang^3
#
#
#
# Elastic Constant Matrix: (Units=GPa)
#
#
# Indices 1 2 3 4 5 6 
#
# 1 48.6685 55.3426 52.2696 0.0000 18.4759 0.0000
# 2 55.3426 153.1896 69.1957 0.0000 8.4278 0.0000
# 3 52.2696 69.1957 116.2591 0.0000 40.7851 0.0000
# 4 0.0000 0.0000 0.0000 38.2898 0.0000 15.1522
# 5 18.4759 8.4278 40.7851 0.0000 30.9785 0.0000
# 6 0.0000 0.0000 0.0000 15.1522 0.0000 23.5509
#
#
#
# Elastic Compliance Matrix: (Units=1/GPa)
#
#
# Indices 1 2 3 4 5 6 
#
# 1 0.052511 -0.013198 -0.011199 0.000000 -0.012984 0.000000
# 2 -0.013198 0.013633 -0.006765 0.000000 0.013069 0.000000
# 3 -0.011199 -0.006765 0.027269 0.000000 -0.027381 0.000000
# 4 0.000000 0.000000 0.000000 0.035037 0.000000 -0.022542
# 5 -0.012984 0.013069 -0.027381 0.000000 0.072518 0.000000
# 6 0.000000 0.000000 0.000000 -0.022542 0.000000 0.056964
#
#
# Mechanical properties :
#
#
# Convention : Reuss Voigt Hill
#
# Bulk Modulus (GPa) = 32.16563 74.63701 53.40132
# Shear Modulus (GPa) = 15.12316 27.98445 21.55381
#
# Velocity S-wave (km/s) = 2.86441 3.89648 3.41961
# Velocity P-wave (km/s) = 5.32831 7.79338 6.67561
#
# Compressibility (1/GPa) = 0.03108909
#
# Stress axis : x y z
#
# Youngs Moduli (GPa) = 19.04345 73.35345 36.67234
#
# Poissons Ratio (x) = 0.96812 0.41069
# Poissons Ratio (y) = 0.25133 0.24809
# Poissons Ratio (z) = 0.21326 0.49624
#
# Static dielectric constant tensor:
#      x y z
#    x 3.076600 0.000000 0.423920 
#    y 0.000000 3.571070 0.000000 
#    z 0.423920 0.000000 3.507340 
# 
# 
# High freq. dielectric constant tensor:
#      x y z
#    x 1.683020 0.000000 0.031190 
#    y 0.000000 1.728250 0.000000 
#    z 0.031190 0.000000 1.714600 
# 
# From -- ./inp_files/25267.got.cif
#   From: 2010.06.25/outbox.cif.g09.slc.cpg/sg10_13_cif.got.tgz:25267.got - 2010.06.27 22:07:45.
