data_PCOD8058795
_publ_section_title
;
Structure prediction by ZEFSAII (Michael W. Deem and Ramdas Pophale) SiO2 
 PCOD8058795
Probable space group: P 2/M
;
_chemical_formula_sum "Si O2"
_cell_formula_units_Z 30
_cell_length_a 29.786531
_cell_length_b 9.416069
_cell_length_c 17.409999
_cell_angle_alpha 90.000000
_cell_angle_beta 17.483844
_cell_angle_gamma 90.000000
_cell_volume 1467.038544
_symmetry_space_group_name_H-M "P 2/M"
_symmetry_group_IT_number 10
_symmetry_cell_setting 'monoclinic'
loop_
_space_group_symop_operation_xyz
x,y,z
-x,y,-z
-x,-y,-z
x,-y,z
loop_
_atom_site_type_symbol
_atom_site_label
_atom_site_fract_x
_atom_site_fract_y
_atom_site_fract_z
Si Si1 0.171093 0.655293 0.706416
Si Si2 0.178195 0.842540 0.549808
Si Si3 0.447307 0.835896 0.671405
Si Si4 0.901327 0.166230 0.737522
Si Si5 0.395014 0.338382 0.019325
Si Si6 0.927532 0.329116 0.413498
Si Si7 0.500000 0.768898 0.000000
Si Si8 0.590311 0.334419 0.565636
O O1 0.236191 0.500000 0.573195
O O2 0.197287 0.777903 0.602634
O O3 0.246523 0.695591 0.664875
O O4 0.000000 0.637850 0.000000
O O5 0.069411 0.740622 0.676695
O O6 0.348241 0.859844 0.241446
O O7 0.106886 0.000000 0.669372
O O8 0.500000 0.794334 0.500000
O O9 0.566779 0.749884 0.526198
O O10 0.475397 0.000000 0.640437
O O11 0.276249 0.798524 0.976488
O O12 0.000000 0.206500 0.500000
O O13 0.950747 0.262701 0.728667
O O14 0.925940 0.000000 0.716064
O O15 0.371689 0.500000 0.037224
O O16 0.230644 0.274037 0.295946
O O17 0.500036 0.326969 0.923188
O O18 0.474920 0.268011 0.816209
O O19 0.946068 0.500000 0.376581
O O20 0.564926 0.500000 0.589780
#
# Coordination Sequence:
#
# PCOD8058795 Si02
#       8
#     4   4   4   4   4   4   2   4
#     4  10  22  40  60  84 117 156 198 244 292 349
#     4  11  22  36  55  83 118 155 195 239 289 348
#     4  10  23  42  62  86 117 155 198 245 300 362
#     4  10  21  39  62  88 118 153 194 248 310 366
#     4   9  17  30  53  84 117 154 195 239 293 349
#     4  10  21  35  56  86 119 155 194 241 294 354
#     4  10  18  32  52  82 117 154 195 238 285 346
#     4  10  20  37  60  87 115 150 198 249 296 347
#
# _framework density 20.449359000000001
#
# number of rings (size 3 to 8) (size 9 to 14) (size 15 to 20)
#    0.000    2.000    1.333    2.000    0.000    4.000 
#    0.000    3.333    0.000    0.000    0.000    0.000 
#    0.000    0.000    0.000    0.000    0.000    0.000 
#
# Total GULP energy -371686.829938 kJ/mol
# GULP energy per Si atom -12389.560998 kJ/mol
# Density = 2.040282 g / cm^3
# Si number density = 20.449359 Si / 1000 Ang^3
#
#
#
# Elastic Constant Matrix: (Units=GPa)
#
#
# Indices 1 2 3 4 5 6 
#
# 1 158.6971 75.0384 43.4018 0.0000 -11.5204 0.0000
# 2 75.0384 100.2022 27.7547 0.0000 -8.7125 0.0000
# 3 43.4018 27.7547 74.4094 0.0000 -2.8058 0.0000
# 4 0.0000 0.0000 0.0000 12.3348 0.0000 -6.7413
# 5 -11.5204 -8.7125 -2.8058 0.0000 31.5895 0.0000
# 6 0.0000 0.0000 0.0000 -6.7413 0.0000 41.4363
#
#
#
# Elastic Compliance Matrix: (Units=1/GPa)
#
#
# Indices 1 2 3 4 5 6 
#
# 1 0.010630 -0.006820 -0.003594 0.000000 0.001677 0.000000
# 2 -0.006820 0.015741 -0.001830 0.000000 0.001692 0.000000
# 3 -0.003594 -0.001830 0.016204 0.000000 -0.000376 0.000000
# 4 0.000000 0.000000 0.000000 0.088983 0.000000 0.014477
# 5 0.001677 0.001692 -0.000376 0.000000 0.032701 0.000000
# 6 0.000000 0.000000 0.000000 0.014477 0.000000 0.026489
#
#
# Mechanical properties :
#
#
# Convention : Reuss Voigt Hill
#
# Bulk Modulus (GPa) = 55.28278 69.52205 62.40242
# Shear Modulus (GPa) = 22.59752 29.54639 26.07196
#
# Velocity S-wave (km/s) = 3.32783 3.80525 3.57452
# Velocity P-wave (km/s) = 6.46983 7.30599 6.90059
#
# Compressibility (1/GPa) = 0.01808881
#
# Stress axis : x y z
#
# Youngs Moduli (GPa) = 94.06945 63.52937 61.71477
#
# Poissons Ratio (x) = 0.43325 0.22178
# Poissons Ratio (y) = 0.64152 0.11292
# Poissons Ratio (z) = 0.33805 0.11624
#
# Static dielectric constant tensor:
#      x y z
#    x 6.980050 0.000000 4.139000 
#    y 0.000000 3.489680 0.000000 
#    z 4.139000 0.000000 8.944960 
# 
# 
# High freq. dielectric constant tensor:
#      x y z
#    x 1.800480 0.000000 -0.005540 
#    y 0.000000 1.783750 0.000000 
#    z -0.005540 0.000000 1.796560 
# 
# From -- ./inp_files/80709.got.cif
#   From: 2010.06.25/outbox.cif.g09.slc.cpg/sg10_41_cif.got.tgz:80709.got - 2010.06.27 22:07:45.
