data_PCOD8058380
_publ_section_title
;
Structure prediction by ZEFSAII (Michael W. Deem and Ramdas Pophale) SiO2 
 PCOD8058380
Probable space group: P 2/M
;
_chemical_formula_sum "Si O2"
_cell_formula_units_Z 28
_cell_length_a 20.244472
_cell_length_b 9.226941
_cell_length_c 14.524763
_cell_angle_alpha 90.000000
_cell_angle_beta 32.546135
_cell_angle_gamma 90.000000
_cell_volume 1459.614618
_symmetry_space_group_name_H-M "P 2/M"
_symmetry_group_IT_number 10
_symmetry_cell_setting 'monoclinic'
loop_
_space_group_symop_operation_xyz
x,y,z
-x,y,-z
-x,-y,-z
x,-y,z
loop_
_atom_site_type_symbol
_atom_site_label
_atom_site_fract_x
_atom_site_fract_y
_atom_site_fract_z
Si Si1 0.638499 0.331808 0.334232
Si Si2 0.815753 0.331034 0.963289
Si Si3 0.946854 0.168866 0.277679
Si Si4 0.721190 0.172530 0.901083
Si Si5 0.444767 0.827989 0.238291
Si Si6 0.762785 0.828441 0.648079
Si Si7 0.270630 0.832031 0.603466
O O1 0.500000 0.268459 0.500000
O O2 0.637424 0.500000 0.360710
O O3 0.724749 0.254646 0.307283
O O4 0.695517 0.303339 0.166715
O O5 0.836771 0.500000 0.920465
O O6 0.802598 0.248965 0.882257
O O7 0.933061 0.265590 0.877974
O O8 0.880242 0.220514 0.450441
O O9 0.858439 0.197762 0.294954
O O10 0.983105 0.000000 0.240674
O O11 0.775411 0.222032 0.738662
O O12 0.728317 0.000000 0.906222
O O13 0.582285 0.232744 0.071010
O O14 0.362932 0.766398 0.249707
O O15 0.382534 0.779295 0.407063
O O16 0.447921 0.000000 0.228384
O O17 0.753065 0.000000 0.654238
O O18 0.284777 0.000000 0.610391
#
# Coordination Sequence:
#
# PCOD8058380 Si02
#       7
#     4   4   4   4   4   4   4
#     4  10  22  39  56  75 102 136 169 203 252 311
#     4  11  24  38  51  71 102 137 173 213 253 298
#     4   9  19  37  56  76 104 135 170 209 251 300
#     4  10  18  30  53  80 104 135 172 209 251 297
#     4   8  14  27  50  82 111 130 159 207 258 304
#     4   8  15  29  52  80 106 133 167 207 250 301
#     4   9  18  33  56  82 105 131 165 211 258 297
#
# _framework density 19.183145
#
# number of rings (size 3 to 8) (size 9 to 14) (size 15 to 20)
#    0.000    2.714    0.000    3.429    0.000    4.857 
#    0.000    6.429    0.000    3.429    0.000    0.000 
#    0.000    0.000    0.000    0.000    0.000    0.000 
#
# Total GULP energy -347162.766411 kJ/mol
# GULP energy per Si atom -12398.670229 kJ/mol
# Density = 1.913948 g / cm^3
# Si number density = 19.183145 Si / 1000 Ang^3
#
#
#
# Elastic Constant Matrix: (Units=GPa)
#
#
# Indices 1 2 3 4 5 6 
#
# 1 109.0921 42.3668 34.6922 0.0000 7.0992 0.0000
# 2 42.3668 48.6141 27.4198 0.0000 0.4662 0.0000
# 3 34.6922 27.4198 67.8045 0.0000 -8.7074 0.0000
# 4 0.0000 0.0000 0.0000 20.8121 0.0000 -4.4743
# 5 7.0992 0.4662 -8.7074 0.0000 28.4703 0.0000
# 6 0.0000 0.0000 0.0000 -4.4743 0.0000 2.3499
#
#
#
# Elastic Compliance Matrix: (Units=1/GPa)
#
#
# Indices 1 2 3 4 5 6 
#
# 1 0.014874 -0.010730 -0.003877 0.000000 -0.004719 0.000000
# 2 -0.010730 0.034809 -0.008656 0.000000 -0.000542 0.000000
# 3 -0.003877 -0.008656 0.021208 0.000000 0.007595 0.000000
# 4 0.000000 0.000000 0.000000 0.081346 0.000000 0.154883
# 5 -0.004719 -0.000542 0.007595 0.000000 0.038633 0.000000
# 6 0.000000 0.000000 0.000000 0.154883 0.000000 0.720441
#
#
# Mechanical properties :
#
#
# Convention : Reuss Voigt Hill
#
# Bulk Modulus (GPa) = 41.04418 48.27426 44.65922
# Shear Modulus (GPa) = 5.17621 18.39526 11.78574
#
# Velocity S-wave (km/s) = 1.64444 3.10002 2.48136
# Velocity P-wave (km/s) = 5.00479 6.16709 5.61609
#
# Compressibility (1/GPa) = 0.02436399
#
# Stress axis : x y z
#
# Youngs Moduli (GPa) = 67.23242 28.72817 47.15306
#
# Poissons Ratio (x) = 0.30827 0.18280
# Poissons Ratio (y) = 0.72144 0.40815
# Poissons Ratio (z) = 0.26065 0.24867
#
# Static dielectric constant tensor:
#      x y z
#    x 3.531090 0.000000 0.012310 
#    y 0.000000 3.068190 0.000000 
#    z 0.012310 0.000000 3.651020 
# 
# 
# High freq. dielectric constant tensor:
#      x y z
#    x 1.752010 0.000000 0.000590 
#    y 0.000000 1.702360 0.000000 
#    z 0.000590 0.000000 1.750000 
# 
# From -- ./inp_files/49338.got.cif
#   From: 2010.06.25/outbox.cif.g09.slc.cpg/sg10_25_cif.got.tgz:49338.got - 2010.06.27 22:07:45.
