data_PCOD8058783
_publ_section_title
;
Structure prediction by ZEFSAII (Michael W. Deem and Ramdas Pophale) SiO2 
 PCOD8058783
Probable space group: P 2/M
;
_chemical_formula_sum "Si O2"
_cell_formula_units_Z 28
_cell_length_a 30.889478
_cell_length_b 9.226786
_cell_length_c 9.520648
_cell_angle_alpha 90.000000
_cell_angle_beta 35.657445
_cell_angle_gamma 90.000000
_cell_volume 1581.793603
_symmetry_space_group_name_H-M "P 2/M"
_symmetry_group_IT_number 10
_symmetry_cell_setting 'monoclinic'
loop_
_space_group_symop_operation_xyz
x,y,z
-x,y,-z
-x,-y,-z
x,-y,z
loop_
_atom_site_type_symbol
_atom_site_label
_atom_site_fract_x
_atom_site_fract_y
_atom_site_fract_z
Si Si1 0.188320 0.831017 0.311598
Si Si2 0.416196 0.332390 0.739223
Si Si3 0.259201 0.668218 0.620019
Si Si4 0.308096 0.830167 0.223396
Si Si5 0.098665 0.671039 0.125194
Si Si6 0.059583 0.329141 0.538640
Si Si7 0.295586 0.335581 0.835162
O O1 0.232446 0.795762 0.338130
O O2 0.107855 0.753271 0.529746
O O3 0.176489 0.000000 0.321101
O O4 0.233986 0.770933 0.058994
O O5 0.500000 0.277149 0.500000
O O6 0.413859 0.500000 0.791555
O O7 0.374807 0.308040 0.699710
O O8 0.378385 0.238983 0.960476
O O9 0.258889 0.500000 0.575677
O O10 0.302020 0.761499 0.392510
O O11 0.303689 0.691414 0.647959
O O12 0.174966 0.729904 0.857273
O O13 0.322460 0.000000 0.198739
O O14 0.103861 0.500000 0.123752
O O15 0.087865 0.727291 0.312345
O O16 0.027552 0.714308 0.216944
O O17 0.070214 0.500000 0.530367
O O18 0.267849 0.500000 0.936190
#
# Coordination Sequence:
#
# PCOD8058783 Si02
#       7
#     4   4   4   4   4   4   4
#     4  10  19  31  47  70  99 131 171 211 246 293
#     4   9  18  35  59  84 104 125 160 204 247 294
#     4  10  18  32  52  75 100 130 169 209 249 293
#     4  10  22  36  50  72 104 139 168 199 245 298
#     4   8  15  27  47  73  98 126 163 212 258 293
#     4   9  15  28  49  71  96 127 167 214 257 294
#     4   9  17  31  54  78  99 128 165 205 248 293
#
# _framework density 17.701425
#
# number of rings (size 3 to 8) (size 9 to 14) (size 15 to 20)
#    0.000    2.714    1.429    1.714    0.000    2.571 
#    0.000    3.571    0.000    8.571    0.000    0.000 
#    0.000    0.000    0.000    0.000    0.000    0.000 
#
# Total GULP energy -347131.659458 kJ/mol
# GULP energy per Si atom -12397.559266 kJ/mol
# Density = 1.766114 g / cm^3
# Si number density = 17.701425 Si / 1000 Ang^3
#
#
#
# Elastic Constant Matrix: (Units=GPa)
#
#
# Indices 1 2 3 4 5 6 
#
# 1 92.3517 38.2979 58.3594 0.0000 -10.1645 0.0000
# 2 38.2979 61.5764 40.2065 0.0000 1.1198 0.0000
# 3 58.3594 40.2065 103.1075 0.0000 -4.2414 0.0000
# 4 0.0000 0.0000 0.0000 14.1688 0.0000 -1.0792
# 5 -10.1645 1.1198 -4.2414 0.0000 31.4475 0.0000
# 6 0.0000 0.0000 0.0000 -1.0792 0.0000 20.3465
#
#
#
# Elastic Compliance Matrix: (Units=1/GPa)
#
#
# Indices 1 2 3 4 5 6 
#
# 1 0.019371 -0.006887 -0.008056 0.000000 0.005420 0.000000
# 2 -0.006887 0.024353 -0.005758 0.000000 -0.003870 0.000000
# 3 -0.008056 -0.005758 0.016496 0.000000 -0.000174 0.000000
# 4 0.000000 0.000000 0.000000 0.070864 0.000000 0.003759
# 5 0.005420 -0.003870 -0.000174 0.000000 0.033665 0.000000
# 6 0.000000 0.000000 0.000000 0.003759 0.000000 0.049348
#
#
# Mechanical properties :
#
#
# Convention : Reuss Voigt Hill
#
# Bulk Modulus (GPa) = 53.13420 58.97369 56.05395
# Shear Modulus (GPa) = 19.10061 21.20400 20.15231
#
# Velocity S-wave (km/s) = 3.28844 3.46478 3.37776
# Velocity P-wave (km/s) = 6.67087 7.02811 6.85182
#
# Compressibility (1/GPa) = 0.01882027
#
# Stress axis : x y z
#
# Youngs Moduli (GPa) = 51.62288 41.06260 60.61946
#
# Poissons Ratio (x) = 0.28278 0.48834
# Poissons Ratio (y) = 0.35550 0.34903
# Poissons Ratio (z) = 0.41587 0.23643
#
# Static dielectric constant tensor:
#      x y z
#    x 3.410920 0.000000 -0.196190 
#    y 0.000000 3.099840 0.000000 
#    z -0.196190 0.000000 3.145720 
# 
# 
# High freq. dielectric constant tensor:
#      x y z
#    x 1.687240 0.000000 -0.011700 
#    y 0.000000 1.666360 0.000000 
#    z -0.011700 0.000000 1.660190 
# 
# From -- ./inp_files/37100.got.cif
#   From: 2010.06.25/outbox.cif.g09.slc.cpg/sg10_19_cif.got.tgz:37100.got - 2010.06.27 22:07:45.
