data_PCOD8058181
_publ_section_title
;
Structure prediction by ZEFSAII (Michael W. Deem and Ramdas Pophale) SiO2 
 PCOD8058181
Probable space group: P 2/M
;
_chemical_formula_sum "Si O2"
_cell_formula_units_Z 32
_cell_length_a 23.549450
_cell_length_b 9.059573
_cell_length_c 17.407133
_cell_angle_alpha 90.000000
_cell_angle_beta 30.878710
_cell_angle_gamma 90.000000
_cell_volume 1905.993118
_symmetry_space_group_name_H-M "P 2/M"
_symmetry_group_IT_number 10
_symmetry_cell_setting 'monoclinic'
loop_
_space_group_symop_operation_xyz
x,y,z
-x,y,-z
-x,-y,-z
x,-y,z
loop_
_atom_site_type_symbol
_atom_site_label
_atom_site_fract_x
_atom_site_fract_y
_atom_site_fract_z
Si Si1 0.268889 0.672997 0.807454
Si Si2 0.400634 0.830989 0.778629
Si Si3 0.185379 0.825207 0.627524
Si Si4 0.553291 0.169952 0.103560
Si Si5 0.642953 0.826960 0.441885
Si Si6 0.324469 0.325216 0.341721
Si Si7 0.017854 0.672125 0.067413
Si Si8 0.625559 0.662713 0.881617
O O1 0.285920 0.500000 0.781245
O O2 0.311342 0.729305 0.840229
O O3 0.341124 0.746343 0.657009
O O4 0.141121 0.716674 0.948081
O O5 0.383737 0.809209 0.889149
O O6 0.524143 0.781888 0.612719
O O7 0.380506 0.000000 0.777813
O O8 0.264960 0.773774 0.604411
O O9 0.224892 0.750158 0.503004
O O10 0.062290 0.769266 0.786953
O O11 0.186877 0.000000 0.615209
O O12 0.440897 0.262473 0.236058
O O13 0.521553 0.000000 0.126345
O O14 0.636907 0.224202 0.939365
O O15 0.652595 0.000000 0.416033
O O16 0.325464 0.500000 0.354320
O O17 0.304235 0.287752 0.274773
O O18 0.992709 0.500000 0.110227
O O19 0.000000 0.715985 0.000000
O O20 0.662977 0.500000 0.866140
O O21 0.500000 0.656730 0.000000
#
# Coordination Sequence:
#
# PCOD8058181 Si02
#       8
#     4   4   4   4   4   4   4   4
#     4  11  23  36  52  74  96 128 175 214 248 299
#     4  10  21  36  50  70 104 138 167 205 252 296
#     4  11  21  33  53  78 100 129 173 210 247 301
#     4  10  18  30  48  72 101 135 170 204 245 295
#     4  10  20  35  51  70 101 135 165 205 253 298
#     4  10  19  31  48  71 104 137 165 203 251 298
#     4  10  21  38  54  71  99 130 165 213 261 298
#     4   8  16  29  44  68 100 135 167 197 243 299
#
# _framework density 16.789148000000001
#
# number of rings (size 3 to 8) (size 9 to 14) (size 15 to 20)
#    0.000    2.000    2.500    2.625    0.000    7.500 
#    0.000    0.000    0.000    0.000    0.000    0.875 
#    0.000    7.000    0.000    0.000    0.000    0.000 
#
# Total GULP energy -396854.445943 kJ/mol
# GULP energy per Si atom -12401.701436 kJ/mol
# Density = 1.675094 g / cm^3
# Si number density = 16.789148 Si / 1000 Ang^3
#
#
#
# Elastic Constant Matrix: (Units=GPa)
#
#
# Indices 1 2 3 4 5 6 
#
# 1 88.6249 44.1681 51.7466 0.0000 10.2994 0.0000
# 2 44.1681 71.6407 45.1834 0.0000 9.4819 0.0000
# 3 51.7466 45.1834 82.7278 0.0000 16.6906 0.0000
# 4 0.0000 0.0000 0.0000 28.7881 0.0000 3.2613
# 5 10.2994 9.4819 16.6906 0.0000 29.2163 0.0000
# 6 0.0000 0.0000 0.0000 3.2613 0.0000 27.1307
#
#
#
# Elastic Compliance Matrix: (Units=1/GPa)
#
#
# Indices 1 2 3 4 5 6 
#
# 1 0.019659 -0.006660 -0.008700 0.000000 0.000201 0.000000
# 2 -0.006660 0.023552 -0.008623 0.000000 -0.000370 0.000000
# 3 -0.008700 -0.008623 0.023799 0.000000 -0.007730 0.000000
# 4 0.000000 0.000000 0.000000 0.035216 0.000000 -0.004233
# 5 0.000201 -0.000370 -0.007730 0.000000 0.038693 0.000000
# 6 0.000000 0.000000 0.000000 -0.004233 0.000000 0.037368
#
#
# Mechanical properties :
#
#
# Convention : Reuss Voigt Hill
#
# Bulk Modulus (GPa) = 52.50934 58.35441 55.43187
# Shear Modulus (GPa) = 21.49615 23.82003 22.65809
#
# Velocity S-wave (km/s) = 3.58209 3.77075 3.67763
# Velocity P-wave (km/s) = 6.96076 7.33422 7.14993
#
# Compressibility (1/GPa) = 0.01904423
#
# Stress axis : x y z
#
# Youngs Moduli (GPa) = 50.86743 42.45953 42.01859
#
# Poissons Ratio (x) = 0.28277 0.36556
# Poissons Ratio (y) = 0.33877 0.36233
# Poissons Ratio (z) = 0.44255 0.36613
#
# Static dielectric constant tensor:
#      x y z
#    x 3.155410 0.000000 0.268050 
#    y 0.000000 3.192730 0.000000 
#    z 0.268050 0.000000 3.157380 
# 
# 
# High freq. dielectric constant tensor:
#      x y z
#    x 1.629610 0.000000 0.023650 
#    y 0.000000 1.655280 0.000000 
#    z 0.023650 0.000000 1.632380 
# 
# From -- ./inp_files/52663.got.cif
#   From: 2010.06.25/outbox.cif.g09.slc.cpg/sg10_27_cif.got.tgz:52663.got - 2010.06.27 22:07:45.
