data_PCOD8058545
_publ_section_title
;
Structure prediction by ZEFSAII (Michael W. Deem and Ramdas Pophale) SiO2 
 PCOD8058545
Probable space group: P 2/M
;
_chemical_formula_sum "Si O2"
_cell_formula_units_Z 26
_cell_length_a 11.521174
_cell_length_b 18.401429
_cell_length_c 14.164431
_cell_angle_alpha 90.000000
_cell_angle_beta 31.798075
_cell_angle_gamma 90.000000
_cell_volume 1582.333673
_symmetry_space_group_name_H-M "P 2/M"
_symmetry_group_IT_number 10
_symmetry_cell_setting 'monoclinic'
loop_
_space_group_symop_operation_xyz
x,y,z
-x,y,-z
-x,-y,-z
x,-y,z
loop_
_atom_site_type_symbol
_atom_site_label
_atom_site_fract_x
_atom_site_fract_y
_atom_site_fract_z
Si Si1 0.871586 0.231562 0.002006
Si Si2 0.747781 0.418567 0.346910
Si Si3 0.259661 0.789427 0.208211
Si Si4 0.000000 0.630155 0.000000
Si Si5 0.379764 0.193705 0.335833
Si Si6 0.912111 0.280485 0.332120
Si Si7 0.959325 0.920774 0.419389
O O1 0.830641 0.316172 0.060303
O O2 0.024123 0.231575 0.803310
O O3 0.642027 0.190747 0.142686
O O4 0.000000 0.191583 0.000000
O O5 0.500000 0.391746 0.500000
O O6 0.753182 0.500000 0.386089
O O7 0.867932 0.364093 0.335885
O O8 0.868858 0.420556 0.162371
O O9 0.265495 0.781187 0.317004
O O10 0.115125 0.723141 0.265835
O O11 0.144544 0.864773 0.253556
O O12 0.500000 0.786414 0.000000
O O13 0.309641 0.249053 0.467073
O O14 0.284074 0.113984 0.427859
O O15 0.000000 0.934413 0.500000
O O16 0.972554 0.000000 0.358734
#
# Coordination Sequence:
#
# PCOD8058545 Si02
#       7
#     4   4   4   2   4   4   4
#     4   9  18  29  47  76  99 122 163 207 240 287
#     4  10  19  31  49  72 100 129 161 200 248 293
#     4  10  18  31  51  75  98 128 167 204 246 290
#     4   8  17  30  46  72  99 122 158 202 247 278
#     4  10  18  31  52  71 101 131 162 201 248 288
#     4  10  19  31  49  72 100 128 162 205 244 289
#     4   8  16  29  46  72 102 128 158 199 248 293
#
# _framework density 16.431426999999999
#
# number of rings (size 3 to 8) (size 9 to 14) (size 15 to 20)
#    0.462    2.154    1.538    2.538    0.000    0.308 
#    0.000    0.000    0.000    2.769    0.000    4.308 
#    0.000    0.000    0.000    0.000    0.000    0.000 
#
# Total GULP energy -322146.054493 kJ/mol
# GULP energy per Si atom -12390.232865 kJ/mol
# Density = 1.639403 g / cm^3
# Si number density = 16.431427 Si / 1000 Ang^3
#
#
#
# Elastic Constant Matrix: (Units=GPa)
#
#
# Indices 1 2 3 4 5 6 
#
# 1 85.2885 36.2242 30.7660 0.0000 -3.9410 0.0000
# 2 36.2242 89.4851 35.8700 0.0000 -8.9371 0.0000
# 3 30.7660 35.8700 87.9932 0.0000 -5.2274 0.0000
# 4 0.0000 0.0000 0.0000 6.5656 0.0000 -4.2807
# 5 -3.9410 -8.9371 -5.2274 0.0000 31.3918 0.0000
# 6 0.0000 0.0000 0.0000 -4.2807 0.0000 -9.6915
#
#
#
# Elastic Compliance Matrix: (Units=1/GPa)
#
#
# Indices 1 2 3 4 5 6 
#
# 1 0.014917 -0.004721 -0.003292 0.000000 -0.000019 0.000000
# 2 -0.004721 0.015123 -0.004337 0.000000 0.002991 0.000000
# 3 -0.003292 -0.004337 0.014327 0.000000 0.000738 0.000000
# 4 0.000000 0.000000 0.000000 0.118255 0.000000 -0.052233
# 5 -0.000019 0.002991 0.000738 0.000000 0.032827 0.000000
# 6 0.000000 0.000000 0.000000 -0.052233 0.000000 -0.080113
#
#
# Mechanical properties :
#
#
# Convention : Reuss Voigt Hill
#
# Bulk Modulus (GPa) = 50.84439 52.05413 51.44926
# Shear Modulus (GPa) = 34.10843 16.31361 25.21102
#
# Velocity S-wave (km/s) = 4.56104 3.15434 3.92129
# Velocity P-wave (km/s) = 7.66473 6.70931 7.20288
#
# Compressibility (1/GPa) = 0.01966785
#
# Stress axis : x y z
#
# Youngs Moduli (GPa) = 67.03946 66.12448 69.79697
#
# Poissons Ratio (x) = 0.31215 0.22979
# Poissons Ratio (y) = 0.31647 0.30268
# Poissons Ratio (z) = 0.22071 0.28676
#
# Static dielectric constant tensor:
#      x y z
#    x 3.047150 0.000000 0.070390 
#    y 0.000000 2.977000 0.000000 
#    z 0.070390 0.000000 3.133560 
# 
# 
# High freq. dielectric constant tensor:
#      x y z
#    x 1.616540 0.000000 0.004600 
#    y 0.000000 1.602930 0.000000 
#    z 0.004600 0.000000 1.643670 
# 
# From -- ./inp_files/65264.got.cif
#   From: 2010.06.25/outbox.cif.g09.slc.cpg/sg10_33_cif.got.tgz:65264.got - 2010.06.27 22:07:45.
