data_PCOD8058297
_publ_section_title
;
Structure prediction by ZEFSAII (Michael W. Deem and Ramdas Pophale) SiO2 
 PCOD8058297
Probable space group: P 2/M
;
_chemical_formula_sum "Si O2"
_cell_formula_units_Z 32
_cell_length_a 15.182405
_cell_length_b 15.221840
_cell_length_c 22.015681
_cell_angle_alpha 90.000000
_cell_angle_beta 17.607018
_cell_angle_gamma 90.000000
_cell_volume 1539.026329
_symmetry_space_group_name_H-M "P 2/M"
_symmetry_group_IT_number 10
_symmetry_cell_setting 'monoclinic'
loop_
_space_group_symop_operation_xyz
x,y,z
-x,y,-z
-x,-y,-z
x,-y,z
loop_
_atom_site_type_symbol
_atom_site_label
_atom_site_fract_x
_atom_site_fract_y
_atom_site_fract_z
Si Si1 0.270446 0.675491 0.600338
Si Si2 0.133988 0.599426 0.345916
Si Si3 0.645844 0.849883 0.526091
Si Si4 0.386990 0.401157 0.400121
Si Si5 0.044489 0.904156 0.880387
Si Si6 0.375622 0.726974 0.948150
Si Si7 0.396715 0.761603 0.797291
Si Si8 0.160713 0.904305 0.118524
O O1 0.500000 0.645052 0.500000
O O2 0.368675 0.768055 0.509663
O O3 0.292770 0.603651 0.532189
O O4 0.943994 0.682230 0.842034
O O5 0.243909 0.500000 0.263184
O O6 0.408215 0.663791 0.157473
O O7 0.000000 0.610016 0.500000
O O8 0.895227 0.625842 0.453393
O O9 0.372942 0.909696 0.687794
O O10 0.639773 0.817817 0.600413
O O11 0.942406 0.903195 0.319479
O O12 0.492823 0.500000 0.315230
O O13 0.641727 0.331892 0.213141
O O14 0.027238 0.890186 0.819380
O O15 0.902974 0.000000 0.989624
O O16 0.892736 0.821771 0.013648
O O17 0.493044 0.741540 0.802595
O O18 0.382902 0.822436 0.976806
O O19 0.319777 0.000000 0.013919
#
# Coordination Sequence:
#
# PCOD8058297 Si02
#       8
#     4   4   4   4   4   4   4   4
#     4  10  21  37  57  84 124 166 194 229 286 360
#     4  10  20  38  67  92 112 144 195 261 310 343
#     4  10  18  30  50  76 111 158 203 240 282 334
#     4  10  22  40  61  87 117 151 199 248 296 354
#     4  10  19  30  49  78 112 154 204 250 288 336
#     4  10  20  36  60  88 119 154 197 246 304 349
#     4  10  20  32  51  80 115 148 187 245 299 350
#     4   9  18  32  51  78 115 155 196 241 291 354
#
# _framework density 20.792366000000001
#
# number of rings (size 3 to 8) (size 9 to 14) (size 15 to 20)
#    0.000    2.125    1.250    3.375    0.000    4.750 
#    0.000    1.250    0.000   13.875    0.000    7.875 
#    0.000    0.000    0.000    0.000    0.000    0.000 
#
# Total GULP energy -396582.322959 kJ/mol
# GULP energy per Si atom -12393.197592 kJ/mol
# Density = 2.074504 g / cm^3
# Si number density = 20.792366 Si / 1000 Ang^3
#
#
#
# Elastic Constant Matrix: (Units=GPa)
#
#
# Indices 1 2 3 4 5 6 
#
# 1 82.8206 23.6580 35.8030 0.0000 9.7611 0.0000
# 2 23.6580 146.2130 57.5420 0.0000 -2.7803 0.0000
# 3 35.8030 57.5420 84.0097 0.0000 13.5671 0.0000
# 4 0.0000 0.0000 0.0000 27.3203 0.0000 -0.8565
# 5 9.7611 -2.7803 13.5671 0.0000 30.7918 0.0000
# 6 0.0000 0.0000 0.0000 -0.8565 0.0000 20.8167
#
#
#
# Elastic Compliance Matrix: (Units=1/GPa)
#
#
# Indices 1 2 3 4 5 6 
#
# 1 0.014925 -0.000120 -0.005935 0.000000 -0.002127 0.000000
# 2 -0.000120 0.009833 -0.007357 0.000000 0.004168 0.000000
# 3 -0.005935 -0.007357 0.020752 0.000000 -0.007926 0.000000
# 4 0.000000 0.000000 0.000000 0.036650 0.000000 0.001508
# 5 -0.002127 0.004168 -0.007926 0.000000 0.037019 0.000000
# 6 0.000000 0.000000 0.000000 0.001508 0.000000 0.048100
#
#
# Mechanical properties :
#
#
# Convention : Reuss Voigt Hill
#
# Bulk Modulus (GPa) = 53.51544 60.78326 57.14935
# Shear Modulus (GPa) = 24.95834 28.85511 26.90672
#
# Velocity S-wave (km/s) = 3.46838 3.72933 3.60122
# Velocity P-wave (km/s) = 6.46788 6.91670 6.69605
#
# Compressibility (1/GPa) = 0.01868619
#
# Stress axis : x y z
#
# Youngs Moduli (GPa) = 67.00206 101.69379 48.18722
#
# Poissons Ratio (x) = 0.01216 0.28600
# Poissons Ratio (y) = 0.00801 0.35453
# Poissons Ratio (z) = 0.39768 0.74821
#
# Static dielectric constant tensor:
#      x y z
#    x 3.600910 0.000000 0.361410 
#    y 0.000000 3.989500 0.000000 
#    z 0.361410 0.000000 3.644470 
# 
# 
# High freq. dielectric constant tensor:
#      x y z
#    x 1.793410 0.000000 0.030310 
#    y 0.000000 1.826260 0.000000 
#    z 0.030310 0.000000 1.788880 
# 
# From -- ./inp_files/85393.got.cif
#   From: 2010.06.25/outbox.cif.g09.slc.cpg/sg10_43_cif.got.tgz:85393.got - 2010.06.27 22:07:45.
