data_PCOD8058103
_publ_section_title
;
Structure prediction by ZEFSAII (Michael W. Deem and Ramdas Pophale) SiO2 
 PCOD8058103
Probable space group: P 2/M
;
_chemical_formula_sum "Si O2"
_cell_formula_units_Z 32
_cell_length_a 15.481861
_cell_length_b 9.282752
_cell_length_c 14.308475
_cell_angle_alpha 90.000000
_cell_angle_beta 87.882503
_cell_angle_gamma 90.000000
_cell_volume 2054.927975
_symmetry_space_group_name_H-M "P 2/M"
_symmetry_group_IT_number 10
_symmetry_cell_setting 'monoclinic'
loop_
_space_group_symop_operation_xyz
x,y,z
-x,y,-z
-x,-y,-z
x,-y,z
loop_
_atom_site_type_symbol
_atom_site_label
_atom_site_fract_x
_atom_site_fract_y
_atom_site_fract_z
Si Si1 0.328928 0.168446 0.394367
Si Si2 0.094147 0.169854 0.096755
Si Si3 0.987597 0.331108 0.607651
Si Si4 0.835824 0.831145 0.713604
Si Si5 0.844286 0.668326 0.284763
Si Si6 0.101308 0.829511 0.891038
Si Si7 0.516748 0.158961 0.389596
Si Si8 0.321334 0.330640 0.586826
O O1 0.260414 0.206695 0.316574
O O2 0.424289 0.207279 0.349253
O O3 0.306516 0.259035 0.487097
O O4 0.325721 0.000000 0.422323
O O5 0.155894 0.221404 0.178816
O O6 0.997049 0.224923 0.120467
O O7 0.088125 0.000000 0.090826
O O8 0.129772 0.222079 0.994415
O O9 0.971129 0.500000 0.619839
O O10 0.903792 0.249343 0.646519
O O11 0.000000 0.288055 0.500000
O O12 0.071924 0.280478 0.660919
O O13 0.855749 0.000000 0.705083
O O14 0.847995 0.500000 0.263640
O O15 0.838457 0.751172 0.186712
O O16 0.760049 0.709560 0.346759
O O17 0.111118 0.000000 0.877277
O O18 0.500000 0.153710 0.500000
O O19 0.593031 0.270963 0.363993
O O20 0.543708 0.000000 0.352034
O O21 0.331966 0.500000 0.571864
#
# Coordination Sequence:
#
# PCOD8058103 Si02
#       8
#     4   4   4   4   4   4   4   4
#     4   9  18  30  45  66  91 117 144 179 220 258
#     4   8  15  28  46  67  87 108 141 186 224 255
#     4  10  20  32  42  56  87 125 151 175 210 249
#     4  10  18  30  47  66  87 114 148 180 212 257
#     4  10  20  31  42  62  90 117 147 182 218 254
#     4   9  16  29  48  65  84 112 145 182 223 261
#     4   8  15  29  45  63  88 113 141 181 224 259
#     4  10  19  30  45  64  88 119 151 182 215 255
#
# _framework density 15.572322
#
# number of rings (size 3 to 8) (size 9 to 14) (size 15 to 20)
#    0.000    2.750    1.250    2.625    0.000    5.000 
#    0.000    1.875    0.000    0.000    0.000    0.875 
#    0.000    7.000    0.000    0.000    0.000    0.000 
#
# Total GULP energy -396653.079908 kJ/mol
# GULP energy per Si atom -12395.408747 kJ/mol
# Density = 1.553688 g / cm^3
# Si number density = 15.572322 Si / 1000 Ang^3
#
#
#
# Elastic Constant Matrix: (Units=GPa)
#
#
# Indices 1 2 3 4 5 6 
#
# 1 112.8080 33.5510 49.9457 0.0000 16.5312 0.0000
# 2 33.5510 39.2308 33.0191 0.0000 2.7109 0.0000
# 3 49.9457 33.0191 96.9668 0.0000 15.5293 0.0000
# 4 0.0000 0.0000 0.0000 997.8719 0.0000 -200.6531
# 5 16.5312 2.7109 15.5293 0.0000 15.1572 0.0000
# 6 0.0000 0.0000 0.0000 -200.6531 0.0000 61.7239
#
#
#
# Elastic Compliance Matrix: (Units=1/GPa)
#
#
# Indices 1 2 3 4 5 6 
#
# 1 0.014457 -0.009623 -0.002297 0.000000 -0.011693 0.000000
# 2 -0.009623 0.042817 -0.012056 0.000000 0.015189 0.000000
# 3 -0.002297 -0.012056 0.017771 0.000000 -0.013545 0.000000
# 4 0.000000 0.000000 0.000000 0.002894 0.000000 0.009407
# 5 -0.011693 0.015189 -0.013545 0.000000 0.089889 0.000000
# 6 0.000000 0.000000 0.000000 0.009407 0.000000 0.046781
#
#
# Mechanical properties :
#
#
# Convention : Reuss Voigt Hill
#
# Bulk Modulus (GPa) = 36.90992 53.55971 45.23481
# Shear Modulus (GPa) = 18.40994 223.78325 121.09659
#
# Velocity S-wave (km/s) = 3.44208 12.00074 8.82796
# Velocity P-wave (km/s) = 6.28895 15.04967 11.53350
#
# Compressibility (1/GPa) = 0.02709299
#
# Stress axis : x y z
#
# Youngs Moduli (GPa) = 69.16971 23.35501 56.27204
#
# Poissons Ratio (x) = 0.22473 0.12927
# Poissons Ratio (y) = 0.66559 0.67843
# Poissons Ratio (z) = 0.15890 0.28158
#
# Static dielectric constant tensor:
#      x y z
#    x 3.265550 0.000000 0.197200 
#    y 0.000000 2.856490 0.000000 
#    z 0.197200 0.000000 3.003970 
# 
# 
# High freq. dielectric constant tensor:
#      x y z
#    x 1.590860 0.000000 0.006620 
#    y 0.000000 1.587460 0.000000 
#    z 0.006620 0.000000 1.578670 
# 
# From -- ./inp_files/65996.got.cif
#   From: 2010.06.25/outbox.cif.g09.slc.cpg/sg10_33_cif.got.tgz:65996.got - 2010.06.27 22:07:45.
