data_PCOD8058163
_publ_section_title
;
Structure prediction by ZEFSAII (Michael W. Deem and Ramdas Pophale) SiO2 
 PCOD8058163
Probable space group: P 2/M
;
_chemical_formula_sum "Si O2"
_cell_formula_units_Z 32
_cell_length_a 24.717289
_cell_length_b 12.816073
_cell_length_c 11.695174
_cell_angle_alpha 90.000000
_cell_angle_beta 149.583270
_cell_angle_gamma 90.000000
_cell_volume 1875.677043
_symmetry_space_group_name_H-M "P 2/M"
_symmetry_group_IT_number 10
_symmetry_cell_setting 'monoclinic'
loop_
_space_group_symop_operation_xyz
x,y,z
-x,y,-z
-x,-y,-z
x,-y,z
loop_
_atom_site_type_symbol
_atom_site_label
_atom_site_fract_x
_atom_site_fract_y
_atom_site_fract_z
Si Si1 0.329711 0.117224 0.381731
Si Si2 0.522413 0.746513 0.662428
Si Si3 0.827759 0.197282 0.722277
Si Si4 0.674151 0.622119 0.373032
Si Si5 0.967712 0.122887 0.784731
Si Si6 0.551361 0.620444 0.927323
Si Si7 0.714502 0.881546 0.948304
Si Si8 0.916193 0.124441 0.437634
O O1 0.421942 0.203138 0.543887
O O2 0.260601 0.132321 0.369816
O O3 0.257182 0.130750 0.135126
O O4 0.377650 0.000000 0.472587
O O5 0.500000 0.687027 0.500000
O O6 0.579160 0.670470 0.855704
O O7 0.598877 0.839305 0.765161
O O8 0.777495 0.311637 0.603232
O O9 0.859990 0.140017 0.662873
O O10 0.936523 0.197612 0.996046
O O11 0.707356 0.500000 0.432145
O O12 0.573391 0.639644 0.272768
O O13 0.632437 0.662352 0.172797
O O14 0.942449 0.163134 0.612140
O O15 0.000647 0.000000 0.850215
O O16 0.574811 0.500000 0.958714
O O17 0.710814 0.000000 0.978423
O O18 0.803949 0.827293 0.190275
O O19 0.000000 0.169557 0.500000
O O20 0.915798 0.000000 0.433948
#
# Coordination Sequence:
#
# PCOD8058163 Si02
#       8
#     4   4   4   4   4   4   4   4
#     4  10  18  30  48  70 102 141 170 195 240 303
#     4  10  19  30  48  77 105 129 164 201 247 302
#     4  11  19  32  52  72  97 132 171 204 253 299
#     4   9  19  35  56  74  93 126 168 211 253 299
#     4  10  21  33  47  75 107 132 165 212 253 286
#     4   9  18  35  54  74  99 126 161 209 255 301
#     4   9  18  30  46  70 103 137 168 206 239 281
#     4   9  17  31  49  68  93 133 176 203 232 282
#
# _framework density 17.060504999999999
#
# number of rings (size 3 to 8) (size 9 to 14) (size 15 to 20)
#    0.000    2.375    1.250    3.375    1.750    3.750 
#    0.000    1.250    0.000    0.750    0.000    0.000 
#    0.000    2.500    0.000    0.000    0.000    0.000 
#
# Total GULP energy -396472.925347 kJ/mol
# GULP energy per Si atom -12389.778917 kJ/mol
# Density = 1.702167 g / cm^3
# Si number density = 17.060505 Si / 1000 Ang^3
#
#
#
# Elastic Constant Matrix: (Units=GPa)
#
#
# Indices 1 2 3 4 5 6 
#
# 1 116.8940 23.5830 38.4034 0.0000 -14.7622 0.0000
# 2 23.5830 51.3022 35.1361 0.0000 -9.1769 0.0000
# 3 38.4034 35.1361 88.7685 0.0000 -12.9686 0.0000
# 4 0.0000 0.0000 0.0000 28.2931 0.0000 -3.8284
# 5 -14.7622 -9.1769 -12.9686 0.0000 29.3608 0.0000
# 6 0.0000 0.0000 0.0000 -3.8284 0.0000 18.6751
#
#
#
# Elastic Compliance Matrix: (Units=1/GPa)
#
#
# Indices 1 2 3 4 5 6 
#
# 1 0.010429 -0.001994 -0.003258 0.000000 0.003181 0.000000
# 2 -0.001994 0.027556 -0.009549 0.000000 0.003393 0.000000
# 3 -0.003258 -0.009549 0.016867 0.000000 0.002828 0.000000
# 4 0.000000 0.000000 0.000000 0.036353 0.000000 0.007452
# 5 0.003181 0.003393 0.002828 0.000000 0.037968 0.000000
# 6 0.000000 0.000000 0.000000 0.007452 0.000000 0.055075
#
#
# Mechanical properties :
#
#
# Convention : Reuss Voigt Hill
#
# Bulk Modulus (GPa) = 39.60218 50.13441 44.86830
# Shear Modulus (GPa) = 22.49563 25.92197 24.20880
#
# Velocity S-wave (km/s) = 3.63516 3.90219 3.77104
# Velocity P-wave (km/s) = 6.39393 7.05357 6.73184
#
# Compressibility (1/GPa) = 0.02525113
#
# Stress axis : x y z
#
# Youngs Moduli (GPa) = 95.88559 36.29035 59.28597
#
# Poissons Ratio (x) = 0.07235 0.19315
# Poissons Ratio (y) = 0.19117 0.56611
# Poissons Ratio (z) = 0.31239 0.34653
#
# Static dielectric constant tensor:
#      x y z
#    x 3.427650 0.000000 -0.223860 
#    y 0.000000 2.831160 0.000000 
#    z -0.223860 0.000000 3.361680 
# 
# 
# High freq. dielectric constant tensor:
#      x y z
#    x 1.669610 0.000000 -0.010240 
#    y 0.000000 1.616710 0.000000 
#    z -0.010240 0.000000 1.656830 
# 
# From -- ./inp_files/56985.got.cif
#   From: 2010.06.25/outbox.cif.g09.slc.cpg/sg10_29_cif.got.tgz:56985.got - 2010.06.27 22:07:45.
