data_PCOD8058144
_publ_section_title
;
Structure prediction by ZEFSAII (Michael W. Deem and Ramdas Pophale) SiO2 
 PCOD8058144
Probable space group: P 2/M
;
_chemical_formula_sum "Si O2"
_cell_formula_units_Z 28
_cell_length_a 27.975417
_cell_length_b 8.603479
_cell_length_c 13.846533
_cell_angle_alpha 90.000000
_cell_angle_beta 149.688448
_cell_angle_gamma 90.000000
_cell_volume 1682.001882
_symmetry_space_group_name_H-M "P 2/M"
_symmetry_group_IT_number 10
_symmetry_cell_setting 'monoclinic'
loop_
_space_group_symop_operation_xyz
x,y,z
-x,y,-z
-x,-y,-z
x,-y,z
loop_
_atom_site_type_symbol
_atom_site_label
_atom_site_fract_x
_atom_site_fract_y
_atom_site_fract_z
Si Si1 0.290376 0.321200 0.693081
Si Si2 0.383545 0.820512 0.678285
Si Si3 0.717457 0.680851 0.673752
Si Si4 0.559557 0.679777 0.899686
Si Si5 0.093269 0.681492 0.270275
Si Si6 0.101708 0.181272 0.075662
Si Si7 0.468351 0.315828 0.546801
O O1 0.302711 0.500000 0.682168
O O2 0.353208 0.212987 0.734340
O O3 0.179617 0.275353 0.493182
O O4 0.331759 0.297104 0.874346
O O5 0.320467 0.712470 0.499515
O O6 0.493510 0.779140 0.855928
O O7 0.365319 0.000000 0.621473
O O8 0.737173 0.500000 0.722678
O O9 0.817145 0.771139 0.860010
O O10 0.637807 0.741696 0.610676
O O11 0.528525 0.500000 0.853546
O O12 0.543870 0.735320 0.761446
O O13 0.070158 0.500000 0.231499
O O14 0.120044 0.729942 0.208218
O O15 0.000643 0.772893 0.145945
O O16 0.105138 0.000000 0.102951
O O17 0.500000 0.240283 0.500000
O O18 0.466915 0.500000 0.535093
#
# Coordination Sequence:
#
# PCOD8058144 Si02
#       7
#     4   4   4   4   4   4   4
#     4  10  19  30  44  62  88 124 157 184 219 266
#     4  11  20  28  41  63  91 122 155 189 220 259
#     4  10  18  30  48  67  91 122 154 187 228 277
#     4   9  18  31  46  64  89 120 152 184 224 275
#     4  10  19  30  45  62  88 125 161 190 223 264
#     4  11  20  30  44  65  92 120 155 193 229 263
#     4   8  15  29  50  73  92 112 145 190 234 274
#
# _framework density 16.646830999999999
#
# number of rings (size 3 to 8) (size 9 to 14) (size 15 to 20)
#    0.000    2.143    1.429    5.571    0.000    2.857 
#    0.000    0.000    0.000   10.714    0.000    1.000 
#    0.000    8.000    0.000    0.000    0.000    0.000 
#
# Total GULP energy -347052.025504 kJ/mol
# GULP energy per Si atom -12394.715197 kJ/mol
# Density = 1.660894 g / cm^3
# Si number density = 16.646831 Si / 1000 Ang^3
#
#
#
# Elastic Constant Matrix: (Units=GPa)
#
#
# Indices 1 2 3 4 5 6 
#
# 1 91.1572 13.5181 59.7700 0.0000 6.3380 0.0000
# 2 13.5181 39.7429 19.7699 0.0000 3.7129 0.0000
# 3 59.7700 19.7699 130.8560 0.0000 13.9994 0.0000
# 4 0.0000 0.0000 0.0000 8.6747 0.0000 3.5040
# 5 6.3380 3.7129 13.9994 0.0000 17.9441 0.0000
# 6 0.0000 0.0000 0.0000 3.5040 0.0000 5.4364
#
#
#
# Elastic Compliance Matrix: (Units=1/GPa)
#
#
# Indices 1 2 3 4 5 6 
#
# 1 0.015797 -0.001939 -0.006948 0.000000 0.000243 0.000000
# 2 -0.001939 0.027560 -0.002991 0.000000 -0.002684 0.000000
# 3 -0.006948 -0.002991 0.011935 0.000000 -0.006238 0.000000
# 4 0.000000 0.000000 0.000000 0.155854 0.000000 -0.100454
# 5 0.000243 -0.002684 -0.006238 0.000000 0.061065 0.000000
# 6 0.000000 0.000000 0.000000 -0.100454 0.000000 0.248690
#
#
# Mechanical properties :
#
#
# Convention : Reuss Voigt Hill
#
# Bulk Modulus (GPa) = 31.71115 49.76356 40.73735
# Shear Modulus (GPa) = 9.00627 17.65759 13.33193
#
# Velocity S-wave (km/s) = 2.32851 3.26040 2.83303
# Velocity P-wave (km/s) = 5.13030 6.64321 5.93516
#
# Compressibility (1/GPa) = 0.03153465
#
# Stress axis : x y z
#
# Youngs Moduli (GPa) = 63.30468 36.28465 83.78771
#
# Poissons Ratio (x) = 0.07037 0.58218
# Poissons Ratio (y) = 0.12277 0.25059
# Poissons Ratio (z) = 0.43986 0.10852
#
# Static dielectric constant tensor:
#      x y z
#    x 3.042560 0.000000 0.171570 
#    y 0.000000 3.006680 0.000000 
#    z 0.171570 0.000000 3.333310 
# 
# 
# High freq. dielectric constant tensor:
#      x y z
#    x 1.591940 0.000000 0.019120 
#    y 0.000000 1.635680 0.000000 
#    z 0.019120 0.000000 1.642030 
# 
# From -- ./inp_files/72479.got.cif
#   From: 2010.06.25/outbox.cif.g09.slc.cpg/sg10_37_cif.got.tgz:72479.got - 2010.06.27 22:07:45.
