data_PCOD8058024
_publ_section_title
;
Structure prediction by ZEFSAII (Michael W. Deem and Ramdas Pophale) SiO2 
 PCOD8058024
Probable space group: P 2/M
;
_chemical_formula_sum "Si O2"
_cell_formula_units_Z 32
_cell_length_a 17.230225
_cell_length_b 9.140410
_cell_length_c 23.318127
_cell_angle_alpha 90.000000
_cell_angle_beta 31.827404
_cell_angle_gamma 90.000000
_cell_volume 1936.686438
_symmetry_space_group_name_H-M "P 2/M"
_symmetry_group_IT_number 10
_symmetry_cell_setting 'monoclinic'
loop_
_space_group_symop_operation_xyz
x,y,z
-x,y,-z
-x,-y,-z
x,-y,z
loop_
_atom_site_type_symbol
_atom_site_label
_atom_site_fract_x
_atom_site_fract_y
_atom_site_fract_z
Si Si1 0.403982 0.172539 0.298233
Si Si2 0.927599 0.173249 0.488052
Si Si3 0.666488 0.670804 0.187052
Si Si4 0.834273 0.170562 0.751928
Si Si5 0.252042 0.327408 0.082250
Si Si6 0.115199 0.165371 0.876275
Si Si7 0.105274 0.330737 0.056241
Si Si8 0.540366 0.169619 0.867511
O O1 0.239100 0.228793 0.414324
O O2 0.507704 0.257389 0.277377
O O3 0.447348 0.215079 0.206350
O O4 0.420649 0.000000 0.297874
O O5 0.000000 0.241848 0.500000
O O6 0.021473 0.219744 0.373753
O O7 0.926971 0.000000 0.495643
O O8 0.648414 0.500000 0.210454
O O9 0.740281 0.744162 0.196555
O O10 0.763502 0.703061 0.070095
O O11 0.834609 0.264845 0.809172
O O12 0.693358 0.206620 0.801750
O O13 0.839089 0.000000 0.764958
O O14 0.267381 0.500000 0.077702
O O15 0.159377 0.281438 0.084627
O O16 0.415054 0.261629 0.977553
O O17 0.040060 0.238174 0.867833
O O18 0.161057 0.000000 0.832512
O O19 0.000000 0.170769 0.000000
O O20 0.060920 0.500000 0.081666
O O21 0.499853 0.000000 0.899547
#
# Coordination Sequence:
#
# PCOD8058024 Si02
#       8
#     4   4   4   4   4   4   4   4
#     4  10  18  29  50  75  96 124 163 207 247 286
#     4   9  16  31  53  73  93 122 163 210 255 291
#     4  10  18  30  46  67  99 133 161 191 235 292
#     4  10  20  34  51  71  94 126 169 210 248 289
#     4  11  22  34  47  68 100 135 167 198 239 291
#     4   9  17  28  45  70  96 123 157 197 237 281
#     4   9  18  31  45  64  94 132 163 189 233 290
#     4  10  19  31  49  71  96 126 165 207 245 287
#
# _framework density 16.523067000000001
#
# number of rings (size 3 to 8) (size 9 to 14) (size 15 to 20)
#    0.000    2.250    2.500    1.500    0.000    5.000 
#    0.000    0.625    0.000    0.750    0.000    0.875 
#    0.000    7.000    0.000    0.000    0.000    0.000 
#
# Total GULP energy -396859.169322 kJ/mol
# GULP energy per Si atom -12401.849041 kJ/mol
# Density = 1.648546 g / cm^3
# Si number density = 16.523067 Si / 1000 Ang^3
#
#
#
# Elastic Constant Matrix: (Units=GPa)
#
#
# Indices 1 2 3 4 5 6 
#
# 1 90.6649 47.1420 43.5551 0.0000 -24.9506 0.0000
# 2 47.1420 65.8505 35.5373 0.0000 -11.2276 0.0000
# 3 43.5551 35.5373 88.4340 0.0000 -13.9434 0.0000
# 4 0.0000 0.0000 0.0000 7.2893 0.0000 1.0645
# 5 -24.9506 -11.2276 -13.9434 0.0000 19.6444 0.0000
# 6 0.0000 0.0000 0.0000 1.0645 0.0000 29.0230
#
#
#
# Elastic Compliance Matrix: (Units=1/GPa)
#
#
# Indices 1 2 3 4 5 6 
#
# 1 0.025591 -0.012246 -0.004123 0.000000 0.022578 0.000000
# 2 -0.012246 0.025958 -0.005082 0.000000 -0.004325 0.000000
# 3 -0.004123 -0.005082 0.015873 0.000000 0.003126 0.000000
# 4 0.000000 0.000000 0.000000 0.137925 0.000000 -0.005059
# 5 0.022578 -0.004325 0.003126 0.000000 0.079329 0.000000
# 6 0.000000 0.000000 0.000000 -0.005059 0.000000 0.034641
#
#
# Mechanical properties :
#
#
# Convention : Reuss Voigt Hill
#
# Bulk Modulus (GPa) = 40.78150 55.26868 48.02509
# Shear Modulus (GPa) = 13.49920 19.10568 16.30244
#
# Velocity S-wave (km/s) = 2.86141 3.40414 3.14450
# Velocity P-wave (km/s) = 5.97093 6.99806 6.50480
#
# Compressibility (1/GPa) = 0.02452092
#
# Stress axis : x y z
#
# Youngs Moduli (GPa) = 39.07607 38.52415 62.99819
#
# Poissons Ratio (x) = 0.47176 0.25975
# Poissons Ratio (y) = 0.47852 0.32014
# Poissons Ratio (z) = 0.16111 0.19577
#
# Static dielectric constant tensor:
#      x y z
#    x 3.171150 0.000000 -0.098790 
#    y 0.000000 3.008750 0.000000 
#    z -0.098790 0.000000 2.971220 
# 
# 
# High freq. dielectric constant tensor:
#      x y z
#    x 1.638390 0.000000 -0.013890 
#    y 0.000000 1.628250 0.000000 
#    z -0.013890 0.000000 1.605730 
# 
# From -- ./inp_files/54869.got.cif
#   From: 2010.06.25/outbox.cif.g09.slc.cpg/sg10_28_cif.got.tgz:54869.got - 2010.06.27 22:07:45.
