data_PCOD8058824
_publ_section_title
;
Structure prediction by ZEFSAII (Michael W. Deem and Ramdas Pophale) SiO2 
 PCOD8058824
Probable space group: P 2/M
;
_chemical_formula_sum "Si O2"
_cell_formula_units_Z 32
_cell_length_a 21.252177
_cell_length_b 8.793119
_cell_length_c 12.124024
_cell_angle_alpha 90.000000
_cell_angle_beta 127.999829
_cell_angle_gamma 90.000000
_cell_volume 1785.362132
_symmetry_space_group_name_H-M "P 2/M"
_symmetry_group_IT_number 10
_symmetry_cell_setting 'monoclinic'
loop_
_space_group_symop_operation_xyz
x,y,z
-x,y,-z
-x,-y,-z
x,-y,z
loop_
_atom_site_type_symbol
_atom_site_label
_atom_site_fract_x
_atom_site_fract_y
_atom_site_fract_z
Si Si1 0.828038 0.820529 0.758448
Si Si2 0.954953 0.178855 0.712467
Si Si3 0.435940 0.180430 0.789209
Si Si4 0.770700 0.677177 0.128036
Si Si5 0.707423 0.679092 0.474929
Si Si6 0.404680 0.678495 0.988676
Si Si7 0.129946 0.179913 0.953148
Si Si8 0.164944 0.321064 0.569460
O O1 0.902624 0.774567 0.762020
O O2 0.748380 0.734845 0.631984
O O3 0.812406 0.000000 0.738129
O O4 0.847290 0.759827 0.901189
O O5 0.917751 0.247675 0.560579
O O6 0.043633 0.246389 0.824948
O O7 0.957622 0.000000 0.700414
O O8 0.376983 0.235623 0.628978
O O9 0.401403 0.236774 0.868389
O O10 0.444111 0.000000 0.797841
O O11 0.522546 0.255391 0.860489
O O12 0.787721 0.500000 0.129256
O O13 0.676625 0.710414 0.033860
O O14 0.802721 0.768718 0.058821
O O15 0.815020 0.736368 0.286175
O O16 0.692633 0.500000 0.462515
O O17 0.763140 0.729018 0.432855
O O18 0.416213 0.500000 0.977991
O O19 0.125198 0.000000 0.951175
O O20 0.154789 0.500000 0.555539
#
# Coordination Sequence:
#
# PCOD8058824 Si02
#       8
#     4   4   4   4   4   4   4   4
#     4   9  18  34  54  76 101 132 172 219 263 302
#     4   9  18  33  53  76 100 131 170 216 263 308
#     4  11  20  30  50  82 110 133 166 208 254 305
#     4  10  21  36  52  71 103 142 176 208 249 306
#     4  10  18  32  53  77 105 136 170 210 257 306
#     4  10  19  34  52  73 105 142 172 207 250 300
#     4  10  21  35  52  74 102 136 174 215 261 309
#     4   9  18  33  50  72 101 135 171 210 255 302
#
# _framework density 17.923534
#
# number of rings (size 3 to 8) (size 9 to 14) (size 15 to 20)
#    0.000    2.250    1.250    3.000    0.000    5.000 
#    0.000    2.500    0.000    4.500    0.000    5.250 
#    0.000    0.000    0.000    0.000    0.000    0.000 
#
# Total GULP energy -396849.569670 kJ/mol
# GULP energy per Si atom -12401.549052 kJ/mol
# Density = 1.788274 g / cm^3
# Si number density = 17.923534 Si / 1000 Ang^3
#
#
#
# Elastic Constant Matrix: (Units=GPa)
#
#
# Indices 1 2 3 4 5 6 
#
# 1 81.2234 21.8686 61.8333 0.0000 8.1931 0.0000
# 2 21.8686 44.7049 33.9348 0.0000 7.0923 0.0000
# 3 61.8333 33.9348 120.4978 0.0000 24.0147 0.0000
# 4 0.0000 0.0000 0.0000 28.0961 0.0000 2.9000
# 5 8.1931 7.0923 24.0147 0.0000 27.1818 0.0000
# 6 0.0000 0.0000 0.0000 2.9000 0.0000 25.8110
#
#
#
# Elastic Compliance Matrix: (Units=1/GPa)
#
#
# Indices 1 2 3 4 5 6 
#
# 1 0.020768 -0.002668 -0.010676 0.000000 0.003869 0.000000
# 2 -0.002668 0.028798 -0.006558 0.000000 -0.000915 0.000000
# 3 -0.010676 -0.006558 0.017771 0.000000 -0.010771 0.000000
# 4 0.000000 0.000000 0.000000 0.036010 0.000000 -0.004046
# 5 0.003869 -0.000915 -0.010771 0.000000 0.045378 0.000000
# 6 0.000000 0.000000 0.000000 -0.004046 0.000000 0.039198
#
#
# Mechanical properties :
#
#
# Convention : Reuss Voigt Hill
#
# Bulk Modulus (GPa) = 36.32392 53.52219 44.92306
# Shear Modulus (GPa) = 21.10544 24.80372 22.95458
#
# Velocity S-wave (km/s) = 3.43523 3.72407 3.58256
# Velocity P-wave (km/s) = 6.00371 6.95829 6.49855
#
# Compressibility (1/GPa) = 0.02753007
#
# Stress axis : x y z
#
# Youngs Moduli (GPa) = 48.15188 34.72480 56.27096
#
# Poissons Ratio (x) = 0.09266 0.60077
# Poissons Ratio (y) = 0.12849 0.36904
# Poissons Ratio (z) = 0.51409 0.22774
#
# Static dielectric constant tensor:
#      x y z
#    x 3.146300 0.000000 0.199910 
#    y 0.000000 3.212780 0.000000 
#    z 0.199910 0.000000 3.560710 
# 
# 
# High freq. dielectric constant tensor:
#      x y z
#    x 1.667120 0.000000 0.018470 
#    y 0.000000 1.690690 0.000000 
#    z 0.018470 0.000000 1.701750 
# 
# From -- ./inp_files/54929.got.cif
#   From: 2010.06.25/outbox.cif.g09.slc.cpg/sg10_28_cif.got.tgz:54929.got - 2010.06.27 22:07:45.
