data_PCOD8058724
_publ_section_title
;
Structure prediction by ZEFSAII (Michael W. Deem and Ramdas Pophale) SiO2 
 PCOD8058724
Probable space group: P 2/M
;
_chemical_formula_sum "Si O2"
_cell_formula_units_Z 20
_cell_length_a 13.970734
_cell_length_b 12.804922
_cell_length_c 11.699530
_cell_angle_alpha 90.000000
_cell_angle_beta 146.298853
_cell_angle_gamma 90.000000
_cell_volume 1161.311806
_symmetry_space_group_name_H-M "P 2/M"
_symmetry_group_IT_number 10
_symmetry_cell_setting 'monoclinic'
loop_
_space_group_symop_operation_xyz
x,y,z
-x,y,-z
-x,-y,-z
x,-y,z
loop_
_atom_site_type_symbol
_atom_site_label
_atom_site_fract_x
_atom_site_fract_y
_atom_site_fract_z
Si Si1 0.183343 0.884017 0.621464
Si Si2 0.170422 0.285957 0.439366
Si Si3 0.305320 0.676928 0.806519
Si Si4 0.182555 0.381644 0.923998
Si Si5 0.475852 0.621643 0.609076
O O1 0.166994 0.835884 0.476122
O O2 0.301540 0.804471 0.813593
O O3 0.000000 0.888989 0.500000
O O4 0.265239 0.000000 0.696136
O O5 0.213665 0.355778 0.596042
O O6 0.315747 0.307369 0.489331
O O7 0.984673 0.316369 0.203183
O O8 0.202768 0.624813 0.807734
O O9 0.500000 0.635409 0.000000
O O10 0.151753 0.500000 0.932304
O O11 0.353291 0.337828 0.155716
O O12 0.500000 0.640878 0.500000
O O13 0.439446 0.500000 0.600355
#
# Coordination Sequence:
#
# PCOD8058724 Si02
#       5
#     4   4   4   4   4
#     4   9  17  31  50  75 107 132 160 203 250 307
#     4  10  19  34  52  75 104 133 167 208 248 302
#     4  10  18  32  48  77 108 131 163 201 252 308
#     4  11  20  32  51  74 104 137 167 202 250 302
#     4  10  22  37  52  73 100 134 177 215 247 290
#
# _framework density 17.221903999999999
#
# number of rings (size 3 to 8) (size 9 to 14) (size 15 to 20)
#    1.200    0.800    4.000    1.200    0.000    4.000 
#    0.000    3.000    0.000    0.600    0.000    1.400 
#    0.000    0.000    0.000    0.000    0.000    0.000 
#
# Total GULP energy -247829.639707 kJ/mol
# GULP energy per Si atom -12391.481985 kJ/mol
# Density = 1.718271 g / cm^3
# Si number density = 17.221904 Si / 1000 Ang^3
#
#
#
# Elastic Constant Matrix: (Units=GPa)
#
#
# Indices 1 2 3 4 5 6 
#
# 1 90.5807 22.9253 35.0205 0.0000 5.6736 0.0000
# 2 22.9253 62.4533 11.8061 0.0000 5.5249 0.0000
# 3 35.0205 11.8061 67.0041 0.0000 19.1939 0.0000
# 4 0.0000 0.0000 0.0000 11.7305 0.0000 7.8340
# 5 5.6736 5.5249 19.1939 0.0000 27.1829 0.0000
# 6 0.0000 0.0000 0.0000 7.8340 0.0000 2.0097
#
#
#
# Elastic Compliance Matrix: (Units=1/GPa)
#
#
# Indices 1 2 3 4 5 6 
#
# 1 0.015039 -0.004296 -0.008091 0.000000 0.003447 0.000000
# 2 -0.004296 0.017849 -0.000147 0.000000 -0.002627 0.000000
# 3 -0.008091 -0.000147 0.023425 0.000000 -0.014822 0.000000
# 4 0.000000 0.000000 0.000000 -0.053173 0.000000 0.207269
# 5 0.003447 -0.002627 -0.014822 0.000000 0.047068 0.000000
# 6 0.000000 0.000000 0.000000 0.207269 0.000000 -0.310361
#
#
# Mechanical properties :
#
#
# Convention : Reuss Voigt Hill
#
# Bulk Modulus (GPa) = 32.00470 39.94909 35.97690
# Shear Modulus (GPa) = -22.25494 18.20371 -2.02562
#
# Velocity S-wave (km/s) = -3.59868 3.25469 -1.08570
# Velocity P-wave (km/s) = 1.16478 6.11319 4.40044
#
# Compressibility (1/GPa) = 0.03124541
#
# Stress axis : x y z
#
# Youngs Moduli (GPa) = 66.49171 56.02497 42.68921
#
# Poissons Ratio (x) = 0.24069 0.34540
# Poissons Ratio (y) = 0.28565 0.00627
# Poissons Ratio (z) = 0.53799 0.00824
#
# Static dielectric constant tensor:
#      x y z
#    x 3.004730 0.000000 0.101540 
#    y 0.000000 3.122490 0.000000 
#    z 0.101540 0.000000 3.170860 
# 
# 
# High freq. dielectric constant tensor:
#      x y z
#    x 1.651110 0.000000 0.018270 
#    y 0.000000 1.633350 0.000000 
#    z 0.018270 0.000000 1.661800 
# 
# From -- ./inp_files/34975.got.cif
#   From: 2010.06.25/outbox.cif.g09.slc.cpg/sg10_18_cif.got.tgz:34975.got - 2010.06.27 22:07:45.
