data_PCOD8058028
_publ_section_title
;
Structure prediction by ZEFSAII (Michael W. Deem and Ramdas Pophale) SiO2 
 PCOD8058028
Probable space group: P 2/M
;
_chemical_formula_sum "Si O2"
_cell_formula_units_Z 28
_cell_length_a 15.929049
_cell_length_b 9.834320
_cell_length_c 10.423739
_cell_angle_alpha 90.000000
_cell_angle_beta 118.830070
_cell_angle_gamma 90.000000
_cell_volume 1430.501947
_symmetry_space_group_name_H-M "P 2/M"
_symmetry_group_IT_number 10
_symmetry_cell_setting 'monoclinic'
loop_
_space_group_symop_operation_xyz
x,y,z
-x,y,-z
-x,-y,-z
x,-y,z
loop_
_atom_site_type_symbol
_atom_site_label
_atom_site_fract_x
_atom_site_fract_y
_atom_site_fract_z
Si Si1 0.291632 0.155106 0.092498
Si Si2 0.880579 0.649695 0.685526
Si Si3 0.612687 0.155500 0.570033
Si Si4 0.727873 0.339595 0.151179
Si Si5 0.058652 0.342235 0.659147
Si Si6 0.694136 0.346850 0.410423
Si Si7 0.893276 0.153661 0.904917
O O1 0.340749 0.204105 0.261247
O O2 0.175433 0.163551 0.021944
O O3 0.322627 0.000000 0.083315
O O4 0.323851 0.254451 0.000440
O O5 0.872696 0.500000 0.742197
O O6 0.810117 0.658322 0.510727
O O7 0.841614 0.759042 0.757149
O O8 0.991224 0.679056 0.733096
O O9 0.500000 0.169466 0.500000
O O10 0.643300 0.245579 0.470989
O O11 0.643941 0.000000 0.565643
O O12 0.724557 0.500000 0.115028
O O13 0.836491 0.281144 0.238985
O O14 0.673925 0.309597 0.246339
O O15 0.073183 0.500000 0.635640
O O16 0.000000 0.270610 0.500000
O O17 0.657086 0.500000 0.411522
O O18 0.901093 0.000000 0.860509
O O19 0.000000 0.214056 0.000000
#
# Coordination Sequence:
#
# PCOD8058028 Si02
#       7
#     4   4   4   4   4   4   4
#     4  10  21  37  55  80 113 145 182 232 281 329
#     4  10  18  29  50  77 105 142 189 230 266 316
#     4  10  22  42  66  86 105 140 189 234 282 340
#     4  10  20  34  55  83 116 153 188 224 273 330
#     4   9  15  27  47  73 109 151 191 227 259 306
#     4  10  20  35  57  86 114 141 180 230 281 332
#     4  10  20  33  49  72 109 150 184 225 278 326
#
# _framework density 19.573547999999999
#
# number of rings (size 3 to 8) (size 9 to 14) (size 15 to 20)
#    0.000    2.143    2.857    0.857    0.000    2.286 
#    0.000    0.714    0.000    5.143    0.000    0.000 
#    0.000    0.000    0.000    0.000    0.000    0.000 
#
# Total GULP energy -347007.264157 kJ/mol
# GULP energy per Si atom -12393.116577 kJ/mol
# Density = 1.952900 g / cm^3
# Si number density = 19.573548 Si / 1000 Ang^3
#
#
#
# Elastic Constant Matrix: (Units=GPa)
#
#
# Indices 1 2 3 4 5 6 
#
# 1 60.4099 33.1904 39.5954 0.0000 -7.2282 0.0000
# 2 33.1904 84.5567 66.2949 0.0000 -24.5207 0.0000
# 3 39.5954 66.2949 116.6780 0.0000 -25.1645 0.0000
# 4 0.0000 0.0000 0.0000 21.5589 0.0000 2.7555
# 5 -7.2282 -24.5207 -25.1645 0.0000 26.3489 0.0000
# 6 0.0000 0.0000 0.0000 2.7555 0.0000 15.8158
#
#
#
# Elastic Compliance Matrix: (Units=1/GPa)
#
#
# Indices 1 2 3 4 5 6 
#
# 1 0.022818 -0.006173 -0.005195 0.000000 -0.004447 0.000000
# 2 -0.006173 0.025540 -0.009642 0.000000 0.012866 0.000000
# 3 -0.005195 -0.009642 0.017089 0.000000 0.005923 0.000000
# 4 0.000000 0.000000 0.000000 0.047441 0.000000 -0.008265
# 5 -0.004447 0.012866 0.005923 0.000000 0.054363 0.000000
# 6 0.000000 0.000000 0.000000 -0.008265 0.000000 0.064668
#
#
# Mechanical properties :
#
#
# Convention : Reuss Voigt Hill
#
# Bulk Modulus (GPa) = 42.68425 59.97845 51.33135
# Shear Modulus (GPa) = 17.74633 20.91563 19.33098
#
# Velocity S-wave (km/s) = 3.01433 3.27244 3.14603
# Velocity P-wave (km/s) = 5.82832 6.70728 6.28319
#
# Compressibility (1/GPa) = 0.02342784
#
# Stress axis : x y z
#
# Youngs Moduli (GPa) = 43.82459 39.15445 58.51589
#
# Poissons Ratio (x) = 0.24170 0.30400
# Poissons Ratio (y) = 0.27053 0.56419
# Poissons Ratio (z) = 0.22767 0.37751
#
# Static dielectric constant tensor:
#      x y z
#    x 3.363080 0.000000 0.064890 
#    y 0.000000 3.366730 0.000000 
#    z 0.064890 0.000000 3.472750 
# 
# 
# High freq. dielectric constant tensor:
#      x y z
#    x 1.746510 0.000000 -0.003650 
#    y 0.000000 1.742120 0.000000 
#    z -0.003650 0.000000 1.756250 
# 
# From -- ./inp_files/28360.got.cif
#   From: 2010.06.25/outbox.cif.g09.slc.cpg/sg10_15_cif.got.tgz:28360.got - 2010.06.27 22:07:45.
