data_PCOD8058292
_publ_section_title
;
Structure prediction by ZEFSAII (Michael W. Deem and Ramdas Pophale) SiO2 
 PCOD8058292
Probable space group: P 2/M
;
_chemical_formula_sum "Si O2"
_cell_formula_units_Z 32
_cell_length_a 19.802038
_cell_length_b 8.661169
_cell_length_c 27.704356
_cell_angle_alpha 90.000000
_cell_angle_beta 158.800375
_cell_angle_gamma 90.000000
_cell_volume 1718.244900
_symmetry_space_group_name_H-M "P 2/M"
_symmetry_group_IT_number 10
_symmetry_cell_setting 'monoclinic'
loop_
_space_group_symop_operation_xyz
x,y,z
-x,y,-z
-x,-y,-z
x,-y,z
loop_
_atom_site_type_symbol
_atom_site_label
_atom_site_fract_x
_atom_site_fract_y
_atom_site_fract_z
Si Si1 0.471086 0.320684 0.425599
Si Si2 0.693702 0.180412 0.880447
Si Si3 0.652350 0.319107 0.386131
Si Si4 0.930867 0.320017 0.172257
Si Si5 0.199003 0.180377 0.612622
Si Si6 0.952871 0.678972 0.857025
Si Si7 0.545108 0.321763 0.878040
Si Si8 0.782033 0.179149 0.567548
O O1 0.500000 0.270994 0.500000
O O2 0.524368 0.500000 0.454346
O O3 0.603101 0.218645 0.480546
O O4 0.258680 0.287414 0.268226
O O5 0.549166 0.231921 0.742280
O O6 0.634666 0.284118 0.886320
O O7 0.671671 0.000000 0.876358
O O8 0.910971 0.224259 0.016078
O O9 0.616371 0.500000 0.362235
O O10 0.758776 0.271324 0.408282
O O11 0.779430 0.272807 0.515967
O O12 0.972937 0.500000 0.208777
O O13 0.026639 0.221739 0.277892
O O14 0.018190 0.268323 0.179171
O O15 0.707109 0.285853 0.025289
O O16 0.356332 0.220881 0.758156
O O17 0.000000 0.234525 0.500000
O O18 0.202449 0.000000 0.603485
O O19 0.003313 0.500000 0.895887
O O20 0.487534 0.500000 0.841481
O O21 0.781923 0.000000 0.555198
#
# Coordination Sequence:
#
# PCOD8058292 Si02
#       8
#     4   4   4   4   4   4   4   4
#     4  10  19  35  54  73 102 141 183 226 267 314
#     4  10  18  30  50  75 105 134 169 220 272 315
#     4  11  22  38  58  77 104 142 183 217 254 314
#     4   9  17  32  51  74 103 140 182 220 260 307
#     4  10  20  35  58  88 118 141 165 208 264 313
#     4   9  17  31  52  74 100 135 179 224 266 314
#     4   9  17  30  51  78 107 139 178 217 250 300
#     4  12  24  35  51  77 109 141 177 223 275 322
#
# _framework density 18.623653999999998
#
# number of rings (size 3 to 8) (size 9 to 14) (size 15 to 20)
#    0.000    2.000    1.250    6.375    0.000    4.250 
#    0.000    0.625    0.000    4.500    0.000    5.250 
#    0.000    0.000    0.000    0.000    0.000    0.000 
#
# Total GULP energy -396708.441155 kJ/mol
# GULP energy per Si atom -12397.138786 kJ/mol
# Density = 1.858127 g / cm^3
# Si number density = 18.623654 Si / 1000 Ang^3
#
#
#
# Elastic Constant Matrix: (Units=GPa)
#
#
# Indices 1 2 3 4 5 6 
#
# 1 48.5307 26.0958 44.1151 0.0000 2.3205 0.0000
# 2 26.0958 73.6001 42.7432 0.0000 1.4592 0.0000
# 3 44.1151 42.7432 136.6973 0.0000 8.4498 0.0000
# 4 0.0000 0.0000 0.0000 30.1986 0.0000 2.6974
# 5 2.3205 1.4592 8.4498 0.0000 24.8799 0.0000
# 6 0.0000 0.0000 0.0000 2.6974 0.0000 20.7221
#
#
#
# Elastic Compliance Matrix: (Units=1/GPa)
#
#
# Indices 1 2 3 4 5 6 
#
# 1 0.031466 -0.006422 -0.008160 0.000000 0.000213 0.000000
# 2 -0.006422 0.017928 -0.003581 0.000000 0.000764 0.000000
# 3 -0.008160 -0.003581 0.011244 0.000000 -0.002848 0.000000
# 4 0.000000 0.000000 0.000000 0.033504 0.000000 -0.004361
# 5 0.000213 0.000764 -0.002848 0.000000 0.041096 0.000000
# 6 0.000000 0.000000 0.000000 -0.004361 0.000000 0.048825
#
#
# Mechanical properties :
#
#
# Convention : Reuss Voigt Hill
#
# Bulk Modulus (GPa) = 41.12904 53.85959 47.49431
# Shear Modulus (GPa) = 21.88256 24.88506 23.38381
#
# Velocity S-wave (km/s) = 3.43153 3.65938 3.54728
# Velocity P-wave (km/s) = 6.15083 6.84380 6.50655
#
# Compressibility (1/GPa) = 0.02431372
#
# Stress axis : x y z
#
# Youngs Moduli (GPa) = 31.78040 55.77795 88.93318
#
# Poissons Ratio (x) = 0.35821 0.72568
# Poissons Ratio (y) = 0.20410 0.31843
# Poissons Ratio (z) = 0.25932 0.19972
#
# Static dielectric constant tensor:
#      x y z
#    x 2.978370 0.000000 0.078920 
#    y 0.000000 3.345140 0.000000 
#    z 0.078920 0.000000 4.081750 
# 
# 
# High freq. dielectric constant tensor:
#      x y z
#    x 1.665050 0.000000 0.005430 
#    y 0.000000 1.725460 0.000000 
#    z 0.005430 0.000000 1.745470 
# 
# From -- ./inp_files/93753.got.cif
#   From: 2010.06.25/outbox.cif.g09.slc.cpg/sg10_47_cif.got.tgz:93753.got - 2010.06.27 22:07:45.
