data_PCOD8058595
_publ_section_title
;
Structure prediction by ZEFSAII (Michael W. Deem and Ramdas Pophale) SiO2 
 PCOD8058595
Probable space group: P 2/M
;
_chemical_formula_sum "Si O2"
_cell_formula_units_Z 32
_cell_length_a 24.967213
_cell_length_b 9.094456
_cell_length_c 19.881225
_cell_angle_alpha 90.000000
_cell_angle_beta 156.531937
_cell_angle_gamma 90.000000
_cell_volume 1797.763043
_symmetry_space_group_name_H-M "P 2/M"
_symmetry_group_IT_number 10
_symmetry_cell_setting 'monoclinic'
loop_
_space_group_symop_operation_xyz
x,y,z
-x,y,-z
-x,-y,-z
x,-y,z
loop_
_atom_site_type_symbol
_atom_site_label
_atom_site_fract_x
_atom_site_fract_y
_atom_site_fract_z
Si Si1 0.688226 0.168394 0.522703
Si Si2 0.333304 0.327328 0.011341
Si Si3 0.153741 0.326827 0.186388
Si Si4 0.397780 0.171579 0.722217
Si Si5 0.615768 0.168563 0.800727
Si Si6 0.353287 0.673283 0.803745
Si Si7 0.852186 0.326845 0.321586
Si Si8 0.350409 0.170515 0.311817
O O1 0.797591 0.269695 0.684991
O O2 0.694389 0.196920 0.449849
O O3 0.541542 0.210746 0.382578
O O4 0.721452 0.000000 0.578302
O O5 0.363073 0.500000 0.046955
O O6 0.459494 0.248516 0.123139
O O7 0.306110 0.269217 0.055393
O O8 0.203568 0.289249 0.816741
O O9 0.170782 0.500000 0.203606
O O10 0.240775 0.259606 0.226595
O O11 0.000000 0.278118 0.000000
O O12 0.322692 0.243593 0.698868
O O13 0.422856 0.000000 0.763572
O O14 0.681100 0.194414 0.803263
O O15 0.629327 0.000000 0.839943
O O16 0.340387 0.500000 0.776381
O O17 0.246149 0.734891 0.734028
O O18 0.500000 0.714684 0.000000
O O19 0.860189 0.500000 0.340958
O O20 0.000000 0.255495 0.500000
O O21 0.500000 0.229188 0.500000
O O22 0.340430 0.000000 0.321079
#
# Coordination Sequence:
#
# PCOD8058595 Si02
#       8
#     4   4   4   4   4   4   4   4
#     4   9  18  35  55  76 105 141 178 216 262 323
#     4  10  18  31  52  78 107 138 175 214 260 315
#     4  11  24  38  53  80 115 144 177 224 272 319
#     4  10  20  33  52  79 108 136 173 221 268 309
#     4   9  18  33  54  81 109 134 170 222 268 310
#     4  10  18  32  53  79 105 133 177 222 256 307
#     4   9  18  33  52  74 104 140 173 208 257 314
#     4  10  19  36  59  81 107 141 183 222 262 320
#
# _framework density 17.799897999999999
#
# number of rings (size 3 to 8) (size 9 to 14) (size 15 to 20)
#    0.000    2.250    2.500    1.875    0.000    4.500 
#    0.000    1.250    0.000    7.875    0.000    0.000 
#    0.000    0.000    0.000    0.000    0.000    0.000 
#
# Total GULP energy -396821.892122 kJ/mol
# GULP energy per Si atom -12400.684129 kJ/mol
# Density = 1.775938 g / cm^3
# Si number density = 17.799898 Si / 1000 Ang^3
#
#
#
# Elastic Constant Matrix: (Units=GPa)
#
#
# Indices 1 2 3 4 5 6 
#
# 1 118.8266 47.3772 71.3183 0.0000 -8.2459 0.0000
# 2 47.3772 70.1814 54.3204 0.0000 -5.9449 0.0000
# 3 71.3183 54.3204 126.9781 0.0000 -2.7696 0.0000
# 4 0.0000 0.0000 0.0000 17.0812 0.0000 -8.6430
# 5 -8.2459 -5.9449 -2.7696 0.0000 27.0441 0.0000
# 6 0.0000 0.0000 0.0000 -8.6430 0.0000 32.1939
#
#
#
# Elastic Compliance Matrix: (Units=1/GPa)
#
#
# Indices 1 2 3 4 5 6 
#
# 1 0.013933 -0.004741 -0.005740 0.000000 0.002618 0.000000
# 2 -0.004741 0.023303 -0.007242 0.000000 0.002935 0.000000
# 3 -0.005740 -0.007242 0.014156 0.000000 -0.001892 0.000000
# 4 0.000000 0.000000 0.000000 0.067747 0.000000 0.018188
# 5 0.002618 0.002935 -0.001892 0.000000 0.038226 0.000000
# 6 0.000000 0.000000 0.000000 0.018188 0.000000 0.035945
#
#
# Mechanical properties :
#
#
# Convention : Reuss Voigt Hill
#
# Bulk Modulus (GPa) = 62.71257 73.55753 68.13505
# Shear Modulus (GPa) = 21.36093 24.79518 23.07806
#
# Velocity S-wave (km/s) = 3.46795 3.73633 3.60464
# Velocity P-wave (km/s) = 7.16547 7.74777 7.46230
#
# Compressibility (1/GPa) = 0.01594577
#
# Stress axis : x y z
#
# Youngs Moduli (GPa) = 71.77334 42.91240 70.63972
#
# Poissons Ratio (x) = 0.20344 0.40549
# Poissons Ratio (y) = 0.34026 0.51159
# Poissons Ratio (z) = 0.41200 0.31078
#
# Static dielectric constant tensor:
#      x y z
#    x 3.425160 0.000000 -0.143330 
#    y 0.000000 3.186840 0.000000 
#    z -0.143330 0.000000 3.276250 
# 
# 
# High freq. dielectric constant tensor:
#      x y z
#    x 1.694130 0.000000 -0.020070 
#    y 0.000000 1.677760 0.000000 
#    z -0.020070 0.000000 1.670950 
# 
# From -- ./inp_files/87048.got.cif
#   From: 2010.06.25/outbox.cif.g09.slc.cpg/sg10_44_cif.got.tgz:87048.got - 2010.06.27 22:07:45.
