data_PCOD8058726
_publ_section_title
;
Structure prediction by ZEFSAII (Michael W. Deem and Ramdas Pophale) SiO2 
 PCOD8058726
Probable space group: P 2/M
;
_chemical_formula_sum "Si O2"
_cell_formula_units_Z 32
_cell_length_a 30.021438
_cell_length_b 9.204123
_cell_length_c 16.784542
_cell_angle_alpha 90.000000
_cell_angle_beta 154.858682
_cell_angle_gamma 90.000000
_cell_volume 1970.431875
_symmetry_space_group_name_H-M "P 2/M"
_symmetry_group_IT_number 10
_symmetry_cell_setting 'monoclinic'
loop_
_space_group_symop_operation_xyz
x,y,z
-x,y,-z
-x,-y,-z
x,-y,z
loop_
_atom_site_type_symbol
_atom_site_label
_atom_site_fract_x
_atom_site_fract_y
_atom_site_fract_z
Si Si1 0.530955 0.831124 0.639766
Si Si2 0.312904 0.167278 0.358461
Si Si3 0.059920 0.837263 0.368475
Si Si4 0.178792 0.836140 0.992459
Si Si5 0.938588 0.670361 0.781765
Si Si6 0.896472 0.827993 0.382344
Si Si7 0.258523 0.327181 0.976606
Si Si8 0.156504 0.670532 0.207746
O O1 0.500000 0.784042 0.500000
O O2 0.436257 0.802966 0.548263
O O3 0.624777 0.733244 0.823781
O O4 0.564313 0.000000 0.693382
O O5 0.260041 0.215908 0.190399
O O6 0.264017 0.256368 0.352362
O O7 0.288680 0.000000 0.336222
O O8 0.106478 0.742298 0.371780
O O9 0.090313 0.778199 0.504724
O O10 0.102903 0.000000 0.427954
O O11 0.935700 0.831879 0.156526
O O12 0.186410 0.723099 0.933080
O O13 0.205445 0.000000 0.005257
O O14 0.940853 0.500000 0.771594
O O15 0.860432 0.711764 0.727195
O O16 0.055998 0.724665 0.994054
O O17 0.000000 0.784420 0.500000
O O18 0.877232 0.000000 0.343566
O O19 0.794840 0.740524 0.188209
O O20 0.261437 0.500000 0.975043
O O21 0.169074 0.500000 0.217901
#
# Coordination Sequence:
#
# PCOD8058726 Si02
#       8
#     4   4   4   4   4   4   4   4
#     4  10  20  36  54  70  96 134 170 205 247 296
#     4  10  19  31  51  74  95 129 172 208 241 283
#     4  10  19  31  51  74  95 129 172 208 241 283
#     4  10  18  32  49  69 100 134 169 202 244 293
#     4   9  18  31  46  68 102 138 164 194 244 298
#     4  10  20  36  54  70  96 134 170 205 247 296
#     4  12  24  34  48  73 102 131 168 211 248 288
#     4   9  18  31  46  68 102 138 164 194 244 298
#
# _framework density 16.240095
#
# number of rings (size 3 to 8) (size 9 to 14) (size 15 to 20)
#    0.000    2.000    3.750    1.875    0.000    3.000 
#    0.000    1.250    0.000    0.000    0.000    0.875 
#    0.000    7.000    0.000    0.000    0.000    0.000 
#
# Total GULP energy -396748.604820 kJ/mol
# GULP energy per Si atom -12398.393901 kJ/mol
# Density = 1.620313 g / cm^3
# Si number density = 16.240095 Si / 1000 Ang^3
#
#
#
# Elastic Constant Matrix: (Units=GPa)
#
#
# Indices 1 2 3 4 5 6 
#
# 1 114.6432 49.9121 40.7247 0.0000 -12.3378 0.0000
# 2 49.9121 65.9199 42.3562 0.0000 -8.3659 0.0000
# 3 40.7247 42.3562 81.5657 0.0000 -11.2415 0.0000
# 4 0.0000 0.0000 0.0000 22.0663 0.0000 -0.9233
# 5 -12.3378 -8.3659 -11.2415 0.0000 26.7691 0.0000
# 6 0.0000 0.0000 0.0000 -0.9233 0.0000 27.6231
#
#
#
# Elastic Compliance Matrix: (Units=1/GPa)
#
#
# Indices 1 2 3 4 5 6 
#
# 1 0.013432 -0.008640 -0.001846 0.000000 0.002716 0.000000
# 2 -0.008640 0.028456 -0.010387 0.000000 0.000549 0.000000
# 3 -0.001846 -0.010387 0.019117 0.000000 0.003931 0.000000
# 4 0.000000 0.000000 0.000000 0.045381 0.000000 0.001517
# 5 0.002716 0.000549 0.003931 0.000000 0.040431 0.000000
# 6 0.000000 0.000000 0.000000 0.001517 0.000000 0.036252
#
#
# Mechanical properties :
#
#
# Convention : Reuss Voigt Hill
#
# Bulk Modulus (GPa) = 51.92212 58.67943 55.30078
# Shear Modulus (GPa) = 21.62306 23.90075 22.76191
#
# Velocity S-wave (km/s) = 3.65288 3.84045 3.74784
# Velocity P-wave (km/s) = 7.05920 7.47505 7.27010
#
# Compressibility (1/GPa) = 0.01925961
#
# Stress axis : x y z
#
# Youngs Moduli (GPa) = 74.44858 35.14257 52.30834
#
# Poissons Ratio (x) = 0.30362 0.09654
# Poissons Ratio (y) = 0.64321 0.54334
# Poissons Ratio (z) = 0.13741 0.36504
#
# Static dielectric constant tensor:
#      x y z
#    x 3.038010 0.000000 -0.035050 
#    y 0.000000 2.976740 0.000000 
#    z -0.035050 0.000000 2.956270 
# 
# 
# High freq. dielectric constant tensor:
#      x y z
#    x 1.617220 0.000000 -0.003830 
#    y 0.000000 1.617110 0.000000 
#    z -0.003830 0.000000 1.600870 
# 
# From -- ./inp_files/72213.got.cif
#   From: 2010.06.25/outbox.cif.g09.slc.cpg/sg10_37_cif.got.tgz:72213.got - 2010.06.27 22:07:45.
