data_PCOD8058461
_publ_section_title
;
Structure prediction by ZEFSAII (Michael W. Deem and Ramdas Pophale) SiO2 
 PCOD8058461
Probable space group: P 2/M
;
_chemical_formula_sum "Si O2"
_cell_formula_units_Z 24
_cell_length_a 20.612481
_cell_length_b 8.694872
_cell_length_c 9.748237
_cell_angle_alpha 90.000000
_cell_angle_beta 48.887566
_cell_angle_gamma 90.000000
_cell_volume 1316.306716
_symmetry_space_group_name_H-M "P 2/M"
_symmetry_group_IT_number 10
_symmetry_cell_setting 'monoclinic'
loop_
_space_group_symop_operation_xyz
x,y,z
-x,y,-z
-x,-y,-z
x,-y,z
loop_
_atom_site_type_symbol
_atom_site_label
_atom_site_fract_x
_atom_site_fract_y
_atom_site_fract_z
Si Si1 0.763914 0.318698 0.131565
Si Si2 0.779725 0.181304 0.538942
Si Si3 0.097195 0.317404 0.847880
Si Si4 0.357679 0.680157 0.464168
Si Si5 0.278221 0.683794 0.107281
Si Si6 0.468195 0.319164 0.899914
O O1 0.766636 0.500000 0.114616
O O2 0.848864 0.260574 0.093888
O O3 0.679115 0.269586 0.336622
O O4 0.758453 0.250216 0.986155
O O5 0.863215 0.245125 0.344226
O O6 0.691713 0.231888 0.587993
O O7 0.781215 0.248620 0.690432
O O8 0.785381 0.000000 0.537345
O O9 0.101953 0.500000 0.826412
O O10 0.000000 0.258392 0.000000
O O11 0.340779 0.500000 0.460972
O O12 0.459271 0.719422 0.315760
O O13 0.275470 0.500000 0.116499
O O14 0.375970 0.748628 0.984536
O O15 0.456890 0.500000 0.933185
O O16 0.500000 0.247761 0.000000
#
# Coordination Sequence:
#
# PCOD8058461 Si02
#       6
#     4   4   4   4   4   4
#     4   8  16  29  50  77  99 124 160 203 252 296
#     4  11  21  32  49  74 101 132 168 199 241 293
#     4   9  18  36  60  80  97 121 157 201 247 299
#     4   9  16  31  50  70  98 131 172 211 245 287
#     4  10  18  31  49  71 102 134 165 205 247 287
#     4   9  15  24  45  73  97 129 171 208 243 281
#
# _framework density 18.232832999999999
#
# number of rings (size 3 to 8) (size 9 to 14) (size 15 to 20)
#    0.000    2.667    1.667    2.500    0.000    1.000 
#    0.000    9.167    0.000    5.000    0.000    5.833 
#    0.000    0.000    0.000    0.000    0.000    0.000 
#
# Total GULP energy -297489.299298 kJ/mol
# GULP energy per Si atom -12395.387471 kJ/mol
# Density = 1.819133 g / cm^3
# Si number density = 18.232833 Si / 1000 Ang^3
#
#
#
# Elastic Constant Matrix: (Units=GPa)
#
#
# Indices 1 2 3 4 5 6 
#
# 1 118.3196 23.1679 97.3179 0.0000 4.4784 0.0000
# 2 23.1679 35.1396 33.8424 0.0000 -0.6076 0.0000
# 3 97.3179 33.8424 163.5866 0.0000 8.2111 0.0000
# 4 0.0000 0.0000 0.0000 6.5963 0.0000 -1.8983
# 5 4.4784 -0.6076 8.2111 0.0000 38.1342 0.0000
# 6 0.0000 0.0000 0.0000 -1.8983 0.0000 5.0711
#
#
#
# Elastic Compliance Matrix: (Units=1/GPa)
#
#
# Indices 1 2 3 4 5 6 
#
# 1 0.016640 -0.001789 -0.009532 0.000000 0.000070 0.000000
# 2 -0.001789 0.035910 -0.006474 0.000000 0.002176 0.000000
# 3 -0.009532 -0.006474 0.013215 0.000000 -0.001829 0.000000
# 4 0.000000 0.000000 0.000000 0.169902 0.000000 0.063599
# 5 0.000070 0.002176 -0.001829 0.000000 0.026644 0.000000
# 6 0.000000 0.000000 0.000000 0.063599 0.000000 0.221001
#
#
# Mechanical properties :
#
#
# Convention : Reuss Voigt Hill
#
# Bulk Modulus (GPa) = 33.14115 69.52245 51.33180
# Shear Modulus (GPa) = 9.45251 20.80818 15.13034
#
# Velocity S-wave (km/s) = 2.27938 3.38190 2.88382
# Velocity P-wave (km/s) = 5.01433 7.31183 6.26922
#
# Compressibility (1/GPa) = 0.03017397
#
# Stress axis : x y z
#
# Youngs Moduli (GPa) = 60.09710 27.84741 75.67213
#
# Poissons Ratio (x) = 0.04982 0.72134
# Poissons Ratio (y) = 0.10752 0.48989
# Poissons Ratio (z) = 0.57287 0.18028
#
# Static dielectric constant tensor:
#      x y z
#    x 3.489710 0.000000 0.056420 
#    y 0.000000 2.887800 0.000000 
#    z 0.056420 0.000000 3.593590 
# 
# 
# High freq. dielectric constant tensor:
#      x y z
#    x 1.689450 0.000000 0.001390 
#    y 0.000000 1.660120 0.000000 
#    z 0.001390 0.000000 1.717310 
# 
# From -- ./inp_files/33517.got.cif
#   From: 2010.06.25/outbox.cif.g09.slc.cpg/sg10_17_cif.got.tgz:33517.got - 2010.06.27 22:07:45.
