data_PCOD8058371
_publ_section_title
;
Structure prediction by ZEFSAII (Michael W. Deem and Ramdas Pophale) SiO2 
 PCOD8058371
Probable space group: P 2/M
;
_chemical_formula_sum "Si O2"
_cell_formula_units_Z 30
_cell_length_a 11.624973
_cell_length_b 9.541345
_cell_length_c 14.774776
_cell_angle_alpha 90.000000
_cell_angle_beta 110.365793
_cell_angle_gamma 90.000000
_cell_volume 1536.346122
_symmetry_space_group_name_H-M "P 2/M"
_symmetry_group_IT_number 10
_symmetry_cell_setting 'monoclinic'
loop_
_space_group_symop_operation_xyz
x,y,z
-x,y,-z
-x,-y,-z
x,-y,z
loop_
_atom_site_type_symbol
_atom_site_label
_atom_site_fract_x
_atom_site_fract_y
_atom_site_fract_z
Si Si1 0.027097 0.156237 0.312445
Si Si2 0.138952 0.833310 0.028018
Si Si3 0.000000 0.754866 0.500000
Si Si4 0.739244 0.335722 0.636959
Si Si5 0.660339 0.162549 0.774094
Si Si6 0.785259 0.834783 0.143450
Si Si7 0.392866 0.162587 0.756121
Si Si8 0.267740 0.655929 0.570552
O O1 0.009527 0.146597 0.415247
O O2 0.128385 0.267025 0.310218
O O3 0.902868 0.210243 0.233449
O O4 0.062493 0.000000 0.287184
O O5 0.222296 0.786955 0.135524
O O6 0.134671 0.000000 0.020749
O O7 0.201482 0.770693 0.953726
O O8 0.000000 0.774648 0.000000
O O9 0.879573 0.658263 0.460321
O O10 0.746516 0.500000 0.661001
O O11 0.647375 0.258287 0.681062
O O12 0.693732 0.308663 0.522293
O O13 0.538455 0.186544 0.800578
O O14 0.671924 0.000000 0.748783
O O15 0.665812 0.779026 0.165884
O O16 0.775742 0.000000 0.131403
O O17 0.334650 0.235469 0.653090
O O18 0.358819 0.000000 0.735449
O O19 0.312117 0.500000 0.607914
#
# Coordination Sequence:
#
# PCOD8058371 Si02
#       8
#     4   4   2   4   4   4   4   4
#     4  10  18  30  53  82 112 144 179 223 276 327
#     4   9  17  31  56  85 111 140 180 228 279 331
#     4  10  18  30  52  82 112 142 182 228 268 318
#     4  10  22  37  54  78 109 147 189 235 278 328
#     4  10  21  37  57  81 108 144 188 235 281 327
#     4   9  17  31  52  82 115 145 178 222 274 331
#     4  10  21  36  54  81 115 146 185 230 275 328
#     4  10  21  36  54  78 110 150 190 225 272 329
#
# _framework density 19.526847
#
# number of rings (size 3 to 8) (size 9 to 14) (size 15 to 20)
#    0.000    2.267    1.333    1.600    0.000    6.933 
#    0.000    5.333    0.000    4.400    0.000    1.867 
#    0.000    0.000    0.000    0.000    0.000    0.000 
#
# Total GULP energy -371908.589212 kJ/mol
# GULP energy per Si atom -12396.952974 kJ/mol
# Density = 1.948240 g / cm^3
# Si number density = 19.526847 Si / 1000 Ang^3
#
#
#
# Elastic Constant Matrix: (Units=GPa)
#
#
# Indices 1 2 3 4 5 6 
#
# 1 108.3195 32.5212 50.9692 0.0000 -18.5157 0.0000
# 2 32.5212 61.6950 32.1667 0.0000 -8.1042 0.0000
# 3 50.9692 32.1667 92.5360 0.0000 -14.6581 0.0000
# 4 0.0000 0.0000 0.0000 8.7491 0.0000 0.3339
# 5 -18.5157 -8.1042 -14.6581 0.0000 33.0626 0.0000
# 6 0.0000 0.0000 0.0000 0.3339 0.0000 13.7660
#
#
#
# Elastic Compliance Matrix: (Units=1/GPa)
#
#
# Indices 1 2 3 4 5 6 
#
# 1 0.013714 -0.003764 -0.005566 0.000000 0.004290 0.000000
# 2 -0.003764 0.020946 -0.005086 0.000000 0.000772 0.000000
# 3 -0.005566 -0.005086 0.016078 0.000000 0.002765 0.000000
# 4 0.000000 0.000000 0.000000 0.114403 0.000000 -0.002775
# 5 0.004290 0.000772 0.002765 0.000000 0.034063 0.000000
# 6 0.000000 0.000000 0.000000 -0.002775 0.000000 0.072710
#
#
# Mechanical properties :
#
#
# Convention : Reuss Voigt Hill
#
# Bulk Modulus (GPa) = 45.64676 54.87386 50.26031
# Shear Modulus (GPa) = 16.23126 20.90842 18.56984
#
# Velocity S-wave (km/s) = 2.88623 3.27579 3.08716
# Velocity P-wave (km/s) = 5.87659 6.51694 6.20503
#
# Compressibility (1/GPa) = 0.02190736
#
# Stress axis : x y z
#
# Youngs Moduli (GPa) = 72.91646 47.74265 62.19608
#
# Poissons Ratio (x) = 0.17969 0.34619
# Poissons Ratio (y) = 0.27443 0.31631
# Poissons Ratio (z) = 0.40586 0.24280
#
# Static dielectric constant tensor:
#      x y z
#    x 3.774560 0.000000 -0.235230 
#    y 0.000000 3.178810 0.000000 
#    z -0.235230 0.000000 3.638010 
# 
# 
# High freq. dielectric constant tensor:
#      x y z
#    x 1.768850 0.000000 -0.013370 
#    y 0.000000 1.718200 0.000000 
#    z -0.013370 0.000000 1.758630 
# 
# From -- ./inp_files/63854.got.cif
#   From: 2010.06.25/outbox.cif.g09.slc.cpg/sg10_32_cif.got.tgz:63854.got - 2010.06.27 22:07:45.
