data_PCOD8058393
_publ_section_title
;
Structure prediction by ZEFSAII (Michael W. Deem and Ramdas Pophale) SiO2 
 PCOD8058393
Probable space group: P 2/M
;
_chemical_formula_sum "Si O2"
_cell_formula_units_Z 28
_cell_length_a 12.501079
_cell_length_b 15.426633
_cell_length_c 9.110683
_cell_angle_alpha 90.000000
_cell_angle_beta 128.447531
_cell_angle_gamma 90.000000
_cell_volume 1376.036670
_symmetry_space_group_name_H-M "P 2/M"
_symmetry_group_IT_number 10
_symmetry_cell_setting 'monoclinic'
loop_
_space_group_symop_operation_xyz
x,y,z
-x,y,-z
-x,-y,-z
x,-y,z
loop_
_atom_site_type_symbol
_atom_site_label
_atom_site_fract_x
_atom_site_fract_y
_atom_site_fract_z
Si Si1 0.331048 0.905847 0.759587
Si Si2 0.062487 0.147920 0.402667
Si Si3 0.207789 0.903546 0.964348
Si Si4 0.540201 0.270003 0.195506
Si Si5 0.729218 0.275810 0.859468
Si Si6 0.204565 0.689745 0.410352
Si Si7 0.953322 0.404093 0.126649
O O1 0.188896 0.913738 0.551340
O O2 0.302544 0.881918 0.904986
O O3 0.431568 0.833504 0.780273
O O4 0.403089 0.000000 0.807939
O O5 0.117329 0.223167 0.346209
O O6 0.000000 0.187519 0.500000
O O7 0.950523 0.093721 0.218320
O O8 0.241452 0.000000 0.057056
O O9 0.233303 0.826747 0.102950
O O10 0.421357 0.291831 0.207266
O O11 0.678255 0.318720 0.366142
O O12 0.500000 0.304183 0.000000
O O13 0.726788 0.310245 0.691643
O O14 0.835342 0.331853 0.049682
O O15 0.091976 0.614167 0.337809
O O16 0.898216 0.500000 0.120890
O O17 0.000000 0.398869 0.000000
#
# Coordination Sequence:
#
# PCOD8058393 Si02
#       7
#     4   4   4   4   4   4   4
#     4   9  18  32  52  79 110 154 213 246 265 326
#     4   9  17  31  53  82 112 151 195 242 286 336
#     4  10  18  30  53  84 118 155 194 238 286 338
#     4  11  22  37  57  84 112 162 196 234 284 342
#     4  11  21  37  57  89 122 150 189 239 295 338
#     4  10  21  37  61  84 118 148 190 241 291 341
#     4   9  19  38  66  91 112 145 191 236 285 349
#
# _framework density 20.348295
#
# number of rings (size 3 to 8) (size 9 to 14) (size 15 to 20)
#    0.000    2.143    2.857    0.857    0.000    2.571 
#    0.000    5.000    0.000   12.429    0.000    0.000 
#    0.000    0.000    0.000    0.000    0.000    0.000 
#
# Total GULP energy -347039.777759 kJ/mol
# GULP energy per Si atom -12394.277777 kJ/mol
# Density = 2.030198 g / cm^3
# Si number density = 20.348295 Si / 1000 Ang^3
#
#
#
# Elastic Constant Matrix: (Units=GPa)
#
#
# Indices 1 2 3 4 5 6 
#
# 1 84.4993 25.0885 18.6056 0.0000 14.4825 0.0000
# 2 25.0885 94.1437 21.0284 0.0000 13.6825 0.0000
# 3 18.6056 21.0284 94.2090 0.0000 21.7475 0.0000
# 4 0.0000 0.0000 0.0000 13.6156 0.0000 -0.1008
# 5 14.4825 13.6825 21.7475 0.0000 30.6938 0.0000
# 6 0.0000 0.0000 0.0000 -0.1008 0.0000 12.3919
#
#
#
# Elastic Compliance Matrix: (Units=1/GPa)
#
#
# Indices 1 2 3 4 5 6 
#
# 1 0.013649 -0.002753 -0.001049 0.000000 -0.004469 0.000000
# 2 -0.002753 0.012128 -0.001453 0.000000 -0.003078 0.000000
# 3 -0.001049 -0.001453 0.013010 0.000000 -0.008076 0.000000
# 4 0.000000 0.000000 0.000000 0.073450 0.000000 0.000598
# 5 -0.004469 -0.003078 -0.008076 0.000000 0.041782 0.000000
# 6 0.000000 0.000000 0.000000 0.000598 0.000000 0.080703
#
#
# Mechanical properties :
#
#
# Convention : Reuss Voigt Hill
#
# Bulk Modulus (GPa) = 35.36561 44.69968 40.03264
# Shear Modulus (GPa) = 19.63417 25.21555 22.42486
#
# Velocity S-wave (km/s) = 3.10966 3.52404 3.32332
# Velocity P-wave (km/s) = 5.50556 6.21075 5.86876
#
# Compressibility (1/GPa) = 0.02827606
#
# Stress axis : x y z
#
# Youngs Moduli (GPa) = 73.26565 82.45641 76.86167
#
# Poissons Ratio (x) = 0.22704 0.08065
# Poissons Ratio (y) = 0.20173 0.11166
# Poissons Ratio (z) = 0.07688 0.11979
#
# Static dielectric constant tensor:
#      x y z
#    x 3.602810 0.000000 0.249490 
#    y 0.000000 3.555700 0.000000 
#    z 0.249490 0.000000 3.705660 
# 
# 
# High freq. dielectric constant tensor:
#      x y z
#    x 1.789240 0.000000 0.024930 
#    y 0.000000 1.767880 0.000000 
#    z 0.024930 0.000000 1.786780 
# 
# From -- ./inp_files/25391.got.cif
#   From: 2010.06.25/outbox.cif.g09.slc.cpg/sg10_13_cif.got.tgz:25391.got - 2010.06.27 22:07:45.
