data_PCOD8058948
_publ_section_title
;
Structure prediction by ZEFSAII (Michael W. Deem and Ramdas Pophale) SiO2 
 PCOD8058948
Probable space group: P 2/M
;
_chemical_formula_sum "Si O2"
_cell_formula_units_Z 32
_cell_length_a 21.737766
_cell_length_b 9.149937
_cell_length_c 11.103688
_cell_angle_alpha 90.000000
_cell_angle_beta 130.692662
_cell_angle_gamma 90.000000
_cell_volume 1674.535139
_symmetry_space_group_name_H-M "P 2/M"
_symmetry_group_IT_number 10
_symmetry_cell_setting 'monoclinic'
loop_
_space_group_symop_operation_xyz
x,y,z
-x,y,-z
-x,-y,-z
x,-y,z
loop_
_atom_site_type_symbol
_atom_site_label
_atom_site_fract_x
_atom_site_fract_y
_atom_site_fract_z
Si Si1 0.493186 0.671997 0.626266
Si Si2 0.810589 0.664810 0.500389
Si Si3 0.094296 0.836401 0.836100
Si Si4 0.316703 0.668221 0.471619
Si Si5 0.254561 0.834698 0.176606
Si Si6 0.026733 0.331460 0.163706
Si Si7 0.336893 0.672580 0.069259
Si Si8 0.204447 0.827094 0.758483
O O1 0.500000 0.741930 0.500000
O O2 0.495844 0.500000 0.613451
O O3 0.410395 0.720274 0.587349
O O4 0.568113 0.718558 0.807849
O O5 0.819905 0.500000 0.461691
O O6 0.721042 0.685521 0.443375
O O7 0.877776 0.693085 0.689977
O O8 0.822890 0.778386 0.408292
O O9 0.135312 0.776834 0.765175
O O10 0.019320 0.738869 0.781465
O O11 0.061744 0.000000 0.772796
O O12 0.159764 0.832919 0.026221
O O13 0.308516 0.500000 0.417388
O O14 0.264117 0.775804 0.322701
O O15 0.302516 0.723646 0.153039
O O16 0.288603 0.000000 0.206414
O O17 0.002153 0.500000 0.131735
O O18 0.000000 0.262777 0.000000
O O19 0.324432 0.500000 0.038685
O O20 0.290627 0.753158 0.901444
O O21 0.216464 0.000000 0.780821
#
# Coordination Sequence:
#
# PCOD8058948 Si02
#       8
#     4   4   4   4   4   4   4   4
#     4   9  16  29  52  85 114 138 178 225 273 326
#     4  10  22  38  57  81 108 144 188 227 273 328
#     4   9  20  36  54  78 106 143 185 222 266 322
#     4  10  19  34  55  78 109 146 184 227 272 326
#     4  10  19  31  49  79 115 145 179 221 271 330
#     4  10  21  37  57  85 116 140 172 222 275 324
#     4  10  18  32  56  81 109 143 181 226 273 321
#     4  10  22  40  58  78 109 145 188 232 271 322
#
# _framework density 19.109780000000001
#
# number of rings (size 3 to 8) (size 9 to 14) (size 15 to 20)
#    0.000    2.250    1.250    2.625    0.000    5.750 
#    0.000    5.000    0.000    3.750    0.000    0.000 
#    0.000    0.000    0.000    0.000    0.000    0.000 
#
# Total GULP energy -396717.745250 kJ/mol
# GULP energy per Si atom -12397.429539 kJ/mol
# Density = 1.906629 g / cm^3
# Si number density = 19.109780 Si / 1000 Ang^3
#
#
#
# Elastic Constant Matrix: (Units=GPa)
#
#
# Indices 1 2 3 4 5 6 
#
# 1 108.3633 31.6869 44.1662 0.0000 10.3445 0.0000
# 2 31.6869 61.8649 32.0843 0.0000 0.7692 0.0000
# 3 44.1662 32.0843 77.1118 0.0000 -5.6361 0.0000
# 4 0.0000 0.0000 0.0000 25.0559 0.0000 -4.0341
# 5 10.3445 0.7692 -5.6361 0.0000 25.3220 0.0000
# 6 0.0000 0.0000 0.0000 -4.0341 0.0000 18.8993
#
#
#
# Elastic Compliance Matrix: (Units=1/GPa)
#
#
# Indices 1 2 3 4 5 6 
#
# 1 0.013723 -0.003312 -0.006998 0.000000 -0.007063 0.000000
# 2 -0.003312 0.021578 -0.007147 0.000000 -0.000893 0.000000
# 3 -0.006998 -0.007147 0.020509 0.000000 0.007641 0.000000
# 4 0.000000 0.000000 0.000000 0.041331 0.000000 0.008822
# 5 -0.007063 -0.000893 0.007641 0.000000 0.044105 0.000000
# 6 0.000000 0.000000 0.000000 0.008822 0.000000 0.054795
#
#
# Mechanical properties :
#
#
# Convention : Reuss Voigt Hill
#
# Bulk Modulus (GPa) = 47.85503 51.46830 49.66166
# Shear Modulus (GPa) = 21.01553 23.14895 22.08224
#
# Velocity S-wave (km/s) = 3.31981 3.48425 3.40302
# Velocity P-wave (km/s) = 6.30804 6.57100 6.44086
#
# Compressibility (1/GPa) = 0.02089645
#
# Stress axis : x y z
#
# Youngs Moduli (GPa) = 72.86909 46.34370 48.76021
#
# Poissons Ratio (x) = 0.15347 0.34124
# Poissons Ratio (y) = 0.24132 0.34847
# Poissons Ratio (z) = 0.50997 0.33120
#
# Static dielectric constant tensor:
#      x y z
#    x 3.429040 0.000000 0.176830 
#    y 0.000000 3.362290 0.000000 
#    z 0.176830 0.000000 3.499170 
# 
# 
# High freq. dielectric constant tensor:
#      x y z
#    x 1.734270 0.000000 0.010100 
#    y 0.000000 1.729500 0.000000 
#    z 0.010100 0.000000 1.735020 
# 
# From -- ./inp_files/55377.got.cif
#   From: 2010.06.25/outbox.cif.g09.slc.cpg/sg10_28_cif.got.tgz:55377.got - 2010.06.27 22:07:45.
