data_PCOD8058692
_publ_section_title
;
Structure prediction by ZEFSAII (Michael W. Deem and Ramdas Pophale) SiO2 
 PCOD8058692
Probable space group: P 2/M
;
_chemical_formula_sum "Si O2"
_cell_formula_units_Z 28
_cell_length_a 13.484132
_cell_length_b 8.996981
_cell_length_c 20.016453
_cell_angle_alpha 90.000000
_cell_angle_beta 144.684871
_cell_angle_gamma 90.000000
_cell_volume 1403.749727
_symmetry_space_group_name_H-M "P 2/M"
_symmetry_group_IT_number 10
_symmetry_cell_setting 'monoclinic'
loop_
_space_group_symop_operation_xyz
x,y,z
-x,y,-z
-x,-y,-z
x,-y,z
loop_
_atom_site_type_symbol
_atom_site_label
_atom_site_fract_x
_atom_site_fract_y
_atom_site_fract_z
Si Si1 0.507078 0.173758 0.701345
Si Si2 0.609963 0.324168 0.622958
Si Si3 0.553430 0.172568 0.099459
Si Si4 0.999318 0.324010 0.820225
Si Si5 0.126158 0.824727 0.513416
Si Si6 0.067902 0.172246 0.719945
Si Si7 0.714460 0.824460 0.942005
O O1 0.529067 0.262447 0.645736
O O2 0.324455 0.217970 0.634818
O O3 0.660593 0.214757 0.836584
O O4 0.507413 0.000000 0.684606
O O5 0.500000 0.263255 0.500000
O O6 0.600570 0.500000 0.620981
O O7 0.804801 0.268626 0.722424
O O8 0.754363 0.197350 0.222416
O O9 0.438852 0.239882 0.095837
O O10 0.506535 0.000000 0.070593
O O11 0.500000 0.248319 0.000000
O O12 0.013828 0.500000 0.830418
O O13 0.068206 0.267601 0.787186
O O14 0.109275 0.256623 0.941690
O O15 0.000000 0.752090 0.500000
O O16 0.076296 0.770875 0.411051
O O17 0.097528 0.000000 0.499786
O O18 0.045563 0.000000 0.728173
O O19 0.740998 0.000000 0.964833
#
# Coordination Sequence:
#
# PCOD8058692 Si02
#       7
#     4   4   4   4   4   4   4
#     4  10  21  36  58  87 114 142 179 229 274 316
#     4  10  23  43  62  78 104 145 185 224 277 335
#     4   9  15  27  50  78 108 146 184 211 252 322
#     4  11  23  37  55  80 107 139 185 233 273 320
#     4   9  17  31  54  86 117 142 176 222 271 323
#     4  10  18  31  55  82 110 146 183 223 271 321
#     4  10  20  36  56  81 115 148 181 219 270 330
#
# _framework density 19.946577000000001
#
# number of rings (size 3 to 8) (size 9 to 14) (size 15 to 20)
#    0.000    2.143    1.429    2.143    0.000    6.000 
#    0.000    4.286    0.000    3.429    0.000    0.000 
#    0.000    0.000    0.000    0.000    0.000    0.000 
#
# Total GULP energy -347154.243167 kJ/mol
# GULP energy per Si atom -12398.365827 kJ/mol
# Density = 1.990118 g / cm^3
# Si number density = 19.946577 Si / 1000 Ang^3
#
#
#
# Elastic Constant Matrix: (Units=GPa)
#
#
# Indices 1 2 3 4 5 6 
#
# 1 99.5077 20.4014 47.4496 0.0000 -3.6071 0.0000
# 2 20.4014 27.8187 31.8788 0.0000 0.2913 0.0000
# 3 47.4496 31.8788 156.4976 0.0000 -2.6725 0.0000
# 4 0.0000 0.0000 0.0000 23.0807 0.0000 -1.3062
# 5 -3.6071 0.2913 -2.6725 0.0000 31.5776 0.0000
# 6 0.0000 0.0000 0.0000 -1.3062 0.0000 6.3525
#
#
#
# Elastic Compliance Matrix: (Units=1/GPa)
#
#
# Indices 1 2 3 4 5 6 
#
# 1 0.012596 -0.006392 -0.002495 0.000000 0.001287 0.000000
# 2 -0.006392 0.050186 -0.008317 0.000000 -0.001897 0.000000
# 3 -0.002495 -0.008317 0.008850 0.000000 0.000541 0.000000
# 4 0.000000 0.000000 0.000000 0.043836 0.000000 0.009013
# 5 0.001287 -0.001897 0.000541 0.000000 0.031878 0.000000
# 6 0.000000 0.000000 0.000000 0.009013 0.000000 0.159271
#
#
# Mechanical properties :
#
#
# Convention : Reuss Voigt Hill
#
# Bulk Modulus (GPa) = 26.86492 53.69816 40.28154
# Shear Modulus (GPa) = 14.14687 24.47510 19.31099
#
# Velocity S-wave (km/s) = 2.66604 3.50670 3.11486
# Velocity P-wave (km/s) = 4.79319 6.58600 5.75978
#
# Compressibility (1/GPa) = 0.03722327
#
# Stress axis : x y z
#
# Youngs Moduli (GPa) = 79.38764 19.92592 112.99580
#
# Poissons Ratio (x) = 0.12737 0.28194
# Poissons Ratio (y) = 0.50744 0.93982
# Poissons Ratio (z) = 0.19809 0.16573
#
# Static dielectric constant tensor:
#      x y z
#    x 3.614520 0.000000 0.039740 
#    y 0.000000 3.153430 0.000000 
#    z 0.039740 0.000000 3.893050 
# 
# 
# High freq. dielectric constant tensor:
#      x y z
#    x 1.778900 0.000000 -0.000250 
#    y 0.000000 1.727100 0.000000 
#    z -0.000250 0.000000 1.798390 
# 
# From -- ./inp_files/84964.got.cif
#   From: 2010.06.25/outbox.cif.g09.slc.cpg/sg10_43_cif.got.tgz:84964.got - 2010.06.27 22:07:45.
