data_PCOD8058379
_publ_section_title
;
Structure prediction by ZEFSAII (Michael W. Deem and Ramdas Pophale) SiO2 
 PCOD8058379
Probable space group: P 2/M
;
_chemical_formula_sum "Si O2"
_cell_formula_units_Z 32
_cell_length_a 14.223430
_cell_length_b 9.161799
_cell_length_c 19.491338
_cell_angle_alpha 90.000000
_cell_angle_beta 46.500057
_cell_angle_gamma 90.000000
_cell_volume 1842.423095
_symmetry_space_group_name_H-M "P 2/M"
_symmetry_group_IT_number 10
_symmetry_cell_setting 'monoclinic'
loop_
_space_group_symop_operation_xyz
x,y,z
-x,y,-z
-x,-y,-z
x,-y,z
loop_
_atom_site_type_symbol
_atom_site_label
_atom_site_fract_x
_atom_site_fract_y
_atom_site_fract_z
Si Si1 0.258324 0.834350 0.043148
Si Si2 0.957997 0.167299 0.205107
Si Si3 0.124865 0.671437 0.475925
Si Si4 0.974958 0.671586 0.330274
Si Si5 0.754376 0.829728 0.796167
Si Si6 0.360863 0.669319 0.268018
Si Si7 0.130405 0.170813 0.898314
Si Si8 0.652700 0.331976 0.128422
O O1 0.303164 0.807035 0.098679
O O2 0.106322 0.800969 0.111566
O O3 0.287811 0.000000 0.005693
O O4 0.334870 0.726201 0.955285
O O5 0.912378 0.267113 0.291567
O O6 0.872527 0.204034 0.181417
O O7 0.941810 0.000000 0.236198
O O8 0.120009 0.500000 0.467100
O O9 0.122094 0.708703 0.558263
O O10 0.258141 0.730325 0.375625
O O11 0.000000 0.741262 0.500000
O O12 0.998722 0.500000 0.310734
O O13 0.110383 0.746890 0.279688
O O14 0.651691 0.763134 0.794988
O O15 0.778005 0.000000 0.769655
O O16 0.335593 0.500000 0.262697
O O17 0.504342 0.690841 0.226597
O O18 0.256563 0.247866 0.864336
O O19 0.142649 0.000000 0.907614
O O20 0.000000 0.231105 0.000000
O O21 0.693193 0.500000 0.108788
#
# Coordination Sequence:
#
# PCOD8058379 Si02
#       8
#     4   4   4   4   4   4   4   4
#     4   9  18  34  51  69 102 142 175 201 244 312
#     4   9  18  33  53  77 103 133 168 210 254 299
#     4   9  16  31  55  76  98 137 176 205 250 312
#     4  10  18  30  53  80 104 133 168 211 259 304
#     4  10  20  33  50  74 103 138 176 211 248 298
#     4  10  21  37  52  72 105 139 173 212 259 307
#     4  10  19  36  58  75  99 139 176 205 250 312
#     4  11  23  34  50  78 107 133 168 221 263 293
#
# _framework density 17.368431999999999
#
# number of rings (size 3 to 8) (size 9 to 14) (size 15 to 20)
#    0.000    2.250    2.500    1.875    0.000    4.750 
#    0.000    4.375    0.000    0.750    0.000    5.250 
#    0.000    0.000    0.000    0.000    0.000    0.000 
#
# Total GULP energy -396783.210560 kJ/mol
# GULP energy per Si atom -12399.475330 kJ/mol
# Density = 1.732890 g / cm^3
# Si number density = 17.368432 Si / 1000 Ang^3
#
#
#
# Elastic Constant Matrix: (Units=GPa)
#
#
# Indices 1 2 3 4 5 6 
#
# 1 105.7054 51.9785 60.9182 0.0000 4.2585 0.0000
# 2 51.9785 76.1278 43.7272 0.0000 5.7845 0.0000
# 3 60.9182 43.7272 96.1395 0.0000 4.4360 0.0000
# 4 0.0000 0.0000 0.0000 9.6737 0.0000 8.6548
# 5 4.2585 5.7845 4.4360 0.0000 19.5227 0.0000
# 6 0.0000 0.0000 0.0000 8.6548 0.0000 30.1442
#
#
#
# Elastic Compliance Matrix: (Units=1/GPa)
#
#
# Indices 1 2 3 4 5 6 
#
# 1 0.017659 -0.007632 -0.007726 0.000000 0.000165 0.000000
# 2 -0.007632 0.021315 -0.004693 0.000000 -0.003584 0.000000
# 3 -0.007726 -0.004693 0.017473 0.000000 -0.000894 0.000000
# 4 0.000000 0.000000 0.000000 0.139105 0.000000 -0.039939
# 5 0.000165 -0.003584 -0.000894 0.000000 0.052452 0.000000
# 6 0.000000 0.000000 0.000000 -0.039939 0.000000 0.044641
#
#
# Mechanical properties :
#
#
# Convention : Reuss Voigt Hill
#
# Bulk Modulus (GPa) = 61.18277 65.69118 63.43697
# Shear Modulus (GPa) = 14.78436 19.95805 17.37120
#
# Velocity S-wave (km/s) = 2.92073 3.39351 3.16596
# Velocity P-wave (km/s) = 6.83207 7.29787 7.06880
#
# Compressibility (1/GPa) = 0.01634447
#
# Stress axis : x y z
#
# Youngs Moduli (GPa) = 56.62877 46.91543 57.23157
#
# Poissons Ratio (x) = 0.35806 0.44216
# Poissons Ratio (y) = 0.43219 0.26861
# Poissons Ratio (z) = 0.43750 0.22019
#
# Static dielectric constant tensor:
#      x y z
#    x 3.198040 0.000000 0.154730 
#    y 0.000000 3.181130 0.000000 
#    z 0.154730 0.000000 3.256630 
# 
# 
# High freq. dielectric constant tensor:
#      x y z
#    x 1.662590 0.000000 0.015260 
#    y 0.000000 1.663990 0.000000 
#    z 0.015260 0.000000 1.656780 
# 
# From -- ./inp_files/84698.got.cif
#   From: 2010.06.25/outbox.cif.g09.slc.cpg/sg10_43_cif.got.tgz:84698.got - 2010.06.27 22:07:45.
