data_PCOD8058586
_publ_section_title
;
Structure prediction by ZEFSAII (Michael W. Deem and Ramdas Pophale) SiO2 
 PCOD8058586
Probable space group: P 2/M
;
_chemical_formula_sum "Si O2"
_cell_formula_units_Z 28
_cell_length_a 28.179136
_cell_length_b 9.079656
_cell_length_c 9.967925
_cell_angle_alpha 90.000000
_cell_angle_beta 142.816347
_cell_angle_gamma 90.000000
_cell_volume 1541.366959
_symmetry_space_group_name_H-M "P 2/M"
_symmetry_group_IT_number 10
_symmetry_cell_setting 'monoclinic'
loop_
_space_group_symop_operation_xyz
x,y,z
-x,y,-z
-x,-y,-z
x,-y,z
loop_
_atom_site_type_symbol
_atom_site_label
_atom_site_fract_x
_atom_site_fract_y
_atom_site_fract_z
Si Si1 0.946428 0.327124 0.755066
Si Si2 0.376916 0.670935 0.591339
Si Si3 0.800148 0.329018 0.804680
Si Si4 0.195666 0.828584 0.458203
Si Si5 0.507477 0.673275 0.672574
Si Si6 0.376220 0.827331 0.868416
Si Si7 0.042414 0.673959 0.721894
O O1 0.930350 0.500000 0.711184
O O2 0.861659 0.248558 0.564593
O O3 0.995339 0.263440 0.741641
O O4 0.000000 0.283244 0.000000
O O5 0.386918 0.500000 0.650304
O O6 0.287885 0.708723 0.345382
O O7 0.429386 0.714532 0.581233
O O8 0.401393 0.758771 0.781041
O O9 0.807391 0.500000 0.779972
O O10 0.824392 0.234630 0.732035
O O11 0.864251 0.288107 0.063169
O O12 0.285695 0.793253 0.696629
O O13 0.178615 0.000000 0.419376
O O14 0.500000 0.725172 0.500000
O O15 0.524686 0.500000 0.716193
O O16 0.578400 0.757035 0.904315
O O17 0.394188 0.000000 0.900754
O O18 0.031954 0.500000 0.694257
O O19 0.000000 0.748864 0.500000
#
# Coordination Sequence:
#
# PCOD8058586 Si02
#       7
#     4   4   4   4   4   4   4
#     4  10  18  31  52  77 101 131 172 211 253 302
#     4   9  18  33  56  80 102 135 174 216 263 308
#     4   9  16  31  53  74 101 133 171 213 255 300
#     4  10  20  33  51  77 105 132 170 215 258 299
#     4  10  21  37  54  79 112 139 169 211 262 317
#     4  10  21  36  55  79 105 137 178 217 256 309
#     4   9  17  30  48  74 104 132 167 211 251 297
#
# _framework density 18.165693000000001
#
# number of rings (size 3 to 8) (size 9 to 14) (size 15 to 20)
#    0.000    2.429    1.429    1.286    0.000    4.571 
#    2.571    0.000    0.000    1.714    0.000    0.000 
#    0.000    0.000    0.000    0.000    0.000    0.000 
#
# Total GULP energy -347085.868309 kJ/mol
# GULP energy per Si atom -12395.923868 kJ/mol
# Density = 1.812435 g / cm^3
# Si number density = 18.165693 Si / 1000 Ang^3
#
#
#
# Elastic Constant Matrix: (Units=GPa)
#
#
# Indices 1 2 3 4 5 6 
#
# 1 115.9042 39.5662 77.2527 0.0000 -2.0884 0.0000
# 2 39.5662 48.4979 46.3620 0.0000 1.3138 0.0000
# 3 77.2527 46.3620 152.4641 0.0000 -6.9253 0.0000
# 4 0.0000 0.0000 0.0000 18.1242 0.0000 8.6400
# 5 -2.0884 1.3138 -6.9253 0.0000 29.6007 0.0000
# 6 0.0000 0.0000 0.0000 8.6400 0.0000 14.8242
#
#
#
# Elastic Compliance Matrix: (Units=1/GPa)
#
#
# Indices 1 2 3 4 5 6 
#
# 1 0.014441 -0.006757 -0.005258 0.000000 0.000088 0.000000
# 2 -0.006757 0.032573 -0.006639 0.000000 -0.003476 0.000000
# 3 -0.005258 -0.006639 0.011359 0.000000 0.002581 0.000000
# 4 0.000000 0.000000 0.000000 0.076403 0.000000 -0.044530
# 5 0.000088 -0.003476 0.002581 0.000000 0.034547 0.000000
# 6 0.000000 0.000000 0.000000 -0.044530 0.000000 0.093411
#
#
# Mechanical properties :
#
#
# Convention : Reuss Voigt Hill
#
# Bulk Modulus (GPa) = 47.47373 71.46977 59.47175
# Shear Modulus (GPa) = 16.28325 22.75550 19.51937
#
# Velocity S-wave (km/s) = 2.99720 3.54314 3.28154
# Velocity P-wave (km/s) = 6.17803 7.49447 6.86787
#
# Compressibility (1/GPa) = 0.02106428
#
# Stress axis : x y z
#
# Youngs Moduli (GPa) = 69.24803 30.70050 88.03268
#
# Poissons Ratio (x) = 0.20744 0.46291
# Poissons Ratio (y) = 0.46790 0.58446
# Poissons Ratio (z) = 0.36413 0.20382
#
# Static dielectric constant tensor:
#      x y z
#    x 3.532300 0.000000 0.111320 
#    y 0.000000 3.179680 0.000000 
#    z 0.111320 0.000000 3.499730 
# 
# 
# High freq. dielectric constant tensor:
#      x y z
#    x 1.701330 0.000000 0.018310 
#    y 0.000000 1.683360 0.000000 
#    z 0.018310 0.000000 1.704530 
# 
# From -- ./inp_files/37245.got.cif
#   From: 2010.06.25/outbox.cif.g09.slc.cpg/sg10_19_cif.got.tgz:37245.got - 2010.06.27 22:07:45.
