data_PCOD8058716
_publ_section_title
;
Structure prediction by ZEFSAII (Michael W. Deem and Ramdas Pophale) SiO2 
 PCOD8058716
Probable space group: P 2/M
;
_chemical_formula_sum "Si O2"
_cell_formula_units_Z 20
_cell_length_a 7.840393
_cell_length_b 22.726502
_cell_length_c 5.310606
_cell_angle_alpha 90.000000
_cell_angle_beta 108.324802
_cell_angle_gamma 90.000000
_cell_volume 898.282983
_symmetry_space_group_name_H-M "P 2/M"
_symmetry_group_IT_number 10
_symmetry_cell_setting 'monoclinic'
loop_
_space_group_symop_operation_xyz
x,y,z
-x,y,-z
-x,-y,-z
x,-y,z
loop_
_atom_site_type_symbol
_atom_site_label
_atom_site_fract_x
_atom_site_fract_y
_atom_site_fract_z
Si Si1 0.303977 0.822234 0.659057
Si Si2 0.789303 0.624622 0.901171
Si Si3 0.616443 0.500000 0.804407
Si Si4 0.616937 0.000000 0.804367
Si Si5 0.785079 0.309804 0.399303
Si Si6 0.708092 0.128670 0.846275
O O1 0.316195 0.752135 0.662795
O O2 0.198906 0.844401 0.360500
O O3 0.499144 0.852478 0.749589
O O4 0.199227 0.843918 0.861420
O O5 0.742066 0.556587 0.863464
O O6 0.714733 0.658146 0.619624
O O7 0.716065 0.652710 0.127018
O O8 0.000000 0.630914 0.000000
O O9 0.500000 0.500000 0.500000
O O10 0.500000 0.500000 0.000000
O O11 0.500000 0.000000 0.500000
O O12 0.737839 0.941484 0.860841
O O13 0.500000 0.000000 0.000000
O O14 0.000000 0.301011 0.500000
#
# Coordination Sequence:
#
# PCOD8058716 Si02
#       6
#     4   4   2   2   4   4
#     4  10  18  32  46  76 109 133 175 218 273 329
#     4  10  22  43  65  84 111 159 201 228 273 347
#     4  12  25  44  61  94 126 144 188 242 301 330
#     4  12  16  30  48  70 106 138 182 228 260 338
#     4  10  21  38  60  83 108 147 196 229 266 327
#     4  10  19  30  48  77 105 140 178 217 285 337
#
# _framework density 22.264699
#
# number of rings (size 3 to 8) (size 9 to 14) (size 15 to 20)
#    0.000    1.600    4.000    2.700    0.000    0.000 
#   21.600    4.000    0.000    0.000    0.000    7.700 
#    0.000    0.000    0.000    0.000    0.000    0.000 
#
# Total GULP energy -247929.999531 kJ/mol
# GULP energy per Si atom -12396.499977 kJ/mol
# Density = 2.221402 g / cm^3
# Si number density = 22.264699 Si / 1000 Ang^3
#
#
#
# Elastic Constant Matrix: (Units=GPa)
#
#
# Indices 1 2 3 4 5 6 
#
# 1 8.1660 7.9570 25.8804 0.0000 -2.0607 0.0000
# 2 7.9570 222.1091 85.1515 0.0000 -18.9341 0.0000
# 3 25.8804 85.1515 220.0493 0.0000 -67.4126 0.0000
# 4 0.0000 0.0000 0.0000 42.6196 0.0000 -16.8570
# 5 -2.0607 -18.9341 -67.4126 0.0000 27.0160 0.0000
# 6 0.0000 0.0000 0.0000 -16.8570 0.0000 0.7810
#
#
#
# Elastic Compliance Matrix: (Units=1/GPa)
#
#
# Indices 1 2 3 4 5 6 
#
# 1 -1.425639 -0.068105 0.620167 0.000000 1.391016 0.000000
# 2 -0.068105 0.002268 0.025589 0.000000 0.060246 0.000000
# 3 0.620167 0.025589 -0.247535 0.000000 -0.552430 0.000000
# 4 0.000000 0.000000 0.000000 -0.003113 0.000000 -0.067193
# 5 1.391016 0.060246 -0.552430 0.000000 -1.193126 0.000000
# 6 0.000000 0.000000 0.000000 -0.067193 0.000000 -0.169885
#
#
# Mechanical properties :
#
#
# Convention : Reuss Voigt Hill
#
# Bulk Modulus (GPa) = -1.93947 76.47802 37.26927
# Shear Modulus (GPa) = -1.14568 36.17236 17.51334
#
# Velocity S-wave (km/s) = -0.71812 4.03507 2.80768
# Velocity P-wave (km/s) = 1.24923 7.49220 5.22362
#
# Compressibility (1/GPa) = -0.51560377
#
# Stress axis : x y z
#
# Youngs Moduli (GPa) = -0.70144 440.97052 -4.03983
#
# Poissons Ratio (x) = 30.03222 2.50537
# Poissons Ratio (y) = -0.04777 0.10337
# Poissons Ratio (z) = 0.43501 -11.28393
#
# Static dielectric constant tensor:
#      x y z
#    x 3.614290 0.000000 -0.883720 
#    y 0.000000 4.431210 0.000000 
#    z -0.883720 0.000000 5.971340 
# 
# 
# High freq. dielectric constant tensor:
#      x y z
#    x 1.832240 0.000000 -0.027400 
#    y 0.000000 1.890500 0.000000 
#    z -0.027400 0.000000 1.908660 
# 
# From -- ./inp_files/4848.got.cif
#   From: 2010.06.25/outbox.cif.g09.slc.cpg/sg10_3_cif.got.tgz:4848.got - 2010.06.27 22:07:45.
