data_PCOD8058682
_publ_section_title
;
Structure prediction by ZEFSAII (Michael W. Deem and Ramdas Pophale) SiO2 
 PCOD8058682
Probable space group: P 2/M
;
_chemical_formula_sum "Si O2"
_cell_formula_units_Z 32
_cell_length_a 11.638298
_cell_length_b 14.157680
_cell_length_c 11.813558
_cell_angle_alpha 90.000000
_cell_angle_beta 104.882883
_cell_angle_gamma 90.000000
_cell_volume 1881.234592
_symmetry_space_group_name_H-M "P 2/M"
_symmetry_group_IT_number 10
_symmetry_cell_setting 'monoclinic'
loop_
_space_group_symop_operation_xyz
x,y,z
-x,y,-z
-x,-y,-z
x,-y,z
loop_
_atom_site_type_symbol
_atom_site_label
_atom_site_fract_x
_atom_site_fract_y
_atom_site_fract_z
Si Si1 0.618445 0.392223 0.459993
Si Si2 0.046360 0.736953 0.131102
Si Si3 0.482141 0.105211 0.127080
Si Si4 0.409966 0.287347 0.777711
Si Si5 0.212937 0.262367 0.902055
Si Si6 0.639858 0.392060 0.896725
Si Si7 0.213204 0.892837 0.069260
Si Si8 0.228904 0.394237 0.294342
O O1 0.500000 0.379462 0.500000
O O2 0.633018 0.500000 0.422084
O O3 0.617508 0.324998 0.352681
O O4 0.725410 0.362150 0.570815
O O5 0.119144 0.834540 0.123832
O O6 0.123612 0.670649 0.227647
O O7 0.924480 0.739972 0.171190
O O8 0.000000 0.693693 0.000000
O O9 0.553900 0.177847 0.223232
O O10 0.349062 0.107687 0.146221
O O11 0.534922 0.000000 0.154211
O O12 0.500000 0.136722 0.000000
O O13 0.286943 0.293237 0.813038
O O14 0.509512 0.344832 0.875264
O O15 0.254909 0.332541 0.015587
O O16 0.228662 0.154988 0.949821
O O17 0.637893 0.500000 0.942374
O O18 0.663411 0.390092 0.768262
O O19 0.165036 0.000000 0.046774
O O20 0.178538 0.500000 0.288324
#
# Coordination Sequence:
#
# PCOD8058682 Si02
#       8
#     4   4   4   4   4   4   4   4
#     4  10  21  36  56  79 103 143 194 229 263 321
#     4  10  20  35  53  79 109 142 185 224 269 331
#     4  10  18  31  54  84 117 145 170 214 281 339
#     4  12  20  34  54  78 111 145 178 223 274 324
#     4  11  22  33  49  83 113 140 177 224 279 329
#     4  11  20  32  52  78 110 141 172 221 281 331
#     4  10  19  34  54  80 114 147 178 217 268 331
#     4  10  19  35  56  77 105 143 185 229 270 315
#
# _framework density 17.010104999999999
#
# number of rings (size 3 to 8) (size 9 to 14) (size 15 to 20)
#    0.000    1.500    6.250    0.750    0.000    4.500 
#    0.000    0.625    0.000    2.625    0.000    0.000 
#    0.000    6.000    0.000    0.000    0.000    0.000 
#
# Total GULP energy -396429.027642 kJ/mol
# GULP energy per Si atom -12388.407114 kJ/mol
# Density = 1.697139 g / cm^3
# Si number density = 17.010105 Si / 1000 Ang^3
#
#
#
# Elastic Constant Matrix: (Units=GPa)
#
#
# Indices 1 2 3 4 5 6 
#
# 1 117.2058 58.7367 45.6612 0.0000 -13.0302 0.0000
# 2 58.7367 134.9836 78.3930 0.0000 -4.9673 0.0000
# 3 45.6612 78.3930 103.2079 0.0000 -5.8333 0.0000
# 4 0.0000 0.0000 0.0000 24.7273 0.0000 -1.4112
# 5 -13.0302 -4.9673 -5.8333 0.0000 44.6540 0.0000
# 6 0.0000 0.0000 0.0000 -1.4112 0.0000 16.0944
#
#
#
# Elastic Compliance Matrix: (Units=1/GPa)
#
#
# Indices 1 2 3 4 5 6 
#
# 1 0.011501 -0.003648 -0.002166 0.000000 0.002667 0.000000
# 2 -0.003648 0.014414 -0.009373 0.000000 -0.000686 0.000000
# 3 -0.002166 -0.009373 0.017804 0.000000 0.000651 0.000000
# 4 0.000000 0.000000 0.000000 0.040645 0.000000 0.003564
# 5 0.002667 -0.000686 0.000651 0.000000 0.023181 0.000000
# 6 0.000000 0.000000 0.000000 0.003564 0.000000 0.062446
#
#
# Mechanical properties :
#
#
# Convention : Reuss Voigt Hill
#
# Bulk Modulus (GPa) = 74.94361 80.10878 77.52620
# Shear Modulus (GPa) = 24.41242 28.60223 26.50733
#
# Velocity S-wave (km/s) = 3.79248 4.10504 3.95185
# Velocity P-wave (km/s) = 7.95808 8.34659 8.15465
#
# Compressibility (1/GPa) = 0.01334337
#
# Stress axis : x y z
#
# Youngs Moduli (GPa) = 86.95094 69.37662 56.16726
#
# Poissons Ratio (x) = 0.25309 0.12168
# Poissons Ratio (y) = 0.31721 0.52647
# Poissons Ratio (z) = 0.18837 0.65028
#
# Static dielectric constant tensor:
#      x y z
#    x 3.394430 0.000000 0.076560 
#    y 0.000000 3.287180 0.000000 
#    z 0.076560 0.000000 2.963180 
# 
# 
# High freq. dielectric constant tensor:
#      x y z
#    x 1.662870 0.000000 0.006110 
#    y 0.000000 1.658030 0.000000 
#    z 0.006110 0.000000 1.616480 
# 
# From -- ./inp_files/47433.got.cif
#   From: 2010.06.25/outbox.cif.g09.slc.cpg/sg10_24_cif.got.tgz:47433.got - 2010.06.27 22:07:45.
