data_PCOD8058417
_publ_section_title
;
Structure prediction by ZEFSAII (Michael W. Deem and Ramdas Pophale) SiO2 
 PCOD8058417
Probable space group: P 2/M
;
_chemical_formula_sum "Si O2"
_cell_formula_units_Z 32
_cell_length_a 12.267544
_cell_length_b 9.031232
_cell_length_c 22.055582
_cell_angle_alpha 90.000000
_cell_angle_beta 133.672134
_cell_angle_gamma 90.000000
_cell_volume 1767.435021
_symmetry_space_group_name_H-M "P 2/M"
_symmetry_group_IT_number 10
_symmetry_cell_setting 'monoclinic'
loop_
_space_group_symop_operation_xyz
x,y,z
-x,y,-z
-x,-y,-z
x,-y,z
loop_
_atom_site_type_symbol
_atom_site_label
_atom_site_fract_x
_atom_site_fract_y
_atom_site_fract_z
Si Si1 0.118803 0.325190 0.729318
Si Si2 0.120077 0.675117 0.592889
Si Si3 0.276444 0.173258 0.232012
Si Si4 0.540331 0.675279 0.281513
Si Si5 0.753129 0.327909 0.025041
Si Si6 0.993261 0.824172 0.200551
Si Si7 0.828404 0.840194 0.939243
Si Si8 0.454865 0.674005 0.852263
O O1 0.101052 0.500000 0.733830
O O2 0.075072 0.279813 0.644103
O O3 0.007879 0.237326 0.731631
O O4 0.289879 0.269282 0.808287
O O5 0.116633 0.500000 0.586622
O O6 0.288217 0.728805 0.640898
O O7 0.000000 0.746699 0.500000
O O8 0.438935 0.254397 0.296860
O O9 0.222518 0.218703 0.145006
O O10 0.149837 0.232305 0.230439
O O11 0.300441 0.000000 0.251034
O O12 0.524811 0.500000 0.280022
O O13 0.495680 0.734164 0.195884
O O14 0.777099 0.500000 0.049268
O O15 0.843682 0.234336 0.109094
O O16 0.809995 0.291337 0.979848
O O17 0.573969 0.286705 0.951614
O O18 0.986405 0.000000 0.196340
O O19 0.749976 0.000000 0.926796
O O20 0.000000 0.879329 0.000000
O O21 0.440713 0.500000 0.837671
#
# Coordination Sequence:
#
# PCOD8058417 Si02
#       8
#     4   4   4   4   4   4   4   4
#     4   9  18  35  55  74  98 129 166 201 242 300
#     4   8  15  31  59  89 110 126 147 190 254 309
#     4  10  20  32  47  66  97 138 170 206 253 295
#     4   9  16  29  51  79 105 126 159 204 246 295
#     4  11  20  30  47  70  95 129 174 218 256 292
#     4  11  23  37  47  64  99 140 178 210 249 292
#     4  10  18  31  45  62  93 133 173 215 260 293
#     4   8  16  30  47  69  98 127 158 208 260 290
#
# _framework density 18.105333999999999
#
# number of rings (size 3 to 8) (size 9 to 14) (size 15 to 20)
#    0.000    2.500    2.500    2.250    0.000    1.750 
#    0.000    6.250    0.000    2.250    0.000    5.250 
#    0.000    0.000    0.000    0.000    0.000    0.000 
#
# Total GULP energy -396439.644243 kJ/mol
# GULP energy per Si atom -12388.738883 kJ/mol
# Density = 1.806413 g / cm^3
# Si number density = 18.105334 Si / 1000 Ang^3
#
#
#
# Elastic Constant Matrix: (Units=GPa)
#
#
# Indices 1 2 3 4 5 6 
#
# 1 118.8774 31.1875 55.2382 0.0000 -4.7578 0.0000
# 2 31.1875 39.0825 25.8489 0.0000 -1.3455 0.0000
# 3 55.2382 25.8489 97.1806 0.0000 2.3209 0.0000
# 4 0.0000 0.0000 0.0000 12.2040 0.0000 -4.0494
# 5 -4.7578 -1.3455 2.3209 0.0000 17.4960 0.0000
# 6 0.0000 0.0000 0.0000 -4.0494 0.0000 21.0824
#
#
#
# Elastic Compliance Matrix: (Units=1/GPa)
#
#
# Indices 1 2 3 4 5 6 
#
# 1 0.012895 -0.006374 -0.005725 0.000000 0.003776 0.000000
# 2 -0.006374 0.034414 -0.005570 0.000000 0.001652 0.000000
# 3 -0.005725 -0.005570 0.015121 0.000000 -0.003991 0.000000
# 4 0.000000 0.000000 0.000000 0.087518 0.000000 0.016810
# 5 0.003776 0.001652 -0.003991 0.000000 0.058839 0.000000
# 6 0.000000 0.000000 0.000000 0.016810 0.000000 0.050662
#
#
# Mechanical properties :
#
#
# Convention : Reuss Voigt Hill
#
# Bulk Modulus (GPa) = 36.91010 53.29885 45.10448
# Shear Modulus (GPa) = 16.45718 19.68086 18.06902
#
# Velocity S-wave (km/s) = 3.01818 3.30058 3.16253
# Velocity P-wave (km/s) = 5.70758 6.63530 6.18885
#
# Compressibility (1/GPa) = 0.02709286
#
# Stress axis : x y z
#
# Youngs Moduli (GPa) = 77.54669 29.05763 66.13353
#
# Poissons Ratio (x) = 0.18522 0.37859
# Poissons Ratio (y) = 0.49430 0.36837
# Poissons Ratio (z) = 0.44392 0.16185
#
# Static dielectric constant tensor:
#      x y z
#    x 3.510120 0.000000 0.197080 
#    y 0.000000 3.103910 0.000000 
#    z 0.197080 0.000000 3.457430 
# 
# 
# High freq. dielectric constant tensor:
#      x y z
#    x 1.702070 0.000000 0.008860 
#    y 0.000000 1.676070 0.000000 
#    z 0.008860 0.000000 1.672680 
# 
# From -- ./inp_files/80003.got.cif
#   From: 2010.06.25/outbox.cif.g09.slc.cpg/sg10_41_cif.got.tgz:80003.got - 2010.06.27 22:07:45.
