data_PCOD8058564
_publ_section_title
;
Structure prediction by ZEFSAII (Michael W. Deem and Ramdas Pophale) SiO2 
 PCOD8058564
Probable space group: P 2/M
;
_chemical_formula_sum "Si O2"
_cell_formula_units_Z 28
_cell_length_a 10.346579
_cell_length_b 8.783194
_cell_length_c 28.143390
_cell_angle_alpha 90.000000
_cell_angle_beta 145.235274
_cell_angle_gamma 90.000000
_cell_volume 1458.340405
_symmetry_space_group_name_H-M "P 2/M"
_symmetry_group_IT_number 10
_symmetry_cell_setting 'monoclinic'
loop_
_space_group_symop_operation_xyz
x,y,z
-x,y,-z
-x,-y,-z
x,-y,z
loop_
_atom_site_type_symbol
_atom_site_label
_atom_site_fract_x
_atom_site_fract_y
_atom_site_fract_z
Si Si1 0.649286 0.319370 0.783479
Si Si2 0.494633 0.679302 0.053142
Si Si3 0.927720 0.319355 0.243342
Si Si4 0.871226 0.681412 0.507497
Si Si5 0.946584 0.179756 0.036981
Si Si6 0.819453 0.318535 0.314612
Si Si7 0.618422 0.681216 0.666460
O O1 0.670931 0.500000 0.791693
O O2 0.430624 0.261673 0.746572
O O3 0.624563 0.259962 0.722279
O O4 0.874659 0.249710 0.872949
O O5 0.450426 0.500000 0.044657
O O6 0.732517 0.729523 0.147840
O O7 0.500000 0.730152 0.000000
O O8 0.301645 0.765975 0.023511
O O9 0.941175 0.500000 0.250537
O O10 0.877510 0.251493 0.280351
O O11 0.166334 0.252058 0.296976
O O12 0.879862 0.500000 0.509460
O O13 0.611456 0.739305 0.428322
O O14 0.000000 0.744796 0.500000
O O15 0.995098 0.744416 0.591990
O O16 0.960279 0.000000 0.044265
O O17 0.000000 0.237913 0.000000
O O18 0.823819 0.500000 0.315946
O O19 0.625592 0.500000 0.668674
#
# Coordination Sequence:
#
# PCOD8058564 Si02
#       7
#     4   4   4   4   4   4   4
#     4  10  18  31  52  73  94 129 172 210 251 300
#     4  10  20  36  57  78 103 137 177 219 263 313
#     4   9  17  27  40  65  96 125 161 205 250 295
#     4   9  14  23  38  62  96 130 162 195 239 295
#     4  11  24  38  52  75 106 137 173 218 266 315
#     4   9  16  25  41  66  96 128 163 203 246 295
#     4   9  16  26  43  67  96 126 160 202 244 294
#
# _framework density 19.199907
#
# number of rings (size 3 to 8) (size 9 to 14) (size 15 to 20)
#    0.000    2.429    1.429    2.143    0.000    5.429 
#    0.000    2.857    0.000    0.000    0.000    2.000 
#    0.000    0.000    0.000    9.143    0.000    9.143 
#
# Total GULP energy -347189.343321 kJ/mol
# GULP energy per Si atom -12399.619404 kJ/mol
# Density = 1.915621 g / cm^3
# Si number density = 19.199907 Si / 1000 Ang^3
#
#
#
# Elastic Constant Matrix: (Units=GPa)
#
#
# Indices 1 2 3 4 5 6 
#
# 1 161.2888 8.8101 63.8564 0.0000 5.9925 0.0000
# 2 8.8101 11.1344 6.2224 0.0000 -0.6469 0.0000
# 3 63.8564 6.2224 143.2884 0.0000 6.7272 0.0000
# 4 0.0000 0.0000 0.0000 -2.9240 0.0000 -2.3713
# 5 5.9925 -0.6469 6.7272 0.0000 42.1152 0.0000
# 6 0.0000 0.0000 0.0000 -2.3713 0.0000 10.5623
#
#
#
# Elastic Compliance Matrix: (Units=1/GPa)
#
#
# Indices 1 2 3 4 5 6 
#
# 1 0.007741 -0.004358 -0.003230 0.000000 -0.000652 0.000000
# 2 -0.004358 0.094678 -0.002284 0.000000 0.002439 0.000000
# 3 -0.003230 -0.002284 0.008562 0.000000 -0.000943 0.000000
# 4 0.000000 0.000000 0.000000 -0.289316 0.000000 -0.064954
# 5 -0.000652 0.002439 -0.000943 0.000000 0.024025 0.000000
# 6 0.000000 0.000000 0.000000 -0.064954 0.000000 0.080094
#
#
# Mechanical properties :
#
#
# Convention : Reuss Voigt Hill
#
# Bulk Modulus (GPa) = 10.96042 52.60994 31.78518
# Shear Modulus (GPa) = -207.81432 25.73886 -91.03773
#
# Velocity S-wave (km/s) = -10.41500 3.66535 -6.89338
# Velocity P-wave (km/s) = 11.78595 6.73600 6.83867
#
# Compressibility (1/GPa) = 0.09123741
#
# Stress axis : x y z
#
# Youngs Moduli (GPa) = 129.18017 10.56210 116.79772
#
# Poissons Ratio (x) = 0.04603 0.37725
# Poissons Ratio (y) = 0.56297 0.26675
# Poissons Ratio (z) = 0.41724 0.02412
#
# Static dielectric constant tensor:
#      x y z
#    x 3.808430 0.000000 -0.013310 
#    y 0.000000 2.799630 0.000000 
#    z -0.013310 0.000000 3.764860 
# 
# 
# High freq. dielectric constant tensor:
#      x y z
#    x 1.760950 0.000000 0.001520 
#    y 0.000000 1.672490 0.000000 
#    z 0.001520 0.000000 1.766410 
# 
# From -- ./inp_files/80215.got.cif
#   From: 2010.06.25/outbox.cif.g09.slc.cpg/sg10_41_cif.got.tgz:80215.got - 2010.06.27 22:07:45.
