data_PCOD8058014
_publ_section_title
;
Structure prediction by ZEFSAII (Michael W. Deem and Ramdas Pophale) SiO2 
 PCOD8058014
Probable space group: P 2/M
;
_chemical_formula_sum "Si O2"
_cell_formula_units_Z 28
_cell_length_a 8.317949
_cell_length_b 15.902936
_cell_length_c 13.452450
_cell_angle_alpha 90.000000
_cell_angle_beta 52.202541
_cell_angle_gamma 90.000000
_cell_volume 1406.119366
_symmetry_space_group_name_H-M "P 2/M"
_symmetry_group_IT_number 10
_symmetry_cell_setting 'monoclinic'
loop_
_space_group_symop_operation_xyz
x,y,z
-x,y,-z
-x,-y,-z
x,-y,z
loop_
_atom_site_type_symbol
_atom_site_label
_atom_site_fract_x
_atom_site_fract_y
_atom_site_fract_z
Si Si1 0.423299 0.906840 0.266805
Si Si2 0.704494 0.907600 0.464638
Si Si3 0.683435 0.500000 0.074926
Si Si4 0.959640 0.678276 0.231164
Si Si5 0.212038 0.207859 0.863011
Si Si6 0.635114 0.324535 0.036383
Si Si7 0.891973 0.500000 0.199284
Si Si8 0.062238 0.205666 0.362128
O O1 0.307217 0.917215 0.413576
O O2 0.656885 0.877798 0.196042
O O3 0.282723 0.838230 0.262251
O O4 0.426624 0.000000 0.213825
O O5 0.500000 0.863546 0.500000
O O6 0.901790 0.853463 0.365755
O O7 0.728927 0.000000 0.405531
O O8 0.551673 0.417356 0.097192
O O9 0.723109 0.500000 0.177403
O O10 0.888412 0.500000 0.933869
O O11 0.812428 0.748261 0.235805
O O12 0.859561 0.584869 0.278574
O O13 0.048924 0.707392 0.304311
O O14 0.133398 0.667875 0.083960
O O15 0.365761 0.266409 0.867145
O O16 0.000000 0.188099 0.000000
O O17 0.500000 0.284582 0.000000
O O18 0.000000 0.224664 0.500000
#
# Coordination Sequence:
#
# PCOD8058014 Si02
#       8
#     4   4   2   4   4   4   2   4
#     4  10  20  34  52  75 106 140 176 222 271 315
#     4   9  17  31  53  79 101 127 172 228 275 316
#     4   9  15  28  48  76 105 131 168 219 262 310
#     4  10  19  33  52  74 104 141 175 216 263 315
#     4  10  20  33  52  76 107 144 179 215 257 318
#     4  10  18  29  49  77 108 134 169 215 264 317
#     4   9  16  30  51  74 104 136 174 214 262 308
#     4  10  20  34  53  78 105 138 179 224 273 311
#
# _framework density 19.912960000000002
#
# number of rings (size 3 to 8) (size 9 to 14) (size 15 to 20)
#    0.000    2.286    1.429    2.357    0.000    2.000 
#    0.000    1.071    0.000    9.000    0.000   10.500 
#    0.000    0.000    0.000    0.000    0.000    0.000 
#
# Total GULP energy -346909.500691 kJ/mol
# GULP energy per Si atom -12389.625025 kJ/mol
# Density = 1.986764 g / cm^3
# Si number density = 19.912960 Si / 1000 Ang^3
#
#
#
# Elastic Constant Matrix: (Units=GPa)
#
#
# Indices 1 2 3 4 5 6 
#
# 1 104.6207 42.4996 11.8519 0.0000 5.4094 0.0000
# 2 42.4996 113.2967 33.6103 0.0000 6.0257 0.0000
# 3 11.8519 33.6103 30.3991 0.0000 -0.6978 0.0000
# 4 0.0000 0.0000 0.0000 13.6509 0.0000 3.4898
# 5 5.4094 6.0257 -0.6978 0.0000 30.8100 0.0000
# 6 0.0000 0.0000 0.0000 3.4898 0.0000 34.0202
#
#
#
# Elastic Compliance Matrix: (Units=1/GPa)
#
#
# Indices 1 2 3 4 5 6 
#
# 1 0.011320 -0.004268 0.000279 0.000000 -0.001146 0.000000
# 2 -0.004268 0.015008 -0.014987 0.000000 -0.002525 0.000000
# 3 0.000279 -0.014987 0.049449 0.000000 0.004002 0.000000
# 4 0.000000 0.000000 0.000000 0.075228 0.000000 -0.007717
# 5 -0.001146 -0.002525 0.004002 0.000000 0.033243 0.000000
# 6 0.000000 0.000000 0.000000 -0.007717 0.000000 0.030186
#
#
# Mechanical properties :
#
#
# Convention : Reuss Voigt Hill
#
# Bulk Modulus (GPa) = 26.43771 47.13780 36.78775
# Shear Modulus (GPa) = 18.86845 26.38654 22.62750
#
# Velocity S-wave (km/s) = 3.08156 3.64413 3.37459
# Velocity P-wave (km/s) = 5.09577 6.43658 5.80502
#
# Compressibility (1/GPa) = 0.03782476
#
# Stress axis : x y z
#
# Youngs Moduli (GPa) = 88.34080 66.63213 20.22294
#
# Poissons Ratio (x) = 0.28440 -0.00565
# Poissons Ratio (y) = 0.37705 0.30308
# Poissons Ratio (z) = -0.02468 0.99862
#
# Static dielectric constant tensor:
#      x y z
#    x 3.624640 0.000000 0.002280 
#    y 0.000000 3.948220 0.000000 
#    z 0.002280 0.000000 3.091930 
# 
# 
# High freq. dielectric constant tensor:
#      x y z
#    x 1.787590 0.000000 0.003180 
#    y 0.000000 1.777610 0.000000 
#    z 0.003180 0.000000 1.720840 
# 
# From -- ./inp_files/61790.got.cif
#   From: 2010.06.25/outbox.cif.g09.slc.cpg/sg10_31_cif.got.tgz:61790.got - 2010.06.27 22:07:45.
