data_PCOD8058310
_publ_section_title
;
Structure prediction by ZEFSAII (Michael W. Deem and Ramdas Pophale) SiO2 
 PCOD8058310
Probable space group: P 2/M
;
_chemical_formula_sum "Si O2"
_cell_formula_units_Z 28
_cell_length_a 21.219704
_cell_length_b 12.783534
_cell_length_c 10.480336
_cell_angle_alpha 90.000000
_cell_angle_beta 33.714077
_cell_angle_gamma 90.000000
_cell_volume 1577.962352
_symmetry_space_group_name_H-M "P 2/M"
_symmetry_group_IT_number 10
_symmetry_cell_setting 'monoclinic'
loop_
_space_group_symop_operation_xyz
x,y,z
-x,y,-z
-x,-y,-z
x,-y,z
loop_
_atom_site_type_symbol
_atom_site_label
_atom_site_fract_x
_atom_site_fract_y
_atom_site_fract_z
Si Si1 0.374550 0.378700 0.769151
Si Si2 0.329665 0.766599 0.058490
Si Si3 0.749420 0.796931 0.159202
Si Si4 0.459459 0.119333 0.353565
Si Si5 0.870453 0.119952 0.718784
Si Si6 0.126571 0.119702 0.820830
Si Si7 0.665813 0.880289 0.696120
O O1 0.500000 0.355287 0.500000
O O2 0.346686 0.500000 0.803610
O O3 0.277103 0.318325 0.851827
O O4 0.355028 0.348073 0.953725
O O5 0.201295 0.806690 0.255679
O O6 0.358600 0.789571 0.157830
O O7 0.418231 0.831923 0.823274
O O8 0.628038 0.846963 0.391543
O O9 0.826124 0.796254 0.157306
O O10 0.818581 0.869415 0.946047
O O11 0.414754 0.147676 0.286883
O O12 0.479417 0.000000 0.334660
O O13 0.000000 0.159744 0.500000
O O14 0.864091 0.000000 0.682632
O O15 0.202619 0.126225 0.565844
O O16 0.132189 0.000000 0.865176
O O17 0.000000 0.153419 0.000000
O O18 0.640266 0.000000 0.788874
#
# Coordination Sequence:
#
# PCOD8058310 Si02
#       7
#     4   4   4   4   4   4   4
#     4  10  21  39  58  75  97 131 180 233 282 318
#     4  11  20  32  52  75 101 137 175 213 263 316
#     4  10  19  34  53  76 103 138 179 218 260 310
#     4  10  18  30  50  79 111 140 166 204 253 318
#     4  10  21  31  44  71 108 144 174 208 245 300
#     4   9  18  31  52  80 112 149 178 202 239 305
#     4   9  18  30  47  76 111 143 170 199 247 311
#
# _framework density 17.744402999999998
#
# number of rings (size 3 to 8) (size 9 to 14) (size 15 to 20)
#    0.000    2.143    1.429    3.857    2.000    1.143 
#    0.000    2.143    0.000   12.429    0.000    0.000 
#    0.000    0.000    0.000    0.000    0.000    0.000 
#
# Total GULP energy -346888.683139 kJ/mol
# GULP energy per Si atom -12388.881541 kJ/mol
# Density = 1.770402 g / cm^3
# Si number density = 17.744403 Si / 1000 Ang^3
#
#
#
# Elastic Constant Matrix: (Units=GPa)
#
#
# Indices 1 2 3 4 5 6 
#
# 1 34.7663 35.5139 15.1118 0.0000 3.3270 0.0000
# 2 35.5139 94.6965 20.4313 0.0000 4.4860 0.0000
# 3 15.1118 20.4313 72.4225 0.0000 -13.7668 0.0000
# 4 0.0000 0.0000 0.0000 21.3306 0.0000 2.8553
# 5 3.3270 4.4860 -13.7668 0.0000 39.0297 0.0000
# 6 0.0000 0.0000 0.0000 2.8553 0.0000 22.1844
#
#
#
# Elastic Compliance Matrix: (Units=1/GPa)
#
#
# Indices 1 2 3 4 5 6 
#
# 1 0.049180 -0.016858 -0.006361 0.000000 -0.004498 0.000000
# 2 -0.016858 0.017272 -0.001564 0.000000 -0.001100 0.000000
# 3 -0.006361 -0.001564 0.016843 0.000000 0.006663 0.000000
# 4 0.000000 0.000000 0.000000 0.047703 0.000000 -0.006140
# 5 -0.004498 -0.001100 0.006663 0.000000 0.028482 0.000000
# 6 0.000000 0.000000 0.000000 -0.006140 0.000000 0.045867
#
#
# Mechanical properties :
#
#
# Convention : Reuss Voigt Hill
#
# Bulk Modulus (GPa) = 29.64905 38.22214 33.93559
# Shear Modulus (GPa) = 18.78604 25.23084 22.00844
#
# Velocity S-wave (km/s) = 3.25730 3.77491 3.52561
# Velocity P-wave (km/s) = 5.55805 6.37080 5.97825
#
# Compressibility (1/GPa) = 0.03372789
#
# Stress axis : x y z
#
# Youngs Moduli (GPa) = 20.33362 57.89748 59.37195
#
# Poissons Ratio (x) = 0.97605 0.37767
# Poissons Ratio (y) = 0.34279 0.09286
# Poissons Ratio (z) = 0.12934 0.09055
#
# Static dielectric constant tensor:
#      x y z
#    x 3.268530 0.000000 -0.028860 
#    y 0.000000 2.916820 0.000000 
#    z -0.028860 0.000000 3.529770 
# 
# 
# High freq. dielectric constant tensor:
#      x y z
#    x 1.685700 0.000000 -0.002460 
#    y 0.000000 1.631540 0.000000 
#    z -0.002460 0.000000 1.704960 
# 
# From -- ./inp_files/56838.got.cif
#   From: 2010.06.25/outbox.cif.g09.slc.cpg/sg10_29_cif.got.tgz:56838.got - 2010.06.27 22:07:45.
