data_PCOD8058127
_publ_section_title
;
Structure prediction by ZEFSAII (Michael W. Deem and Ramdas Pophale) SiO2 
 PCOD8058127
Probable space group: P 2/M
;
_chemical_formula_sum "Si O2"
_cell_formula_units_Z 32
_cell_length_a 21.233583
_cell_length_b 17.176276
_cell_length_c 8.031967
_cell_angle_alpha 90.000000
_cell_angle_beta 36.520075
_cell_angle_gamma 90.000000
_cell_volume 1743.280900
_symmetry_space_group_name_H-M "P 2/M"
_symmetry_group_IT_number 10
_symmetry_cell_setting 'monoclinic'
loop_
_space_group_symop_operation_xyz
x,y,z
-x,y,-z
-x,-y,-z
x,-y,z
loop_
_atom_site_type_symbol
_atom_site_label
_atom_site_fract_x
_atom_site_fract_y
_atom_site_fract_z
Si Si1 0.751295 0.742224 0.331817
Si Si2 0.557743 0.208298 0.537194
Si Si3 0.658892 0.787293 0.877319
Si Si4 0.118499 0.821141 0.203834
Si Si5 0.694563 0.090240 0.069636
Si Si6 0.791878 0.321699 0.799276
Si Si7 0.963302 0.588002 0.254783
Si Si8 0.814802 0.411495 0.076359
O O1 0.660105 0.745258 0.382677
O O2 0.713705 0.781665 0.581402
O O3 0.773216 0.649533 0.305137
O O4 0.855139 0.788229 0.039738
O O5 0.500000 0.248472 0.500000
O O6 0.599286 0.123503 0.387521
O O7 0.468777 0.205661 0.871424
O O8 0.686666 0.711612 0.932837
O O9 0.697925 0.866040 0.884216
O O10 0.141940 0.751100 0.277821
O O11 0.000000 0.847982 0.500000
O O12 0.193163 0.895620 0.078019
O O13 0.675159 0.000000 0.080316
O O14 0.862708 0.361336 0.510407
O O15 0.770550 0.384334 0.990943
O O16 0.923339 0.500000 0.319531
O O17 0.057171 0.592321 0.192599
O O18 0.000000 0.621110 0.000000
O O19 0.776242 0.500000 0.196350
#
# Coordination Sequence:
#
# PCOD8058127 Si02
#       8
#     4   4   4   4   4   4   4   4
#     4  10  19  34  54  77 106 134 173 219 257 306
#     4   9  18  34  57  78  98 131 170 205 254 309
#     4  10  20  33  53  78 103 135 169 212 264 306
#     4   9  18  32  52  75 100 139 181 209 245 301
#     4   9  19  35  55  80 107 134 167 206 252 310
#     4  10  18  30  47  69  99 134 176 213 250 308
#     4  10  19  29  44  70 102 133 168 217 272 309
#     4  10  19  31  49  71  98 136 177 218 262 304
#
# _framework density 18.356193000000001
#
# number of rings (size 3 to 8) (size 9 to 14) (size 15 to 20)
#    0.000    2.375    0.000    5.625    0.000    3.500 
#    0.000    5.000    0.000   12.375    0.000    0.000 
#    0.000    0.000    0.000    0.000    0.000    0.000 
#
# Total GULP energy -396442.194149 kJ/mol
# GULP energy per Si atom -12388.818567 kJ/mol
# Density = 1.831441 g / cm^3
# Si number density = 18.356193 Si / 1000 Ang^3
#
#
#
# Elastic Constant Matrix: (Units=GPa)
#
#
# Indices 1 2 3 4 5 6 
#
# 1 54.7976 24.5144 31.3037 0.0000 1.7224 0.0000
# 2 24.5144 111.3263 46.8643 0.0000 3.5583 0.0000
# 3 31.3037 46.8643 136.0970 0.0000 7.6066 0.0000
# 4 0.0000 0.0000 0.0000 23.8874 0.0000 1.2403
# 5 1.7224 3.5583 7.6066 0.0000 32.1619 0.0000
# 6 0.0000 0.0000 0.0000 1.2403 0.0000 15.8554
#
#
#
# Elastic Compliance Matrix: (Units=1/GPa)
#
#
# Indices 1 2 3 4 5 6 
#
# 1 0.021923 -0.003164 -0.003959 0.000000 0.000112 0.000000
# 2 -0.003164 0.010965 -0.003030 0.000000 -0.000327 0.000000
# 3 -0.003959 -0.003030 0.009395 0.000000 -0.001675 0.000000
# 4 0.000000 0.000000 0.000000 0.042034 0.000000 -0.003288
# 5 0.000112 -0.000327 -0.001675 0.000000 0.031519 0.000000
# 6 0.000000 0.000000 0.000000 -0.003288 0.000000 0.063327
#
#
# Mechanical properties :
#
#
# Convention : Reuss Voigt Hill
#
# Bulk Modulus (GPa) = 45.50251 56.39843 50.95047
# Shear Modulus (GPa) = 24.17850 27.68350 25.93100
#
# Velocity S-wave (km/s) = 3.63324 3.88768 3.76261
# Velocity P-wave (km/s) = 6.51483 7.13745 6.83324
#
# Compressibility (1/GPa) = 0.02197681
#
# Stress axis : x y z
#
# Youngs Moduli (GPa) = 45.61465 91.19701 106.43727
#
# Poissons Ratio (x) = 0.28859 0.42140
# Poissons Ratio (y) = 0.14434 0.32247
# Poissons Ratio (z) = 0.18059 0.27630
#
# Static dielectric constant tensor:
#      x y z
#    x 3.431740 0.000000 -0.048850 
#    y 0.000000 3.196430 0.000000 
#    z -0.048850 0.000000 3.479790 
# 
# 
# High freq. dielectric constant tensor:
#      x y z
#    x 1.703140 0.000000 0.001080 
#    y 0.000000 1.688450 0.000000 
#    z 0.001080 0.000000 1.710640 
# 
# From -- ./inp_files/36449.got.cif
#   From: 2010.06.25/outbox.cif.g09.slc.cpg/sg10_19_cif.got.tgz:36449.got - 2010.06.27 22:07:45.
