data_PCOD8058227
_publ_section_title
;
Structure prediction by ZEFSAII (Michael W. Deem and Ramdas Pophale) SiO2 
 PCOD8058227
Probable space group: P 2/M
;
_chemical_formula_sum "Si O2"
_cell_formula_units_Z 28
_cell_length_a 15.292943
_cell_length_b 12.515226
_cell_length_c 15.292891
_cell_angle_alpha 90.000000
_cell_angle_beta 145.470718
_cell_angle_gamma 90.000000
_cell_volume 1659.090797
_symmetry_space_group_name_H-M "P 2/M"
_symmetry_group_IT_number 10
_symmetry_cell_setting 'monoclinic'
loop_
_space_group_symop_operation_xyz
x,y,z
-x,y,-z
-x,-y,-z
x,-y,z
loop_
_atom_site_type_symbol
_atom_site_label
_atom_site_fract_x
_atom_site_fract_y
_atom_site_fract_z
Si Si1 0.875318 0.380557 0.275468
Si Si2 0.532243 0.124047 0.625163
Si Si3 0.626130 0.500000 0.529066
Si Si4 0.224531 0.619444 0.624682
Si Si5 0.125161 0.124047 0.032241
Si Si6 0.681912 0.708224 0.470159
Si Si7 0.029836 0.291776 0.818083
Si Si8 0.970930 0.500000 0.873867
O O1 0.815954 0.500000 0.204827
O O2 0.777423 0.333628 0.277422
O O3 0.052903 0.388672 0.447097
O O4 0.862483 0.306934 0.179109
O O5 0.500000 0.161304 0.500000
O O6 0.708648 0.150389 0.791353
O O7 0.421690 0.188595 0.598404
O O8 0.493239 0.000000 0.605983
O O9 0.500000 0.500000 0.500000
O O10 0.606918 0.604301 0.453142
O O11 0.789586 0.500000 0.710411
O O12 0.295172 0.500000 0.684046
O O13 0.320893 0.693065 0.637520
O O14 0.105981 0.000000 0.993237
O O15 0.000000 0.161303 0.000000
O O16 0.098400 0.188595 0.921686
O O17 0.852796 0.729172 0.647200
O O18 0.046854 0.395700 0.893077
O O19 0.000000 0.500000 0.000000
#
# Coordination Sequence:
#
# PCOD8058227 Si02
#       8
#     4   4   2   4   4   4   4   2
#     4   8  13  24  45  72 100 128 158 194 236 281
#     4  10  21  36  52  70  93 124 164 205 243 284
#     4  10  20  30  41  65  99 129 154 186 231 284
#     4   8  13  24  45  72 100 128 158 194 236 281
#     4  10  21  36  52  70  93 124 164 205 243 284
#     4  10  18  30  49  73 100 127 159 196 237 286
#     4  10  18  30  49  73 100 127 159 196 237 286
#     4  10  20  30  41  65  99 129 154 186 231 284
#
# _framework density 16.876712999999999
#
# number of rings (size 3 to 8) (size 9 to 14) (size 15 to 20)
#    0.000    2.571    1.429    2.571    0.000    5.143 
#    0.000    0.000    0.000    1.714    0.000    8.000 
#    0.000    0.000    0.000    0.000    0.000    0.000 
#
# Total GULP energy -347111.375036 kJ/mol
# GULP energy per Si atom -12396.834823 kJ/mol
# Density = 1.683830 g / cm^3
# Si number density = 16.876713 Si / 1000 Ang^3
#
#
#
# Elastic Constant Matrix: (Units=GPa)
#
#
# Indices 1 2 3 4 5 6 
#
# 1 157.3519 63.4974 53.6253 0.0000 -26.6592 0.0000
# 2 63.4974 73.5374 40.6216 0.0000 -9.5970 0.0000
# 3 53.6253 40.6216 58.7738 0.0000 -14.6989 0.0000
# 4 0.0000 0.0000 0.0000 25.0449 0.0000 -0.3758
# 5 -26.6592 -9.5970 -14.6989 0.0000 25.1091 0.0000
# 6 0.0000 0.0000 0.0000 -0.3758 0.0000 25.9407
#
#
#
# Elastic Compliance Matrix: (Units=1/GPa)
#
#
# Indices 1 2 3 4 5 6 
#
# 1 0.011841 -0.006978 -0.004105 0.000000 0.007502 0.000000
# 2 -0.006978 0.026116 -0.012933 0.000000 -0.004998 0.000000
# 3 -0.004105 -0.012933 0.032067 0.000000 0.009471 0.000000
# 4 0.000000 0.000000 0.000000 0.039937 0.000000 0.000579
# 5 0.007502 -0.004998 0.009471 0.000000 0.051425 0.000000
# 6 0.000000 0.000000 0.000000 0.000579 0.000000 0.038558
#
#
# Mechanical properties :
#
#
# Convention : Reuss Voigt Hill
#
# Bulk Modulus (GPa) = 45.47144 67.23907 56.35525
# Shear Modulus (GPa) = 19.58438 24.01353 21.79896
#
# Velocity S-wave (km/s) = 3.41022 3.77620 3.59786
# Velocity P-wave (km/s) = 6.51981 7.67729 7.12210
#
# Compressibility (1/GPa) = 0.02199182
#
# Stress axis : x y z
#
# Youngs Moduli (GPa) = 84.45309 38.29125 31.18484
#
# Poissons Ratio (x) = 0.26719 0.12801
# Poissons Ratio (y) = 0.58930 0.40332
# Poissons Ratio (z) = 0.34666 0.49523
#
# Static dielectric constant tensor:
#      x y z
#    x 3.422540 0.000000 -0.198250 
#    y 0.000000 3.035790 0.000000 
#    z -0.198250 0.000000 2.949950 
# 
# 
# High freq. dielectric constant tensor:
#      x y z
#    x 1.656390 0.000000 -0.012370 
#    y 0.000000 1.632750 0.000000 
#    z -0.012370 0.000000 1.626900 
# 
# From -- ./inp_files/67163.got.cif
#   From: 2010.06.25/outbox.cif.g09.slc.cpg/sg10_34_cif.got.tgz:67163.got - 2010.06.27 22:07:45.
