data_PCOD8058183
_publ_section_title
;
Structure prediction by ZEFSAII (Michael W. Deem and Ramdas Pophale) SiO2 
 PCOD8058183
Probable space group: P 2/M
;
_chemical_formula_sum "Si O2"
_cell_formula_units_Z 32
_cell_length_a 20.040120
_cell_length_b 9.320916
_cell_length_c 25.017149
_cell_angle_alpha 90.000000
_cell_angle_beta 22.741216
_cell_angle_gamma 90.000000
_cell_volume 1806.443558
_symmetry_space_group_name_H-M "P 2/M"
_symmetry_group_IT_number 10
_symmetry_cell_setting 'monoclinic'
loop_
_space_group_symop_operation_xyz
x,y,z
-x,y,-z
-x,-y,-z
x,-y,z
loop_
_atom_site_type_symbol
_atom_site_label
_atom_site_fract_x
_atom_site_fract_y
_atom_site_fract_z
Si Si1 0.847632 0.334225 0.373799
Si Si2 0.653178 0.666812 0.346343
Si Si3 0.662173 0.166418 0.695560
Si Si4 0.001524 0.333973 0.149429
Si Si5 0.334960 0.835156 0.870693
Si Si6 0.823033 0.341192 0.663460
Si Si7 0.062690 0.666099 0.574881
Si Si8 0.506843 0.829838 0.358773
O O1 0.786945 0.500000 0.413589
O O2 0.681512 0.234922 0.493526
O O3 0.974159 0.293761 0.231796
O O4 0.953880 0.306437 0.349741
O O5 0.500000 0.704713 0.500000
O O6 0.646749 0.500000 0.334855
O O7 0.637670 0.763693 0.305209
O O8 0.831977 0.709171 0.241875
O O9 0.464882 0.191088 0.824086
O O10 0.687969 0.232908 0.735804
O O11 0.782903 0.239133 0.562210
O O12 0.711109 0.000000 0.661479
O O13 0.043198 0.500000 0.111986
O O14 0.161804 0.250859 0.007355
O O15 0.425849 0.784128 0.749127
O O16 0.282736 0.000000 0.904742
O O17 0.739726 0.500000 0.724956
O O18 0.878617 0.294232 0.682707
O O19 0.000000 0.339811 0.500000
O O20 0.106831 0.500000 0.529528
O O21 0.496453 0.000000 0.373417
#
# Coordination Sequence:
#
# PCOD8058183 Si02
#       8
#     4   4   4   4   4   4   4   4
#     4  10  19  35  57  81 107 138 177 223 268 312
#     4  10  20  38  59  81 110 137 171 223 269 312
#     4  10  18  30  48  72 105 142 176 214 260 309
#     4  10  22  38  58  81 104 137 180 219 265 322
#     4  10  23  39  52  75 113 145 177 221 263 311
#     4   8  15  27  43  72 106 135 171 214 262 312
#     4   9  17  29  50  77 106 136 170 218 268 310
#     4  11  22  36  56  82 108 141 180 216 262 318
#
# _framework density 17.714364
#
# number of rings (size 3 to 8) (size 9 to 14) (size 15 to 20)
#    0.000    2.250    2.500    1.500    0.000    6.000 
#    0.000    2.500    0.000    0.750    0.000    5.250 
#    0.000    0.000    0.000    0.000    0.000    0.000 
#
# Total GULP energy -396775.644997 kJ/mol
# GULP energy per Si atom -12399.238906 kJ/mol
# Density = 1.767405 g / cm^3
# Si number density = 17.714364 Si / 1000 Ang^3
#
#
#
# Elastic Constant Matrix: (Units=GPa)
#
#
# Indices 1 2 3 4 5 6 
#
# 1 120.0581 47.2782 23.7543 0.0000 -9.7547 0.0000
# 2 47.2782 75.3678 39.1776 0.0000 -5.5048 0.0000
# 3 23.7543 39.1776 64.7015 0.0000 -5.8090 0.0000
# 4 0.0000 0.0000 0.0000 5.1451 0.0000 6.7657
# 5 -9.7547 -5.5048 -5.8090 0.0000 17.5084 0.0000
# 6 0.0000 0.0000 0.0000 6.7657 0.0000 23.6377
#
#
#
# Elastic Compliance Matrix: (Units=1/GPa)
#
#
# Indices 1 2 3 4 5 6 
#
# 1 0.011364 -0.007074 0.000495 0.000000 0.004271 0.000000
# 2 -0.007074 0.023854 -0.011881 0.000000 -0.000383 0.000000
# 3 0.000495 -0.011881 0.022838 0.000000 0.004117 0.000000
# 4 0.000000 0.000000 0.000000 0.311670 0.000000 -0.089208
# 5 0.004271 -0.000383 0.004117 0.000000 0.060741 0.000000
# 6 0.000000 0.000000 0.000000 -0.089208 0.000000 0.067839
#
#
# Mechanical properties :
#
#
# Convention : Reuss Voigt Hill
#
# Bulk Modulus (GPa) = 47.31481 53.39418 50.35450
# Shear Modulus (GPa) = 9.22048 19.25271 14.23660
#
# Velocity S-wave (km/s) = 2.28394 3.30031 2.83799
# Velocity P-wave (km/s) = 5.80715 6.68804 6.26310
#
# Compressibility (1/GPa) = 0.02113503
#
# Stress axis : x y z
#
# Youngs Moduli (GPa) = 87.99619 41.92222 43.78704
#
# Poissons Ratio (x) = 0.29655 -0.02166
# Poissons Ratio (y) = 0.62247 0.52024
# Poissons Ratio (z) = -0.04352 0.49808
#
# Static dielectric constant tensor:
#      x y z
#    x 3.815430 0.000000 -0.103420 
#    y 0.000000 3.283000 0.000000 
#    z -0.103420 0.000000 2.906640 
# 
# 
# High freq. dielectric constant tensor:
#      x y z
#    x 1.706200 0.000000 -0.010220 
#    y 0.000000 1.684570 0.000000 
#    z -0.010220 0.000000 1.646490 
# 
# From -- ./inp_files/93640.got.cif
#   From: 2010.06.25/outbox.cif.g09.slc.cpg/sg10_47_cif.got.tgz:93640.got - 2010.06.27 22:07:45.
