data_PCOD8058778
_publ_section_title
;
Structure prediction by ZEFSAII (Michael W. Deem and Ramdas Pophale) SiO2 
 PCOD8058778
Probable space group: P 2/M
;
_chemical_formula_sum "Si O2"
_cell_formula_units_Z 32
_cell_length_a 19.588653
_cell_length_b 8.966581
_cell_length_c 27.412565
_cell_angle_alpha 90.000000
_cell_angle_beta 21.258353
_cell_angle_gamma 90.000000
_cell_volume 1745.732402
_symmetry_space_group_name_H-M "P 2/M"
_symmetry_group_IT_number 10
_symmetry_cell_setting 'monoclinic'
loop_
_space_group_symop_operation_xyz
x,y,z
-x,y,-z
-x,-y,-z
x,-y,z
loop_
_atom_site_type_symbol
_atom_site_label
_atom_site_fract_x
_atom_site_fract_y
_atom_site_fract_z
Si Si1 0.708461 0.173267 0.373649
Si Si2 0.714954 0.323335 0.571681
Si Si3 0.542296 0.170514 0.860699
Si Si4 0.972440 0.827626 0.573800
Si Si5 0.155105 0.826284 0.608998
Si Si6 0.940063 0.668073 0.893587
Si Si7 0.200232 0.667547 0.123129
Si Si8 0.415689 0.824711 0.837564
O O1 0.500000 0.230161 0.500000
O O2 0.748070 0.205751 0.403810
O O3 0.852102 0.261370 0.242998
O O4 0.733079 0.000000 0.345125
O O5 0.701881 0.500000 0.580140
O O6 0.722100 0.262469 0.512002
O O7 0.528409 0.257046 0.720046
O O8 0.902090 0.273693 0.475289
O O9 0.757028 0.196063 0.733309
O O10 0.517150 0.216199 0.820929
O O11 0.479358 0.000000 0.908877
O O12 0.411761 0.267246 0.983704
O O13 0.000000 0.775437 0.500000
O O14 0.035170 0.000000 0.537505
O O15 0.940173 0.767043 0.751012
O O16 0.151036 0.000000 0.598436
O O17 0.947975 0.500000 0.908608
O O18 0.868143 0.672124 0.886554
O O19 0.798232 0.764910 0.020996
O O20 0.201710 0.500000 0.143017
O O21 0.415261 0.000000 0.827901
#
# Coordination Sequence:
#
# PCOD8058778 Si02
#       8
#     4   4   4   4   4   4   4   4
#     4   9  18  34  58  86 110 135 171 212 253 304
#     4  12  24  35  50  75 107 140 175 218 266 312
#     4   9  17  30  51  74  98 130 173 220 262 307
#     4  10  19  35  53  73 101 136 179 223 263 311
#     4  10  20  36  56  76 103 139 175 209 253 312
#     4   9  17  29  48  79 111 137 168 209 258 307
#     4   9  17  30  49  73 103 133 167 214 261 306
#     4  10  18  32  52  74 101 138 180 218 258 304
#
# _framework density 18.330414999999999
#
# number of rings (size 3 to 8) (size 9 to 14) (size 15 to 20)
#    0.000    2.250    1.250    2.625    0.000    5.000 
#    0.000    0.625    0.000    4.500    0.000    5.250 
#    0.000    0.000    0.000    0.000    0.000    0.000 
#
# Total GULP energy -396871.155330 kJ/mol
# GULP energy per Si atom -12402.223604 kJ/mol
# Density = 1.828869 g / cm^3
# Si number density = 18.330415 Si / 1000 Ang^3
#
#
#
# Elastic Constant Matrix: (Units=GPa)
#
#
# Indices 1 2 3 4 5 6 
#
# 1 37.9258 32.7794 41.2983 0.0000 -2.7551 0.0000
# 2 32.7794 125.6302 74.6871 0.0000 1.7321 0.0000
# 3 41.2983 74.6871 148.2155 0.0000 -6.2430 0.0000
# 4 0.0000 0.0000 0.0000 32.6050 0.0000 3.0798
# 5 -2.7551 1.7321 -6.2430 0.0000 23.7533 0.0000
# 6 0.0000 0.0000 0.0000 3.0798 0.0000 18.1757
#
#
#
# Elastic Compliance Matrix: (Units=1/GPa)
#
#
# Indices 1 2 3 4 5 6 
#
# 1 0.040536 -0.005676 -0.008311 0.000000 0.002931 0.000000
# 2 -0.005676 0.012291 -0.004730 0.000000 -0.002798 0.000000
# 3 -0.008311 -0.004730 0.011548 0.000000 0.002416 0.000000
# 4 0.000000 0.000000 0.000000 0.031169 0.000000 -0.005281
# 5 0.002931 -0.002798 0.002416 0.000000 0.043279 0.000000
# 6 0.000000 0.000000 0.000000 -0.005281 0.000000 0.055913
#
#
# Mechanical properties :
#
#
# Convention : Reuss Voigt Hill
#
# Bulk Modulus (GPa) = 37.11798 67.70010 52.40904
# Shear Modulus (GPa) = 20.73380 25.77390 23.25385
#
# Velocity S-wave (km/s) = 3.36685 3.75383 3.56560
# Velocity P-wave (km/s) = 5.95043 7.47006 6.75312
#
# Compressibility (1/GPa) = 0.02694112
#
# Stress axis : x y z
#
# Youngs Moduli (GPa) = 24.66916 81.35714 86.59486
#
# Poissons Ratio (x) = 0.46180 0.71971
# Poissons Ratio (y) = 0.14003 0.40960
# Poissons Ratio (z) = 0.20503 0.38482
#
# Static dielectric constant tensor:
#      x y z
#    x 2.993650 0.000000 -0.030030 
#    y 0.000000 3.444350 0.000000 
#    z -0.030030 0.000000 3.561500 
# 
# 
# High freq. dielectric constant tensor:
#      x y z
#    x 1.661590 0.000000 -0.001730 
#    y 0.000000 1.716860 0.000000 
#    z -0.001730 0.000000 1.725060 
# 
# From -- ./inp_files/55194.got.cif
#   From: 2010.06.25/outbox.cif.g09.slc.cpg/sg10_28_cif.got.tgz:55194.got - 2010.06.27 22:07:45.
