data_PCOD8058336
_publ_section_title
;
Structure prediction by ZEFSAII (Michael W. Deem and Ramdas Pophale) SiO2 
 PCOD8058336
Probable space group: P 2/M
;
_chemical_formula_sum "Si O2"
_cell_formula_units_Z 24
_cell_length_a 10.702539
_cell_length_b 13.970820
_cell_length_c 10.702533
_cell_angle_alpha 90.000000
_cell_angle_beta 121.914679
_cell_angle_gamma 90.000000
_cell_volume 1358.373571
_symmetry_space_group_name_H-M "P 2/M"
_symmetry_group_IT_number 10
_symmetry_cell_setting 'monoclinic'
loop_
_space_group_symop_operation_xyz
x,y,z
-x,y,-z
-x,-y,-z
x,-y,z
loop_
_atom_site_type_symbol
_atom_site_label
_atom_site_fract_x
_atom_site_fract_y
_atom_site_fract_z
Si Si1 0.414106 0.220537 0.083649
Si Si2 0.230583 0.609257 0.064944
Si Si3 0.336096 0.107987 0.663904
Si Si4 0.064943 0.609257 0.230582
Si Si5 0.916351 0.220537 0.585894
Si Si6 0.833605 0.893380 0.166396
O O1 0.371735 0.324783 0.113076
O O2 0.511998 0.165058 0.237309
O O3 0.500000 0.234089 0.000000
O O4 0.264957 0.160242 0.987827
O O5 0.285710 0.500000 0.091446
O O6 0.164359 0.635145 0.164359
O O7 0.106539 0.625221 0.893461
O O8 0.237309 0.165059 0.511998
O O9 0.251315 0.101872 0.748685
O O10 0.367774 0.000000 0.632226
O O11 0.091446 0.500000 0.285710
O O12 0.113076 0.675217 0.371735
O O13 0.000000 0.234089 0.500000
O O14 0.012172 0.160242 0.735043
O O15 0.865807 0.000000 0.134194
#
# Coordination Sequence:
#
# PCOD8058336 Si02
#       6
#     4   4   4   4   4   4
#     4  10  18  30  51  77 103 131 166 209 248 289
#     4   9  18  34  55  75  97 130 170 210 252 296
#     4   9  18  30  46  73 106 136 163 197 250 301
#     4   9  18  34  55  75  97 130 170 210 252 296
#     4  10  18  30  51  77 103 131 166 209 248 289
#     4   9  16  28  48  73 100 132 171 209 242 287
#
# _framework density 17.668189000000002
#
# number of rings (size 3 to 8) (size 9 to 14) (size 15 to 20)
#    0.000    2.667    1.667    2.000    0.000    4.667 
#    0.000    1.667    0.000    8.000    0.000    0.000 
#    0.000    0.000    0.000    0.000    0.000    0.000 
#
# Total GULP energy -297596.482735 kJ/mol
# GULP energy per Si atom -12399.853447 kJ/mol
# Density = 1.762798 g / cm^3
# Si number density = 17.668189 Si / 1000 Ang^3
#
#
#
# Elastic Constant Matrix: (Units=GPa)
#
#
# Indices 1 2 3 4 5 6 
#
# 1 40.7939 49.3970 37.3595 0.0000 12.9054 0.0000
# 2 49.3970 150.8777 70.0967 0.0000 12.3344 0.0000
# 3 37.3595 70.0967 110.1573 0.0000 28.4265 0.0000
# 4 0.0000 0.0000 0.0000 31.9006 0.0000 11.2845
# 5 12.9054 12.3344 28.4265 0.0000 21.7948 0.0000
# 6 0.0000 0.0000 0.0000 11.2845 0.0000 12.9631
#
#
#
# Elastic Compliance Matrix: (Units=1/GPa)
#
#
# Indices 1 2 3 4 5 6 
#
# 1 0.048982 -0.012682 -0.004386 0.000000 -0.016106 0.000000
# 2 -0.012682 0.012901 -0.005972 0.000000 0.007998 0.000000
# 3 -0.004386 -0.005972 0.019328 0.000000 -0.019233 0.000000
# 4 0.000000 0.000000 0.000000 0.045295 0.000000 -0.039430
# 5 -0.016106 0.007998 -0.019233 0.000000 0.075979 0.000000
# 6 0.000000 0.000000 0.000000 -0.039430 0.000000 0.111467
#
#
# Mechanical properties :
#
#
# Convention : Reuss Voigt Hill
#
# Bulk Modulus (GPa) = 28.46411 68.39281 48.42846
# Shear Modulus (GPa) = 13.45016 22.99674 18.22345
#
# Velocity S-wave (km/s) = 2.76209 3.61167 3.21507
# Velocity P-wave (km/s) = 5.13006 7.49572 6.42275
#
# Compressibility (1/GPa) = 0.03513197
#
# Stress axis : x y z
#
# Youngs Moduli (GPa) = 20.41556 77.51523 51.73710
#
# Poissons Ratio (x) = 0.98308 0.22690
# Poissons Ratio (y) = 0.25892 0.30896
# Poissons Ratio (z) = 0.08953 0.46290
#
# Static dielectric constant tensor:
#      x y z
#    x 2.882140 0.000000 0.192230 
#    y 0.000000 3.394400 0.000000 
#    z 0.192230 0.000000 3.204750 
# 
# 
# High freq. dielectric constant tensor:
#      x y z
#    x 1.645440 0.000000 0.015350 
#    y 0.000000 1.697480 0.000000 
#    z 0.015350 0.000000 1.671200 
# 
# From -- ./inp_files/29672.got.cif
#   From: 2010.06.25/outbox.cif.g09.slc.cpg/sg10_15_cif.got.tgz:29672.got - 2010.06.27 22:07:45.
