data_PCOD8058172
_publ_section_title
;
Structure prediction by ZEFSAII (Michael W. Deem and Ramdas Pophale) SiO2 
 PCOD8058172
Probable space group: P 2/M
;
_chemical_formula_sum "Si O2"
_cell_formula_units_Z 28
_cell_length_a 13.667153
_cell_length_b 9.472280
_cell_length_c 15.025231
_cell_angle_alpha 90.000000
_cell_angle_beta 129.645384
_cell_angle_gamma 90.000000
_cell_volume 1497.783471
_symmetry_space_group_name_H-M "P 2/M"
_symmetry_group_IT_number 10
_symmetry_cell_setting 'monoclinic'
loop_
_space_group_symop_operation_xyz
x,y,z
-x,y,-z
-x,-y,-z
x,-y,z
loop_
_atom_site_type_symbol
_atom_site_label
_atom_site_fract_x
_atom_site_fract_y
_atom_site_fract_z
Si Si1 0.973730 0.156467 0.081311
Si Si2 0.148453 0.663172 0.412403
Si Si3 0.120774 0.665731 0.818901
Si Si4 0.649427 0.335748 0.337985
Si Si5 0.377767 0.668327 0.874777
Si Si6 0.247914 0.843738 0.319258
Si Si7 0.546463 0.664039 0.627063
O O1 0.885244 0.257683 0.089069
O O2 0.105878 0.139614 0.205872
O O3 0.910690 0.000000 0.034777
O O4 0.000000 0.225011 0.000000
O O5 0.169210 0.500000 0.397378
O O6 0.203628 0.690026 0.544347
O O7 0.243695 0.752652 0.406676
O O8 0.999882 0.703659 0.315125
O O9 0.125595 0.500000 0.840791
O O10 0.248209 0.720600 0.845851
O O11 0.624796 0.500000 0.312524
O O12 0.623353 0.266733 0.226069
O O13 0.551795 0.279075 0.355873
O O14 0.380091 0.500000 0.873834
O O15 0.500000 0.726080 0.000000
O O16 0.327678 0.760040 0.290189
O O17 0.305984 0.000000 0.370627
O O18 0.500000 0.693393 0.500000
O O19 0.579284 0.500000 0.660711
#
# Coordination Sequence:
#
# PCOD8058172 Si02
#       7
#     4   4   4   4   4   4   4
#     4   9  19  35  52  71  99 135 169 201 246 302
#     4   9  16  30  49  71  98 125 163 203 244 300
#     4   9  18  31  52  77  98 125 162 210 253 287
#     4   9  17  29  47  68  96 136 167 197 245 297
#     4   9  18  32  48  72 104 130 161 205 251 295
#     4  10  19  30  47  72 101 131 161 203 253 292
#     4  10  18  30  48  71 100 135 167 196 244 303
#
# _framework density 18.694289000000001
#
# number of rings (size 3 to 8) (size 9 to 14) (size 15 to 20)
#    0.000    2.714    1.429    0.429    0.000    2.857 
#    0.000    4.286    0.000    2.143    0.000    4.000 
#    0.000    0.000    0.000    0.000    0.000    0.000 
#
# Total GULP energy -346940.807759 kJ/mol
# GULP energy per Si atom -12390.743134 kJ/mol
# Density = 1.865174 g / cm^3
# Si number density = 18.694289 Si / 1000 Ang^3
#
#
#
# Elastic Constant Matrix: (Units=GPa)
#
#
# Indices 1 2 3 4 5 6 
#
# 1 150.8794 39.7062 70.4437 0.0000 -8.5093 0.0000
# 2 39.7062 47.4300 22.2697 0.0000 -1.3339 0.0000
# 3 70.4437 22.2697 106.2838 0.0000 -18.1495 0.0000
# 4 0.0000 0.0000 0.0000 13.3199 0.0000 -1.7021
# 5 -8.5093 -1.3339 -18.1495 0.0000 30.3016 0.0000
# 6 0.0000 0.0000 0.0000 -1.7021 0.0000 1.0533
#
#
#
# Elastic Compliance Matrix: (Units=1/GPa)
#
#
# Indices 1 2 3 4 5 6 
#
# 1 0.011176 -0.006470 -0.006198 0.000000 -0.000859 0.000000
# 2 -0.006470 0.027253 -0.001702 0.000000 -0.001636 0.000000
# 3 -0.006198 -0.001702 0.015109 0.000000 0.007234 0.000000
# 4 0.000000 0.000000 0.000000 0.094613 0.000000 0.152895
# 5 -0.000859 -0.001636 0.007234 0.000000 0.037021 0.000000
# 6 0.000000 0.000000 0.000000 0.152895 0.000000 1.196494
#
#
# Mechanical properties :
#
#
# Convention : Reuss Voigt Hill
#
# Bulk Modulus (GPa) = 40.32572 63.27025 51.79798
# Shear Modulus (GPa) = 3.52442 20.41320 11.96881
#
# Velocity S-wave (km/s) = 1.37455 3.30805 2.53304
# Velocity P-wave (km/s) = 4.91296 6.96485 6.02687
#
# Compressibility (1/GPa) = 0.02479807
#
# Stress axis : x y z
#
# Youngs Moduli (GPa) = 89.47819 36.69337 66.18660
#
# Poissons Ratio (x) = 0.23740 0.41024
# Poissons Ratio (y) = 0.57891 0.11262
# Poissons Ratio (z) = 0.55461 0.06244
#
# Static dielectric constant tensor:
#      x y z
#    x 3.576540 0.000000 -0.077290 
#    y 0.000000 3.467810 0.000000 
#    z -0.077290 0.000000 3.577460 
# 
# 
# High freq. dielectric constant tensor:
#      x y z
#    x 1.720740 0.000000 0.003790 
#    y 0.000000 1.687450 0.000000 
#    z 0.003790 0.000000 1.721480 
# 
# From -- ./inp_files/50070.got.cif
#   From: 2010.06.25/outbox.cif.g09.slc.cpg/sg10_26_cif.got.tgz:50070.got - 2010.06.27 22:07:45.
