data_PCOD8058223
_publ_section_title
;
Structure prediction by ZEFSAII (Michael W. Deem and Ramdas Pophale) SiO2 
 PCOD8058223
Probable space group: P 2/M
;
_chemical_formula_sum "Si O2"
_cell_formula_units_Z 24
_cell_length_a 11.855742
_cell_length_b 8.868770
_cell_length_c 23.513011
_cell_angle_alpha 90.000000
_cell_angle_beta 33.580074
_cell_angle_gamma 90.000000
_cell_volume 1367.431210
_symmetry_space_group_name_H-M "P 2/M"
_symmetry_group_IT_number 10
_symmetry_cell_setting 'monoclinic'
loop_
_space_group_symop_operation_xyz
x,y,z
-x,y,-z
-x,-y,-z
x,-y,z
loop_
_atom_site_type_symbol
_atom_site_label
_atom_site_fract_x
_atom_site_fract_y
_atom_site_fract_z
Si Si1 0.777253 0.329844 0.732322
Si Si2 0.895247 0.322757 0.254411
Si Si3 0.767140 0.667872 0.427422
Si Si4 0.222414 0.178405 0.385185
Si Si5 0.501346 0.677497 0.638604
Si Si6 0.293841 0.175916 0.119444
O O1 0.691053 0.500000 0.764983
O O2 0.712752 0.237724 0.703871
O O3 0.691783 0.254356 0.825329
O O4 0.019852 0.329995 0.629622
O O5 0.941597 0.500000 0.243696
O O6 0.788578 0.255046 0.356561
O O7 0.743288 0.294975 0.264898
O O8 0.110490 0.238870 0.156731
O O9 0.686759 0.500000 0.450192
O O10 0.604417 0.745337 0.537768
O O11 0.407030 0.233386 0.347232
O O12 0.000000 0.238751 0.500000
O O13 0.219271 0.000000 0.385195
O O14 0.550106 0.500000 0.625294
O O15 0.259941 0.000000 0.143429
O O16 0.500000 0.212541 0.000000
#
# Coordination Sequence:
#
# PCOD8058223 Si02
#       6
#     4   4   4   4   4   4
#     4  10  19  33  55  78 101 135 179 221 256 295
#     4   9  18  31  50  77 103 133 173 217 259 301
#     4   8  14  26  46  71 100 132 167 207 249 295
#     4  11  22  33  47  72 110 148 180 212 250 301
#     4  10  18  30  49  72 104 142 179 212 248 300
#     4  10  21  37  57  79 105 135 165 209 270 323
#
# _framework density 17.551158000000001
#
# number of rings (size 3 to 8) (size 9 to 14) (size 15 to 20)
#    0.000    2.333    1.667    3.000    0.000    4.667 
#    0.000    0.000    0.000    4.000    0.000    7.000 
#    0.000    0.000    0.000    0.000    0.000    0.000 
#
# Total GULP energy -297439.886391 kJ/mol
# GULP energy per Si atom -12393.328600 kJ/mol
# Density = 1.751121 g / cm^3
# Si number density = 17.551158 Si / 1000 Ang^3
#
#
#
# Elastic Constant Matrix: (Units=GPa)
#
#
# Indices 1 2 3 4 5 6 
#
# 1 120.9066 47.1422 52.6210 0.0000 -12.0651 0.0000
# 2 47.1422 78.2728 46.7169 0.0000 -1.5968 0.0000
# 3 52.6210 46.7169 88.0611 0.0000 -3.0221 0.0000
# 4 0.0000 0.0000 0.0000 21.4748 0.0000 2.3541
# 5 -12.0651 -1.5968 -3.0221 0.0000 14.0007 0.0000
# 6 0.0000 0.0000 0.0000 2.3541 0.0000 22.8734
#
#
#
# Elastic Compliance Matrix: (Units=1/GPa)
#
#
# Indices 1 2 3 4 5 6 
#
# 1 0.013338 -0.004795 -0.005088 0.000000 0.009849 0.000000
# 2 -0.004795 0.020419 -0.008089 0.000000 -0.003549 0.000000
# 3 -0.005088 -0.008089 0.018643 0.000000 -0.001283 0.000000
# 4 0.000000 0.000000 0.000000 0.047098 0.000000 -0.004847
# 5 0.009849 -0.003549 -0.001283 0.000000 0.079230 0.000000
# 6 0.000000 0.000000 0.000000 -0.004847 0.000000 0.044218
#
#
# Mechanical properties :
#
#
# Convention : Reuss Voigt Hill
#
# Bulk Modulus (GPa) = 60.76888 64.46674 62.61781
# Shear Modulus (GPa) = 18.91245 21.05380 19.98313
#
# Velocity S-wave (km/s) = 3.28618 3.46723 3.37792
# Velocity P-wave (km/s) = 7.00698 7.26908 7.13923
#
# Compressibility (1/GPa) = 0.01645579
#
# Stress axis : x y z
#
# Youngs Moduli (GPa) = 74.97492 48.97289 53.63852
#
# Poissons Ratio (x) = 0.23484 0.27292
# Poissons Ratio (y) = 0.35953 0.43388
# Poissons Ratio (z) = 0.38148 0.39614
#
# Static dielectric constant tensor:
#      x y z
#    x 3.292040 0.000000 -0.063790 
#    y 0.000000 3.128260 0.000000 
#    z -0.063790 0.000000 3.069960 
# 
# 
# High freq. dielectric constant tensor:
#      x y z
#    x 1.681130 0.000000 -0.005490 
#    y 0.000000 1.663140 0.000000 
#    z -0.005490 0.000000 1.648610 
# 
# From -- ./inp_files/48874.got.cif
#   From: 2010.06.25/outbox.cif.g09.slc.cpg/sg10_25_cif.got.tgz:48874.got - 2010.06.27 22:07:45.
