data_PCOD8058490
_publ_section_title
;
Structure prediction by ZEFSAII (Michael W. Deem and Ramdas Pophale) SiO2 
 PCOD8058490
Probable space group: P 2/M
;
_chemical_formula_sum "Si O2"
_cell_formula_units_Z 28
_cell_length_a 14.435473
_cell_length_b 8.809009
_cell_length_c 17.398250
_cell_angle_alpha 90.000000
_cell_angle_beta 130.560369
_cell_angle_gamma 90.000000
_cell_volume 1680.807277
_symmetry_space_group_name_H-M "P 2/M"
_symmetry_group_IT_number 10
_symmetry_cell_setting 'monoclinic'
loop_
_space_group_symop_operation_xyz
x,y,z
-x,y,-z
-x,-y,-z
x,-y,z
loop_
_atom_site_type_symbol
_atom_site_label
_atom_site_fract_x
_atom_site_fract_y
_atom_site_fract_z
Si Si1 0.182093 0.674626 0.081034
Si Si2 0.079628 0.322196 0.864278
Si Si3 0.154028 0.177868 0.221889
Si Si4 0.524296 0.180316 0.128533
Si Si5 0.571231 0.179289 0.614221
Si Si6 0.678752 0.319712 0.086300
Si Si7 0.533511 0.325046 0.750214
O O1 0.147938 0.500000 0.076641
O O2 0.123667 0.768718 0.119103
O O3 0.325735 0.698667 0.154766
O O4 0.127921 0.736720 0.972507
O O5 0.059054 0.500000 0.854915
O O6 0.180058 0.279073 0.854328
O O7 0.949074 0.244582 0.776343
O O8 0.288697 0.235509 0.318788
O O9 0.147451 0.000000 0.223555
O O10 0.643182 0.237550 0.146375
O O11 0.541262 0.231834 0.225899
O O12 0.512568 0.000000 0.116018
O O13 0.404895 0.258653 0.028088
O O14 0.500000 0.230685 0.500000
O O15 0.505174 0.258619 0.650683
O O16 0.565503 0.000000 0.624370
O O17 0.658695 0.500000 0.081247
O O18 0.493748 0.500000 0.731465
#
# Coordination Sequence:
#
# PCOD8058490 Si02
#       7
#     4   4   4   4   4   4   4
#     4   9  17  30  44  61  89 127 162 189 224 273
#     4  10  19  31  45  63  91 130 163 190 230 274
#     4  10  20  30  44  68  92 120 156 195 235 279
#     4  11  20  30  45  69  97 127 162 200 241 276
#     4   9  19  36  53  71  97 125 154 195 246 292
#     4  10  19  32  47  64  92 131 170 200 231 272
#     4  10  18  31  50  71  95 126 163 199 234 281
#
# _framework density 16.658660999999999
#
# number of rings (size 3 to 8) (size 9 to 14) (size 15 to 20)
#    0.000    2.143    1.429    3.857    0.000    4.857 
#    0.000    0.000    0.000    0.000    0.000    1.000 
#    0.000    8.000    0.000    0.000    0.000    0.000 
#
# Total GULP energy -347178.228240 kJ/mol
# GULP energy per Si atom -12399.222437 kJ/mol
# Density = 1.662075 g / cm^3
# Si number density = 16.658661 Si / 1000 Ang^3
#
#
#
# Elastic Constant Matrix: (Units=GPa)
#
#
# Indices 1 2 3 4 5 6 
#
# 1 126.4419 41.6383 46.0073 0.0000 -5.8622 0.0000
# 2 41.6383 59.1682 22.6738 0.0000 -6.0334 0.0000
# 3 46.0073 22.6738 62.3521 0.0000 -11.3383 0.0000
# 4 0.0000 0.0000 0.0000 18.2959 0.0000 -1.0249
# 5 -5.8622 -6.0334 -11.3383 0.0000 18.7384 0.0000
# 6 0.0000 0.0000 0.0000 -1.0249 0.0000 27.3225
#
#
#
# Elastic Compliance Matrix: (Units=1/GPa)
#
#
# Indices 1 2 3 4 5 6 
#
# 1 0.012563 -0.006243 -0.007473 0.000000 -0.002601 0.000000
# 2 -0.006243 0.022824 -0.003048 0.000000 0.003552 0.000000
# 3 -0.007473 -0.003048 0.024783 0.000000 0.011677 0.000000
# 4 0.000000 0.000000 0.000000 0.054772 0.000000 0.002054
# 5 -0.002601 0.003552 0.011677 0.000000 0.060762 0.000000
# 6 0.000000 0.000000 0.000000 0.002054 0.000000 0.036677
#
#
# Mechanical properties :
#
#
# Convention : Reuss Voigt Hill
#
# Bulk Modulus (GPa) = 37.53125 52.06678 44.79902
# Shear Modulus (GPa) = 19.62409 22.04754 20.83582
#
# Velocity S-wave (km/s) = 3.43594 3.64192 3.54043
# Velocity P-wave (km/s) = 6.19027 7.00055 6.60784
#
# Compressibility (1/GPa) = 0.02664446
#
# Stress axis : x y z
#
# Youngs Moduli (GPa) = 79.59938 43.81325 40.34954
#
# Poissons Ratio (x) = 0.27351 0.30152
# Poissons Ratio (y) = 0.49690 0.12298
# Poissons Ratio (z) = 0.59482 0.13353
#
# Static dielectric constant tensor:
#      x y z
#    x 3.361880 0.000000 0.041430 
#    y 0.000000 3.109940 0.000000 
#    z 0.041430 0.000000 2.872600 
# 
# 
# High freq. dielectric constant tensor:
#      x y z
#    x 1.649010 0.000000 0.002010 
#    y 0.000000 1.647730 0.000000 
#    z 0.002010 0.000000 1.591650 
# 
# From -- ./inp_files/77782.got.cif
#   From: 2010.06.25/outbox.cif.g09.slc.cpg/sg10_39_cif.got.tgz:77782.got - 2010.06.27 22:07:45.
