data_PCOD8058432
_publ_section_title
;
Structure prediction by ZEFSAII (Michael W. Deem and Ramdas Pophale) SiO2 
 PCOD8058432
Probable space group: P 2/M
;
_chemical_formula_sum "Si O2"
_cell_formula_units_Z 28
_cell_length_a 9.641152
_cell_length_b 13.400869
_cell_length_c 18.910369
_cell_angle_alpha 90.000000
_cell_angle_beta 42.563829
_cell_angle_gamma 90.000000
_cell_volume 1652.618625
_symmetry_space_group_name_H-M "P 2/M"
_symmetry_group_IT_number 10
_symmetry_cell_setting 'monoclinic'
loop_
_space_group_symop_operation_xyz
x,y,z
-x,y,-z
-x,-y,-z
x,-y,z
loop_
_atom_site_type_symbol
_atom_site_label
_atom_site_fract_x
_atom_site_fract_y
_atom_site_fract_z
Si Si1 0.834954 0.381643 0.621271
Si Si2 0.616174 0.612535 0.229443
Si Si3 0.266631 0.888044 0.106304
Si Si4 0.820096 0.700194 0.776012
Si Si5 0.364083 0.311952 0.925539
Si Si6 0.191736 0.110665 0.978267
Si Si7 0.989919 0.615860 0.844378
O O1 0.827066 0.500000 0.642485
O O2 0.612738 0.341670 0.677263
O O3 0.896303 0.317005 0.667259
O O4 0.000000 0.357112 0.500000
O O5 0.600453 0.500000 0.261122
O O6 0.690350 0.618291 0.120352
O O7 0.791789 0.662800 0.212424
O O8 0.168676 0.815328 0.202234
O O9 0.267199 0.000000 0.137813
O O10 0.500000 0.854342 0.000000
O O11 0.133143 0.884481 0.083918
O O12 0.587416 0.659917 0.870742
O O13 0.967020 0.632360 0.769441
O O14 0.361468 0.196024 0.899783
O O15 0.196055 0.325105 0.049262
O O16 0.281292 0.000000 0.927525
O O17 0.000000 0.133595 0.000000
O O18 0.975162 0.500000 0.870337
#
# Coordination Sequence:
#
# PCOD8058432 Si02
#       7
#     4   4   4   4   4   4   4
#     4   9  19  37  56  70  90 122 161 207 252 292
#     4   9  19  32  47  68  94 128 162 190 235 289
#     4  10  18  31  47  68 101 134 162 193 233 281
#     4  11  20  31  47  72  94 126 167 199 238 283
#     4  11  19  29  44  65 100 138 160 186 226 282
#     4  10  19  29  43  65  95 133 169 194 221 267
#     4  11  20  29  43  69 101 127 156 194 232 281
#
# _framework density 16.942807999999999
#
# number of rings (size 3 to 8) (size 9 to 14) (size 15 to 20)
#    0.000    1.857    2.857    2.571    0.000    3.429 
#    0.000    0.714    0.000    3.857    0.000    0.000 
#    0.000    1.143    0.000    0.000    0.000    0.000 
#
# Total GULP energy -347003.321772 kJ/mol
# GULP energy per Si atom -12392.975778 kJ/mol
# Density = 1.690425 g / cm^3
# Si number density = 16.942808 Si / 1000 Ang^3
#
#
#
# Elastic Constant Matrix: (Units=GPa)
#
#
# Indices 1 2 3 4 5 6 
#
# 1 131.9029 19.2865 42.5927 0.0000 18.3745 0.0000
# 2 19.2865 58.6693 22.4940 0.0000 5.4491 0.0000
# 3 42.5927 22.4940 88.7577 0.0000 8.6459 0.0000
# 4 0.0000 0.0000 0.0000 17.0695 0.0000 4.9042
# 5 18.3745 5.4491 8.6459 0.0000 13.4900 0.0000
# 6 0.0000 0.0000 0.0000 4.9042 0.0000 21.6431
#
#
#
# Elastic Compliance Matrix: (Units=1/GPa)
#
#
# Indices 1 2 3 4 5 6 
#
# 1 0.010524 -0.000975 -0.003675 0.000000 -0.011586 0.000000
# 2 -0.000975 0.019273 -0.004040 0.000000 -0.003868 0.000000
# 3 -0.003675 -0.004040 0.014300 0.000000 -0.002528 0.000000
# 4 0.000000 0.000000 0.000000 0.062664 0.000000 -0.014199
# 5 -0.011586 -0.003868 -0.002528 0.000000 0.093093 0.000000
# 6 0.000000 0.000000 0.000000 -0.014199 0.000000 0.049421
#
#
# Mechanical properties :
#
#
# Convention : Reuss Voigt Hill
#
# Bulk Modulus (GPa) = 37.42642 49.78628 43.60635
# Shear Modulus (GPa) = 18.14480 23.43763 20.79122
#
# Velocity S-wave (km/s) = 3.27608 3.72336 3.50686
# Velocity P-wave (km/s) = 6.03722 6.92338 6.49543
#
# Compressibility (1/GPa) = 0.02671909
#
# Stress axis : x y z
#
# Youngs Moduli (GPa) = 95.01650 51.88526 69.92926
#
# Poissons Ratio (x) = 0.05057 0.25698
# Poissons Ratio (y) = 0.09261 0.28251
# Poissons Ratio (z) = 0.34917 0.20961
#
# Static dielectric constant tensor:
#      x y z
#    x 3.524260 0.000000 0.076630 
#    y 0.000000 3.260220 0.000000 
#    z 0.076630 0.000000 2.731750 
# 
# 
# High freq. dielectric constant tensor:
#      x y z
#    x 1.676260 0.000000 0.015190 
#    y 0.000000 1.649350 0.000000 
#    z 0.015190 0.000000 1.589280 
# 
# From -- ./inp_files/28958.got.cif
#   From: 2010.06.25/outbox.cif.g09.slc.cpg/sg10_15_cif.got.tgz:28958.got - 2010.06.27 22:07:45.
