data_PCOD8058928
_publ_section_title
;
Structure prediction by ZEFSAII (Michael W. Deem and Ramdas Pophale) SiO2 
 PCOD8058928
Probable space group: P 2/M
;
_chemical_formula_sum "Si O2"
_cell_formula_units_Z 28
_cell_length_a 21.004636
_cell_length_b 12.352034
_cell_length_c 11.512435
_cell_angle_alpha 90.000000
_cell_angle_beta 149.235192
_cell_angle_gamma 90.000000
_cell_volume 1527.845210
_symmetry_space_group_name_H-M "P 2/M"
_symmetry_group_IT_number 10
_symmetry_cell_setting 'monoclinic'
loop_
_space_group_symop_operation_xyz
x,y,z
-x,y,-z
-x,-y,-z
x,-y,z
loop_
_atom_site_type_symbol
_atom_site_label
_atom_site_fract_x
_atom_site_fract_y
_atom_site_fract_z
Si Si1 0.043434 0.000000 0.256254
Si Si2 0.593353 0.123468 0.922206
Si Si3 0.195511 0.190286 0.576887
Si Si4 0.672065 0.797297 0.457790
Si Si5 0.127194 0.623311 0.638388
Si Si6 0.372596 0.622355 0.434902
Si Si7 0.647603 0.686490 0.849922
Si Si8 0.807906 0.000000 0.749292
O O1 0.079290 0.891732 0.383231
O O2 0.116043 0.000000 0.249935
O O3 0.896214 0.000000 0.000967
O O4 0.471816 0.174598 0.792625
O O5 0.629087 0.189419 0.861860
O O6 0.570653 0.000000 0.849734
O O7 0.702543 0.129501 0.186677
O O8 0.253756 0.218623 0.544247
O O9 0.149659 0.301406 0.562191
O O10 0.686124 0.684789 0.548320
O O11 0.724599 0.892719 0.621651
O O12 0.116255 0.500000 0.576848
O O13 0.000000 0.661027 0.500000
O O14 0.239716 0.631116 0.905530
O O15 0.322033 0.500000 0.356628
O O16 0.522190 0.619440 0.678704
O O17 0.325799 0.683535 0.245517
#
# Coordination Sequence:
#
# PCOD8058928 Si02
#       8
#     2   4   4   4   4   4   4   2
#     4   9  18  33  52  71  99 145 170 205 256 315
#     4  10  18  32  55  82 111 140 173 217 266 317
#     4  10  20  34  55  79 109 138 177 216 268 317
#     4  10  20  32  52  84 108 140 173 215 265 323
#     4  10  21  37  57  77 102 140 183 225 265 308
#     4  10  19  34  55  78 108 143 176 215 266 320
#     4   9  19  35  54  78 105 141 181 217 263 314
#     4   9  18  33  49  70 107 138 174 205 252 313
#
# _framework density 18.326464000000001
#
# number of rings (size 3 to 8) (size 9 to 14) (size 15 to 20)
#    0.000    2.286    1.429    2.143    0.000    2.286 
#    1.286    1.786    0.000    5.143    0.000    7.000 
#    0.000    0.000    0.000    0.000    0.000    0.000 
#
# Total GULP energy -347216.603463 kJ/mol
# GULP energy per Si atom -12400.592981 kJ/mol
# Density = 1.828475 g / cm^3
# Si number density = 18.326464 Si / 1000 Ang^3
#
#
#
# Elastic Constant Matrix: (Units=GPa)
#
#
# Indices 1 2 3 4 5 6 
#
# 1 82.8733 74.6152 35.7366 0.0000 -10.9102 0.0000
# 2 74.6152 123.2444 35.5726 0.0000 -11.1775 0.0000
# 3 35.7366 35.5726 102.4979 0.0000 -10.9264 0.0000
# 4 0.0000 0.0000 0.0000 21.5216 0.0000 -0.1047
# 5 -10.9102 -11.1775 -10.9264 0.0000 22.1213 0.0000
# 6 0.0000 0.0000 0.0000 -0.1047 0.0000 23.9409
#
#
#
# Elastic Compliance Matrix: (Units=1/GPa)
#
#
# Indices 1 2 3 4 5 6 
#
# 1 0.028502 -0.015715 -0.004044 0.000000 0.004119 0.000000
# 2 -0.015715 0.017898 -0.000628 0.000000 0.000983 0.000000
# 3 -0.004044 -0.000628 0.011757 0.000000 0.003495 0.000000
# 4 0.000000 0.000000 0.000000 0.046466 0.000000 0.000203
# 5 0.004119 0.000983 0.003495 0.000000 0.049460 0.000000
# 6 0.000000 0.000000 0.000000 0.000203 0.000000 0.041770
#
#
# Mechanical properties :
#
#
# Convention : Reuss Voigt Hill
#
# Bulk Modulus (GPa) = 57.52718 66.71826 62.12272
# Shear Modulus (GPa) = 20.62524 24.36285 22.49404
#
# Velocity S-wave (km/s) = 3.35839 3.65002 3.50724
# Velocity P-wave (km/s) = 6.81885 7.36532 7.09735
#
# Compressibility (1/GPa) = 0.01738309
#
# Stress axis : x y z
#
# Youngs Moduli (GPa) = 35.08569 55.87080 85.05652
#
# Poissons Ratio (x) = 0.87799 0.34399
# Poissons Ratio (y) = 0.55136 0.05341
# Poissons Ratio (z) = 0.14190 0.03508
#
# Static dielectric constant tensor:
#      x y z
#    x 3.123770 0.000000 -0.027610 
#    y 0.000000 3.371290 0.000000 
#    z -0.027610 0.000000 3.534210 
# 
# 
# High freq. dielectric constant tensor:
#      x y z
#    x 1.687720 0.000000 -0.004610 
#    y 0.000000 1.715080 0.000000 
#    z -0.004610 0.000000 1.715670 
# 
# From -- ./inp_files/55892.got.cif
#   From: 2010.06.25/outbox.cif.g09.slc.cpg/sg10_28_cif.got.tgz:55892.got - 2010.06.27 22:07:45.
