data_PCOD8058046
_publ_section_title
;
Structure prediction by ZEFSAII (Michael W. Deem and Ramdas Pophale) SiO2 
 PCOD8058046
Probable space group: P 2/M
;
_chemical_formula_sum "Si O2"
_cell_formula_units_Z 32
_cell_length_a 25.687725
_cell_length_b 8.979943
_cell_length_c 14.566579
_cell_angle_alpha 90.000000
_cell_angle_beta 147.569145
_cell_angle_gamma 90.000000
_cell_volume 1801.978193
_symmetry_space_group_name_H-M "P 2/M"
_symmetry_group_IT_number 10
_symmetry_cell_setting 'monoclinic'
loop_
_space_group_symop_operation_xyz
x,y,z
-x,y,-z
-x,-y,-z
x,-y,z
loop_
_atom_site_type_symbol
_atom_site_label
_atom_site_fract_x
_atom_site_fract_y
_atom_site_fract_z
Si Si1 0.263836 0.325025 0.614847
Si Si2 0.653384 0.324336 0.070044
Si Si3 0.437433 0.329222 0.754596
Si Si4 0.342154 0.823851 0.111194
Si Si5 0.274083 0.674873 0.183594
Si Si6 0.896256 0.827896 0.735220
Si Si7 0.544041 0.329298 0.424316
Si Si8 0.880405 0.826842 0.919741
O O1 0.261024 0.500000 0.593824
O O2 0.275708 0.287146 0.740060
O O3 0.354455 0.252324 0.693386
O O4 0.162860 0.260228 0.429602
O O5 0.648306 0.500000 0.040737
O O6 0.545041 0.263107 0.932615
O O7 0.692507 0.241008 0.038226
O O8 0.441443 0.500000 0.790538
O O9 0.408497 0.308152 0.605269
O O10 0.269261 0.760228 0.079629
O O11 0.451350 0.775164 0.298512
O O12 0.334978 0.000000 0.098078
O O13 0.264947 0.500000 0.153288
O O14 0.375971 0.716772 0.382827
O O15 0.186076 0.725856 0.115867
O O16 0.009243 0.797021 0.886044
O O17 0.872281 0.000000 0.687691
O O18 0.866087 0.777076 0.792754
O O19 0.509634 0.500000 0.386626
O O20 0.853489 0.000000 0.891814
#
# Coordination Sequence:
#
# PCOD8058046 Si02
#       8
#     4   4   4   4   4   4   4   4
#     4  10  18  29  51  78 100 129 171 211 247 292
#     4   9  18  33  50  69  99 136 171 210 251 289
#     4   8  14  27  47  71  99 130 163 198 239 288
#     4  11  22  34  49  70  99 135 172 208 246 293
#     4  11  21  33  53  77  99 128 167 210 253 294
#     4   9  19  35  53  74 105 138 162 194 244 298
#     4   9  18  32  49  71 102 135 165 200 245 295
#     4   9  19  36  54  74 103 137 166 194 240 299
#
# _framework density 17.758262999999999
#
# number of rings (size 3 to 8) (size 9 to 14) (size 15 to 20)
#    0.000    2.500    0.000    4.500    0.000    6.500 
#    0.000    5.000    0.000    4.500    0.000    5.250 
#    0.000    0.000    0.000    0.000    0.000    0.000 
#
# Total GULP energy -396774.713602 kJ/mol
# GULP energy per Si atom -12399.209800 kJ/mol
# Density = 1.771784 g / cm^3
# Si number density = 17.758263 Si / 1000 Ang^3
#
#
#
# Elastic Constant Matrix: (Units=GPa)
#
#
# Indices 1 2 3 4 5 6 
#
# 1 104.3211 53.7419 44.4326 0.0000 -12.2089 0.0000
# 2 53.7419 74.8637 44.1084 0.0000 -7.9592 0.0000
# 3 44.4326 44.1084 99.1637 0.0000 -21.7616 0.0000
# 4 0.0000 0.0000 0.0000 24.6944 0.0000 2.1173
# 5 -12.2089 -7.9592 -21.7616 0.0000 19.9942 0.0000
# 6 0.0000 0.0000 0.0000 2.1173 0.0000 27.0760
#
#
#
# Elastic Compliance Matrix: (Units=1/GPa)
#
#
# Indices 1 2 3 4 5 6 
#
# 1 0.015949 -0.009925 -0.001920 0.000000 0.003698 0.000000
# 2 -0.009925 0.024341 -0.007336 0.000000 -0.004355 0.000000
# 3 -0.001920 -0.007336 0.017486 0.000000 0.014939 0.000000
# 4 0.000000 0.000000 0.000000 0.040768 0.000000 -0.003188
# 5 0.003698 -0.004355 0.014939 0.000000 0.066799 0.000000
# 6 0.000000 0.000000 0.000000 -0.003188 0.000000 0.037182
#
#
# Mechanical properties :
#
#
# Convention : Reuss Voigt Hill
#
# Bulk Modulus (GPa) = 51.50646 62.54604 57.02625
# Shear Modulus (GPa) = 20.21347 23.42397 21.81872
#
# Velocity S-wave (km/s) = 3.37747 3.63581 3.50902
# Velocity P-wave (km/s) = 6.65409 7.27480 6.97136
#
# Compressibility (1/GPa) = 0.01941504
#
# Stress axis : x y z
#
# Youngs Moduli (GPa) = 62.69839 41.08220 57.18820
#
# Poissons Ratio (x) = 0.40774 0.10982
# Poissons Ratio (y) = 0.62227 0.41952
# Poissons Ratio (z) = 0.12040 0.30137
#
# Static dielectric constant tensor:
#      x y z
#    x 3.334500 0.000000 -0.107450 
#    y 0.000000 3.060220 0.000000 
#    z -0.107450 0.000000 3.186300 
# 
# 
# High freq. dielectric constant tensor:
#      x y z
#    x 1.686880 0.000000 -0.012370 
#    y 0.000000 1.667810 0.000000 
#    z -0.012370 0.000000 1.671620 
# 
# From -- ./inp_files/72238.got.cif
#   From: 2010.06.25/outbox.cif.g09.slc.cpg/sg10_37_cif.got.tgz:72238.got - 2010.06.27 22:07:45.
