data_PCOD8058550
_publ_section_title
;
Structure prediction by ZEFSAII (Michael W. Deem and Ramdas Pophale) SiO2 
 PCOD8058550
Probable space group: P 2/M
;
_chemical_formula_sum "Si O2"
_cell_formula_units_Z 24
_cell_length_a 26.495721
_cell_length_b 8.548061
_cell_length_c 11.581720
_cell_angle_alpha 90.000000
_cell_angle_beta 151.340791
_cell_angle_gamma 90.000000
_cell_volume 1258.040425
_symmetry_space_group_name_H-M "P 2/M"
_symmetry_group_IT_number 10
_symmetry_cell_setting 'monoclinic'
loop_
_space_group_symop_operation_xyz
x,y,z
-x,y,-z
-x,-y,-z
x,-y,z
loop_
_atom_site_type_symbol
_atom_site_label
_atom_site_fract_x
_atom_site_fract_y
_atom_site_fract_z
Si Si1 0.121064 0.182134 0.859034
Si Si2 0.102658 0.683241 0.574380
Si Si3 0.617582 0.327125 0.756349
Si Si4 0.703553 0.178735 0.141054
Si Si5 0.508334 0.684197 0.883705
Si Si6 0.304079 0.325575 0.340961
O O1 0.147277 0.274683 0.792045
O O2 0.003569 0.222370 0.663927
O O3 0.130806 0.000000 0.850695
O O4 0.196476 0.224573 0.120898
O O5 0.079108 0.500000 0.522586
O O6 0.185472 0.727750 0.638686
O O7 0.500000 0.278035 0.500000
O O8 0.626672 0.500000 0.834464
O O9 0.673360 0.332303 0.747743
O O10 0.661427 0.192907 0.926522
O O11 0.725021 0.000000 0.216613
O O12 0.617236 0.245886 0.055907
O O13 0.511997 0.500000 0.869909
O O14 0.402873 0.751138 0.608292
O O15 0.500000 0.730699 0.000000
O O16 0.282414 0.500000 0.347212
#
# Coordination Sequence:
#
# PCOD8058550 Si02
#       6
#     4   4   4   4   4   4
#     4  11  21  33  51  81 117 148 181 221 272 328
#     4  11  21  35  54  77 111 152 188 221 265 324
#     4  10  18  31  51  76 109 145 181 220 267 328
#     4  12  23  34  53  81 115 146 179 226 278 330
#     4  10  22  41  62  81 105 144 192 234 273 324
#     4  10  19  33  55  81 111 147 184 223 270 326
#
# _framework density 19.077287999999999
#
# number of rings (size 3 to 8) (size 9 to 14) (size 15 to 20)
#    0.000    1.333    3.333    5.500    0.000    1.333 
#    0.000    0.000    0.000    1.000    0.000    7.000 
#    0.000    0.000    0.000    0.000    0.000    0.000 
#
# Total GULP energy -297394.575402 kJ/mol
# GULP energy per Si atom -12391.440642 kJ/mol
# Density = 1.903387 g / cm^3
# Si number density = 19.077288 Si / 1000 Ang^3
#
#
#
# Elastic Constant Matrix: (Units=GPa)
#
#
# Indices 1 2 3 4 5 6 
#
# 1 85.6895 21.3237 52.8330 0.0000 12.1171 0.0000
# 2 21.3237 74.8645 18.0859 0.0000 3.1871 0.0000
# 3 52.8330 18.0859 89.8981 0.0000 15.0211 0.0000
# 4 0.0000 0.0000 0.0000 20.9701 0.0000 7.6809
# 5 12.1171 3.1871 15.0211 0.0000 13.0013 0.0000
# 6 0.0000 0.0000 0.0000 7.6809 0.0000 18.3816
#
#
#
# Elastic Compliance Matrix: (Units=1/GPa)
#
#
# Indices 1 2 3 4 5 6 
#
# 1 0.019224 -0.002873 -0.009721 0.000000 -0.005982 0.000000
# 2 -0.002873 0.014470 -0.001335 0.000000 0.000673 0.000000
# 3 -0.009721 -0.001335 0.019254 0.000000 -0.012858 0.000000
# 4 0.000000 0.000000 0.000000 0.056304 0.000000 -0.023527
# 5 -0.005982 0.000673 -0.012858 0.000000 0.097181 0.000000
# 6 0.000000 0.000000 0.000000 -0.023527 0.000000 0.064233
#
#
# Mechanical properties :
#
#
# Convention : Reuss Voigt Hill
#
# Bulk Modulus (GPa) = 39.85591 48.32639 44.09115
# Shear Modulus (GPa) = 16.29267 21.01789 18.65528
#
# Velocity S-wave (km/s) = 2.92556 3.32282 3.13050
# Velocity P-wave (km/s) = 5.68762 6.33312 6.01903
#
# Compressibility (1/GPa) = 0.02509038
#
# Stress axis : x y z
#
# Youngs Moduli (GPa) = 52.01793 69.11040 51.93855
#
# Poissons Ratio (x) = 0.19853 0.50487
# Poissons Ratio (y) = 0.14943 0.06935
# Poissons Ratio (z) = 0.50564 0.09228
#
# Static dielectric constant tensor:
#      x y z
#    x 3.301990 0.000000 0.301000 
#    y 0.000000 3.550160 0.000000 
#    z 0.301000 0.000000 3.721680 
# 
# 
# High freq. dielectric constant tensor:
#      x y z
#    x 1.706630 0.000000 0.034480 
#    y 0.000000 1.735210 0.000000 
#    z 0.034480 0.000000 1.746530 
# 
# From -- ./inp_files/57320.got.cif
#   From: 2010.06.25/outbox.cif.g09.slc.cpg/sg10_29_cif.got.tgz:57320.got - 2010.06.27 22:07:45.
