data_PCOD8058363
_publ_section_title
;
Structure prediction by ZEFSAII (Michael W. Deem and Ramdas Pophale) SiO2 
 PCOD8058363
Probable space group: P 2/M
;
_chemical_formula_sum "Si O2"
_cell_formula_units_Z 32
_cell_length_a 17.571049
_cell_length_b 16.035254
_cell_length_c 12.166179
_cell_angle_alpha 90.000000
_cell_angle_beta 28.334617
_cell_angle_gamma 90.000000
_cell_volume 1626.948675
_symmetry_space_group_name_H-M "P 2/M"
_symmetry_group_IT_number 10
_symmetry_cell_setting 'monoclinic'
loop_
_space_group_symop_operation_xyz
x,y,z
-x,y,-z
-x,-y,-z
x,-y,z
loop_
_atom_site_type_symbol
_atom_site_label
_atom_site_fract_x
_atom_site_fract_y
_atom_site_fract_z
Si Si1 0.749741 0.593002 0.986939
Si Si2 0.861467 0.869809 0.603754
Si Si3 0.226020 0.092855 0.522765
Si Si4 0.068329 0.690556 0.574091
Si Si5 0.647942 0.747813 0.233252
Si Si6 0.008898 0.771324 0.111584
Si Si7 0.562681 0.812555 0.104734
Si Si8 0.621939 0.363124 0.928815
O O1 0.783069 0.500000 0.990710
O O2 0.638634 0.585237 0.020084
O O3 0.908843 0.640586 0.744240
O O4 0.666982 0.648266 0.187402
O O5 0.829483 0.918269 0.532225
O O6 0.930956 0.778107 0.489340
O O7 0.000000 0.914709 0.500000
O O8 0.696252 0.871703 0.881527
O O9 0.391679 0.143058 0.319343
O O10 0.088301 0.141569 0.765018
O O11 0.246383 0.000000 0.547172
O O12 0.215157 0.635819 0.347806
O O13 0.074621 0.706132 0.698066
O O14 0.500000 0.764047 0.500000
O O15 0.616820 0.795091 0.159690
O O16 0.807055 0.785953 0.086468
O O17 0.000000 0.733438 0.000000
O O18 0.553994 0.728619 0.044069
O O19 0.500000 0.407676 0.000000
#
# Coordination Sequence:
#
# PCOD8058363 Si02
#       8
#     4   4   4   4   4   4   4   4
#     4  10  21  35  53  80 113 145 175 215 270 324
#     4  10  18  33  55  79 111 147 185 223 263 318
#     4  11  23  36  54  83 115 145 177 221 277 326
#     4   9  18  33  54  79 105 142 184 218 258 318
#     4  10  21  38  61  82 102 139 188 228 266 321
#     4  10  20  37  60  80 104 139 184 228 270 320
#     4  10  19  34  55  80 109 144 186 226 265 318
#     4  10  18  30  52  79 109 143 181 221 261 309
#
# _framework density 19.668721000000001
#
# number of rings (size 3 to 8) (size 9 to 14) (size 15 to 20)
#    0.000    2.000    0.000    7.500    0.000    4.000 
#    0.000    1.875    0.000    7.500    0.000    0.000 
#    0.000    0.000    0.000    0.000    0.000    0.000 
#
# Total GULP energy -396719.706043 kJ/mol
# GULP energy per Si atom -12397.490814 kJ/mol
# Density = 1.962395 g / cm^3
# Si number density = 19.668721 Si / 1000 Ang^3
#
#
#
# Elastic Constant Matrix: (Units=GPa)
#
#
# Indices 1 2 3 4 5 6 
#
# 1 122.9215 10.1998 30.4188 0.0000 -1.9770 0.0000
# 2 10.1998 73.8727 17.2835 0.0000 -9.2325 0.0000
# 3 30.4188 17.2835 101.5752 0.0000 -0.7640 0.0000
# 4 0.0000 0.0000 0.0000 6.8104 0.0000 -2.7768
# 5 -1.9770 -9.2325 -0.7640 0.0000 36.0562 0.0000
# 6 0.0000 0.0000 0.0000 -2.7768 0.0000 9.1428
#
#
#
# Elastic Compliance Matrix: (Units=1/GPa)
#
#
# Indices 1 2 3 4 5 6 
#
# 1 0.008817 -0.000589 -0.002538 0.000000 0.000279 0.000000
# 2 -0.000589 0.014609 -0.002282 0.000000 0.003660 0.000000
# 3 -0.002538 -0.002282 0.010990 0.000000 -0.000491 0.000000
# 4 0.000000 0.000000 0.000000 0.167587 0.000000 0.050898
# 5 0.000279 0.003660 -0.000491 0.000000 0.028677 0.000000
# 6 0.000000 0.000000 0.000000 0.050898 0.000000 0.124835
#
#
# Mechanical properties :
#
#
# Convention : Reuss Voigt Hill
#
# Bulk Modulus (GPa) = 42.37618 46.01929 44.19773
# Shear Modulus (GPa) = 13.36192 26.43301 19.89746
#
# Velocity S-wave (km/s) = 2.60926 3.66992 3.18406
# Velocity P-wave (km/s) = 5.53799 6.43473 6.00313
#
# Compressibility (1/GPa) = 0.02359816
#
# Stress axis : x y z
#
# Youngs Moduli (GPa) = 113.42122 68.44882 90.99503
#
# Poissons Ratio (x) = 0.04029 0.23095
# Poissons Ratio (y) = 0.06677 0.20766
# Poissons Ratio (z) = 0.28787 0.15620
#
# Static dielectric constant tensor:
#      x y z
#    x 3.687780 0.000000 -0.047210 
#    y 0.000000 3.237410 0.000000 
#    z -0.047210 0.000000 3.670130 
# 
# 
# High freq. dielectric constant tensor:
#      x y z
#    x 1.775750 0.000000 -0.006640 
#    y 0.000000 1.731580 0.000000 
#    z -0.006640 0.000000 1.769890 
# 
# From -- ./inp_files/54126.got.cif
#   From: 2010.06.25/outbox.cif.g09.slc.cpg/sg10_28_cif.got.tgz:54126.got - 2010.06.27 22:07:45.
