data_PCOD8058096
_publ_section_title
;
Structure prediction by ZEFSAII (Michael W. Deem and Ramdas Pophale) SiO2 
 PCOD8058096
Probable space group: P 2/M
;
_chemical_formula_sum "Si O2"
_cell_formula_units_Z 32
_cell_length_a 20.449112
_cell_length_b 8.674266
_cell_length_c 29.070577
_cell_angle_alpha 90.000000
_cell_angle_beta 159.287561
_cell_angle_gamma 90.000000
_cell_volume 1823.764640
_symmetry_space_group_name_H-M "P 2/M"
_symmetry_group_IT_number 10
_symmetry_cell_setting 'monoclinic'
loop_
_space_group_symop_operation_xyz
x,y,z
-x,y,-z
-x,-y,-z
x,-y,z
loop_
_atom_site_type_symbol
_atom_site_label
_atom_site_fract_x
_atom_site_fract_y
_atom_site_fract_z
Si Si1 0.671715 0.816506 0.397248
Si Si2 0.230395 0.817993 0.894255
Si Si3 0.705586 0.183137 0.809782
Si Si4 0.937410 0.183471 0.309298
Si Si5 0.025416 0.182345 0.086915
Si Si6 0.360406 0.817189 0.813425
Si Si7 0.435905 0.681934 0.768246
Si Si8 0.829976 0.182409 0.045474
O O1 0.498396 0.752198 0.313246
O O2 0.671992 0.747139 0.346605
O O3 0.856203 0.758729 0.544339
O O4 0.667071 0.000000 0.389903
O O5 0.126557 0.745136 0.781939
O O6 0.223540 0.000000 0.884849
O O7 0.443269 0.763607 0.036046
O O8 0.128264 0.765926 0.874542
O O9 0.783043 0.241728 0.810638
O O10 0.695885 0.000000 0.804223
O O11 0.848436 0.244552 0.942203
O O12 0.799209 0.243469 0.257833
O O13 0.928957 0.000000 0.302084
O O14 0.025058 0.000000 0.082709
O O15 0.000521 0.232040 0.124123
O O16 0.329376 0.740665 0.743447
O O17 0.355770 0.000000 0.803968
O O18 0.432560 0.500000 0.764808
O O19 0.645641 0.739927 0.905218
O O20 0.794683 0.000000 0.020187
#
# Coordination Sequence:
#
# PCOD8058096 Si02
#       8
#     4   4   4   4   4   4   4   4
#     4  10  18  30  47  64  89 121 152 181 213 262
#     4   8  14  25  45  71  91 108 140 190 229 252
#     4   8  13  21  38  64  91 115 144 179 210 253
#     4   9  17  28  46  70  88 111 151 191 220 251
#     4   8  12  20  39  67  90 112 145 178 211 255
#     4   9  17  31  50  67  86 113 147 186 224 265
#     4  11  21  31  44  65  93 118 144 182 227 269
#     4   9  15  27  49  70  90 116 148 182 218 262
#
# _framework density 17.546123000000001
#
# number of rings (size 3 to 8) (size 9 to 14) (size 15 to 20)
#    0.000    3.000    1.250    3.000    0.000    2.000 
#    0.000    3.125    0.000   11.250    0.000    5.250 
#    0.000    0.000    0.000    5.625    0.000    6.250 
#
# Total GULP energy -396496.690140 kJ/mol
# GULP energy per Si atom -12390.521567 kJ/mol
# Density = 1.750619 g / cm^3
# Si number density = 17.546123 Si / 1000 Ang^3
#
#
#
# Elastic Constant Matrix: (Units=GPa)
#
#
# Indices 1 2 3 4 5 6 
#
# 1 185.7198 17.9902 92.3872 0.0000 11.9698 0.0000
# 2 17.9902 25.1751 16.2903 0.0000 -3.4583 0.0000
# 3 92.3872 16.2903 110.2714 0.0000 0.2845 0.0000
# 4 0.0000 0.0000 0.0000 2.5179 0.0000 0.9883
# 5 11.9698 -3.4583 0.2845 0.0000 20.7426 0.0000
# 6 0.0000 0.0000 0.0000 0.9883 0.0000 2.1908
#
#
#
# Elastic Compliance Matrix: (Units=1/GPa)
#
#
# Indices 1 2 3 4 5 6 
#
# 1 0.010012 -0.002854 -0.007951 0.000000 -0.006144 0.000000
# 2 -0.002854 0.045904 -0.004414 0.000000 0.009361 0.000000
# 3 -0.007951 -0.004414 0.016373 0.000000 0.003628 0.000000
# 4 0.000000 0.000000 0.000000 0.482616 0.000000 -0.217727
# 5 -0.006144 0.009361 0.003628 0.000000 0.053267 0.000000
# 6 0.000000 0.000000 0.000000 -0.217727 0.000000 0.554686
#
#
# Mechanical properties :
#
#
# Convention : Reuss Voigt Hill
#
# Bulk Modulus (GPa) = 23.89482 63.83352 43.86417
# Shear Modulus (GPa) = 4.14166 18.05684 11.09925
#
# Velocity S-wave (km/s) = 1.53804 3.21145 2.51783
# Velocity P-wave (km/s) = 4.09902 7.08594 5.78846
#
# Compressibility (1/GPa) = 0.04185007
#
# Stress axis : x y z
#
# Youngs Moduli (GPa) = 99.87914 21.78478 61.07750
#
# Poissons Ratio (x) = 0.06217 0.48562
# Poissons Ratio (y) = 0.28505 0.26962
# Poissons Ratio (z) = 0.79412 0.09617
#
# Static dielectric constant tensor:
#      x y z
#    x 3.828750 0.000000 0.097300 
#    y 0.000000 2.694120 0.000000 
#    z 0.097300 0.000000 3.241410 
# 
# 
# High freq. dielectric constant tensor:
#      x y z
#    x 1.699270 0.000000 0.006830 
#    y 0.000000 1.621470 0.000000 
#    z 0.006830 0.000000 1.646390 
# 
# From -- ./inp_files/54949.got.cif
#   From: 2010.06.25/outbox.cif.g09.slc.cpg/sg10_28_cif.got.tgz:54949.got - 2010.06.27 22:07:45.
