data_PCOD8058706
_publ_section_title
;
Structure prediction by ZEFSAII (Michael W. Deem and Ramdas Pophale) SiO2 
 PCOD8058706
Probable space group: P 2/M
;
_chemical_formula_sum "Si O2"
_cell_formula_units_Z 32
_cell_length_a 9.638126
_cell_length_b 13.625517
_cell_length_c 27.431089
_cell_angle_alpha 90.000000
_cell_angle_beta 27.683610
_cell_angle_gamma 90.000000
_cell_volume 1673.621820
_symmetry_space_group_name_H-M "P 2/M"
_symmetry_group_IT_number 10
_symmetry_cell_setting 'monoclinic'
loop_
_space_group_symop_operation_xyz
x,y,z
-x,y,-z
-x,-y,-z
x,-y,z
loop_
_atom_site_type_symbol
_atom_site_label
_atom_site_fract_x
_atom_site_fract_y
_atom_site_fract_z
Si Si1 0.346964 0.695057 0.167239
Si Si2 0.894113 0.383083 0.936245
Si Si3 0.013398 0.113448 0.424840
Si Si4 0.099998 0.707677 0.775768
Si Si5 0.450060 0.389333 0.236004
Si Si6 0.658426 0.109629 0.344258
Si Si7 0.730763 0.704547 0.614221
Si Si8 0.857695 0.109341 0.727890
O O1 0.326122 0.626527 0.220655
O O2 0.360363 0.809308 0.179924
O O3 0.054502 0.670312 0.225764
O O4 0.640224 0.668632 0.046247
O O5 0.837016 0.500000 0.946762
O O6 0.892290 0.325864 0.885149
O O7 0.200046 0.361460 0.869704
O O8 0.674767 0.149491 0.541157
O O9 0.232775 0.176324 0.391990
O O10 0.092207 0.133028 0.344192
O O11 0.056968 0.000000 0.425162
O O12 0.159065 0.824804 0.752033
O O13 0.430560 0.664070 0.681917
O O14 0.407532 0.500000 0.264817
O O15 0.250904 0.329122 0.335680
O O16 0.822041 0.113021 0.345568
O O17 0.653861 0.000000 0.324280
O O18 0.000000 0.657608 0.500000
O O19 0.715576 0.000000 0.778577
#
# Coordination Sequence:
#
# PCOD8058706 Si02
#       8
#     4   4   4   4   4   4   4   4
#     4  11  20  36  61  85 110 148 189 241 276 332
#     4  10  22  40  62  86 112 142 184 240 297 340
#     4  10  18  31  56  84 113 152 195 231 270 324
#     4  10  22  35  54  85 119 149 184 230 290 332
#     4  10  22  40  62  86 108 141 188 236 287 340
#     4   9  17  31  53  83 117 151 190 231 274 328
#     4  11  21  37  55  83 119 154 182 229 281 338
#     4   9  18  32  52  84 119 149 183 230 285 334
#
# _framework density 19.120208000000002
#
# number of rings (size 3 to 8) (size 9 to 14) (size 15 to 20)
#    0.000    2.000    2.500    1.500    0.000    5.000 
#    0.000    1.250    0.000    6.000    0.000    0.000 
#    0.000    0.000    0.000    0.000    0.000    0.000 
#
# Total GULP energy -396594.131530 kJ/mol
# GULP energy per Si atom -12393.566610 kJ/mol
# Density = 1.907669 g / cm^3
# Si number density = 19.120208 Si / 1000 Ang^3
#
#
#
# Elastic Constant Matrix: (Units=GPa)
#
#
# Indices 1 2 3 4 5 6 
#
# 1 110.2247 32.0638 49.9128 0.0000 10.1338 0.0000
# 2 32.0638 80.7831 59.2143 0.0000 5.0013 0.0000
# 3 49.9128 59.2143 129.5467 0.0000 15.7005 0.0000
# 4 0.0000 0.0000 0.0000 18.7213 0.0000 -8.8741
# 5 10.1338 5.0013 15.7005 0.0000 22.1608 0.0000
# 6 0.0000 0.0000 0.0000 -8.8741 0.0000 17.8766
#
#
#
# Elastic Compliance Matrix: (Units=1/GPa)
#
#
# Indices 1 2 3 4 5 6 
#
# 1 0.011310 -0.002049 -0.003118 0.000000 -0.002500 0.000000
# 2 -0.002049 0.019069 -0.008225 0.000000 0.002461 0.000000
# 3 -0.003118 -0.008225 0.013436 0.000000 -0.006237 0.000000
# 4 0.000000 0.000000 0.000000 0.069851 0.000000 0.034675
# 5 -0.002500 0.002461 -0.006237 0.000000 0.050132 0.000000
# 6 0.000000 0.000000 0.000000 0.034675 0.000000 0.073152
#
#
# Mechanical properties :
#
#
# Convention : Reuss Voigt Hill
#
# Bulk Modulus (GPa) = 58.71579 66.99293 62.85436
# Shear Modulus (GPa) = 18.55904 23.70930 21.13417
#
# Velocity S-wave (km/s) = 3.11891 3.52520 3.32826
# Velocity P-wave (km/s) = 6.61404 7.18910 6.90756
#
# Compressibility (1/GPa) = 0.01703119
#
# Stress axis : x y z
#
# Youngs Moduli (GPa) = 88.41545 52.44250 74.42668
#
# Poissons Ratio (x) = 0.10744 0.23208
# Poissons Ratio (y) = 0.18114 0.61215
# Poissons Ratio (z) = 0.27570 0.43133
#
# Static dielectric constant tensor:
#      x y z
#    x 3.757290 0.000000 0.036970 
#    y 0.000000 3.559160 0.000000 
#    z 0.036970 0.000000 3.390420 
# 
# 
# High freq. dielectric constant tensor:
#      x y z
#    x 1.761340 0.000000 0.008330 
#    y 0.000000 1.737790 0.000000 
#    z 0.008330 0.000000 1.725730 
# 
# From -- ./inp_files/88251.got.cif
#   From: 2010.06.25/outbox.cif.g09.slc.cpg/sg10_45_cif.got.tgz:88251.got - 2010.06.27 22:07:45.
