data_PCOD8058728
_publ_section_title
;
Structure prediction by ZEFSAII (Michael W. Deem and Ramdas Pophale) SiO2 
 PCOD8058728
Probable space group: P 2/M
;
_chemical_formula_sum "Si O2"
_cell_formula_units_Z 26
_cell_length_a 12.012689
_cell_length_b 7.445174
_cell_length_c 26.540817
_cell_angle_alpha 90.000000
_cell_angle_beta 37.970100
_cell_angle_gamma 90.000000
_cell_volume 1460.431233
_symmetry_space_group_name_H-M "P 2/M"
_symmetry_group_IT_number 10
_symmetry_cell_setting 'monoclinic'
loop_
_space_group_symop_operation_xyz
x,y,z
-x,y,-z
-x,-y,-z
x,-y,z
loop_
_atom_site_type_symbol
_atom_site_label
_atom_site_fract_x
_atom_site_fract_y
_atom_site_fract_z
Si Si1 0.705572 0.212517 0.603828
Si Si2 0.151490 0.500000 0.703661
Si Si3 0.254631 0.792082 0.040812
Si Si4 0.982791 0.500000 0.142447
Si Si5 0.020912 0.214524 0.300241
Si Si6 0.995151 0.211404 0.579981
Si Si7 0.590166 0.500000 0.303291
Si Si8 0.642820 0.207117 0.881573
O O1 0.821975 0.272493 0.513417
O O2 0.518500 0.319034 0.669907
O O3 0.817458 0.275657 0.613202
O O4 0.664420 0.000000 0.618684
O O5 0.131149 0.319572 0.677381
O O6 0.350355 0.500000 0.658774
O O7 0.002536 0.500000 0.801611
O O8 0.082668 0.675914 0.084187
O O9 0.274515 0.761638 0.093186
O O10 0.217453 0.000000 0.040927
O O11 0.439104 0.713421 0.949320
O O12 0.769991 0.500000 0.203407
O O13 0.006582 0.283558 0.362617
O O14 0.217922 0.280029 0.210067
O O15 0.991182 0.000000 0.304567
O O16 0.990135 0.000000 0.581641
O O17 0.613472 0.000000 0.882460
#
# Coordination Sequence:
#
# PCOD8058728 Si02
#       8
#     4   2   4   2   4   4   2   4
#     4   9  18  36  55  75  97 116 158 211 244 282
#     4  10  22  31  42  71  98 134 173 183 224 289
#     4   9  16  27  42  62  92 127 159 197 231 266
#     4  10  20  30  42  65  90 127 173 190 215 279
#     4  10  18  32  49  71 105 130 152 195 243 293
#     4   8  17  33  57  79  94 121 154 196 258 297
#     4  10  22  33  49  73  94 132 172 193 233 277
#     4   8  14  24  42  66  91 123 157 189 236 283
#
# _framework density 17.802962000000001
#
# number of rings (size 3 to 8) (size 9 to 14) (size 15 to 20)
#    0.462    2.462    1.538    1.846    0.000    5.538 
#    0.000    1.538    0.000    2.769    0.000    2.154 
#    0.000    6.154    0.000    0.000    0.000    0.000 
#
# Total GULP energy -322094.790396 kJ/mol
# GULP energy per Si atom -12388.261169 kJ/mol
# Density = 1.776244 g / cm^3
# Si number density = 17.802962 Si / 1000 Ang^3
#
#
#
# Elastic Constant Matrix: (Units=GPa)
#
#
# Indices 1 2 3 4 5 6 
#
# 1 61.4863 30.5124 11.0877 0.0000 -22.9441 0.0000
# 2 30.5124 82.6950 15.4175 0.0000 -20.1035 0.0000
# 3 11.0877 15.4175 25.5144 0.0000 -22.2895 0.0000
# 4 0.0000 0.0000 0.0000 18.8965 0.0000 -11.1590
# 5 -22.9441 -20.1035 -22.2895 0.0000 33.2087 0.0000
# 6 0.0000 0.0000 0.0000 -11.1590 0.0000 26.4071
#
#
#
# Elastic Compliance Matrix: (Units=1/GPa)
#
#
# Indices 1 2 3 4 5 6 
#
# 1 0.025282 -0.006272 0.011474 0.000000 0.021372 0.000000
# 2 -0.006272 0.015806 -0.005445 0.000000 0.001581 0.000000
# 3 0.011474 -0.005445 0.100433 0.000000 0.072041 0.000000
# 4 0.000000 0.000000 0.000000 0.070517 0.000000 0.029799
# 5 0.021372 0.001581 0.072041 0.000000 0.094189 0.000000
# 6 0.000000 0.000000 0.000000 0.029799 0.000000 0.050461
#
#
# Mechanical properties :
#
#
# Convention : Reuss Voigt Hill
#
# Bulk Modulus (GPa) = 7.09042 31.52566 19.30804
# Shear Modulus (GPa) = 12.37053 23.21433 17.79243
#
# Velocity S-wave (km/s) = 2.63888 3.61495 3.16477
# Velocity P-wave (km/s) = 3.64366 5.93046 4.92172
#
# Compressibility (1/GPa) = 0.14103533
#
# Stress axis : x y z
#
# Youngs Moduli (GPa) = 39.55331 63.26610 9.95691
#
# Poissons Ratio (x) = 0.39681 -0.11424
# Poissons Ratio (y) = 0.24808 0.05421
# Poissons Ratio (z) = -0.45382 0.34445
#
# Static dielectric constant tensor:
#      x y z
#    x 3.085860 0.000000 0.139160 
#    y 0.000000 3.161080 0.000000 
#    z 0.139160 0.000000 3.413240 
# 
# 
# High freq. dielectric constant tensor:
#      x y z
#    x 1.644750 0.000000 -0.010900 
#    y 0.000000 1.691440 0.000000 
#    z -0.010900 0.000000 1.681920 
# 
# From -- ./inp_files/88511.got.cif
#   From: 2010.06.25/outbox.cif.g09.slc.cpg/sg10_45_cif.got.tgz:88511.got - 2010.06.27 22:07:45.
