data_PCOD8058169
_publ_section_title
;
Structure prediction by ZEFSAII (Michael W. Deem and Ramdas Pophale) SiO2 
 PCOD8058169
Probable space group: P 2/M
;
_chemical_formula_sum "Si O2"
_cell_formula_units_Z 32
_cell_length_a 23.994709
_cell_length_b 9.044575
_cell_length_c 20.848424
_cell_angle_alpha 90.000000
_cell_angle_beta 156.612985
_cell_angle_gamma 90.000000
_cell_volume 1795.980538
_symmetry_space_group_name_H-M "P 2/M"
_symmetry_group_IT_number 10
_symmetry_cell_setting 'monoclinic'
loop_
_space_group_symop_operation_xyz
x,y,z
-x,y,-z
-x,-y,-z
x,-y,z
loop_
_atom_site_type_symbol
_atom_site_label
_atom_site_fract_x
_atom_site_fract_y
_atom_site_fract_z
Si Si1 0.465049 0.173031 0.120414
Si Si2 0.348472 0.829619 0.869443
Si Si3 0.269397 0.174094 0.441700
Si Si4 0.901272 0.327285 0.630863
Si Si5 0.452854 0.674761 0.242301
Si Si6 0.229783 0.172432 0.617135
Si Si7 0.990591 0.826693 0.918155
Si Si8 0.158374 0.328840 0.989077
O O1 0.354135 0.232889 0.948423
O O2 0.440514 0.000000 0.109555
O O3 0.437606 0.268724 0.153981
O O4 0.622107 0.197878 0.261359
O O5 0.238104 0.765502 0.700031
O O6 0.312474 0.000000 0.837750
O O7 0.500000 0.806830 0.000000
O O8 0.213965 0.241152 0.449302
O O9 0.419064 0.247943 0.584705
O O10 0.162987 0.212991 0.271769
O O11 0.288602 0.000000 0.471431
O O12 0.866072 0.500000 0.595659
O O13 0.889779 0.265581 0.546233
O O14 0.055846 0.292261 0.821127
O O15 0.475366 0.500000 0.265047
O O16 0.313863 0.720411 0.134197
O O17 0.188894 0.000000 0.573194
O O18 0.113164 0.757125 0.004967
O O19 0.017327 0.000000 0.945844
O O20 0.000000 0.762601 0.000000
O O21 0.150251 0.500000 0.997807
#
# Coordination Sequence:
#
# PCOD8058169 Si02
#       8
#     4   4   4   4   4   4   4   4
#     4   9  16  27  45  68  96 129 165 202 250 300
#     4   7  12  23  39  62  92 126 159 200 249 297
#     4  10  19  32  52  77 102 129 162 198 242 293
#     4  10  18  30  48  70  97 128 166 209 249 287
#     4  11  21  33  49  72 104 135 167 206 244 284
#     4   9  15  25  44  69  96 124 162 207 252 299
#     4   9  19  37  60  83 104 127 160 202 242 283
#     4   9  21  37  51  72 103 138 169 198 238 292
#
# _framework density 17.817565999999999
#
# number of rings (size 3 to 8) (size 9 to 14) (size 15 to 20)
#    0.000    2.750    1.250    2.625    0.000    2.250 
#    0.000    1.250    0.000    6.750    0.000    5.250 
#    0.000    0.000    0.000    0.000    0.000    0.000 
#
# Total GULP energy -396542.407966 kJ/mol
# GULP energy per Si atom -12391.950249 kJ/mol
# Density = 1.777701 g / cm^3
# Si number density = 17.817566 Si / 1000 Ang^3
#
#
#
# Elastic Constant Matrix: (Units=GPa)
#
#
# Indices 1 2 3 4 5 6 
#
# 1 91.3754 38.4534 61.2776 0.0000 -17.5394 0.0000
# 2 38.4534 60.6380 43.0529 0.0000 -1.4518 0.0000
# 3 61.2776 43.0529 104.3458 0.0000 -8.4173 0.0000
# 4 0.0000 0.0000 0.0000 8.6006 0.0000 4.1822
# 5 -17.5394 -1.4518 -8.4173 0.0000 33.3198 0.0000
# 6 0.0000 0.0000 0.0000 4.1822 0.0000 17.5487
#
#
#
# Elastic Compliance Matrix: (Units=1/GPa)
#
#
# Indices 1 2 3 4 5 6 
#
# 1 0.021750 -0.007098 -0.009132 0.000000 0.008833 0.000000
# 2 -0.007098 0.025708 -0.006788 0.000000 -0.004331 0.000000
# 3 -0.009132 -0.006788 0.017696 0.000000 -0.000632 0.000000
# 4 0.000000 0.000000 0.000000 0.131511 0.000000 -0.031341
# 5 0.008833 -0.004331 -0.000632 0.000000 0.034313 0.000000
# 6 0.000000 0.000000 0.000000 -0.031341 0.000000 0.064453
#
#
# Mechanical properties :
#
#
# Convention : Reuss Voigt Hill
#
# Bulk Modulus (GPa) = 52.30483 60.21409 56.25946
# Shear Modulus (GPa) = 14.37437 19.46553 16.91995
#
# Velocity S-wave (km/s) = 2.84342 3.30887 3.08494
# Velocity P-wave (km/s) = 6.34031 6.96178 6.65830
#
# Compressibility (1/GPa) = 0.01911869
#
# Stress axis : x y z
#
# Youngs Moduli (GPa) = 45.97647 38.89781 56.50947
#
# Poissons Ratio (x) = 0.27609 0.51604
# Poissons Ratio (y) = 0.32633 0.38361
# Poissons Ratio (z) = 0.41985 0.26405
#
# Static dielectric constant tensor:
#      x y z
#    x 3.311520 0.000000 -0.341490 
#    y 0.000000 3.148310 0.000000 
#    z -0.341490 0.000000 3.464140 
# 
# 
# High freq. dielectric constant tensor:
#      x y z
#    x 1.668900 0.000000 -0.026790 
#    y 0.000000 1.675510 0.000000 
#    z -0.026790 0.000000 1.685640 
# 
# From -- ./inp_files/91228.got.cif
#   From: 2010.06.25/outbox.cif.g09.slc.cpg/sg10_46_cif.got.tgz:91228.got - 2010.06.27 22:07:45.
