data_PCOD8059052
_publ_section_title
;
Structure prediction by ZEFSAII (Michael W. Deem and Ramdas Pophale) SiO2 
 PCOD8059052
Probable space group: P 2/M
;
_chemical_formula_sum "Si O2"
_cell_formula_units_Z 24
_cell_length_a 14.813095
_cell_length_b 8.442691
_cell_length_c 29.723732
_cell_angle_alpha 90.000000
_cell_angle_beta 160.061476
_cell_angle_gamma 90.000000
_cell_volume 1267.649862
_symmetry_space_group_name_H-M "P 2/M"
_symmetry_group_IT_number 10
_symmetry_cell_setting 'monoclinic'
loop_
_space_group_symop_operation_xyz
x,y,z
-x,y,-z
-x,-y,-z
x,-y,z
loop_
_atom_site_type_symbol
_atom_site_label
_atom_site_fract_x
_atom_site_fract_y
_atom_site_fract_z
Si Si1 0.691318 0.185051 0.629191
Si Si2 0.425906 0.315852 0.332235
Si Si3 0.276515 0.686392 0.107314
Si Si4 0.283625 0.311392 0.618648
Si Si5 0.875883 0.816944 0.054209
Si Si6 0.749069 0.685600 0.087076
O O1 0.500000 0.247816 0.500000
O O2 0.546034 0.217500 0.608643
O O3 0.973349 0.273544 0.758448
O O4 0.746260 0.000000 0.649640
O O5 0.460035 0.500000 0.359703
O O6 0.644633 0.257250 0.398567
O O7 0.139510 0.289757 0.175593
O O8 0.302762 0.500000 0.111892
O O9 0.504605 0.754198 0.246474
O O10 0.307408 0.773106 0.073930
O O11 0.000000 0.733454 0.000000
O O12 0.287213 0.500000 0.621917
O O13 0.000000 0.241746 0.500000
O O14 0.717799 0.779194 0.025739
O O15 0.956900 0.000000 0.091599
O O16 0.741736 0.500000 0.073669
O O17 0.500000 0.739774 0.000000
#
# Coordination Sequence:
#
# PCOD8059052 Si02
#       6
#     4   4   4   4   4   4
#     4  10  21  37  57  81 111 147 181 218 272 332
#     4  10  18  33  57  80 105 139 184 226 267 313
#     4  10  18  33  56  79 105 138 180 224 263 309
#     4   9  18  33  53  78 107 138 173 220 272 313
#     4  11  21  33  54  82 111 142 180 218 268 326
#     4  10  21  38  60  84 109 139 182 231 276 320
#
# _framework density 18.932673000000001
#
# number of rings (size 3 to 8) (size 9 to 14) (size 15 to 20)
#    0.000    2.000    1.667    5.000    0.000    3.000 
#    3.000    0.000    0.000    3.500    0.000    0.000 
#    0.000    0.000    0.000    0.000    0.000    0.000 
#
# Total GULP energy -297623.390589 kJ/mol
# GULP energy per Si atom -12400.974608 kJ/mol
# Density = 1.888958 g / cm^3
# Si number density = 18.932673 Si / 1000 Ang^3
#
#
#
# Elastic Constant Matrix: (Units=GPa)
#
#
# Indices 1 2 3 4 5 6 
#
# 1 140.9124 16.9427 81.5368 0.0000 4.5984 0.0000
# 2 16.9427 41.2308 12.5748 0.0000 -0.6071 0.0000
# 3 81.5368 12.5748 120.2738 0.0000 -5.2836 0.0000
# 4 0.0000 0.0000 0.0000 17.0422 0.0000 -8.7256
# 5 4.5984 -0.6071 -5.2836 0.0000 38.8430 0.0000
# 6 0.0000 0.0000 0.0000 -8.7256 0.0000 12.2757
#
#
#
# Elastic Compliance Matrix: (Units=1/GPa)
#
#
# Indices 1 2 3 4 5 6 
#
# 1 0.012177 -0.002572 -0.008100 0.000000 -0.002584 0.000000
# 2 -0.002572 0.025596 -0.000907 0.000000 0.000581 0.000000
# 3 -0.008100 -0.000907 0.014025 0.000000 0.002853 0.000000
# 4 0.000000 0.000000 0.000000 0.092251 0.000000 0.065572
# 5 -0.002584 0.000581 0.002853 0.000000 0.026448 0.000000
# 6 0.000000 0.000000 0.000000 0.065572 0.000000 0.128071
#
#
# Mechanical properties :
#
#
# Convention : Reuss Voigt Hill
#
# Bulk Modulus (GPa) = 34.91475 58.28061 46.59768
# Shear Modulus (GPa) = 15.09337 26.38968 20.74152
#
# Velocity S-wave (km/s) = 2.82656 3.73751 3.31349
# Velocity P-wave (km/s) = 5.39761 7.03386 6.26934
#
# Compressibility (1/GPa) = 0.02864119
#
# Stress axis : x y z
#
# Youngs Moduli (GPa) = 82.12309 39.06914 71.29872
#
# Poissons Ratio (x) = 0.10047 0.57749
# Poissons Ratio (y) = 0.21118 0.06469
# Poissons Ratio (z) = 0.66517 0.03545
#
# Static dielectric constant tensor:
#      x y z
#    x 3.663330 0.000000 -0.041130 
#    y 0.000000 3.238320 0.000000 
#    z -0.041130 0.000000 3.461870 
# 
# 
# High freq. dielectric constant tensor:
#      x y z
#    x 1.745390 0.000000 -0.008340 
#    y 0.000000 1.723900 0.000000 
#    z -0.008340 0.000000 1.717980 
# 
# From -- ./inp_files/90057.got.cif
#   From: 2010.06.25/outbox.cif.g09.slc.cpg/sg10_46_cif.got.tgz:90057.got - 2010.06.27 22:07:45.
