data_PCOD8059944
_publ_section_title
;
Structure prediction by ZEFSAII (Michael W. Deem and Ramdas Pophale) SiO2 
 PCOD8059944
Probable space group: P 2/M
;
_chemical_formula_sum "Si O2"
_cell_formula_units_Z 32
_cell_length_a 22.881504
_cell_length_b 9.078350
_cell_length_c 31.550046
_cell_angle_alpha 90.000000
_cell_angle_beta 164.408106
_cell_angle_gamma 90.000000
_cell_volume 1761.546764
_symmetry_space_group_name_H-M "P 2/M"
_symmetry_group_IT_number 10
_symmetry_cell_setting 'monoclinic'
loop_
_space_group_symop_operation_xyz
x,y,z
-x,y,-z
-x,-y,-z
x,-y,z
loop_
_atom_site_type_symbol
_atom_site_label
_atom_site_fract_x
_atom_site_fract_y
_atom_site_fract_z
Si Si1 0.903313 0.670649 0.476790
Si Si2 0.403239 0.170659 0.476735
Si Si3 0.024518 0.834207 0.390404
Si Si4 0.536835 0.166398 0.733694
Si Si5 0.099845 0.171885 0.861262
Si Si6 0.036875 0.666397 0.733722
Si Si7 0.599807 0.328127 0.861233
Si Si8 0.475439 0.334205 0.609565
O O1 0.955620 0.500000 0.521038
O O2 0.023325 0.759990 0.597782
O O3 0.647151 0.700469 0.297538
O O4 0.000000 0.726806 0.500000
O O5 0.500000 0.226776 0.500000
O O6 0.523270 0.259987 0.597742
O O7 0.147087 0.200555 0.297479
O O8 0.455429 0.000000 0.520912
O O9 0.279583 0.833329 0.559742
O O10 0.901814 0.743308 0.267919
O O11 0.933122 0.000000 0.326924
O O12 0.648509 0.257518 0.849466
O O13 0.598143 0.243303 0.732049
O O14 0.627855 0.000000 0.797304
O O15 0.148545 0.242497 0.849494
O O16 0.155449 0.000000 0.897891
O O17 0.250076 0.249969 0.000052
O O18 0.127890 0.500000 0.797327
O O19 0.779622 0.666675 0.559768
O O20 0.655528 0.500000 0.897953
O O21 0.566830 0.500000 0.673041
#
# Coordination Sequence:
#
# PCOD8059944 Si02
#       8
#     4   4   4   4   4   4   4   4
#     4   9  18  32  49  69  94 125 158 190 227 274
#     4   9  18  32  49  69  94 125 158 190 227 274
#     4   9  16  26  43  68  94 119 151 192 234 272
#     4   9  16  27  44  66  92 121 154 191 230 272
#     4  10  19  31  48  70  96 124 155 191 231 275
#     4   9  16  27  44  66  92 121 154 191 230 272
#     4  10  19  31  48  70  96 124 155 191 231 275
#     4   9  16  26  43  68  94 119 151 192 234 272
#
# _framework density 18.165852999999998
#
# number of rings (size 3 to 8) (size 9 to 14) (size 15 to 20)
#    0.000    2.750    0.000    2.250    0.000    7.500 
#    0.000    0.000    0.000    1.500    0.000   10.500 
#    0.000    0.000    0.000    0.000    0.000    0.000 
#
# Total GULP energy -396813.966730 kJ/mol
# GULP energy per Si atom -12400.436460 kJ/mol
# Density = 1.812451 g / cm^3
# Si number density = 18.165853 Si / 1000 Ang^3
#
#
#
# Elastic Constant Matrix: (Units=GPa)
#
#
# Indices 1 2 3 4 5 6 
#
# 1 149.3897 83.9115 46.3507 0.0000 -47.0491 0.0000
# 2 83.9115 158.3757 55.5801 0.0000 -38.2651 0.0000
# 3 46.3507 55.5801 59.9553 0.0000 -36.9784 0.0000
# 4 0.0000 0.0000 0.0000 27.3295 0.0000 -14.6115
# 5 -47.0491 -38.2651 -36.9784 0.0000 34.9497 0.0000
# 6 0.0000 0.0000 0.0000 -14.6115 0.0000 33.3644
#
#
#
# Elastic Compliance Matrix: (Units=1/GPa)
#
#
# Indices 1 2 3 4 5 6 
#
# 1 0.013521 -0.004469 0.005464 0.000000 0.019091 0.000000
# 2 -0.004469 0.010952 -0.008672 0.000000 -0.003200 0.000000
# 3 0.005464 -0.008672 0.055190 0.000000 0.056256 0.000000
# 4 0.000000 0.000000 0.000000 0.047777 0.000000 0.020923
# 5 0.019091 -0.003200 0.056256 0.000000 0.110330 0.000000
# 6 0.000000 0.000000 0.000000 0.020923 0.000000 0.039135
#
#
# Mechanical properties :
#
#
# Convention : Reuss Voigt Hill
#
# Bulk Modulus (GPa) = 15.54948 82.15614 48.85281
# Shear Modulus (GPa) = 15.93906 31.25393 23.59650
#
# Velocity S-wave (km/s) = 2.96534 4.15236 3.60800
# Velocity P-wave (km/s) = 4.50584 8.26518 6.65642
#
# Compressibility (1/GPa) = 0.06431083
#
# Stress axis : x y z
#
# Youngs Moduli (GPa) = 73.95781 91.30875 18.11919
#
# Poissons Ratio (x) = 0.40806 -0.09901
# Poissons Ratio (y) = 0.33052 0.15712
# Poissons Ratio (z) = -0.40414 0.79179
#
# Static dielectric constant tensor:
#      x y z
#    x 3.458880 0.000000 -0.325910 
#    y 0.000000 3.552900 0.000000 
#    z -0.325910 0.000000 2.980270 
# 
# 
# High freq. dielectric constant tensor:
#      x y z
#    x 1.697980 0.000000 -0.039460 
#    y 0.000000 1.719020 0.000000 
#    z -0.039460 0.000000 1.661390 
# 
# From -- ./inp_files/52770.got.cif
#   From: 2010.06.25/outbox.cif.g09.slc.cpg/sg10_27_cif.got.tgz:52770.got - 2010.06.27 22:07:45.
