data_PCOD8059429
_publ_section_title
;
Structure prediction by ZEFSAII (Michael W. Deem and Ramdas Pophale) SiO2 
 PCOD8059429
Probable space group: P 2/M
;
_chemical_formula_sum "Si O2"
_cell_formula_units_Z 28
_cell_length_a 18.262858
_cell_length_b 13.779297
_cell_length_c 6.153248
_cell_angle_alpha 90.000000
_cell_angle_beta 112.945101
_cell_angle_gamma 90.000000
_cell_volume 1425.944773
_symmetry_space_group_name_H-M "P 2/M"
_symmetry_group_IT_number 10
_symmetry_cell_setting 'monoclinic'
loop_
_space_group_symop_operation_xyz
x,y,z
-x,y,-z
-x,-y,-z
x,-y,z
loop_
_atom_site_type_symbol
_atom_site_label
_atom_site_fract_x
_atom_site_fract_y
_atom_site_fract_z
Si Si1 0.578678 0.770457 0.968408
Si Si2 0.000000 0.213596 0.500000
Si Si3 0.883153 0.886964 0.038901
Si Si4 0.500000 0.673620 0.500000
Si Si5 0.249150 0.784156 0.866527
Si Si6 0.134006 0.257269 0.355559
Si Si7 0.769054 0.614713 0.820504
Si Si8 0.374082 0.394136 0.659209
O O1 0.661299 0.830929 0.056171
O O2 0.609739 0.673786 0.120560
O O3 0.500000 0.815908 0.000000
O O4 0.556965 0.746265 0.697465
O O5 0.060715 0.282095 0.433582
O O6 0.048327 0.145017 0.717465
O O7 0.892325 0.834969 0.817627
O O8 0.889847 0.000000 0.001194
O O9 0.797633 0.861765 0.042937
O O10 0.547465 0.603517 0.396759
O O11 0.211623 0.771200 0.585115
O O12 0.246048 0.677483 0.979339
O O13 0.151671 0.347880 0.214521
O O14 0.776323 0.500000 0.886071
O O15 0.698390 0.638819 0.573669
O O16 0.358350 0.500000 0.739006
#
# Coordination Sequence:
#
# PCOD8059429 Si02
#       8
#     4   2   4   2   4   4   4   4
#     4  10  20  31  48  74 106 147 192 231 277 324
#     4  10  21  38  63  90 122 142 163 212 277 338
#     4  10  22  38  63  92 116 140 170 215 276 343
#     4  10  19  30  44  66 107 144 188 234 287 318
#     4  10  20  37  55  79 115 150 189 229 277 325
#     4  10  21  37  58  83 115 146 182 223 274 331
#     4  10  20  34  54  77 109 154 198 233 270 318
#     4  10  19  29  45  70 104 143 188 236 279 323
#
# _framework density 19.636102999999999
#
# number of rings (size 3 to 8) (size 9 to 14) (size 15 to 20)
#    0.000    2.000    2.857    0.857    0.000    7.714 
#    0.000    0.357    0.000   11.571    0.000    1.500 
#    0.000    0.000    0.000    0.000    0.000    0.000 
#
# Total GULP energy -346968.344046 kJ/mol
# GULP energy per Si atom -12391.726573 kJ/mol
# Density = 1.959141 g / cm^3
# Si number density = 19.636103 Si / 1000 Ang^3
#
#
#
# Elastic Constant Matrix: (Units=GPa)
#
#
# Indices 1 2 3 4 5 6 
#
# 1 121.1325 15.4577 27.7290 0.0000 15.3111 0.0000
# 2 15.4577 45.3002 20.0828 0.0000 4.2434 0.0000
# 3 27.7290 20.0828 116.4871 0.0000 8.8805 0.0000
# 4 0.0000 0.0000 0.0000 13.2703 0.0000 0.6848
# 5 15.3111 4.2434 8.8805 0.0000 29.5461 0.0000
# 6 0.0000 0.0000 0.0000 0.6848 0.0000 15.1256
#
#
#
# Elastic Compliance Matrix: (Units=1/GPa)
#
#
# Indices 1 2 3 4 5 6 
#
# 1 0.009402 -0.002134 -0.001558 0.000000 -0.004098 0.000000
# 2 -0.002134 0.024533 -0.003620 0.000000 -0.001330 0.000000
# 3 -0.001558 -0.003620 0.009701 0.000000 -0.001588 0.000000
# 4 0.000000 0.000000 0.000000 0.075533 0.000000 -0.003420
# 5 -0.004098 -0.001330 -0.001588 0.000000 0.036637 0.000000
# 6 0.000000 0.000000 0.000000 -0.003420 0.000000 0.066268
#
#
# Mechanical properties :
#
#
# Convention : Reuss Voigt Hill
#
# Bulk Modulus (GPa) = 34.46883 45.49542 39.98213
# Shear Modulus (GPa) = 20.29486 26.23175 23.26331
#
# Velocity S-wave (km/s) = 3.21837 3.65895 3.44571
# Velocity P-wave (km/s) = 5.60379 6.40860 6.01966
#
# Compressibility (1/GPa) = 0.02901172
#
# Stress axis : x y z
#
# Youngs Moduli (GPa) = 106.35715 40.76218 103.08517
#
# Poissons Ratio (x) = 0.08698 0.16059
# Poissons Ratio (y) = 0.22695 0.37319
# Poissons Ratio (z) = 0.16569 0.14757
#
# Static dielectric constant tensor:
#      x y z
#    x 4.182790 0.000000 0.079150 
#    y 0.000000 3.073150 0.000000 
#    z 0.079150 0.000000 3.735870 
# 
# 
# High freq. dielectric constant tensor:
#      x y z
#    x 1.785100 0.000000 -0.001090 
#    y 0.000000 1.704020 0.000000 
#    z -0.001090 0.000000 1.782910 
# 
# From -- ./inp_files/11486.got.cif
#   From: 2010.06.25/outbox.cif.g09.slc.cpg/sg10_6_cif.got.tgz:11486.got - 2010.06.27 22:07:45.
