data_PCOD8059581
_publ_section_title
;
Structure prediction by ZEFSAII (Michael W. Deem and Ramdas Pophale) SiO2 
 PCOD8059581
Probable space group: P 2/M
;
_chemical_formula_sum "Si O2"
_cell_formula_units_Z 32
_cell_length_a 13.803253
_cell_length_b 8.861339
_cell_length_c 16.562774
_cell_angle_alpha 90.000000
_cell_angle_beta 93.993061
_cell_angle_gamma 90.000000
_cell_volume 2020.962895
_symmetry_space_group_name_H-M "P 2/M"
_symmetry_group_IT_number 10
_symmetry_cell_setting 'monoclinic'
loop_
_space_group_symop_operation_xyz
x,y,z
-x,y,-z
-x,-y,-z
x,-y,z
loop_
_atom_site_type_symbol
_atom_site_label
_atom_site_fract_x
_atom_site_fract_y
_atom_site_fract_z
Si Si1 0.189839 0.822110 0.725989
Si Si2 0.541546 0.665918 0.913139
Si Si3 0.991525 0.679840 0.768734
Si Si4 0.925640 0.825503 0.926528
Si Si5 0.663974 0.321745 0.148524
Si Si6 0.079959 0.667891 0.397592
Si Si7 0.142745 0.329623 0.565788
Si Si8 0.283942 0.825826 0.014259
O O1 0.286659 0.766400 0.775532
O O2 0.200179 0.774185 0.632546
O O3 0.098132 0.750278 0.766362
O O4 0.180477 0.000000 0.731401
O O5 0.577953 0.500000 0.887657
O O6 0.450957 0.719873 0.852724
O O7 0.631819 0.781114 0.916599
O O8 0.500000 0.654631 0.000000
O O9 0.002383 0.500000 0.762654
O O10 0.944082 0.724312 0.849823
O O11 0.919369 0.741636 0.692252
O O12 0.817726 0.792263 0.949718
O O13 0.941578 0.000000 0.904753
O O14 0.000000 0.774879 0.000000
O O15 0.680511 0.500000 0.158157
O O16 0.710369 0.271892 0.066292
O O17 0.122220 0.500000 0.394370
O O18 0.143444 0.743677 0.474179
O O19 0.967853 0.663081 0.414170
O O20 0.186022 0.500000 0.569178
O O21 0.295423 0.000000 0.991234
#
# Coordination Sequence:
#
# PCOD8059581 Si02
#       8
#     4   4   4   4   4   4   4   4
#     4  11  20  28  40  62  91 116 140 174 214 255
#     4   8  16  30  46  63  83 107 138 177 214 252
#     4  10  19  31  46  62  81 112 152 184 211 247
#     4  10  21  34  44  59  87 118 147 180 214 245
#     4  10  19  31  46  63  84 112 145 177 212 254
#     4   7  12  24  42  60  78 104 140 178 209 241
#     4   8  13  25  42  58  80 110 140 169 205 250
#     4  10  19  30  46  65  86 113 143 178 218 254
#
# _framework density 15.834037
#
# number of rings (size 3 to 8) (size 9 to 14) (size 15 to 20)
#    0.000    2.750    0.000    5.250    0.000    5.000 
#    0.000    5.625    0.000    0.000    0.000    0.000 
#    0.000    1.000    0.000   11.250    0.000    5.875 
#
# Total GULP energy -396456.211875 kJ/mol
# GULP energy per Si atom -12389.256621 kJ/mol
# Density = 1.579800 g / cm^3
# Si number density = 15.834037 Si / 1000 Ang^3
#
#
#
# Elastic Constant Matrix: (Units=GPa)
#
#
# Indices 1 2 3 4 5 6 
#
# 1 71.1837 33.2222 45.0409 0.0000 16.4178 0.0000
# 2 33.2222 73.3057 42.3469 0.0000 8.9591 0.0000
# 3 45.0409 42.3469 121.4350 0.0000 20.4480 0.0000
# 4 0.0000 0.0000 0.0000 12.4053 0.0000 2.9269
# 5 16.4178 8.9591 20.4480 0.0000 18.3946 0.0000
# 6 0.0000 0.0000 0.0000 2.9269 0.0000 20.6724
#
#
#
# Elastic Compliance Matrix: (Units=1/GPa)
#
#
# Indices 1 2 3 4 5 6 
#
# 1 0.022408 -0.006315 -0.004010 0.000000 -0.012467 0.000000
# 2 -0.006315 0.018928 -0.004497 0.000000 0.001416 0.000000
# 3 -0.004010 -0.004497 0.012695 0.000000 -0.008343 0.000000
# 4 0.000000 0.000000 0.000000 0.083397 0.000000 -0.011808
# 5 -0.012467 0.001416 -0.008343 0.000000 0.074076 0.000000
# 6 0.000000 0.000000 0.000000 -0.011808 0.000000 0.050046
#
#
# Mechanical properties :
#
#
# Convention : Reuss Voigt Hill
#
# Bulk Modulus (GPa) = 41.00443 56.34938 48.67691
# Shear Modulus (GPa) = 16.70442 19.98208 18.34325
#
# Velocity S-wave (km/s) = 3.25155 3.55628 3.40732
# Velocity P-wave (km/s) = 6.32846 7.24759 6.80356
#
# Compressibility (1/GPa) = 0.02438761
#
# Stress axis : x y z
#
# Youngs Moduli (GPa) = 44.62675 52.83129 78.77058
#
# Poissons Ratio (x) = 0.33365 0.31585
# Poissons Ratio (y) = 0.28184 0.35421
# Poissons Ratio (z) = 0.17894 0.23757
#
# Static dielectric constant tensor:
#      x y z
#    x 2.868920 0.000000 0.359800 
#    y 0.000000 2.976890 0.000000 
#    z 0.359800 0.000000 3.451510 
# 
# 
# High freq. dielectric constant tensor:
#      x y z
#    x 1.566960 0.000000 0.027890 
#    y 0.000000 1.603080 0.000000 
#    z 0.027890 0.000000 1.606740 
# 
# From -- ./inp_files/66200.got.cif
#   From: 2010.06.25/outbox.cif.g09.slc.cpg/sg10_34_cif.got.tgz:66200.got - 2010.06.27 22:07:45.
