data_PCOD8059263
_publ_section_title
;
Structure prediction by ZEFSAII (Michael W. Deem and Ramdas Pophale) SiO2 
 PCOD8059263
Probable space group: P 2/M
;
_chemical_formula_sum "Si O2"
_cell_formula_units_Z 24
_cell_length_a 13.915410
_cell_length_b 14.741449
_cell_length_c 10.341438
_cell_angle_alpha 90.000000
_cell_angle_beta 34.750459
_cell_angle_gamma 90.000000
_cell_volume 1209.189919
_symmetry_space_group_name_H-M "P 2/M"
_symmetry_group_IT_number 10
_symmetry_cell_setting 'monoclinic'
loop_
_space_group_symop_operation_xyz
x,y,z
-x,y,-z
-x,-y,-z
x,-y,z
loop_
_atom_site_type_symbol
_atom_site_label
_atom_site_fract_x
_atom_site_fract_y
_atom_site_fract_z
Si Si1 0.168587 0.255991 0.382209
Si Si2 0.641914 0.270184 0.083039
Si Si3 0.597308 0.858517 0.507968
Si Si4 0.133799 0.238691 0.945385
Si Si5 0.604196 0.600189 0.754311
Si Si6 0.101822 0.899481 0.657568
O O1 0.233957 0.333977 0.407815
O O2 0.138047 0.162460 0.492394
O O3 0.000000 0.291502 0.500000
O O4 0.305938 0.240331 0.118702
O O5 0.543265 0.182934 0.243110
O O6 0.804909 0.292924 0.994112
O O7 0.520745 0.357850 0.215267
O O8 0.500000 0.913806 0.500000
O O9 0.700897 0.778537 0.322468
O O10 0.727165 0.916341 0.449038
O O11 0.000000 0.292176 0.000000
O O12 0.041652 0.145877 0.094583
O O13 0.664632 0.500000 0.642657
O O14 0.500000 0.591084 0.000000
O O15 0.041065 0.000000 0.680804
#
# Coordination Sequence:
#
# PCOD8059263 Si02
#       6
#     4   4   4   4   4   4
#     4  11  21  36  59  83 120 150 184 235 289 344
#     4  10  18  36  60  83 116 146 187 234 292 336
#     4   9  19  35  58  80 107 154 194 238 277 324
#     4   9  19  35  57  81 107 156 197 231 272 328
#     4   9  19  35  61  89 113 144 185 232 290 347
#     4  11  22  37  56  83 117 156 193 231 284 335
#
# _framework density 19.847998
#
# number of rings (size 3 to 8) (size 9 to 14) (size 15 to 20)
#    0.000    2.167    3.333    0.000    0.000    4.000 
#    0.000    4.167    0.000    5.000    0.000    0.000 
#    0.000    0.000    0.000    0.000    0.000    0.000 
#
# Total GULP energy -297334.472085 kJ/mol
# GULP energy per Si atom -12388.936337 kJ/mol
# Density = 1.980282 g / cm^3
# Si number density = 19.847998 Si / 1000 Ang^3
#
#
#
# Elastic Constant Matrix: (Units=GPa)
#
#
# Indices 1 2 3 4 5 6 
#
# 1 146.5837 52.6623 27.8455 0.0000 -28.9528 0.0000
# 2 52.6623 105.4252 22.8299 0.0000 -8.2885 0.0000
# 3 27.8455 22.8299 76.6881 0.0000 0.1641 0.0000
# 4 0.0000 0.0000 0.0000 10.9784 0.0000 1.5886
# 5 -28.9528 -8.2885 0.1641 0.0000 41.2489 0.0000
# 6 0.0000 0.0000 0.0000 1.5886 0.0000 -0.0081
#
#
#
# Elastic Compliance Matrix: (Units=1/GPa)
#
#
# Indices 1 2 3 4 5 6 
#
# 1 0.009924 -0.003942 -0.002443 0.000000 0.006183 0.000000
# 2 -0.003942 0.011881 -0.002105 0.000000 -0.000371 0.000000
# 3 -0.002443 -0.002105 0.014558 0.000000 -0.002196 0.000000
# 4 0.000000 0.000000 0.000000 0.003086 0.000000 0.608152
# 5 0.006183 -0.000371 -0.002196 0.000000 0.028517 0.000000
# 6 0.000000 0.000000 0.000000 0.608152 0.000000 -4.202741
#
#
# Mechanical properties :
#
#
# Convention : Reuss Voigt Hill
#
# Bulk Modulus (GPa) = 51.59074 59.48583 55.53828
# Shear Modulus (GPa) = -1.21615 25.46781 12.12583
#
# Velocity S-wave (km/s) = -0.78362 3.58598 2.47439
# Velocity P-wave (km/s) = 5.02301 6.86888 6.01714
#
# Compressibility (1/GPa) = 0.01938333
#
# Stress axis : x y z
#
# Youngs Moduli (GPa) = 100.77027 84.16722 68.68981
#
# Poissons Ratio (x) = 0.33178 0.16781
# Poissons Ratio (y) = 0.39723 0.14458
# Poissons Ratio (z) = 0.24618 0.17716
#
# Static dielectric constant tensor:
#      x y z
#    x 4.204300 0.000000 -0.183540 
#    y 0.000000 3.224090 0.000000 
#    z -0.183540 0.000000 3.627020 
# 
# 
# High freq. dielectric constant tensor:
#      x y z
#    x 1.795040 0.000000 -0.010100 
#    y 0.000000 1.715600 0.000000 
#    z -0.010100 0.000000 1.777190 
# 
# From -- ./inp_files/51503.got.cif
#   From: 2010.06.25/outbox.cif.g09.slc.cpg/sg10_26_cif.got.tgz:51503.got - 2010.06.27 22:07:45.
