data_PCOD8059964
_publ_section_title
;
Structure prediction by ZEFSAII (Michael W. Deem and Ramdas Pophale) SiO2 
 PCOD8059964
Probable space group: P 2/M
;
_chemical_formula_sum "Si O2"
_cell_formula_units_Z 32
_cell_length_a 30.787893
_cell_length_b 8.569393
_cell_length_c 21.407696
_cell_angle_alpha 90.000000
_cell_angle_beta 160.430549
_cell_angle_gamma 90.000000
_cell_volume 1891.816237
_symmetry_space_group_name_H-M "P 2/M"
_symmetry_group_IT_number 10
_symmetry_cell_setting 'monoclinic'
loop_
_space_group_symop_operation_xyz
x,y,z
-x,y,-z
-x,-y,-z
x,-y,z
loop_
_atom_site_type_symbol
_atom_site_label
_atom_site_fract_x
_atom_site_fract_y
_atom_site_fract_z
Si Si1 0.307061 0.683999 0.223088
Si Si2 0.619182 0.182348 0.117745
Si Si3 0.384325 0.316822 0.562181
Si Si4 0.451079 0.185238 0.781730
Si Si5 0.909232 0.685788 0.821857
Si Si6 0.787670 0.184653 0.453170
Si Si7 0.985417 0.684246 0.165987
Si Si8 0.530977 0.182240 0.449672
O O1 0.318173 0.500000 0.227019
O O2 0.361302 0.723136 0.365339
O O3 0.387891 0.772984 0.279567
O O4 0.159810 0.744742 0.018783
O O5 0.745915 0.247202 0.326663
O O6 0.637570 0.000000 0.136566
O O7 0.500000 0.223054 0.000000
O O8 0.579744 0.243592 0.995109
O O9 0.390815 0.500000 0.557997
O O10 0.455993 0.277156 0.723728
O O11 0.236671 0.255266 0.364702
O O12 0.458873 0.226462 0.608813
O O13 0.320884 0.231803 0.642925
O O14 0.454826 0.000000 0.775352
O O15 0.913200 0.500000 0.826035
O O16 0.961069 0.754833 0.826609
O O17 0.000000 0.751743 0.000000
O O18 0.924053 0.262838 0.654368
O O19 0.804486 0.000000 0.475088
O O20 0.985207 0.500000 0.161104
O O21 0.554185 0.000000 0.491232
#
# Coordination Sequence:
#
# PCOD8059964 Si02
#       8
#     4   4   4   4   4   4   4   4
#     4  10  20  36  56  73  93 124 164 202 244 291
#     4   7  12  24  42  63  90 129 165 192 229 279
#     4  11  20  31  49  70  98 130 163 197 238 290
#     4   9  16  28  45  67  97 129 164 200 235 277
#     4   9  17  29  44  63  91 127 160 188 226 279
#     4   9  16  27  45  68  97 130 163 197 234 281
#     4  10  19  31  48  71  98 128 160 196 238 286
#     4  11  22  36  53  72  96 122 160 209 250 282
#
# _framework density 16.914961999999999
#
# number of rings (size 3 to 8) (size 9 to 14) (size 15 to 20)
#    0.000    2.500    1.250    4.875    0.000    3.000 
#    0.000    0.625    0.000    4.125    0.000    0.875 
#    0.000    7.000    0.000    0.000    0.000    0.000 
#
# Total GULP energy -396589.350950 kJ/mol
# GULP energy per Si atom -12393.417217 kJ/mol
# Density = 1.687646 g / cm^3
# Si number density = 16.914962 Si / 1000 Ang^3
#
#
#
# Elastic Constant Matrix: (Units=GPa)
#
#
# Indices 1 2 3 4 5 6 
#
# 1 96.1015 16.1386 66.0509 0.0000 -10.7891 0.0000
# 2 16.1386 27.6268 12.5419 0.0000 4.3932 0.0000
# 3 66.0509 12.5419 126.0005 0.0000 -16.0293 0.0000
# 4 0.0000 0.0000 0.0000 21.1367 0.0000 -2.9720
# 5 -10.7891 4.3932 -16.0293 0.0000 25.9488 0.0000
# 6 0.0000 0.0000 0.0000 -2.9720 0.0000 18.8942
#
#
#
# Elastic Compliance Matrix: (Units=1/GPa)
#
#
# Indices 1 2 3 4 5 6 
#
# 1 0.017517 -0.007155 -0.008020 0.000000 0.003540 0.000000
# 2 -0.007155 0.043118 -0.002006 0.000000 -0.011514 0.000000
# 3 -0.008020 -0.002006 0.012979 0.000000 0.005023 0.000000
# 4 0.000000 0.000000 0.000000 0.048381 0.000000 0.007610
# 5 0.003540 -0.011514 0.005023 0.000000 0.045062 0.000000
# 6 0.000000 0.000000 0.000000 0.007610 0.000000 0.054123
#
#
# Mechanical properties :
#
#
# Convention : Reuss Voigt Hill
#
# Bulk Modulus (GPa) = 25.47611 48.79908 37.13760
# Shear Modulus (GPa) = 18.61327 23.52911 21.07119
#
# Velocity S-wave (km/s) = 3.32083 3.73369 3.53330
# Velocity P-wave (km/s) = 5.45874 6.89199 6.21681
#
# Compressibility (1/GPa) = 0.03925246
#
# Stress axis : x y z
#
# Youngs Moduli (GPa) = 57.08804 23.19218 77.04592
#
# Poissons Ratio (x) = 0.16594 0.61790
# Poissons Ratio (y) = 0.40846 0.15456
# Poissons Ratio (z) = 0.45784 0.04652
#
# Static dielectric constant tensor:
#      x y z
#    x 3.127340 0.000000 -0.244720 
#    y 0.000000 2.890540 0.000000 
#    z -0.244720 0.000000 3.458940 
# 
# 
# High freq. dielectric constant tensor:
#      x y z
#    x 1.631440 0.000000 -0.022400 
#    y 0.000000 1.633020 0.000000 
#    z -0.022400 0.000000 1.649180 
# 
# From -- ./inp_files/87225.got.cif
#   From: 2010.06.25/outbox.cif.g09.slc.cpg/sg10_44_cif.got.tgz:87225.got - 2010.06.27 22:07:45.
