data_PCOD8059594
_publ_section_title
;
Structure prediction by ZEFSAII (Michael W. Deem and Ramdas Pophale) SiO2 
 PCOD8059594
Probable space group: P 2/M
;
_chemical_formula_sum "Si O2"
_cell_formula_units_Z 32
_cell_length_a 13.830526
_cell_length_b 9.108006
_cell_length_c 22.324888
_cell_angle_alpha 90.000000
_cell_angle_beta 140.174727
_cell_angle_gamma 90.000000
_cell_volume 1801.090452
_symmetry_space_group_name_H-M "P 2/M"
_symmetry_group_IT_number 10
_symmetry_cell_setting 'monoclinic'
loop_
_space_group_symop_operation_xyz
x,y,z
-x,y,-z
-x,-y,-z
x,-y,z
loop_
_atom_site_type_symbol
_atom_site_label
_atom_site_fract_x
_atom_site_fract_y
_atom_site_fract_z
Si Si1 0.656421 0.327231 0.795070
Si Si2 0.038092 0.328308 0.123045
Si Si3 0.917150 0.324540 0.601547
Si Si4 0.345136 0.827743 0.956188
Si Si5 0.046359 0.328422 0.785352
Si Si6 0.260579 0.827293 0.049146
Si Si7 0.664532 0.674681 0.394873
Si Si8 0.865348 0.341412 0.390176
O O1 0.659543 0.500000 0.809655
O O2 0.643062 0.243481 0.851700
O O3 0.511545 0.282570 0.685495
O O4 0.802818 0.276326 0.827944
O O5 0.009120 0.500000 0.097948
O O6 0.039147 0.289529 0.193898
O O7 0.907098 0.239779 0.027450
O O8 0.920840 0.500000 0.598118
O O9 0.758113 0.266360 0.497543
O O10 0.935989 0.274245 0.679283
O O11 0.061886 0.259097 0.633021
O O12 0.206602 0.751522 0.856544
O O13 0.326580 0.000000 0.937728
O O14 0.500000 0.770397 0.000000
O O15 0.342200 0.787165 0.025336
O O16 0.080128 0.500000 0.796485
O O17 0.248477 0.000000 0.052731
O O18 0.684649 0.500000 0.401202
O O19 0.733369 0.741905 0.364983
O O20 0.802310 0.500000 0.338692
O O21 0.000000 0.367490 0.500000
#
# Coordination Sequence:
#
# PCOD8059594 Si02
#       8
#     4   4   4   4   4   4   4   4
#     4  10  19  30  46  67  92 121 149 184 231 271
#     4   9  18  32  46  64  92 120 147 185 232 272
#     4   8  13  23  40  62  88 117 148 182 218 258
#     4   9  19  35  50  66  93 123 146 176 224 276
#     4   9  17  29  47  69  91 118 154 191 221 256
#     4  10  20  33  50  69  87 114 152 186 219 268
#     4   8  14  24  38  60  90 119 146 177 219 270
#     4   7  10  18  33  54  82 112 139 172 213 253
#
# _framework density 17.767016000000002
#
# number of rings (size 3 to 8) (size 9 to 14) (size 15 to 20)
#    0.000    3.250    0.000    2.250    0.000    3.750 
#    0.000    1.875    0.000    4.500    0.000    0.000 
#    0.000   11.000    0.000    0.000    0.000    0.000 
#
# Total GULP energy -396462.872289 kJ/mol
# GULP energy per Si atom -12389.464759 kJ/mol
# Density = 1.772658 g / cm^3
# Si number density = 17.767016 Si / 1000 Ang^3
#
#
#
# Elastic Constant Matrix: (Units=GPa)
#
#
# Indices 1 2 3 4 5 6 
#
# 1 101.5145 22.4050 61.2610 0.0000 11.9505 0.0000
# 2 22.4050 23.5099 25.6576 0.0000 1.7893 0.0000
# 3 61.2610 25.6576 130.3732 0.0000 -1.3418 0.0000
# 4 0.0000 0.0000 0.0000 1.8157 0.0000 -3.3589
# 5 11.9505 1.7893 -1.3418 0.0000 27.3606 0.0000
# 6 0.0000 0.0000 0.0000 -3.3589 0.0000 16.0796
#
#
#
# Elastic Compliance Matrix: (Units=1/GPa)
#
#
# Indices 1 2 3 4 5 6 
#
# 1 0.016101 -0.008271 -0.006008 0.000000 -0.006786 0.000000
# 2 -0.008271 0.058875 -0.007707 0.000000 -0.000616 0.000000
# 3 -0.006008 -0.007707 0.012048 0.000000 0.003719 0.000000
# 4 0.000000 0.000000 0.000000 0.897610 0.000000 0.187504
# 5 -0.006786 -0.000616 0.003719 0.000000 0.039736 0.000000
# 6 0.000000 0.000000 0.000000 0.187504 0.000000 0.101359
#
#
# Mechanical properties :
#
#
# Convention : Reuss Voigt Hill
#
# Bulk Modulus (GPa) = 23.22692 52.67165 37.94929
# Shear Modulus (GPa) = 4.22280 18.78945 11.50612
#
# Velocity S-wave (km/s) = 1.54335 3.25552 2.54758
# Velocity P-wave (km/s) = 4.03452 6.62128 5.48264
#
# Compressibility (1/GPa) = 0.04305349
#
# Stress axis : x y z
#
# Youngs Moduli (GPa) = 62.10974 16.98511 83.00047
#
# Poissons Ratio (x) = 0.14048 0.49863
# Poissons Ratio (y) = 0.51371 0.63965
# Poissons Ratio (z) = 0.37313 0.13090
#
# Static dielectric constant tensor:
#      x y z
#    x 3.561630 0.000000 -0.062490 
#    y 0.000000 2.852990 0.000000 
#    z -0.062490 0.000000 3.397600 
# 
# 
# High freq. dielectric constant tensor:
#      x y z
#    x 1.689560 0.000000 -0.003780 
#    y 0.000000 1.636890 0.000000 
#    z -0.003780 0.000000 1.682290 
# 
# From -- ./inp_files/84773.got.cif
#   From: 2010.06.25/outbox.cif.g09.slc.cpg/sg10_43_cif.got.tgz:84773.got - 2010.06.27 22:07:45.
