data_PCOD8059165
_publ_section_title
;
Structure prediction by ZEFSAII (Michael W. Deem and Ramdas Pophale) SiO2 
 PCOD8059165
Probable space group: P 2/M
;
_chemical_formula_sum "Si O2"
_cell_formula_units_Z 32
_cell_length_a 21.606685
_cell_length_b 14.982853
_cell_length_c 15.572258
_cell_angle_alpha 90.000000
_cell_angle_beta 161.254711
_cell_angle_gamma 90.000000
_cell_volume 1620.049326
_symmetry_space_group_name_H-M "P 2/M"
_symmetry_group_IT_number 10
_symmetry_cell_setting 'monoclinic'
loop_
_space_group_symop_operation_xyz
x,y,z
-x,y,-z
-x,-y,-z
x,-y,z
loop_
_atom_site_type_symbol
_atom_site_label
_atom_site_fract_x
_atom_site_fract_y
_atom_site_fract_z
Si Si1 0.082572 0.729919 0.478062
Si Si2 0.650227 0.159444 0.399144
Si Si3 0.688700 0.283408 0.693834
Si Si4 0.710471 0.901178 0.299695
Si Si5 0.088254 0.678272 0.294293
Si Si6 0.307623 0.289665 0.940739
Si Si7 0.216923 0.900805 0.255098
Si Si8 0.623638 0.400421 0.440868
O O1 0.131089 0.834331 0.529390
O O2 0.116674 0.675775 0.434668
O O3 0.217880 0.687259 0.729489
O O4 0.860118 0.728229 0.211261
O O5 0.713911 0.093214 0.407325
O O6 0.813129 0.235361 0.618360
O O7 0.645309 0.104692 0.480798
O O8 0.439887 0.201859 0.106689
O O9 0.500000 0.303455 0.500000
O O10 0.720965 0.176601 0.729270
O O11 0.667665 0.329334 0.573640
O O12 0.864386 0.326783 0.976624
O O13 0.749507 0.000000 0.313160
O O14 0.500000 0.864346 0.000000
O O15 0.199823 0.596399 0.395586
O O16 0.430238 0.373263 0.135818
O O17 0.241600 0.000000 0.245987
O O18 0.000000 0.884942 0.000000
O O19 0.597209 0.500000 0.443938
#
# Coordination Sequence:
#
# PCOD8059165 Si02
#       8
#     4   4   4   4   4   4   4   4
#     4  10  21  38  61  87 123 169 196 247 313 357
#     4  10  18  34  58  79 116 160 207 250 299 344
#     4  12  23  40  63  91 129 162 196 249 306 364
#     4  10  19  32  52  85 119 157 213 256 286 343
#     4  10  21  37  63  89 119 158 201 248 295 362
#     4  10  20  39  63  88 121 160 199 244 309 373
#     4  11  21  37  59  86 121 167 212 250 296 350
#     4  11  24  43  69  92 117 152 199 253 308 371
#
# _framework density 19.752483999999999
#
# number of rings (size 3 to 8) (size 9 to 14) (size 15 to 20)
#    0.000    1.500    5.000    1.500    0.000    1.500 
#    0.000    6.875    0.000    0.000    0.000    0.000 
#    0.000    0.000    0.000    0.000    0.000    0.000 
#
# Total GULP energy -396731.945126 kJ/mol
# GULP energy per Si atom -12397.873285 kJ/mol
# Density = 1.970753 g / cm^3
# Si number density = 19.752484 Si / 1000 Ang^3
#
#
#
# Elastic Constant Matrix: (Units=GPa)
#
#
# Indices 1 2 3 4 5 6 
#
# 1 102.2743 27.3878 43.6160 0.0000 3.9876 0.0000
# 2 27.3878 89.1287 28.7779 0.0000 4.4010 0.0000
# 3 43.6160 28.7779 126.2145 0.0000 8.6180 0.0000
# 4 0.0000 0.0000 0.0000 10.6191 0.0000 1.3830
# 5 3.9876 4.4010 8.6180 0.0000 36.1741 0.0000
# 6 0.0000 0.0000 0.0000 1.3830 0.0000 12.9505
#
#
#
# Elastic Compliance Matrix: (Units=1/GPa)
#
#
# Indices 1 2 3 4 5 6 
#
# 1 0.011975 -0.002525 -0.003551 0.000000 -0.000167 0.000000
# 2 -0.002525 0.012668 -0.001962 0.000000 -0.000796 0.000000
# 3 -0.003551 -0.001962 0.009712 0.000000 -0.001684 0.000000
# 4 0.000000 0.000000 0.000000 0.095499 0.000000 -0.010198
# 5 -0.000167 -0.000796 -0.001684 0.000000 0.028160 0.000000
# 6 0.000000 0.000000 0.000000 -0.010198 0.000000 0.078306
#
#
# Mechanical properties :
#
#
# Convention : Reuss Voigt Hill
#
# Bulk Modulus (GPa) = 54.70366 57.46456 56.08411
# Shear Modulus (GPa) = 19.34319 26.47111 22.90715
#
# Velocity S-wave (km/s) = 3.13274 3.66476 3.40915
# Velocity P-wave (km/s) = 6.39063 6.86023 6.62959
#
# Compressibility (1/GPa) = 0.01828031
#
# Stress axis : x y z
#
# Youngs Moduli (GPa) = 83.50998 78.93770 102.96148
#
# Poissons Ratio (x) = 0.19930 0.36562
# Poissons Ratio (y) = 0.21085 0.20197
# Poissons Ratio (z) = 0.29654 0.15485
#
# Static dielectric constant tensor:
#      x y z
#    x 3.616340 0.000000 -0.051130 
#    y 0.000000 3.346470 0.000000 
#    z -0.051130 0.000000 3.690250 
# 
# 
# High freq. dielectric constant tensor:
#      x y z
#    x 1.766250 0.000000 -0.008520 
#    y 0.000000 1.744280 0.000000 
#    z -0.008520 0.000000 1.780080 
# 
# From -- ./inp_files/70789.got.cif
#   From: 2010.06.25/outbox.cif.g09.slc.cpg/sg10_36_cif.got.tgz:70789.got - 2010.06.27 22:07:45.
