data_PCOD8059786
_publ_section_title
;
Structure prediction by ZEFSAII (Michael W. Deem and Ramdas Pophale) SiO2 
 PCOD8059786
Probable space group: P 2/M
;
_chemical_formula_sum "Si O2"
_cell_formula_units_Z 32
_cell_length_a 12.004950
_cell_length_b 9.391522
_cell_length_c 19.092149
_cell_angle_alpha 90.000000
_cell_angle_beta 127.045072
_cell_angle_gamma 90.000000
_cell_volume 1718.074977
_symmetry_space_group_name_H-M "P 2/M"
_symmetry_group_IT_number 10
_symmetry_cell_setting 'monoclinic'
loop_
_space_group_symop_operation_xyz
x,y,z
-x,y,-z
-x,-y,-z
x,-y,z
loop_
_atom_site_type_symbol
_atom_site_label
_atom_site_fract_x
_atom_site_fract_y
_atom_site_fract_z
Si Si1 0.056848 0.165680 0.387370
Si Si2 0.499378 0.169954 0.919133
Si Si3 0.715122 0.834857 0.420226
Si Si4 0.782188 0.834263 0.684481
Si Si5 0.935024 0.834957 0.879663
Si Si6 0.220454 0.168894 0.046621
Si Si7 0.514696 0.661321 0.587997
Si Si8 0.252477 0.168924 0.725949
O O1 0.127208 0.189719 0.490300
O O2 0.159019 0.228116 0.366169
O O3 0.902829 0.235450 0.322701
O O4 0.039357 0.000000 0.364469
O O5 0.635273 0.232597 0.929939
O O6 0.361653 0.227144 0.825384
O O7 0.498266 0.000000 0.917860
O O8 0.500000 0.224798 0.000000
O O9 0.616639 0.735769 0.427680
O O10 0.700789 0.787537 0.334445
O O11 0.672853 0.000000 0.414352
O O12 0.901681 0.806825 0.786735
O O13 0.651224 0.746502 0.662108
O O14 0.739552 0.000000 0.662930
O O15 0.812460 0.778776 0.885996
O O16 0.946416 0.000000 0.902107
O O17 0.089060 0.771347 0.951847
O O18 0.236591 0.000000 0.047390
O O19 0.500000 0.668414 0.500000
O O20 0.525494 0.500000 0.619285
O O21 0.244109 0.000000 0.727294
#
# Coordination Sequence:
#
# PCOD8059786 Si02
#       8
#     4   4   4   4   4   4   4   4
#     4   9  17  29  46  71 100 129 166 208 249 289
#     4   9  17  25  36  58  97 140 166 191 242 305
#     4  10  19  33  54  75  99 132 170 210 248 299
#     4  10  19  30  51  77 100 131 171 208 245 298
#     4   8  15  25  41  64  94 128 162 202 241 288
#     4   8  14  25  37  58  95 132 161 194 245 294
#     4  11  23  37  51  71 103 135 163 204 260 310
#     4   9  18  29  45  71 102 136 168 205 252 297
#
# _framework density 18.625496999999999
#
# number of rings (size 3 to 8) (size 9 to 14) (size 15 to 20)
#    0.000    2.750    1.250    1.500    3.500    2.000 
#    0.000    0.000    0.000    2.250    0.000    1.750 
#    0.000    0.500    0.000    0.125    0.000    0.000 
#
# Total GULP energy -396516.826410 kJ/mol
# GULP energy per Si atom -12391.150825 kJ/mol
# Density = 1.858310 g / cm^3
# Si number density = 18.625497 Si / 1000 Ang^3
#
#
#
# Elastic Constant Matrix: (Units=GPa)
#
#
# Indices 1 2 3 4 5 6 
#
# 1 116.6670 26.3713 56.5713 0.0000 12.5921 0.0000
# 2 26.3713 35.6648 20.5108 0.0000 3.8669 0.0000
# 3 56.5713 20.5108 126.9483 0.0000 -1.3186 0.0000
# 4 0.0000 0.0000 0.0000 1.3926 0.0000 -4.2207
# 5 12.5921 3.8669 -1.3186 0.0000 33.4030 0.0000
# 6 0.0000 0.0000 0.0000 -4.2207 0.0000 -0.9198
#
#
#
# Elastic Compliance Matrix: (Units=1/GPa)
#
#
# Indices 1 2 3 4 5 6 
#
# 1 0.012724 -0.006240 -0.004706 0.000000 -0.004260 0.000000
# 2 -0.006240 0.034455 -0.002804 0.000000 -0.001747 0.000000
# 3 -0.004706 -0.002804 0.010454 0.000000 0.002511 0.000000
# 4 0.000000 0.000000 0.000000 0.048170 0.000000 -0.221034
# 5 -0.004260 -0.001747 0.002511 0.000000 0.031845 0.000000
# 6 0.000000 0.000000 0.000000 -0.221034 0.000000 -0.072929
#
#
# Mechanical properties :
#
#
# Convention : Reuss Voigt Hill
#
# Bulk Modulus (GPa) = 33.18768 54.02077 43.60422
# Shear Modulus (GPa) = 48.89411 18.49693 33.69552
#
# Velocity S-wave (km/s) = 5.12915 3.15476 4.25797
# Velocity P-wave (km/s) = 7.27562 6.50666 6.90186
#
# Compressibility (1/GPa) = 0.03013167
#
# Stress axis : x y z
#
# Youngs Moduli (GPa) = 78.59459 29.02345 95.66151
#
# Poissons Ratio (x) = 0.18110 0.45018
# Poissons Ratio (y) = 0.49041 0.26827
# Poissons Ratio (z) = 0.36987 0.08139
#
# Static dielectric constant tensor:
#      x y z
#    x 3.642090 0.000000 0.090680 
#    y 0.000000 2.732270 0.000000 
#    z 0.090680 0.000000 3.647150 
# 
# 
# High freq. dielectric constant tensor:
#      x y z
#    x 1.734010 0.000000 0.001730 
#    y 0.000000 1.633120 0.000000 
#    z 0.001730 0.000000 1.736160 
# 
# From -- ./inp_files/83608.got.cif
#   From: 2010.06.25/outbox.cif.g09.slc.cpg/sg10_42_cif.got.tgz:83608.got - 2010.06.27 22:07:45.
