data_PCOD8059265
_publ_section_title
;
Structure prediction by ZEFSAII (Michael W. Deem and Ramdas Pophale) SiO2 
 PCOD8059265
Probable space group: P 2/M
;
_chemical_formula_sum "Si O2"
_cell_formula_units_Z 30
_cell_length_a 11.096760
_cell_length_b 13.857847
_cell_length_c 17.316512
_cell_angle_alpha 90.000000
_cell_angle_beta 34.816706
_cell_angle_gamma 90.000000
_cell_volume 1520.381967
_symmetry_space_group_name_H-M "P 2/M"
_symmetry_group_IT_number 10
_symmetry_cell_setting 'monoclinic'
loop_
_space_group_symop_operation_xyz
x,y,z
-x,y,-z
-x,-y,-z
x,-y,z
loop_
_atom_site_type_symbol
_atom_site_label
_atom_site_fract_x
_atom_site_fract_y
_atom_site_fract_z
Si Si1 0.396113 0.892219 0.871092
Si Si2 0.000000 0.826293 0.000000
Si Si3 0.231063 0.336053 0.800726
Si Si4 0.520776 0.609515 0.776031
Si Si5 0.625196 0.740252 0.506183
Si Si6 0.046710 0.606729 0.750166
Si Si7 0.361709 0.718827 0.000990
Si Si8 0.767535 0.787247 0.589200
O O1 0.332052 0.819189 0.972118
O O2 0.603618 0.859795 0.715656
O O3 0.433254 0.000000 0.883910
O O4 0.194521 0.893880 0.920782
O O5 0.920378 0.756717 0.110995
O O6 0.293770 0.381417 0.850753
O O7 0.454476 0.308980 0.648950
O O8 0.116842 0.408704 0.802479
O O9 0.603267 0.500000 0.729588
O O10 0.472966 0.638382 0.889275
O O11 0.704329 0.677484 0.644762
O O12 0.500000 0.794517 0.500000
O O13 0.769632 0.656182 0.395621
O O14 0.758179 0.803862 0.499612
O O15 0.996920 0.500000 0.742774
O O16 0.850089 0.677602 0.850285
O O17 0.500000 0.747434 0.000000
O O18 0.000000 0.809797 0.500000
#
# Coordination Sequence:
#
# PCOD8059265 Si02
#       8
#     4   2   4   4   4   4   4   4
#     4  11  24  43  72  95 112 150 207 263 324 383
#     4  12  17  40  67  94 116 150 197 264 331 356
#     4  10  18  36  60  87 122 160 202 256 304 352
#     4  10  20  36  59  87 123 167 212 251 295 358
#     4   9  20  35  56  85 124 169 202 242 298 357
#     4  11  22  34  58  89 123 169 209 242 291 360
#     4  11  24  40  56  82 124 161 197 255 310 360
#     4  10  22  41  63  91 128 164 206 261 311 361
#
# _framework density 19.731884000000001
#
# number of rings (size 3 to 8) (size 9 to 14) (size 15 to 20)
#    0.000    1.600    5.333    1.000    3.733    6.400 
#    0.000    2.000    0.000    0.400    0.000    0.000 
#    0.000    0.000    0.000    0.000    0.000    0.000 
#
# Total GULP energy -371688.539585 kJ/mol
# GULP energy per Si atom -12389.617986 kJ/mol
# Density = 1.968697 g / cm^3
# Si number density = 19.731884 Si / 1000 Ang^3
#
#
#
# Elastic Constant Matrix: (Units=GPa)
#
#
# Indices 1 2 3 4 5 6 
#
# 1 107.8001 25.4787 30.5800 0.0000 -11.1968 0.0000
# 2 25.4787 100.8916 40.9785 0.0000 -7.7379 0.0000
# 3 30.5800 40.9785 102.6572 0.0000 -9.5029 0.0000
# 4 0.0000 0.0000 0.0000 11.9872 0.0000 -0.3509
# 5 -11.1968 -7.7379 -9.5029 0.0000 31.8784 0.0000
# 6 0.0000 0.0000 0.0000 -0.3509 0.0000 6.6733
#
#
#
# Elastic Compliance Matrix: (Units=1/GPa)
#
#
# Indices 1 2 3 4 5 6 
#
# 1 0.010564 -0.001535 -0.002288 0.000000 0.002656 0.000000
# 2 -0.001535 0.012123 -0.004278 0.000000 0.001128 0.000000
# 3 -0.002288 -0.004278 0.012299 0.000000 0.001824 0.000000
# 4 0.000000 0.000000 0.000000 0.083551 0.000000 0.004394
# 5 0.002656 0.001128 0.001824 0.000000 0.033120 0.000000
# 6 0.000000 0.000000 0.000000 0.004394 0.000000 0.150081
#
#
# Mechanical properties :
#
#
# Convention : Reuss Voigt Hill
#
# Bulk Modulus (GPa) = 53.23389 56.15815 54.69602
# Shear Modulus (GPa) = 15.42247 24.39522 19.90885
#
# Velocity S-wave (km/s) = 2.79875 3.51997 3.17987
# Velocity P-wave (km/s) = 6.12219 6.71138 6.42354
#
# Compressibility (1/GPa) = 0.01878502
#
# Stress axis : x y z
#
# Youngs Moduli (GPa) = 94.65957 82.48668 81.30548
#
# Poissons Ratio (x) = 0.12659 0.18606
# Poissons Ratio (y) = 0.14527 0.34780
# Poissons Ratio (z) = 0.21663 0.35285
#
# Static dielectric constant tensor:
#      x y z
#    x 4.068890 0.000000 0.079850 
#    y 0.000000 3.225140 0.000000 
#    z 0.079850 0.000000 3.640650 
# 
# 
# High freq. dielectric constant tensor:
#      x y z
#    x 1.777700 0.000000 -0.002610 
#    y 0.000000 1.729070 0.000000 
#    z -0.002610 0.000000 1.774350 
# 
# From -- ./inp_files/76916.got.cif
#   From: 2010.06.25/outbox.cif.g09.slc.cpg/sg10_39_cif.got.tgz:76916.got - 2010.06.27 22:07:45.
