data_PCOD8059940
_publ_section_title
;
Structure prediction by ZEFSAII (Michael W. Deem and Ramdas Pophale) SiO2 
 PCOD8059940
Probable space group: P 2/M
;
_chemical_formula_sum "Si O2"
_cell_formula_units_Z 32
_cell_length_a 22.659985
_cell_length_b 9.351374
_cell_length_c 20.798323
_cell_angle_alpha 90.000000
_cell_angle_beta 155.716635
_cell_angle_gamma 90.000000
_cell_volume 1812.462323
_symmetry_space_group_name_H-M "P 2/M"
_symmetry_group_IT_number 10
_symmetry_cell_setting 'monoclinic'
loop_
_space_group_symop_operation_xyz
x,y,z
-x,y,-z
-x,-y,-z
x,-y,z
loop_
_atom_site_type_symbol
_atom_site_label
_atom_site_fract_x
_atom_site_fract_y
_atom_site_fract_z
Si Si1 0.404351 0.162429 0.968203
Si Si2 0.248867 0.334773 0.486281
Si Si3 0.166688 0.666567 0.666074
Si Si4 0.946080 0.835364 0.793427
Si Si5 0.746126 0.165483 0.851392
Si Si6 0.474188 0.333679 0.600046
Si Si7 0.644200 0.666722 0.269567
Si Si8 0.727124 0.834539 0.685244
O O1 0.252876 0.242083 0.805122
O O2 0.373259 0.000000 0.959930
O O3 0.500000 0.164100 0.000000
O O4 0.496443 0.246289 0.113122
O O5 0.207965 0.500000 0.446642
O O6 0.108751 0.252239 0.322444
O O7 0.380829 0.302337 0.570242
O O8 0.289041 0.280816 0.597051
O O9 0.180559 0.500000 0.698256
O O10 0.236003 0.697665 0.665424
O O11 0.000000 0.714280 0.500000
O O12 0.862566 0.794002 0.775665
O O13 0.922298 0.000000 0.753443
O O14 0.110753 0.797719 0.967871
O O15 0.627904 0.265059 0.766606
O O16 0.768496 0.204316 0.798870
O O17 0.703198 0.000000 0.816402
O O18 0.489495 0.500000 0.600467
O O19 0.408750 0.258302 0.471957
O O20 0.602639 0.500000 0.229847
O O21 0.684045 0.000000 0.635349
#
# Coordination Sequence:
#
# PCOD8059940 Si02
#       8
#     4   4   4   4   4   4   4   4
#     4   9  17  29  47  73 101 126 154 189 228 268
#     4   9  19  35  51  67  90 124 163 196 229 273
#     4   9  17  30  50  76 102 126 154 190 232 276
#     4   9  18  32  50  70  92 120 155 195 235 279
#     4  10  19  31  48  70  94 120 152 191 238 288
#     4  10  20  32  46  67  94 121 153 195 237 276
#     4   9  17  32  53  71  91 125 164 195 225 271
#     4   9  17  31  50  69  90 119 154 191 234 285
#
# _framework density 17.655539999999998
#
# number of rings (size 3 to 8) (size 9 to 14) (size 15 to 20)
#    0.000    2.750    0.000    1.500    0.000    6.750 
#    0.000    1.250    0.000    9.750    0.000    0.000 
#    0.000    0.000    0.000    0.000    0.000    0.000 
#
# Total GULP energy -396832.839618 kJ/mol
# GULP energy per Si atom -12401.026238 kJ/mol
# Density = 1.761536 g / cm^3
# Si number density = 17.655540 Si / 1000 Ang^3
#
#
#
# Elastic Constant Matrix: (Units=GPa)
#
#
# Indices 1 2 3 4 5 6 
#
# 1 50.1047 35.8840 48.9395 0.0000 -16.2901 0.0000
# 2 35.8840 80.0005 72.3438 0.0000 -4.8072 0.0000
# 3 48.9395 72.3438 146.8271 0.0000 -8.8375 0.0000
# 4 0.0000 0.0000 0.0000 32.4064 0.0000 -2.4722
# 5 -16.2901 -4.8072 -8.8375 0.0000 28.9725 0.0000
# 6 0.0000 0.0000 0.0000 -2.4722 0.0000 19.4218
#
#
#
# Elastic Compliance Matrix: (Units=1/GPa)
#
#
# Indices 1 2 3 4 5 6 
#
# 1 0.040785 -0.010630 -0.007215 0.000000 0.018967 0.000000
# 2 -0.010630 0.025319 -0.009208 0.000000 -0.004584 0.000000
# 3 -0.007215 -0.009208 0.013667 0.000000 -0.001416 0.000000
# 4 0.000000 0.000000 0.000000 0.031161 0.000000 0.003966
# 5 0.018967 -0.004584 -0.001416 0.000000 0.043987 0.000000
# 6 0.000000 0.000000 0.000000 0.003966 0.000000 0.051994
#
#
# Mechanical properties :
#
#
# Convention : Reuss Voigt Hill
#
# Bulk Modulus (GPa) = 38.96242 65.69633 52.32937
# Shear Modulus (GPa) = 18.54780 24.14447 21.34613
#
# Velocity S-wave (km/s) = 3.24471 3.70202 3.48089
# Velocity P-wave (km/s) = 6.01278 7.45413 6.77192
#
# Compressibility (1/GPa) = 0.02566576
#
# Stress axis : x y z
#
# Youngs Moduli (GPa) = 24.51888 39.49591 73.16700
#
# Poissons Ratio (x) = 0.41983 0.52791
# Poissons Ratio (y) = 0.26063 0.67372
# Poissons Ratio (z) = 0.17691 0.36368
#
# Static dielectric constant tensor:
#      x y z
#    x 3.092770 0.000000 -0.010060 
#    y 0.000000 3.303650 0.000000 
#    z -0.010060 0.000000 3.397520 
# 
# 
# High freq. dielectric constant tensor:
#      x y z
#    x 1.657000 0.000000 -0.001190 
#    y 0.000000 1.680700 0.000000 
#    z -0.001190 0.000000 1.688060 
# 
# From -- ./inp_files/35684.got.cif
#   From: 2010.06.25/outbox.cif.g09.slc.cpg/sg10_18_cif.got.tgz:35684.got - 2010.06.27 22:07:45.
