data_PCOD8059335
_publ_section_title
;
Structure prediction by ZEFSAII (Michael W. Deem and Ramdas Pophale) SiO2 
 PCOD8059335
Probable space group: P 2/M
;
_chemical_formula_sum "Si O2"
_cell_formula_units_Z 20
_cell_length_a 18.464968
_cell_length_b 15.222035
_cell_length_c 17.719624
_cell_angle_alpha 90.000000
_cell_angle_beta 16.334747
_cell_angle_gamma 90.000000
_cell_volume 1400.768442
_symmetry_space_group_name_H-M "P 2/M"
_symmetry_group_IT_number 10
_symmetry_cell_setting 'monoclinic'
loop_
_space_group_symop_operation_xyz
x,y,z
-x,y,-z
-x,-y,-z
x,-y,z
loop_
_atom_site_type_symbol
_atom_site_label
_atom_site_fract_x
_atom_site_fract_y
_atom_site_fract_z
Si Si1 0.750000 0.592688 0.699079
Si Si2 0.749999 0.895180 0.206457
Si Si3 0.250022 0.895656 0.963471
Si Si4 0.750023 0.895634 0.551935
Si Si5 0.250000 0.783349 0.301610
O O1 0.750004 0.500000 0.650333
O O2 0.749999 0.686874 0.656159
O O3 0.000000 0.591755 0.500000
O O4 0.500000 0.591753 0.000000
O O5 0.500000 0.859406 0.500000
O O6 0.750004 0.000000 0.205471
O O7 0.750000 0.857733 0.121467
O O8 0.000000 0.859406 0.000000
O O9 0.998902 0.861127 0.258080
O O10 0.250018 0.000000 0.959926
O O11 0.501167 0.861127 0.755804
O O12 0.749999 0.857701 0.635630
O O13 0.750016 0.000000 0.559551
O O14 0.000000 0.795827 0.500000
O O15 0.500000 0.795828 0.000000
#
# Coordination Sequence:
#
# PCOD8059335 Si02
#       5
#     4   4   4   4   4
#     4   8  14  25  40  56  72  88 110 147 192 232
#     4   9  15  23  37  55  71  88 116 153 184 213
#     4   9  17  28  39  52  72  98 126 153 185 224
#     4  10  19  29  39  51  72 102 131 158 187 217
#     4  10  19  29  41  56  72  94 129 165 191 218
#
# _framework density 14.277877
#
# number of rings (size 3 to 8) (size 9 to 14) (size 15 to 20)
#    0.000    2.800    0.000    2.400    0.000    5.600 
#    0.000    0.000    0.000    0.000    0.000    0.000 
#    0.000    0.000    0.000    0.000    0.000   20.000 
#
# Total GULP energy -247767.220966 kJ/mol
# GULP energy per Si atom -12388.361048 kJ/mol
# Density = 1.424538 g / cm^3
# Si number density = 14.277877 Si / 1000 Ang^3
#
#
#
# Elastic Constant Matrix: (Units=GPa)
#
#
# Indices 1 2 3 4 5 6 
#
# 1 102.9738 28.6540 58.2440 0.0000 -1.4328 0.0000
# 2 28.6540 34.5706 21.0451 0.0000 2.1214 0.0000
# 3 58.2440 21.0451 138.6188 0.0000 -8.5068 0.0000
# 4 0.0000 0.0000 0.0000 9.5200 0.0000 -2.3045
# 5 -1.4328 2.1214 -8.5068 0.0000 26.9076 0.0000
# 6 0.0000 0.0000 0.0000 -2.3045 0.0000 1.2545
#
#
#
# Elastic Compliance Matrix: (Units=1/GPa)
#
#
# Indices 1 2 3 4 5 6 
#
# 1 0.015153 -0.009569 -0.004914 0.000000 0.000008 0.000000
# 2 -0.009569 0.038369 -0.002061 0.000000 -0.004186 0.000000
# 3 -0.004914 -0.002061 0.009775 0.000000 0.002991 0.000000
# 4 0.000000 0.000000 0.000000 0.189160 0.000000 0.347492
# 5 0.000008 -0.004186 0.002991 0.000000 0.038440 0.000000
# 6 0.000000 0.000000 0.000000 0.347492 0.000000 1.435498
#
#
# Mechanical properties :
#
#
# Convention : Reuss Voigt Hill
#
# Bulk Modulus (GPa) = 33.10234 54.67217 43.88726
# Shear Modulus (GPa) = 2.82557 18.75109 10.78833
#
# Velocity S-wave (km/s) = 1.40829 3.62787 2.75180
# Velocity P-wave (km/s) = 5.08715 7.47819 6.39540
#
# Compressibility (1/GPa) = 0.03020934
#
# Stress axis : x y z
#
# Youngs Moduli (GPa) = 65.99182 26.06238 102.29946
#
# Poissons Ratio (x) = 0.24939 0.50268
# Poissons Ratio (y) = 0.63148 0.21089
# Poissons Ratio (z) = 0.32427 0.05373
#
# Static dielectric constant tensor:
#      x y z
#    x 2.681990 0.000000 -0.114390 
#    y 0.000000 2.838000 0.000000 
#    z -0.114390 0.000000 3.091990 
# 
# 
# High freq. dielectric constant tensor:
#      x y z
#    x 1.522550 0.000000 -0.014220 
#    y 0.000000 1.499210 0.000000 
#    z -0.014220 0.000000 1.573540 
# 
# From -- ./inp_files/6922.got.cif
#   From: 2010.06.25/outbox.cif.g09.slc.cpg/sg10_4_cif.got.tgz:6922.got - 2010.06.27 22:07:45.
