data_PCOD8059282
_publ_section_title
;
Structure prediction by ZEFSAII (Michael W. Deem and Ramdas Pophale) SiO2 
 PCOD8059282
Probable space group: P 2/M
;
_chemical_formula_sum "Si O2"
_cell_formula_units_Z 26
_cell_length_a 5.167565
_cell_length_b 14.680164
_cell_length_c 17.646540
_cell_angle_alpha 90.000000
_cell_angle_beta 67.099126
_cell_angle_gamma 90.000000
_cell_volume 1233.163525
_symmetry_space_group_name_H-M "P 2/M"
_symmetry_group_IT_number 10
_symmetry_cell_setting 'monoclinic'
loop_
_space_group_symop_operation_xyz
x,y,z
-x,y,-z
-x,-y,-z
x,-y,z
loop_
_atom_site_type_symbol
_atom_site_label
_atom_site_fract_x
_atom_site_fract_y
_atom_site_fract_z
Si Si1 0.000000 0.308042 0.000000
Si Si2 0.323754 0.674414 0.447574
Si Si3 0.959885 0.103068 0.750309
Si Si4 0.480245 0.500000 0.657436
Si Si5 0.490862 0.213644 0.291795
Si Si6 0.484607 0.333609 0.848147
Si Si7 0.163331 0.500000 0.234072
Si Si8 0.280616 0.174831 0.081868
O O1 0.231156 0.371346 0.931090
O O2 0.914049 0.241792 0.942340
O O3 0.500000 0.709191 0.500000
O O4 0.490468 0.586626 0.399314
O O5 0.322651 0.752615 0.384300
O O6 0.000000 0.649728 0.500000
O O7 0.706698 0.142724 0.729397
O O8 0.886626 0.101327 0.849083
O O9 0.233182 0.164367 0.708167
O O10 0.018580 0.000000 0.717686
O O11 0.720928 0.500000 0.693795
O O12 0.172837 0.500000 0.731594
O O13 0.582338 0.302798 0.231015
O O14 0.725860 0.409989 0.821764
O O15 0.563400 0.238382 0.876217
O O16 0.500000 0.124967 0.000000
#
# Coordination Sequence:
#
# PCOD8059282 Si02
#       8
#     2   4   4   2   4   4   2   4
#     4  10  18  39  61  88 124 180 222 276 313 373
#     4  12  25  44  71 102 134 171 215 262 324 394
#     4  11  23  41  67  98 128 168 218 268 326 394
#     4  12  26  43  66 102 139 166 213 276 322 379
#     4  11  23  42  69  93 134 170 214 260 325 399
#     4  10  22  38  62  88 130 179 226 264 319 377
#     4  12  26  38  65  97 132 180 225 265 318 372
#     4   9  20  36  59  88 126 171 216 274 328 372
#
# _framework density 21.083983
#
# number of rings (size 3 to 8) (size 9 to 14) (size 15 to 20)
#    0.000    1.231    3.077    2.769    6.462    0.615 
#    0.000    3.846    0.000    9.231    0.000    0.000 
#    0.000    0.000    0.000    0.000    0.000    0.000 
#
# Total GULP energy -322253.507549 kJ/mol
# GULP energy per Si atom -12394.365675 kJ/mol
# Density = 2.103599 g / cm^3
# Si number density = 21.083983 Si / 1000 Ang^3
#
#
#
# Elastic Constant Matrix: (Units=GPa)
#
#
# Indices 1 2 3 4 5 6 
#
# 1 78.9235 3.8409 27.3623 0.0000 -12.4584 0.0000
# 2 3.8409 75.2272 31.3425 0.0000 -15.7567 0.0000
# 3 27.3623 31.3425 108.6078 0.0000 -10.8792 0.0000
# 4 0.0000 0.0000 0.0000 16.8520 0.0000 -2.3995
# 5 -12.4584 -15.7567 -10.8792 0.0000 42.5676 0.0000
# 6 0.0000 0.0000 0.0000 -2.3995 0.0000 27.2440
#
#
#
# Elastic Compliance Matrix: (Units=1/GPa)
#
#
# Indices 1 2 3 4 5 6 
#
# 1 0.014500 0.001631 -0.003734 0.000000 0.003893 0.000000
# 2 0.001631 0.016223 -0.004560 0.000000 0.005317 0.000000
# 3 -0.003734 -0.004560 0.011479 0.000000 0.000153 0.000000
# 4 0.000000 0.000000 0.000000 0.060094 0.000000 0.005293
# 5 0.003893 0.005317 0.000153 0.000000 0.026639 0.000000
# 6 0.000000 0.000000 0.000000 0.005293 0.000000 0.037171
#
#
# Mechanical properties :
#
#
# Convention : Reuss Voigt Hill
#
# Bulk Modulus (GPa) = 34.62987 43.09443 38.86215
# Shear Modulus (GPa) = 26.44684 30.68026 28.56355
#
# Velocity S-wave (km/s) = 3.54553 3.81877 3.68469
# Velocity P-wave (km/s) = 5.76381 6.31885 6.04770
#
# Compressibility (1/GPa) = 0.02887681
#
# Stress axis : x y z
#
# Youngs Moduli (GPa) = 68.96478 61.63952 87.11256
#
# Poissons Ratio (x) = -0.10052 0.32526
# Poissons Ratio (y) = -0.11246 0.39724
# Poissons Ratio (z) = 0.25750 0.28108
#
# Static dielectric constant tensor:
#      x y z
#    x 3.669190 0.000000 -0.281300 
#    y 0.000000 3.491580 0.000000 
#    z -0.281300 0.000000 3.933020 
# 
# 
# High freq. dielectric constant tensor:
#      x y z
#    x 1.830720 0.000000 -0.001520 
#    y 0.000000 1.797800 0.000000 
#    z -0.001520 0.000000 1.838650 
# 
# From -- ./inp_files/73405.got.cif
#   From: 2010.06.25/outbox.cif.g09.slc.cpg/sg10_37_cif.got.tgz:73405.got - 2010.06.27 22:07:45.
