data_PCOD8059828
_publ_section_title
;
Structure prediction by ZEFSAII (Michael W. Deem and Ramdas Pophale) SiO2 
 PCOD8059828
Probable space group: P 2/M
;
_chemical_formula_sum "Si O2"
_cell_formula_units_Z 32
_cell_length_a 15.039382
_cell_length_b 19.150716
_cell_length_c 20.533801
_cell_angle_alpha 90.000000
_cell_angle_beta 160.629642
_cell_angle_gamma 90.000000
_cell_volume 1961.528485
_symmetry_space_group_name_H-M "P 2/M"
_symmetry_group_IT_number 10
_symmetry_cell_setting 'monoclinic'
loop_
_space_group_symop_operation_xyz
x,y,z
-x,y,-z
-x,-y,-z
x,-y,z
loop_
_atom_site_type_symbol
_atom_site_label
_atom_site_fract_x
_atom_site_fract_y
_atom_site_fract_z
Si Si1 0.251452 0.920702 0.625729
Si Si2 0.953225 0.309627 0.571316
Si Si3 0.136374 0.579752 0.913847
Si Si4 0.813589 0.582810 0.813590
Si Si5 0.574411 0.309625 0.192499
Si Si6 0.246279 0.579750 0.468808
Si Si7 0.066254 0.836634 0.691441
Si Si8 0.432976 0.836636 0.058170
O O1 0.510267 0.884460 0.839051
O O2 0.000000 0.916936 0.500000
O O3 0.174596 0.884462 0.503383
O O4 0.332258 0.000000 0.666124
O O5 0.767117 0.285163 0.383557
O O6 0.822091 0.375912 0.515134
O O7 0.246906 0.330712 0.746905
O O8 0.971522 0.243759 0.632643
O O9 0.215545 0.500000 0.985218
O O10 0.932002 0.609982 0.826993
O O11 0.001127 0.585197 0.750561
O O12 0.405727 0.624088 0.098769
O O13 0.808143 0.500000 0.808128
O O14 0.511969 0.609980 0.616975
O O15 0.000000 0.611686 0.000000
O O16 0.383980 0.243760 0.045103
O O17 0.294261 0.500000 0.524586
O O18 0.306930 0.840002 0.806927
O O19 0.172356 0.861985 0.836174
#
# Coordination Sequence:
#
# PCOD8059828 Si02
#       8
#     4   4   4   4   4   4   4   4
#     4   9  16  26  40  60  85 112 147 186 219 258
#     4  10  19  31  46  63  87 120 157 193 229 272
#     4  10  20  32  46  65  88 115 150 192 235 277
#     4   9  17  31  49  65  83 109 143 184 233 284
#     4  10  19  31  46  63  87 120 157 193 229 272
#     4  10  20  32  46  65  88 115 150 192 235 277
#     4   9  16  27  42  59  83 116 150 183 223 269
#     4   9  16  27  42  59  83 116 150 183 223 269
#
# _framework density 16.313808000000002
#
# number of rings (size 3 to 8) (size 9 to 14) (size 15 to 20)
#    0.000    2.500    1.250    1.875    0.000    5.500 
#    0.000    5.000    0.000    0.000    0.000    0.000 
#    0.000    0.000    0.000    2.250    0.000   10.000 
#
# Total GULP energy -396665.589884 kJ/mol
# GULP energy per Si atom -12395.799684 kJ/mol
# Density = 1.627668 g / cm^3
# Si number density = 16.313808 Si / 1000 Ang^3
#
#
#
# Elastic Constant Matrix: (Units=GPa)
#
#
# Indices 1 2 3 4 5 6 
#
# 1 60.9326 37.8896 28.9044 0.0000 -5.9796 0.0000
# 2 37.8896 82.8595 40.7874 0.0000 -3.6377 0.0000
# 3 28.9044 40.7874 77.7555 0.0000 -15.1667 0.0000
# 4 0.0000 0.0000 0.0000 15.1407 0.0000 -10.0720
# 5 -5.9796 -3.6377 -15.1667 0.0000 29.9372 0.0000
# 6 0.0000 0.0000 0.0000 -10.0720 0.0000 7.1266
#
#
#
# Elastic Compliance Matrix: (Units=1/GPa)
#
#
# Indices 1 2 3 4 5 6 
#
# 1 0.024014 -0.009002 -0.003864 0.000000 0.001745 0.000000
# 2 -0.009002 0.019829 -0.007697 0.000000 -0.003288 0.000000
# 3 -0.003864 -0.007697 0.019976 0.000000 0.008413 0.000000
# 4 0.000000 0.000000 0.000000 1.103737 0.000000 1.559908
# 5 0.001745 -0.003288 0.008413 0.000000 0.037614 0.000000
# 6 0.000000 0.000000 0.000000 1.559908 0.000000 2.344933
#
#
# Mechanical properties :
#
#
# Convention : Reuss Voigt Hill
#
# Bulk Modulus (GPa) = 44.06683 48.52338 46.29511
# Shear Modulus (GPa) = 1.38935 18.03865 9.71400
#
# Velocity S-wave (km/s) = 0.92385 3.32886 2.44282
# Velocity P-wave (km/s) = 5.31118 6.67708 6.03291
#
# Compressibility (1/GPa) = 0.02269280
#
# Stress axis : x y z
#
# Youngs Moduli (GPa) = 41.64312 50.43036 50.06105
#
# Poissons Ratio (x) = 0.45398 0.19345
# Poissons Ratio (y) = 0.37487 0.38530
# Poissons Ratio (z) = 0.16092 0.38814
#
# Static dielectric constant tensor:
#      x y z
#    x 2.930620 0.000000 -0.256500 
#    y 0.000000 2.928200 0.000000 
#    z -0.256500 0.000000 3.134610 
# 
# 
# High freq. dielectric constant tensor:
#      x y z
#    x 1.596960 0.000000 -0.035140 
#    y 0.000000 1.604190 0.000000 
#    z -0.035140 0.000000 1.624920 
# 
# From -- ./inp_files/67754.got.cif
#   From: 2010.06.25/outbox.cif.g09.slc.cpg/sg10_34_cif.got.tgz:67754.got - 2010.06.27 22:07:45.
