data_PCOD8059430
_publ_section_title
;
Structure prediction by ZEFSAII (Michael W. Deem and Ramdas Pophale) SiO2 
 PCOD8059430
Probable space group: P 2/M
;
_chemical_formula_sum "Si O2"
_cell_formula_units_Z 32
_cell_length_a 16.881587
_cell_length_b 12.685903
_cell_length_c 23.250731
_cell_angle_alpha 90.000000
_cell_angle_beta 158.580336
_cell_angle_gamma 90.000000
_cell_volume 1818.434411
_symmetry_space_group_name_H-M "P 2/M"
_symmetry_group_IT_number 10
_symmetry_cell_setting 'monoclinic'
loop_
_space_group_symop_operation_xyz
x,y,z
-x,y,-z
-x,-y,-z
x,-y,z
loop_
_atom_site_type_symbol
_atom_site_label
_atom_site_fract_x
_atom_site_fract_y
_atom_site_fract_z
Si Si1 0.875668 0.696363 0.157726
Si Si2 0.469310 0.382494 0.162838
Si Si3 0.965983 0.377845 0.340284
Si Si4 0.249438 0.624142 0.337861
Si Si5 0.442801 0.620452 0.652268
Si Si6 0.177631 0.624807 0.162582
Si Si7 0.567725 0.121176 0.981334
Si Si8 0.794447 0.235363 0.325475
O O1 0.851248 0.633326 0.200823
O O2 0.778119 0.813184 0.101937
O O3 0.125564 0.692447 0.303432
O O4 0.740266 0.637199 0.017336
O O5 0.553924 0.500000 0.208278
O O6 0.413301 0.368653 0.192377
O O7 0.667411 0.305807 0.284940
O O8 0.962096 0.500000 0.357161
O O9 0.842963 0.308826 0.303895
O O10 0.206832 0.326537 0.498228
O O11 0.500000 0.657772 0.500000
O O12 0.232829 0.500000 0.342141
O O13 0.132049 0.651239 0.198023
O O14 0.389334 0.500000 0.601339
O O15 0.585942 0.669636 0.697307
O O16 0.184026 0.500000 0.157055
O O17 0.000000 0.676033 0.000000
O O18 0.637168 0.000000 0.024316
O O19 0.500000 0.153153 0.000000
O O20 0.358799 0.140322 0.799355
O O21 0.000000 0.190233 0.500000
#
# Coordination Sequence:
#
# PCOD8059430 Si02
#       8
#     4   4   4   4   4   4   4   4
#     4  11  21  34  53  77 102 139 184 219 258 315
#     4  10  19  29  45  70 107 145 175 211 247 296
#     4  11  20  30  46  72 109 146 173 203 245 304
#     4  10  19  31  48  74 110 146 176 210 247 296
#     4   9  17  28  42  64  98 144 181 206 240 284
#     4   9  16  26  41  61  91 133 179 211 237 278
#     4  10  22  42  61  77  99 129 172 230 287 324
#     4  11  21  34  51  77 104 134 174 212 259 321
#
# _framework density 17.597553999999999
#
# number of rings (size 3 to 8) (size 9 to 14) (size 15 to 20)
#    0.000    1.875    2.500    3.000    0.000    4.750 
#    0.000    1.875    0.000    0.375    0.000    0.000 
#    0.000   12.500    0.000    0.000    0.000    0.000 
#
# Total GULP energy -396596.244614 kJ/mol
# GULP energy per Si atom -12393.632644 kJ/mol
# Density = 1.755750 g / cm^3
# Si number density = 17.597554 Si / 1000 Ang^3
#
#
#
# Elastic Constant Matrix: (Units=GPa)
#
#
# Indices 1 2 3 4 5 6 
#
# 1 83.9592 27.7694 17.0187 0.0000 7.3395 0.0000
# 2 27.7694 51.5736 20.5552 0.0000 4.7799 0.0000
# 3 17.0187 20.5552 74.0171 0.0000 0.6498 0.0000
# 4 0.0000 0.0000 0.0000 14.2757 0.0000 1.4178
# 5 7.3395 4.7799 0.6498 0.0000 32.5135 0.0000
# 6 0.0000 0.0000 0.0000 1.4178 0.0000 11.4313
#
#
#
# Elastic Compliance Matrix: (Units=1/GPa)
#
#
# Indices 1 2 3 4 5 6 
#
# 1 0.014765 -0.007193 -0.001378 0.000000 -0.002248 0.000000
# 2 -0.007193 0.025621 -0.005443 0.000000 -0.002034 0.000000
# 3 -0.001378 -0.005443 0.015332 0.000000 0.000805 0.000000
# 4 0.000000 0.000000 0.000000 0.070923 0.000000 -0.008796
# 5 -0.002248 -0.002034 0.000805 0.000000 0.031547 0.000000
# 6 0.000000 0.000000 0.000000 -0.008796 0.000000 0.088570
#
#
# Mechanical properties :
#
#
# Convention : Reuss Voigt Hill
#
# Bulk Modulus (GPa) = 36.11419 37.80405 36.95912
# Shear Modulus (GPa) = 17.60467 21.25788 19.43127
#
# Velocity S-wave (km/s) = 3.16635 3.47940 3.32656
# Velocity P-wave (km/s) = 5.82533 6.13766 5.98353
#
# Compressibility (1/GPa) = 0.02768995
#
# Stress axis : x y z
#
# Youngs Moduli (GPa) = 67.72617 39.03095 65.22394
#
# Poissons Ratio (x) = 0.28074 0.08986
# Poissons Ratio (y) = 0.48714 0.35504
# Poissons Ratio (z) = 0.09331 0.21246
#
# Static dielectric constant tensor:
#      x y z
#    x 3.437710 0.000000 -0.012750 
#    y 0.000000 2.680970 0.000000 
#    z -0.012750 0.000000 3.509400 
# 
# 
# High freq. dielectric constant tensor:
#      x y z
#    x 1.698530 0.000000 -0.006740 
#    y 0.000000 1.600510 0.000000 
#    z -0.006740 0.000000 1.697620 
# 
# From -- ./inp_files/61562.got.cif
#   From: 2010.06.25/outbox.cif.g09.slc.cpg/sg10_31_cif.got.tgz:61562.got - 2010.06.27 22:07:45.
