data_PCOD8059277
_publ_section_title
;
Structure prediction by ZEFSAII (Michael W. Deem and Ramdas Pophale) SiO2 
 PCOD8059277
Probable space group: P 2/M
;
_chemical_formula_sum "Si O2"
_cell_formula_units_Z 22
_cell_length_a 19.523533
_cell_length_b 13.992248
_cell_length_c 10.000306
_cell_angle_alpha 90.000000
_cell_angle_beta 154.476525
_cell_angle_gamma 90.000000
_cell_volume 1177.108244
_symmetry_space_group_name_H-M "P 2/M"
_symmetry_group_IT_number 10
_symmetry_cell_setting 'monoclinic'
loop_
_space_group_symop_operation_xyz
x,y,z
-x,y,-z
-x,-y,-z
x,-y,z
loop_
_atom_site_type_symbol
_atom_site_label
_atom_site_fract_x
_atom_site_fract_y
_atom_site_fract_z
Si Si1 0.720652 0.700907 0.710230
Si Si2 0.972967 0.196396 0.796528
Si Si3 0.969391 0.000000 0.652736
Si Si4 0.500000 0.164187 0.500000
Si Si5 0.681375 0.693421 0.325868
Si Si6 0.369192 0.500000 0.879853
Si Si7 0.592770 0.500000 0.529932
Si Si8 0.272983 0.000000 0.000180
O O1 0.587043 0.769355 0.542501
O O2 0.711883 0.689702 0.536274
O O3 0.704808 0.592750 0.732328
O O4 0.894703 0.742732 0.052276
O O5 0.794894 0.231676 0.450831
O O6 0.983527 0.087959 0.775530
O O7 0.000000 0.207555 0.000000
O O8 0.800471 0.000000 0.278167
O O9 0.122218 0.000000 0.829465
O O10 0.375823 0.096058 0.203304
O O11 0.726568 0.596767 0.322062
O O12 0.500000 0.726258 0.000000
O O13 0.500000 0.500000 0.000000
O O14 0.457213 0.500000 0.176887
O O15 0.500000 0.500000 0.500000
#
# Coordination Sequence:
#
# PCOD8059277 Si02
#       8
#     4   4   2   2   4   2   2   2
#     4  11  21  37  61  87 122 156 196 241 296 353
#     4  10  23  39  61  88 120 153 194 254 301 348
#     4  11  21  42  58  86 117 154 202 247 303 349
#     4  11  22  41  60  88 118 159 198 251 288 360
#     4  10  20  37  63  88 114 157 199 241 299 347
#     4  10  18  37  61  85 121 155 197 251 279 350
#     4  12  22  35  59  93 124 160 198 237 300 355
#     4  10  24  38  63  83 114 162 205 236 295 369
#
# _framework density 18.689869999999999
#
# number of rings (size 3 to 8) (size 9 to 14) (size 15 to 20)
#    0.000    1.455    6.364    0.273    2.545    0.727 
#    0.000    3.182    0.000    1.091    0.000    0.000 
#    0.000    0.000    0.000    0.000    0.000    0.000 
#
# Total GULP energy -272546.613132 kJ/mol
# GULP energy per Si atom -12388.482415 kJ/mol
# Density = 1.864733 g / cm^3
# Si number density = 18.689870 Si / 1000 Ang^3
#
#
#
# Elastic Constant Matrix: (Units=GPa)
#
#
# Indices 1 2 3 4 5 6 
#
# 1 88.8300 54.2177 38.7520 0.0000 11.0725 0.0000
# 2 54.2177 162.6260 54.2068 0.0000 22.3761 0.0000
# 3 38.7520 54.2068 90.4602 0.0000 26.0102 0.0000
# 4 0.0000 0.0000 0.0000 40.4451 0.0000 14.8450
# 5 11.0725 22.3761 26.0102 0.0000 28.1029 0.0000
# 6 0.0000 0.0000 0.0000 14.8450 0.0000 31.2131
#
#
#
# Elastic Compliance Matrix: (Units=1/GPa)
#
#
# Indices 1 2 3 4 5 6 
#
# 1 0.015454 -0.003748 -0.004744 0.000000 0.001286 0.000000
# 2 -0.003748 0.008727 -0.002794 0.000000 -0.002886 0.000000
# 3 -0.004744 -0.002794 0.018510 0.000000 -0.013038 0.000000
# 4 0.000000 0.000000 0.000000 0.029954 0.000000 -0.014246
# 5 0.001286 -0.002886 -0.013038 0.000000 0.049441 0.000000
# 6 0.000000 0.000000 0.000000 -0.014246 0.000000 0.038813
#
#
# Mechanical properties :
#
#
# Convention : Reuss Voigt Hill
#
# Bulk Modulus (GPa) = 49.70540 70.69657 60.20098
# Shear Modulus (GPa) = 26.29097 32.93487 29.61292
#
# Velocity S-wave (km/s) = 3.75466 4.20238 3.98482
# Velocity P-wave (km/s) = 6.74160 7.83932 7.31109
#
# Compressibility (1/GPa) = 0.02011854
#
# Stress axis : x y z
#
# Youngs Moduli (GPa) = 64.70643 114.58667 54.02421
#
# Poissons Ratio (x) = 0.42946 0.25632
# Poissons Ratio (y) = 0.24251 0.15095
# Poissons Ratio (z) = 0.30700 0.32018
#
# Static dielectric constant tensor:
#      x y z
#    x 3.642680 0.000000 0.158070 
#    y 0.000000 3.386440 0.000000 
#    z 0.158070 0.000000 3.774990 
# 
# 
# High freq. dielectric constant tensor:
#      x y z
#    x 1.727200 0.000000 0.007420 
#    y 0.000000 1.739570 0.000000 
#    z 0.007420 0.000000 1.717630 
# 
# From -- ./inp_files/32724.got.cif
#   From: 2010.06.25/outbox.cif.g09.slc.cpg/sg10_17_cif.got.tgz:32724.got - 2010.06.27 22:07:45.
