data_PCOD8059151
_publ_section_title
;
Structure prediction by ZEFSAII (Michael W. Deem and Ramdas Pophale) SiO2 
 PCOD8059151
Probable space group: P 2/M
;
_chemical_formula_sum "Si O2"
_cell_formula_units_Z 28
_cell_length_a 11.129559
_cell_length_b 8.572798
_cell_length_c 14.759710
_cell_angle_alpha 90.000000
_cell_angle_beta 70.938147
_cell_angle_gamma 90.000000
_cell_volume 1331.026554
_symmetry_space_group_name_H-M "P 2/M"
_symmetry_group_IT_number 10
_symmetry_cell_setting 'monoclinic'
loop_
_space_group_symop_operation_xyz
x,y,z
-x,y,-z
-x,-y,-z
x,-y,z
loop_
_atom_site_type_symbol
_atom_site_label
_atom_site_fract_x
_atom_site_fract_y
_atom_site_fract_z
Si Si1 0.396330 0.682522 0.953634
Si Si2 0.106446 0.686532 0.045827
Si Si3 0.399190 0.675413 0.595270
Si Si4 0.060535 0.320997 0.255360
Si Si5 0.479696 0.821029 0.748223
Si Si6 0.136013 0.325800 0.560314
Si Si7 0.742855 0.679652 0.648045
O O1 0.387644 0.500000 0.973998
O O2 0.449108 0.714010 0.841124
O O3 0.500000 0.753957 0.000000
O O4 0.251154 0.750784 0.994645
O O5 0.109822 0.500000 0.043056
O O6 0.063055 0.753732 0.154668
O O7 0.000000 0.747585 0.000000
O O8 0.500000 0.748390 0.500000
O O9 0.441490 0.500000 0.612281
O O10 0.385818 0.779394 0.688869
O O11 0.266416 0.674602 0.580072
O O12 0.018044 0.500000 0.253269
O O13 0.199802 0.308332 0.265476
O O14 0.963588 0.235169 0.349487
O O15 0.619611 0.786297 0.675855
O O16 0.464843 0.000000 0.780152
O O17 0.080920 0.500000 0.560838
O O18 0.157684 0.256582 0.453575
O O19 0.707627 0.500000 0.632743
#
# Coordination Sequence:
#
# PCOD8059151 Si02
#       7
#     4   4   4   4   4   4   4
#     4  10  21  39  63  88 112 146 193 244 294 343
#     4   9  18  31  50  83 118 143 176 230 291 342
#     4  10  19  35  57  83 113 148 190 234 282 334
#     4   9  17  29  52  84 114 141 175 230 289 338
#     4  12  25  37  55  83 116 154 193 233 285 338
#     4   9  17  29  52  85 114 141 178 229 285 335
#     4  10  18  34  56  82 113 145 187 232 279 334
#
# _framework density 21.036393
#
# number of rings (size 3 to 8) (size 9 to 14) (size 15 to 20)
#    0.000    2.143    1.429    2.571    2.000    4.571 
#    0.000    0.000    0.000    3.000    0.000    0.000 
#    0.000    0.000    0.000    0.000    0.000    0.000 
#
# Total GULP energy -346967.887248 kJ/mol
# GULP energy per Si atom -12391.710259 kJ/mol
# Density = 2.098851 g / cm^3
# Si number density = 21.036393 Si / 1000 Ang^3
#
#
#
# Elastic Constant Matrix: (Units=GPa)
#
#
# Indices 1 2 3 4 5 6 
#
# 1 100.2954 12.5293 51.9622 0.0000 10.4873 0.0000
# 2 12.5293 17.6258 3.8559 0.0000 2.1002 0.0000
# 3 51.9622 3.8559 156.4824 0.0000 13.2569 0.0000
# 4 0.0000 0.0000 0.0000 5.2838 0.0000 -0.0808
# 5 10.4873 2.1002 13.2569 0.0000 40.9664 0.0000
# 6 0.0000 0.0000 0.0000 -0.0808 0.0000 1.3679
#
#
#
# Elastic Compliance Matrix: (Units=1/GPa)
#
#
# Indices 1 2 3 4 5 6 
#
# 1 0.013297 -0.008364 -0.004069 0.000000 -0.001658 0.000000
# 2 -0.008364 0.062562 0.001364 0.000000 -0.001507 0.000000
# 3 -0.004069 0.001364 0.007841 0.000000 -0.001566 0.000000
# 4 0.000000 0.000000 0.000000 0.189430 0.000000 0.011191
# 5 -0.001658 -0.001507 -0.001566 0.000000 0.025419 0.000000
# 6 0.000000 0.000000 0.000000 0.011191 0.000000 0.731696
#
#
# Mechanical properties :
#
#
# Convention : Reuss Voigt Hill
#
# Bulk Modulus (GPa) = 16.24417 45.67758 30.96087
# Shear Modulus (GPa) = 4.66025 23.26069 13.96047
#
# Velocity S-wave (km/s) = 1.49001 3.32887 2.57890
# Velocity P-wave (km/s) = 3.27091 6.04449 4.85977
#
# Compressibility (1/GPa) = 0.06156056
#
# Stress axis : x y z
#
# Youngs Moduli (GPa) = 75.20561 15.98411 127.54071
#
# Poissons Ratio (x) = 0.13370 0.51894
# Poissons Ratio (y) = 0.62905 -0.17391
# Poissons Ratio (z) = 0.30600 -0.02180
#
# Static dielectric constant tensor:
#      x y z
#    x 4.008050 0.000000 -0.009460 
#    y 0.000000 3.111570 0.000000 
#    z -0.009460 0.000000 4.078570 
# 
# 
# High freq. dielectric constant tensor:
#      x y z
#    x 1.838210 0.000000 0.005640 
#    y 0.000000 1.738070 0.000000 
#    z 0.005640 0.000000 1.843540 
# 
# From -- ./inp_files/63393.got.cif
#   From: 2010.06.25/outbox.cif.g09.slc.cpg/sg10_32_cif.got.tgz:63393.got - 2010.06.27 22:07:45.
