data_PCOD8059172
_publ_section_title
;
Structure prediction by ZEFSAII (Michael W. Deem and Ramdas Pophale) SiO2 
 PCOD8059172
Probable space group: P 2/M
;
_chemical_formula_sum "Si O2"
_cell_formula_units_Z 24
_cell_length_a 16.871413
_cell_length_b 9.005243
_cell_length_c 7.713227
_cell_angle_alpha 90.000000
_cell_angle_beta 89.147838
_cell_angle_gamma 90.000000
_cell_volume 1171.750020
_symmetry_space_group_name_H-M "P 2/M"
_symmetry_group_IT_number 10
_symmetry_cell_setting 'monoclinic'
loop_
_space_group_symop_operation_xyz
x,y,z
-x,y,-z
-x,-y,-z
x,-y,z
loop_
_atom_site_type_symbol
_atom_site_label
_atom_site_fract_x
_atom_site_fract_y
_atom_site_fract_z
Si Si1 0.093534 0.670302 0.997345
Si Si2 0.176372 0.672486 0.345992
Si Si3 0.658748 0.673682 0.200371
Si Si4 0.498444 0.832940 0.793899
Si Si5 0.347268 0.329872 0.201022
Si Si6 0.815178 0.824364 0.309717
O O1 0.120233 0.500000 0.963046
O O2 0.126379 0.724679 0.181206
O O3 0.128974 0.772563 0.847432
O O4 0.000000 0.687522 0.000000
O O5 0.160413 0.500000 0.385639
O O6 0.269103 0.704063 0.312520
O O7 0.147101 0.768609 0.510369
O O8 0.662915 0.500000 0.241477
O O9 0.574935 0.735738 0.272529
O O10 0.728088 0.754908 0.300519
O O11 0.670617 0.709842 0.997756
O O12 0.581322 0.767046 0.721772
O O13 0.489225 0.000000 0.724659
O O14 0.500000 0.826595 0.000000
O O15 0.373869 0.500000 0.213632
O O16 0.809203 0.000000 0.307464
#
# Coordination Sequence:
#
# PCOD8059172 Si02
#       6
#     4   4   4   4   4   4
#     4  10  22  44  72  96 119 155 203 251 299 357
#     4  10  21  40  64  91 122 159 206 252 297 356
#     4  10  18  34  58  83 115 158 210 256 297 351
#     4   9  17  28  47  81 120 157 198 246 305 362
#     4   9  17  32  56  83 113 155 205 254 300 349
#     4  12  25  39  60  92 129 164 198 245 308 367
#
# _framework density 20.482182999999999
#
# number of rings (size 3 to 8) (size 9 to 14) (size 15 to 20)
#    0.000    2.000    1.667    2.500    0.000    5.000 
#    0.000    4.167    0.000    5.000    0.000    0.000 
#    0.000    0.000    0.000    0.000    0.000    0.000 
#
# Total GULP energy -297686.891451 kJ/mol
# GULP energy per Si atom -12403.620477 kJ/mol
# Density = 2.043556 g / cm^3
# Si number density = 20.482183 Si / 1000 Ang^3
#
#
#
# Elastic Constant Matrix: (Units=GPa)
#
#
# Indices 1 2 3 4 5 6 
#
# 1 90.8617 49.9399 46.0873 0.0000 3.7004 0.0000
# 2 49.9399 128.0300 61.8317 0.0000 2.7203 0.0000
# 3 46.0873 61.8317 113.0581 0.0000 7.4067 0.0000
# 4 0.0000 0.0000 0.0000 17.6428 0.0000 -0.2399
# 5 3.7004 2.7203 7.4067 0.0000 2.6389 0.0000
# 6 0.0000 0.0000 0.0000 -0.2399 0.0000 21.2422
#
#
#
# Elastic Compliance Matrix: (Units=1/GPa)
#
#
# Indices 1 2 3 4 5 6 
#
# 1 0.015365 -0.004139 -0.003514 0.000000 -0.007416 0.000000
# 2 -0.004139 0.011822 -0.005343 0.000000 0.008613 0.000000
# 3 -0.003514 -0.005343 0.015336 0.000000 -0.032608 0.000000
# 4 0.000000 0.000000 0.000000 0.056689 0.000000 0.000640
# 5 -0.007416 0.008613 -0.032608 0.000000 0.471992 0.000000
# 6 0.000000 0.000000 0.000000 0.000640 0.000000 0.047083
#
#
# Mechanical properties :
#
#
# Convention : Reuss Voigt Hill
#
# Bulk Modulus (GPa) = 60.48902 71.96310 66.22606
# Shear Modulus (GPa) = 7.69481 19.91085 13.80283
#
# Velocity S-wave (km/s) = 1.94036 3.12124 2.59876
# Velocity P-wave (km/s) = 5.88359 6.94264 6.43494
#
# Compressibility (1/GPa) = 0.01653193
#
# Stress axis : x y z
#
# Youngs Moduli (GPa) = 65.08338 84.58610 65.20703
#
# Poissons Ratio (x) = 0.35007 0.22915
# Poissons Ratio (y) = 0.26935 0.34839
# Poissons Ratio (z) = 0.22871 0.45193
#
# Static dielectric constant tensor:
#      x y z
#    x 3.735660 0.000000 0.065310 
#    y 0.000000 3.663940 0.000000 
#    z 0.065310 0.000000 3.597240 
# 
# 
# High freq. dielectric constant tensor:
#      x y z
#    x 1.801870 0.000000 0.004040 
#    y 0.000000 1.792570 0.000000 
#    z 0.004040 0.000000 1.793480 
# 
# From -- ./inp_files/31216.got.cif
#   From: 2010.06.25/outbox.cif.g09.slc.cpg/sg10_16_cif.got.tgz:31216.got - 2010.06.27 22:07:45.
