data_PCOD8059262
_publ_section_title
;
Structure prediction by ZEFSAII (Michael W. Deem and Ramdas Pophale) SiO2 
 PCOD8059262
Probable space group: P 2/M
;
_chemical_formula_sum "Si O2"
_cell_formula_units_Z 18
_cell_length_a 10.235759
_cell_length_b 9.954233
_cell_length_c 22.236755
_cell_angle_alpha 90.000000
_cell_angle_beta 24.102667
_cell_angle_gamma 90.000000
_cell_volume 925.243905
_symmetry_space_group_name_H-M "P 2/M"
_symmetry_group_IT_number 10
_symmetry_cell_setting 'monoclinic'
loop_
_space_group_symop_operation_xyz
x,y,z
-x,y,-z
-x,-y,-z
x,-y,z
loop_
_atom_site_type_symbol
_atom_site_label
_atom_site_fract_x
_atom_site_fract_y
_atom_site_fract_z
Si Si1 0.183446 0.000000 0.985080
Si Si2 0.611306 0.500000 0.885000
Si Si3 0.715556 0.000000 0.572290
Si Si4 0.834417 0.233717 0.825925
Si Si5 0.192031 0.222583 0.794471
Si Si6 0.039430 0.500000 0.912725
Si Si7 0.102129 0.000000 0.291379
O O1 0.101399 0.135672 0.055641
O O2 0.000000 0.000000 0.000000
O O3 0.560854 0.000000 0.815213
O O4 0.818020 0.365909 0.790577
O O5 0.500000 0.500000 0.000000
O O6 0.313633 0.500000 0.965883
O O7 0.512244 0.864499 0.668372
O O8 0.000000 0.000000 0.500000
O O9 0.829736 0.000000 0.455788
O O10 0.113918 0.250616 0.757676
O O11 0.942046 0.123968 0.733865
O O12 0.500000 0.199660 0.000000
O O13 0.229091 0.365628 0.812690
O O14 0.000000 0.500000 0.000000
#
# Coordination Sequence:
#
# PCOD8059262 Si02
#       7
#     2   2   2   4   4   2   2
#     4  11  20  33  58  88 116 153 204 256 314 368
#     4  10  18  36  59  95 131 155 182 266 333 365
#     4  11  28  46  58  81 135 179 209 257 318 374
#     4  11  19  35  64  96 127 151 202 269 325 359
#     4  11  22  40  62  89 125 162 200 268 318 366
#     4  12  22  36  66 101 128 160 215 257 321 388
#     4  12  21  36  62  89 115 166 221 253 297 383
#
# _framework density 19.454329999999999
#
# number of rings (size 3 to 8) (size 9 to 14) (size 15 to 20)
#    0.000    0.889    6.667    3.667    0.000    3.556 
#    0.000    1.667    0.000    2.667    0.000    0.000 
#    0.000    0.000    0.000    0.000    0.000    0.000 
#
# Total GULP energy -223188.931909 kJ/mol
# GULP energy per Si atom -12399.385106 kJ/mol
# Density = 1.941005 g / cm^3
# Si number density = 19.454330 Si / 1000 Ang^3
#
#
#
# Elastic Constant Matrix: (Units=GPa)
#
#
# Indices 1 2 3 4 5 6 
#
# 1 149.5033 56.2302 40.1059 0.0000 1.2189 0.0000
# 2 56.2302 192.4551 59.2366 0.0000 9.2110 0.0000
# 3 40.1059 59.2366 75.5575 0.0000 3.1310 0.0000
# 4 0.0000 0.0000 0.0000 27.9151 0.0000 -0.0377
# 5 1.2189 9.2110 3.1310 0.0000 32.7786 0.0000
# 6 0.0000 0.0000 0.0000 -0.0377 0.0000 27.6046
#
#
#
# Elastic Compliance Matrix: (Units=1/GPa)
#
#
# Indices 1 2 3 4 5 6 
#
# 1 0.008069 -0.001388 -0.003211 0.000000 0.000397 0.000000
# 2 -0.001388 0.007154 -0.004809 0.000000 -0.001499 0.000000
# 3 -0.003211 -0.004809 0.018723 0.000000 -0.000318 0.000000
# 4 0.000000 0.000000 0.000000 0.035823 0.000000 0.000049
# 5 0.000397 -0.001499 -0.000318 0.000000 0.030945 0.000000
# 6 0.000000 0.000000 0.000000 0.000049 0.000000 0.036226
#
#
# Mechanical properties :
#
#
# Convention : Reuss Voigt Hill
#
# Bulk Modulus (GPa) = 66.10125 80.96236 73.53180
# Shear Modulus (GPa) = 31.09454 35.12255 33.10855
#
# Velocity S-wave (km/s) = 4.00226 4.25359 4.12984
# Velocity P-wave (km/s) = 7.44371 8.11363 7.78588
#
# Compressibility (1/GPa) = 0.01512831
#
# Stress axis : x y z
#
# Youngs Moduli (GPa) = 123.92902 139.78806 53.40964
#
# Poissons Ratio (x) = 0.19405 0.17151
# Poissons Ratio (y) = 0.17204 0.25687
# Poissons Ratio (z) = 0.39796 0.67231
#
# Static dielectric constant tensor:
#      x y z
#    x 3.574970 0.000000 0.073720 
#    y 0.000000 3.953050 0.000000 
#    z 0.073720 0.000000 3.264010 
# 
# 
# High freq. dielectric constant tensor:
#      x y z
#    x 1.774740 0.000000 0.004160 
#    y 0.000000 1.776140 0.000000 
#    z 0.004160 0.000000 1.714150 
# 
# From -- ./inp_files/74974.got.cif
#   From: 2010.06.25/outbox.cif.g09.slc.cpg/sg10_38_cif.got.tgz:74974.got - 2010.06.27 22:07:45.
