data_PCOD8059088
_publ_section_title
;
Structure prediction by ZEFSAII (Michael W. Deem and Ramdas Pophale) SiO2 
 PCOD8059088
Probable space group: P 2/M
;
_chemical_formula_sum "Si O2"
_cell_formula_units_Z 28
_cell_length_a 14.597247
_cell_length_b 8.579275
_cell_length_c 11.828359
_cell_angle_alpha 90.000000
_cell_angle_beta 68.791688
_cell_angle_gamma 90.000000
_cell_volume 1380.983124
_symmetry_space_group_name_H-M "P 2/M"
_symmetry_group_IT_number 10
_symmetry_cell_setting 'monoclinic'
loop_
_space_group_symop_operation_xyz
x,y,z
-x,y,-z
-x,-y,-z
x,-y,z
loop_
_atom_site_type_symbol
_atom_site_label
_atom_site_fract_x
_atom_site_fract_y
_atom_site_fract_z
Si Si1 0.384468 0.676850 0.067412
Si Si2 0.475059 0.684907 0.387202
Si Si3 0.085898 0.185407 0.381130
Si Si4 0.042362 0.817022 0.148193
Si Si5 0.865641 0.681814 0.112120
Si Si6 0.651912 0.683694 0.160127
Si Si7 0.304196 0.181724 0.326083
O O1 0.349872 0.500000 0.109153
O O2 0.350451 0.787025 0.183200
O O3 0.500000 0.681821 0.000000
O O4 0.338431 0.746456 0.972364
O O5 0.500000 0.750949 0.500000
O O6 0.479608 0.500000 0.385380
O O7 0.558012 0.756067 0.266398
O O8 0.366674 0.735118 0.396307
O O9 0.069410 0.245291 0.260599
O O10 0.191754 0.243871 0.379186
O O11 0.000000 0.253500 0.500000
O O12 0.081762 0.000000 0.382784
O O13 0.927573 0.781888 0.174465
O O14 0.062395 0.000000 0.126308
O O15 0.106888 0.723526 0.028944
O O16 0.886517 0.500000 0.122142
O O17 0.751382 0.723360 0.183557
O O18 0.635319 0.500000 0.157658
O O19 0.307059 0.000000 0.349379
#
# Coordination Sequence:
#
# PCOD8059088 Si02
#       7
#     4   4   4   4   4   4   4
#     4  10  18  33  58  80 109 147 183 217 265 335
#     4  10  21  39  59  77 106 148 187 218 262 329
#     4   9  20  38  57  77 107 149 186 222 273 329
#     4  10  19  34  55  78 105 137 181 224 265 322
#     4  10  19  32  53  78 110 141 171 218 275 323
#     4   9  18  33  53  80 107 140 180 217 263 323
#     4  11  22  36  57  85 113 139 180 235 280 319
#
# _framework density 20.275410000000001
#
# number of rings (size 3 to 8) (size 9 to 14) (size 15 to 20)
#    0.000    2.143    1.429    3.000    0.000    1.714 
#    0.000    4.286    0.000    6.000    0.000    0.000 
#    0.000    0.000    0.000    0.000    0.000    0.000 
#
# Total GULP energy -347159.174637 kJ/mol
# GULP energy per Si atom -12398.541951 kJ/mol
# Density = 2.022926 g / cm^3
# Si number density = 20.275410 Si / 1000 Ang^3
#
#
#
# Elastic Constant Matrix: (Units=GPa)
#
#
# Indices 1 2 3 4 5 6 
#
# 1 155.1050 10.4206 65.1349 0.0000 6.6190 0.0000
# 2 10.4206 23.2643 8.2520 0.0000 -0.5000 0.0000
# 3 65.1349 8.2520 96.9090 0.0000 13.7066 0.0000
# 4 0.0000 0.0000 0.0000 9.8930 0.0000 3.2107
# 5 6.6190 -0.5000 13.7066 0.0000 34.0629 0.0000
# 6 0.0000 0.0000 0.0000 3.2107 0.0000 28.6177
#
#
#
# Elastic Compliance Matrix: (Units=1/GPa)
#
#
# Indices 1 2 3 4 5 6 
#
# 1 0.009081 -0.001915 -0.006030 0.000000 0.000634 0.000000
# 2 -0.001915 0.044898 -0.002844 0.000000 0.002175 0.000000
# 3 -0.006030 -0.002844 0.015327 0.000000 -0.005037 0.000000
# 4 0.000000 0.000000 0.000000 0.104901 0.000000 -0.011769
# 5 0.000634 0.002175 -0.005037 0.000000 0.031293 0.000000
# 6 0.000000 0.000000 0.000000 -0.011769 0.000000 0.036264
#
#
# Mechanical properties :
#
#
# Convention : Reuss Voigt Hill
#
# Bulk Modulus (GPa) = 20.95230 49.21039 35.08135
# Shear Modulus (GPa) = 17.90503 27.27942 22.59223
#
# Velocity S-wave (km/s) = 2.97491 3.67201 3.34169
# Velocity P-wave (km/s) = 4.70706 6.50399 5.67707
#
# Compressibility (1/GPa) = 0.04772745
#
# Stress axis : x y z
#
# Youngs Moduli (GPa) = 110.11733 22.27291 65.24573
#
# Poissons Ratio (x) = 0.04265 0.39345
# Poissons Ratio (y) = 0.21088 0.18554
# Poissons Ratio (z) = 0.66404 0.06334
#
# Static dielectric constant tensor:
#      x y z
#    x 4.004370 0.000000 0.078770 
#    y 0.000000 3.319530 0.000000 
#    z 0.078770 0.000000 3.845810 
# 
# 
# High freq. dielectric constant tensor:
#      x y z
#    x 1.811350 0.000000 0.004270 
#    y 0.000000 1.757480 0.000000 
#    z 0.004270 0.000000 1.781830 
# 
# From -- ./inp_files/49139.got.cif
#   From: 2010.06.25/outbox.cif.g09.slc.cpg/sg10_25_cif.got.tgz:49139.got - 2010.06.27 22:07:45.
