data_PCOD8059603
_publ_section_title
;
Structure prediction by ZEFSAII (Michael W. Deem and Ramdas Pophale) SiO2 
 PCOD8059603
Probable space group: P 2/M
;
_chemical_formula_sum "Si O2"
_cell_formula_units_Z 28
_cell_length_a 29.227448
_cell_length_b 8.934255
_cell_length_c 18.188238
_cell_angle_alpha 90.000000
_cell_angle_beta 20.825866
_cell_angle_gamma 90.000000
_cell_volume 1688.553555
_symmetry_space_group_name_H-M "P 2/M"
_symmetry_group_IT_number 10
_symmetry_cell_setting 'monoclinic'
loop_
_space_group_symop_operation_xyz
x,y,z
-x,y,-z
-x,-y,-z
x,-y,z
loop_
_atom_site_type_symbol
_atom_site_label
_atom_site_fract_x
_atom_site_fract_y
_atom_site_fract_z
Si Si1 0.490902 0.827259 0.929151
Si Si2 0.232079 0.172841 0.553520
Si Si3 0.139698 0.664576 0.825279
Si Si4 0.870120 0.335405 0.740714
Si Si5 0.247722 0.323503 0.228189
Si Si6 0.997546 0.322908 0.826954
Si Si7 0.998639 0.823525 0.331736
O O1 0.625537 0.795558 0.688226
O O2 0.449146 0.000000 0.984887
O O3 0.500000 0.778927 0.000000
O O4 0.387290 0.724268 0.045056
O O5 0.226049 0.220847 0.648557
O O6 0.135710 0.267542 0.648116
O O7 0.193794 0.000000 0.603981
O O8 0.204989 0.500000 0.725350
O O9 0.117015 0.718120 0.943383
O O10 0.000000 0.653301 0.000000
O O11 0.835211 0.500000 0.825058
O O12 0.763017 0.280507 0.842630
O O13 0.888813 0.220175 0.779533
O O14 0.000000 0.347503 0.500000
O O15 0.227038 0.500000 0.269931
O O16 0.139846 0.240888 0.438177
O O17 0.007438 0.500000 0.800276
O O18 0.959518 0.241742 0.809219
O O19 0.987525 0.000000 0.343763
#
# Coordination Sequence:
#
# PCOD8059603 Si02
#       7
#     4   4   4   4   4   4   4
#     4  10  21  34  46  65  95 127 158 191 224 262
#     4  10  19  30  46  68  94 124 156 192 230 268
#     4   8  16  30  46  64  88 120 154 188 228 273
#     4   8  16  31  47  65  90 118 151 188 225 269
#     4  10  20  33  49  67  90 124 160 191 223 265
#     4  10  19  31  47  67  93 123 154 190 230 272
#     4  11  20  29  46  71  96 121 149 186 233 278
#
# _framework density 16.582239999999999
#
# number of rings (size 3 to 8) (size 9 to 14) (size 15 to 20)
#    0.000    2.429    0.000    5.143    0.000    8.857 
#    0.000    0.000    0.000    0.000    0.000    1.000 
#    0.000    8.000    0.000    0.000    0.000    0.000 
#
# Total GULP energy -347113.564360 kJ/mol
# GULP energy per Si atom -12396.913013 kJ/mol
# Density = 1.654450 g / cm^3
# Si number density = 16.582240 Si / 1000 Ang^3
#
#
#
# Elastic Constant Matrix: (Units=GPa)
#
#
# Indices 1 2 3 4 5 6 
#
# 1 128.0808 63.1433 51.9032 0.0000 12.6246 0.0000
# 2 63.1433 102.9967 43.3201 0.0000 11.0515 0.0000
# 3 51.9032 43.3201 68.2411 0.0000 14.2696 0.0000
# 4 0.0000 0.0000 0.0000 22.4451 0.0000 4.6917
# 5 12.6246 11.0515 14.2696 0.0000 25.3300 0.0000
# 6 0.0000 0.0000 0.0000 4.6917 0.0000 23.1158
#
#
#
# Elastic Compliance Matrix: (Units=1/GPa)
#
#
# Indices 1 2 3 4 5 6 
#
# 1 0.013074 -0.005214 -0.006515 0.000000 -0.000571 0.000000
# 2 -0.005214 0.015356 -0.005583 0.000000 -0.000956 0.000000
# 3 -0.006515 -0.005583 0.024898 0.000000 -0.008343 0.000000
# 4 0.000000 0.000000 0.000000 0.046527 0.000000 -0.009443
# 5 -0.000571 -0.000956 -0.008343 0.000000 0.044881 0.000000
# 6 0.000000 0.000000 0.000000 -0.009443 0.000000 0.045177
#
#
# Mechanical properties :
#
#
# Convention : Reuss Voigt Hill
#
# Bulk Modulus (GPa) = 53.46091 68.45021 60.95556
# Shear Modulus (GPa) = 21.66645 23.57496 22.62071
#
# Velocity S-wave (km/s) = 3.61862 3.77463 3.69745
# Velocity P-wave (km/s) = 7.05472 7.76956 7.42075
#
# Compressibility (1/GPa) = 0.01870526
#
# Stress axis : x y z
#
# Youngs Moduli (GPa) = 76.48510 65.12029 40.16455
#
# Poissons Ratio (x) = 0.33954 0.26167
# Poissons Ratio (y) = 0.39879 0.22422
# Poissons Ratio (z) = 0.49829 0.36354
#
# Static dielectric constant tensor:
#      x y z
#    x 3.483790 0.000000 0.238630 
#    y 0.000000 3.188750 0.000000 
#    z 0.238630 0.000000 2.945330 
# 
# 
# High freq. dielectric constant tensor:
#      x y z
#    x 1.638250 0.000000 0.018150 
#    y 0.000000 1.647940 0.000000 
#    z 0.018150 0.000000 1.601210 
# 
# From -- ./inp_files/80643.got.cif
#   From: 2010.06.25/outbox.cif.g09.slc.cpg/sg10_41_cif.got.tgz:80643.got - 2010.06.27 22:07:45.
