data_PCOD8059284
_publ_section_title
;
Structure prediction by ZEFSAII (Michael W. Deem and Ramdas Pophale) SiO2 
 PCOD8059284
Probable space group: P 2/M
;
_chemical_formula_sum "Si O2"
_cell_formula_units_Z 26
_cell_length_a 8.491399
_cell_length_b 19.317958
_cell_length_c 9.979474
_cell_angle_alpha 90.000000
_cell_angle_beta 127.120428
_cell_angle_gamma 90.000000
_cell_volume 1305.291056
_symmetry_space_group_name_H-M "P 2/M"
_symmetry_group_IT_number 10
_symmetry_cell_setting 'monoclinic'
loop_
_space_group_symop_operation_xyz
x,y,z
-x,y,-z
-x,-y,-z
x,-y,z
loop_
_atom_site_type_symbol
_atom_site_label
_atom_site_fract_x
_atom_site_fract_y
_atom_site_fract_z
Si Si1 0.354963 0.576596 0.734093
Si Si2 0.988962 0.709243 0.198453
Si Si3 0.223241 0.577506 0.971310
Si Si4 0.680818 0.811982 0.689484
Si Si5 0.000000 0.331820 0.500000
Si Si6 0.006036 0.922952 0.162105
Si Si7 0.324029 0.821639 0.011151
O O1 0.335699 0.500000 0.662083
O O2 0.294545 0.575752 0.856526
O O3 0.200629 0.624567 0.575772
O O4 0.585530 0.600448 0.840863
O O5 0.958377 0.632439 0.117648
O O6 0.981672 0.713440 0.356639
O O7 0.189872 0.741657 0.244174
O O8 0.805935 0.753249 0.053122
O O9 0.150496 0.500000 0.975770
O O10 0.500000 0.799516 0.500000
O O11 0.809628 0.876026 0.697413
O O12 0.601676 0.830277 0.797534
O O13 0.024780 0.000000 0.233736
O O14 0.000000 0.925472 0.000000
O O15 0.801669 0.887850 0.104538
O O16 0.500000 0.811056 0.000000
#
# Coordination Sequence:
#
# PCOD8059284 Si02
#       7
#     4   4   4   4   2   4   4
#     4   8  14  25  41  69 110 140 174 230 286 340
#     4  10  21  33  53  79 113 149 189 236 283 341
#     4   8  15  28  47  71 102 144 189 231 281 341
#     4  10  22  39  58  84 116 152 188 232 285 329
#     4  10  19  26  46  82 109 144 186 232 278 330
#     4   8  16  36  61  87 118 152 185 219 271 336
#     4  10  22  37  60  84 112 153 189 230 275 334
#
# _framework density 19.918928999999999
#
# number of rings (size 3 to 8) (size 9 to 14) (size 15 to 20)
#    0.000    2.923    0.000    2.538    6.462    1.231 
#    0.000    0.000    0.000    3.231    0.000    0.000 
#    0.000    0.000    0.000    0.000    0.000    0.000 
#
# Total GULP energy -322195.938139 kJ/mol
# GULP energy per Si atom -12392.151467 kJ/mol
# Density = 1.987359 g / cm^3
# Si number density = 19.918929 Si / 1000 Ang^3
#
#
#
# Elastic Constant Matrix: (Units=GPa)
#
#
# Indices 1 2 3 4 5 6 
#
# 1 59.4477 17.0687 45.2357 0.0000 9.0779 0.0000
# 2 17.0687 121.0381 45.6202 0.0000 20.2826 0.0000
# 3 45.2357 45.6202 100.3773 0.0000 19.2531 0.0000
# 4 0.0000 0.0000 0.0000 1.8038 0.0000 -4.6384
# 5 9.0779 20.2826 19.2531 0.0000 28.6774 0.0000
# 6 0.0000 0.0000 0.0000 -4.6384 0.0000 14.5451
#
#
#
# Elastic Compliance Matrix: (Units=1/GPa)
#
#
# Indices 1 2 3 4 5 6 
#
# 1 0.025698 0.000994 -0.011866 0.000000 -0.000872 0.000000
# 2 0.000994 0.010567 -0.004312 0.000000 -0.004893 0.000000
# 3 -0.011866 -0.004312 0.018324 0.000000 -0.005496 0.000000
# 4 0.000000 0.000000 0.000000 3.080226 0.000000 0.982277
# 5 -0.000872 -0.004893 -0.005496 0.000000 0.042298 0.000000
# 6 0.000000 0.000000 0.000000 0.982277 0.000000 0.381998
#
#
# Mechanical properties :
#
#
# Convention : Reuss Voigt Hill
#
# Bulk Modulus (GPa) = 41.28474 55.19025 48.23749
# Shear Modulus (GPa) = 1.38983 20.53449 10.96216
#
# Velocity S-wave (km/s) = 0.83622 3.21425 2.34848
# Velocity P-wave (km/s) = 4.65873 6.44537 5.62346
#
# Compressibility (1/GPa) = 0.02422202
#
# Stress axis : x y z
#
# Youngs Moduli (GPa) = 38.91327 94.63529 54.57387
#
# Poissons Ratio (x) = -0.09411 0.64756
# Poissons Ratio (y) = -0.03870 0.23533
# Poissons Ratio (z) = 0.46174 0.40807
#
# Static dielectric constant tensor:
#      x y z
#    x 3.608800 0.000000 0.355020 
#    y 0.000000 4.060210 0.000000 
#    z 0.355020 0.000000 3.794620 
# 
# 
# High freq. dielectric constant tensor:
#      x y z
#    x 1.747100 0.000000 0.011610 
#    y 0.000000 1.774320 0.000000 
#    z 0.011610 0.000000 1.771320 
# 
# From -- ./inp_files/43656.got.cif
#   From: 2010.06.25/outbox.cif.g09.slc.cpg/sg10_22_cif.got.tgz:43656.got - 2010.06.27 22:07:45.
