data_PCOD8059597
_publ_section_title
;
Structure prediction by ZEFSAII (Michael W. Deem and Ramdas Pophale) SiO2 
 PCOD8059597
Probable space group: P 2/M
;
_chemical_formula_sum "Si O2"
_cell_formula_units_Z 28
_cell_length_a 13.593330
_cell_length_b 8.712138
_cell_length_c 27.699660
_cell_angle_alpha 90.000000
_cell_angle_beta 149.699644
_cell_angle_gamma 90.000000
_cell_volume 1655.063313
_symmetry_space_group_name_H-M "P 2/M"
_symmetry_group_IT_number 10
_symmetry_cell_setting 'monoclinic'
loop_
_space_group_symop_operation_xyz
x,y,z
-x,y,-z
-x,-y,-z
x,-y,z
loop_
_atom_site_type_symbol
_atom_site_label
_atom_site_fract_x
_atom_site_fract_y
_atom_site_fract_z
Si Si1 0.684346 0.671995 0.720134
Si Si2 0.439271 0.681656 0.527488
Si Si3 0.100966 0.822563 0.440528
Si Si4 0.922124 0.820169 0.897574
Si Si5 0.673434 0.175002 0.274659
Si Si6 0.288556 0.672763 0.609281
Si Si7 0.723672 0.680215 0.905299
O O1 0.768031 0.500000 0.750399
O O2 0.611139 0.734162 0.637054
O O3 0.853398 0.779178 0.814110
O O4 0.504479 0.675547 0.680058
O O5 0.500000 0.733869 0.500000
O O6 0.408089 0.500000 0.518787
O O7 0.234837 0.761512 0.453704
O O8 0.136981 0.728075 0.504714
O O9 0.873856 0.800663 0.329473
O O10 0.149957 0.000000 0.471076
O O11 0.783407 0.735123 0.877214
O O12 0.907858 0.000000 0.900586
O O13 0.144160 0.764301 0.998596
O O14 0.721016 0.213388 0.350048
O O15 0.502591 0.281277 0.180693
O O16 0.601862 0.000000 0.241369
O O17 0.232936 0.500000 0.601690
O O18 0.757326 0.500000 0.923517
#
# Coordination Sequence:
#
# PCOD8059597 Si02
#       7
#     4   4   4   4   4   4   4
#     4   9  17  30  48  71  98 127 162 201 242 288
#     4   9  19  36  56  76  98 125 161 205 248 292
#     4  10  21  33  47  69  98 129 161 200 243 293
#     4  11  20  31  47  68  96 130 166 203 243 286
#     4  11  21  32  45  66  97 132 167 201 240 285
#     4  10  19  30  46  67  95 131 168 202 235 280
#     4  11  21  32  47  66  94 131 170 207 241 280
#
# _framework density 16.917781000000002
#
# number of rings (size 3 to 8) (size 9 to 14) (size 15 to 20)
#    0.000    1.857    1.429    6.000    0.000    6.571 
#    0.000    0.000    0.000    0.000    0.000    1.000 
#    0.000    8.000    0.000    0.000    0.000    0.000 
#
# Total GULP energy -347195.839109 kJ/mol
# GULP energy per Si atom -12399.851397 kJ/mol
# Density = 1.687928 g / cm^3
# Si number density = 16.917781 Si / 1000 Ang^3
#
#
#
# Elastic Constant Matrix: (Units=GPa)
#
#
# Indices 1 2 3 4 5 6 
#
# 1 59.1257 15.4944 46.7605 0.0000 -7.3026 0.0000
# 2 15.4944 68.7885 30.7829 0.0000 -1.1135 0.0000
# 3 46.7605 30.7829 111.7025 0.0000 4.5999 0.0000
# 4 0.0000 0.0000 0.0000 27.7097 0.0000 2.1376
# 5 -7.3026 -1.1135 4.5999 0.0000 17.8302 0.0000
# 6 0.0000 0.0000 0.0000 2.1376 0.0000 14.8667
#
#
#
# Elastic Compliance Matrix: (Units=1/GPa)
#
#
# Indices 1 2 3 4 5 6 
#
# 1 0.028825 -0.000655 -0.012503 0.000000 0.014990 0.000000
# 2 -0.000655 0.016686 -0.004403 0.000000 0.001910 0.000000
# 3 -0.012503 -0.004403 0.015790 0.000000 -0.009469 0.000000
# 4 0.000000 0.000000 0.000000 0.036493 0.000000 -0.005247
# 5 0.014990 0.001910 -0.009469 0.000000 0.064786 0.000000
# 6 0.000000 0.000000 0.000000 -0.005247 0.000000 0.068019
#
#
# Mechanical properties :
#
#
# Convention : Reuss Voigt Hill
#
# Bulk Modulus (GPa) = 38.19936 47.29911 42.74923
# Shear Modulus (GPa) = 18.21846 21.85324 20.03585
#
# Velocity S-wave (km/s) = 3.28515 3.59797 3.44511
# Velocity P-wave (km/s) = 6.08424 6.72900 6.41473
#
# Compressibility (1/GPa) = 0.02617845
#
# Stress axis : x y z
#
# Youngs Moduli (GPa) = 34.69267 59.93049 63.33237
#
# Poissons Ratio (x) = 0.03924 0.79186
# Poissons Ratio (y) = 0.02272 0.27884
# Poissons Ratio (z) = 0.43377 0.26387
#
# Static dielectric constant tensor:
#      x y z
#    x 2.872580 0.000000 0.063840 
#    y 0.000000 3.255390 0.000000 
#    z 0.063840 0.000000 3.342550 
# 
# 
# High freq. dielectric constant tensor:
#      x y z
#    x 1.598630 0.000000 0.010680 
#    y 0.000000 1.664940 0.000000 
#    z 0.010680 0.000000 1.656380 
# 
# From -- ./inp_files/65780.got.cif
#   From: 2010.06.25/outbox.cif.g09.slc.cpg/sg10_33_cif.got.tgz:65780.got - 2010.06.27 22:07:45.
