data_PCOD8059753
_publ_section_title
;
Structure prediction by ZEFSAII (Michael W. Deem and Ramdas Pophale) SiO2 
 PCOD8059753
Probable space group: P 2/M
;
_chemical_formula_sum "Si O2"
_cell_formula_units_Z 32
_cell_length_a 15.273422
_cell_length_b 8.995578
_cell_length_c 15.426215
_cell_angle_alpha 90.000000
_cell_angle_beta 122.992359
_cell_angle_gamma 90.000000
_cell_volume 1777.680932
_symmetry_space_group_name_H-M "P 2/M"
_symmetry_group_IT_number 10
_symmetry_cell_setting 'monoclinic'
loop_
_space_group_symop_operation_xyz
x,y,z
-x,y,-z
-x,-y,-z
x,-y,z
loop_
_atom_site_type_symbol
_atom_site_label
_atom_site_fract_x
_atom_site_fract_y
_atom_site_fract_z
Si Si1 0.827208 0.172754 0.887127
Si Si2 0.558083 0.828542 0.162708
Si Si3 0.362006 0.327095 0.291803
Si Si4 0.743007 0.673210 0.584440
Si Si5 0.587825 0.675400 0.355133
Si Si6 0.864677 0.675972 0.081833
Si Si7 0.065750 0.827211 0.237292
Si Si8 0.341064 0.827351 0.964063
O O1 0.710023 0.231876 0.811303
O O2 0.894285 0.203591 0.838061
O O3 0.823188 0.000000 0.909193
O O4 0.881019 0.259909 0.994409
O O5 0.602537 0.737041 0.266985
O O6 0.634157 0.798751 0.123097
O O7 0.558625 0.000000 0.188671
O O8 0.440522 0.779421 0.075354
O O9 0.347185 0.500000 0.260474
O O10 0.333060 0.295444 0.375590
O O11 0.479416 0.271341 0.339442
O O12 0.771528 0.500000 0.594473
O O13 0.682968 0.730614 0.466652
O O14 0.850020 0.764889 0.649252
O O15 0.589281 0.500000 0.351278
O O16 0.872199 0.500000 0.083844
O O17 0.754401 0.724245 0.061292
O O18 0.956957 0.741158 0.191751
O O19 0.048324 0.000000 0.246455
O O20 0.313704 0.000000 0.965489
#
# Coordination Sequence:
#
# PCOD8059753 Si02
#       8
#     4   4   4   4   4   4   4   4
#     4  10  20  33  49  72 103 136 169 206 247 291
#     4   9  19  35  55  77 102 133 165 200 246 298
#     4   9  17  30  48  72 103 138 173 205 242 292
#     4   9  18  33  50  70 101 138 173 209 247 289
#     4  10  19  30  49  76 104 135 169 206 249 295
#     4  12  23  33  51  77 101 130 167 205 250 301
#     4  10  21  36  52  71  98 134 173 211 249 289
#     4   9  19  37  56  75 102 133 164 201 247 297
#
# _framework density 18.000982
#
# number of rings (size 3 to 8) (size 9 to 14) (size 15 to 20)
#    0.000    2.250    0.000    4.125    0.000    8.500 
#    0.000    1.250    0.000    4.500    0.000    5.250 
#    0.000    0.000    0.000    0.000    0.000    0.000 
#
# Total GULP energy -396882.790911 kJ/mol
# GULP energy per Si atom -12402.587216 kJ/mol
# Density = 1.796001 g / cm^3
# Si number density = 18.000982 Si / 1000 Ang^3
#
#
#
# Elastic Constant Matrix: (Units=GPa)
#
#
# Indices 1 2 3 4 5 6 
#
# 1 55.8426 29.8656 34.5345 0.0000 15.6870 0.0000
# 2 29.8656 75.7199 40.6285 0.0000 15.0920 0.0000
# 3 34.5345 40.6285 117.0113 0.0000 14.8179 0.0000
# 4 0.0000 0.0000 0.0000 29.5122 0.0000 -1.7418
# 5 15.6870 15.0920 14.8179 0.0000 25.3415 0.0000
# 6 0.0000 0.0000 0.0000 -1.7418 0.0000 25.5962
#
#
#
# Elastic Compliance Matrix: (Units=1/GPa)
#
#
# Indices 1 2 3 4 5 6 
#
# 1 0.026871 -0.006123 -0.004493 0.000000 -0.010360 0.000000
# 2 -0.006123 0.018818 -0.004090 0.000000 -0.005025 0.000000
# 3 -0.004493 -0.004090 0.011482 0.000000 -0.001497 0.000000
# 4 0.000000 0.000000 0.000000 0.034021 0.000000 0.002315
# 5 -0.010360 -0.005025 -0.001497 0.000000 0.049742 0.000000
# 6 0.000000 0.000000 0.000000 0.002315 0.000000 0.039226
#
#
# Mechanical properties :
#
#
# Convention : Reuss Voigt Hill
#
# Bulk Modulus (GPa) = 36.02484 50.95900 43.49192
# Shear Modulus (GPa) = 22.84937 25.65965 24.25451
#
# Velocity S-wave (km/s) = 3.56665 3.77962 3.67468
# Velocity P-wave (km/s) = 6.08420 6.88606 6.49751
#
# Compressibility (1/GPa) = 0.02775863
#
# Stress axis : x y z
#
# Youngs Moduli (GPa) = 37.21511 53.14094 87.09315
#
# Poissons Ratio (x) = 0.32538 0.39128
# Poissons Ratio (y) = 0.22786 0.35625
# Poissons Ratio (z) = 0.16719 0.21737
#
# Static dielectric constant tensor:
#      x y z
#    x 3.191640 0.000000 0.134410 
#    y 0.000000 3.258690 0.000000 
#    z 0.134410 0.000000 3.412530 
# 
# 
# High freq. dielectric constant tensor:
#      x y z
#    x 1.682300 0.000000 0.012680 
#    y 0.000000 1.694990 0.000000 
#    z 0.012680 0.000000 1.693320 
# 
# From -- ./inp_files/66560.got.cif
#   From: 2010.06.25/outbox.cif.g09.slc.cpg/sg10_34_cif.got.tgz:66560.got - 2010.06.27 22:07:45.
