data_PCOD8059157
_publ_section_title
;
Structure prediction by ZEFSAII (Michael W. Deem and Ramdas Pophale) SiO2 
 PCOD8059157
Probable space group: P 2/M
;
_chemical_formula_sum "Si O2"
_cell_formula_units_Z 32
_cell_length_a 21.379223
_cell_length_b 8.614629
_cell_length_c 11.901365
_cell_angle_alpha 90.000000
_cell_angle_beta 133.295740
_cell_angle_gamma 90.000000
_cell_volume 1595.333526
_symmetry_space_group_name_H-M "P 2/M"
_symmetry_group_IT_number 10
_symmetry_cell_setting 'monoclinic'
loop_
_space_group_symop_operation_xyz
x,y,z
-x,y,-z
-x,-y,-z
x,-y,z
loop_
_atom_site_type_symbol
_atom_site_label
_atom_site_fract_x
_atom_site_fract_y
_atom_site_fract_z
Si Si1 0.101643 0.818947 0.524140
Si Si2 0.783999 0.182283 0.949094
Si Si3 0.719463 0.322264 0.648373
Si Si4 0.078155 0.681848 0.731170
Si Si5 0.748421 0.678909 0.430923
Si Si6 0.598160 0.181996 0.118446
Si Si7 0.626921 0.817780 0.902698
Si Si8 0.537807 0.825114 0.423205
O O1 0.118264 0.769641 0.673195
O O2 0.185527 0.785678 0.554748
O O3 0.021304 0.725759 0.373969
O O4 0.080591 0.000000 0.494557
O O5 0.767864 0.215515 0.798316
O O6 0.705240 0.251551 0.926323
O O7 0.795187 0.000000 0.981357
O O8 0.870583 0.267748 0.094615
O O9 0.730485 0.500000 0.698502
O O10 0.762085 0.291504 0.579839
O O11 0.619062 0.285683 0.517900
O O12 0.085907 0.500000 0.720259
O O13 0.763849 0.500000 0.418929
O O14 0.651522 0.726812 0.278249
O O15 0.602360 0.000000 0.150542
O O16 0.500000 0.239997 0.000000
O O17 0.640325 0.221264 0.049722
O O18 0.534855 0.752493 0.748284
O O19 0.623937 0.000000 0.875735
O O20 0.500000 0.829245 0.500000
O O21 0.564584 0.000000 0.419215
#
# Coordination Sequence:
#
# PCOD8059157 Si02
#       8
#     4   4   4   4   4   4   4   4
#     4  11  22  40  66  94 120 154 199 241 285 348
#     4  11  21  37  59  85 117 154 198 245 291 348
#     4  11  24  39  55  81 117 157 199 248 302 357
#     4  11  22  39  64  95 128 155 184 234 298 354
#     4  11  24  41  59  82 118 160 200 246 302 359
#     4  10  20  35  57  84 115 152 195 245 295 354
#     4   9  18  32  53  82 112 144 189 242 294 343
#     4  10  18  34  57  80 108 151 198 243 293 349
#
# _framework density 20.058501
#
# number of rings (size 3 to 8) (size 9 to 14) (size 15 to 20)
#    0.000    1.500    1.250    5.625    0.000    4.500 
#    0.000    1.875    0.000    3.750    0.000    0.000 
#    0.000    0.000    0.000    0.000    0.000    0.000 
#
# Total GULP energy -396945.787579 kJ/mol
# GULP energy per Si atom -12404.555862 kJ/mol
# Density = 2.001285 g / cm^3
# Si number density = 20.058501 Si / 1000 Ang^3
#
#
#
# Elastic Constant Matrix: (Units=GPa)
#
#
# Indices 1 2 3 4 5 6 
#
# 1 78.7192 23.4965 26.8258 0.0000 2.0298 0.0000
# 2 23.4965 72.5414 26.1095 0.0000 -2.0845 0.0000
# 3 26.8258 26.1095 116.7609 0.0000 3.2255 0.0000
# 4 0.0000 0.0000 0.0000 -140.7438 0.0000 101.6894
# 5 2.0298 -2.0845 3.2255 0.0000 26.0168 0.0000
# 6 0.0000 0.0000 0.0000 101.6894 0.0000 -34.6472
#
#
#
# Elastic Compliance Matrix: (Units=1/GPa)
#
#
# Indices 1 2 3 4 5 6 
#
# 1 0.014748 -0.003917 -0.002480 0.000000 -0.001157 0.000000
# 2 -0.003917 0.016101 -0.002754 0.000000 0.001937 0.000000
# 3 -0.002480 -0.002754 0.009784 0.000000 -0.001240 0.000000
# 4 0.000000 0.000000 0.000000 0.006341 0.000000 0.018610
# 5 -0.001157 0.001937 -0.001240 0.000000 0.038836 0.000000
# 6 0.000000 0.000000 0.000000 0.018610 0.000000 0.025757
#
#
# Mechanical properties :
#
#
# Convention : Reuss Voigt Hill
#
# Bulk Modulus (GPa) = 44.78303 46.76500 45.77401
# Shear Modulus (GPa) = 36.41319 -17.10219 9.65550
#
# Velocity S-wave (km/s) = 4.26531 -2.92313 2.19639
# Velocity P-wave (km/s) = 6.82875 3.46006 5.41313
#
# Compressibility (1/GPa) = 0.02232989
#
# Stress axis : x y z
#
# Youngs Moduli (GPa) = 67.80702 62.10811 102.20298
#
# Poissons Ratio (x) = 0.24330 0.25350
# Poissons Ratio (y) = 0.26562 0.28146
# Poissons Ratio (z) = 0.16819 0.17104
#
# Static dielectric constant tensor:
#      x y z
#    x 3.591810 0.000000 -0.027830 
#    y 0.000000 3.495830 0.000000 
#    z -0.027830 0.000000 3.717810 
# 
# 
# High freq. dielectric constant tensor:
#      x y z
#    x 1.774360 0.000000 -0.001570 
#    y 0.000000 1.772350 0.000000 
#    z -0.001570 0.000000 1.791130 
# 
# From -- ./inp_files/55378.got.cif
#   From: 2010.06.25/outbox.cif.g09.slc.cpg/sg10_28_cif.got.tgz:55378.got - 2010.06.27 22:07:45.
