data_PCOD8059486
_publ_section_title
;
Structure prediction by ZEFSAII (Michael W. Deem and Ramdas Pophale) SiO2 
 PCOD8059486
Probable space group: P 2/M
;
_chemical_formula_sum "Si O2"
_cell_formula_units_Z 32
_cell_length_a 31.810808
_cell_length_b 13.632505
_cell_length_c 32.235907
_cell_angle_alpha 90.000000
_cell_angle_beta 9.315026
_cell_angle_gamma 90.000000
_cell_volume 2262.751338
_symmetry_space_group_name_H-M "P 2/M"
_symmetry_group_IT_number 10
_symmetry_cell_setting 'monoclinic'
loop_
_space_group_symop_operation_xyz
x,y,z
-x,y,-z
-x,-y,-z
x,-y,z
loop_
_atom_site_type_symbol
_atom_site_label
_atom_site_fract_x
_atom_site_fract_y
_atom_site_fract_z
Si Si1 0.952355 0.616983 0.500124
Si Si2 0.761683 0.617050 0.499954
Si Si3 0.450245 0.890552 0.500001
Si Si4 0.117183 0.616012 0.000022
Si Si5 0.404430 0.383023 0.000123
Si Si6 0.690375 0.616882 0.000048
Si Si7 0.950310 0.226514 0.000001
Si Si8 0.667303 0.383997 0.500009
O O1 0.952576 0.500000 0.500125
O O2 0.000000 0.657314 0.500000
O O3 0.178378 0.657110 0.250149
O O4 0.678332 0.657112 0.750233
O O5 0.761101 0.500000 0.499965
O O6 0.535947 0.657128 0.749769
O O7 0.714362 0.659949 0.499998
O O8 0.035614 0.657126 0.250087
O O9 0.500000 0.897988 0.500000
O O10 0.182759 0.833620 0.752294
O O11 0.430693 0.000000 0.500001
O O12 0.687346 0.833622 0.247706
O O13 0.108736 0.500000 0.000039
O O14 0.390603 0.651668 0.752407
O O15 0.071856 0.667630 0.999991
O O16 0.895346 0.651685 0.247656
O O17 0.404318 0.500000 0.000114
O O18 0.357092 0.342452 0.999999
O O19 0.689964 0.500000 0.000049
O O20 0.000000 0.246450 0.000000
O O21 0.670396 0.500000 0.499955
#
# Coordination Sequence:
#
# PCOD8059486 Si02
#       8
#     4   4   4   4   4   4   4   4
#     4   9  15  21  27  33  43  62  85 105 129 172
#     4   9  15  23  34  46  58  74  99 128 160 197
#     4   9  17  30  47  65  83 101 123 154 189 221
#     4  10  19  30  42  57  79 105 130 154 178 207
#     4   9  15  21  27  36  49  62  79 107 144 182
#     4   9  15  21  30  43  56  68  85 118 161 197
#     4  10  19  30  45  64  83 104 129 154 183 218
#     4   9  17  28  40  52  68  93 122 148 172 202
#
# _framework density 14.142075999999999
#
# number of rings (size 3 to 8) (size 9 to 14) (size 15 to 20)
#    0.000    2.750    0.000    3.000    0.000    9.250 
#    0.000    0.000    0.000    4.500    0.000    0.000 
#    0.000    0.000    0.000    0.000    0.000    0.000 
#
# Total GULP energy -396755.719722 kJ/mol
# GULP energy per Si atom -12398.616241 kJ/mol
# Density = 1.410989 g / cm^3
# Si number density = 14.142076 Si / 1000 Ang^3
#
#
#
# Elastic Constant Matrix: (Units=GPa)
#
#
# Indices 1 2 3 4 5 6 
#
# 1 109.0815 28.1656 62.8354 0.0000 0.2389 0.0000
# 2 28.1656 28.8515 24.4211 0.0000 0.1664 0.0000
# 3 62.8354 24.4211 154.0664 0.0000 -2.2472 0.0000
# 4 0.0000 0.0000 0.0000 6.6876 0.0000 -0.2398
# 5 0.2389 0.1664 -2.2472 0.0000 20.6819 0.0000
# 6 0.0000 0.0000 0.0000 -0.2398 0.0000 1.3538
#
#
#
# Elastic Compliance Matrix: (Units=1/GPa)
#
#
# Indices 1 2 3 4 5 6 
#
# 1 0.014254 -0.010377 -0.004176 0.000000 -0.000535 0.000000
# 2 -0.010377 0.047607 -0.003323 0.000000 -0.000624 0.000000
# 3 -0.004176 -0.003323 0.008736 0.000000 0.001024 0.000000
# 4 0.000000 0.000000 0.000000 0.150488 0.000000 0.026660
# 5 -0.000535 -0.000624 0.001024 0.000000 0.048474 0.000000
# 6 0.000000 0.000000 0.000000 0.026660 0.000000 0.743376
#
#
# Mechanical properties :
#
#
# Convention : Reuss Voigt Hill
#
# Bulk Modulus (GPa) = 28.69957 58.09375 43.39666
# Shear Modulus (GPa) = 4.71564 17.51647 11.11606
#
# Velocity S-wave (km/s) = 1.82804 3.52320 2.80666
# Velocity P-wave (km/s) = 4.97930 7.59727 6.42308
#
# Compressibility (1/GPa) = 0.03484373
#
# Stress axis : x y z
#
# Youngs Moduli (GPa) = 70.15722 21.00543 114.47295
#
# Poissons Ratio (x) = 0.21797 0.47807
# Poissons Ratio (y) = 0.72800 0.38041
# Poissons Ratio (z) = 0.29300 0.06980
#
# Static dielectric constant tensor:
#      x y z
#    x 2.857230 0.000000 -0.010370 
#    y 0.000000 2.156390 0.000000 
#    z -0.010370 0.000000 3.087800 
# 
# 
# High freq. dielectric constant tensor:
#      x y z
#    x 1.542640 0.000000 -0.001090 
#    y 0.000000 1.449330 0.000000 
#    z -0.001090 0.000000 1.566910 
# 
# From -- ./inp_files/11810.got.cif
#   From: 2010.06.25/outbox.cif.g09.slc.cpg/sg10_6_cif.got.tgz:11810.got - 2010.06.27 22:07:45.
