data_PCOD8059746
_publ_section_title
;
Structure prediction by ZEFSAII (Michael W. Deem and Ramdas Pophale) SiO2 
 PCOD8059746
Probable space group: P 2/M
;
_chemical_formula_sum "Si O2"
_cell_formula_units_Z 26
_cell_length_a 21.462951
_cell_length_b 14.388911
_cell_length_c 8.812842
_cell_angle_alpha 90.000000
_cell_angle_beta 146.739862
_cell_angle_gamma 90.000000
_cell_volume 1492.668653
_symmetry_space_group_name_H-M "P 2/M"
_symmetry_group_IT_number 10
_symmetry_cell_setting 'monoclinic'
loop_
_space_group_symop_operation_xyz
x,y,z
-x,y,-z
-x,-y,-z
x,-y,z
loop_
_atom_site_type_symbol
_atom_site_label
_atom_site_fract_x
_atom_site_fract_y
_atom_site_fract_z
Si Si1 0.616589 0.763180 0.180330
Si Si2 0.427403 0.677099 0.212304
Si Si3 0.783178 0.607749 0.034753
Si Si4 0.000000 0.259977 0.500000
Si Si5 0.183618 0.898073 0.372696
Si Si6 0.999413 0.104404 0.750376
Si Si7 0.631583 0.396055 0.446744
O O1 0.716287 0.826804 0.439065
O O2 0.632433 0.664783 0.296969
O O3 0.500000 0.809750 0.000000
O O4 0.614667 0.754787 0.993295
O O5 0.500000 0.722072 0.500000
O O6 0.512390 0.609060 0.294795
O O7 0.316615 0.623161 0.045534
O O8 0.821646 0.500000 0.123425
O O9 0.889443 0.674611 0.284445
O O10 0.734964 0.631633 0.769467
O O11 0.994901 0.190260 0.350031
O O12 0.104036 0.871662 0.350279
O O13 0.235526 0.000000 0.504970
O O14 0.116354 0.896188 0.079059
O O15 0.983051 0.000000 0.644576
O O16 0.648348 0.500000 0.422517
#
# Coordination Sequence:
#
# PCOD8059746 Si02
#       7
#     4   4   4   2   4   4   4
#     4  10  19  30  49  75  98 122 156 194 236 281
#     4   9  18  32  49  68  94 128 162 195 229 269
#     4  10  20  32  46  68  99 132 160 188 232 284
#     4  12  20  30  50  74 100 122 152 198 244 280
#     4   9  18  35  53  70  94 124 157 192 235 285
#     4   9  19  34  53  72  91 120 160 201 235 275
#     4   9  18  32  49  69  95 127 164 200 226 261
#
# _framework density 17.418468000000001
#
# number of rings (size 3 to 8) (size 9 to 14) (size 15 to 20)
#    0.000    2.462    0.000    3.692    0.000    5.538 
#    0.000    0.000    0.000    0.462    0.000    9.692 
#    0.000    0.000    0.000    0.000    0.000    0.000 
#
# Total GULP energy -322207.220601 kJ/mol
# GULP energy per Si atom -12392.585408 kJ/mol
# Density = 1.737882 g / cm^3
# Si number density = 17.418468 Si / 1000 Ang^3
#
#
#
# Elastic Constant Matrix: (Units=GPa)
#
#
# Indices 1 2 3 4 5 6 
#
# 1 83.1116 51.0966 31.1431 0.0000 -7.5838 0.0000
# 2 51.0966 97.3542 59.5414 0.0000 8.5942 0.0000
# 3 31.1431 59.5414 131.3090 0.0000 4.3020 0.0000
# 4 0.0000 0.0000 0.0000 90.2331 0.0000 28.3719
# 5 -7.5838 8.5942 4.3020 0.0000 25.9312 0.0000
# 6 0.0000 0.0000 0.0000 28.3719 0.0000 19.8116
#
#
#
# Elastic Compliance Matrix: (Units=1/GPa)
#
#
# Indices 1 2 3 4 5 6 
#
# 1 0.019810 -0.011310 0.000118 0.000000 0.009523 0.000000
# 2 -0.011310 0.021025 -0.006550 0.000000 -0.009189 0.000000
# 3 0.000118 -0.006550 0.010543 0.000000 0.000456 0.000000
# 4 0.000000 0.000000 0.000000 0.020160 0.000000 -0.028872
# 5 0.009523 -0.009189 0.000456 0.000000 0.044319 0.000000
# 6 0.000000 0.000000 0.000000 -0.028872 0.000000 0.091822
#
#
# Mechanical properties :
#
#
# Convention : Reuss Voigt Hill
#
# Bulk Modulus (GPa) = 62.91867 66.14856 64.53362
# Shear Modulus (GPa) = 20.12378 38.52808 29.32593
#
# Velocity S-wave (km/s) = 3.40268 4.70820 4.10763
# Velocity P-wave (km/s) = 7.18595 8.22282 7.72181
#
# Compressibility (1/GPa) = 0.01589353
#
# Stress axis : x y z
#
# Youngs Moduli (GPa) = 50.47898 47.56153 94.85118
#
# Poissons Ratio (x) = 0.53794 -0.01121
# Poissons Ratio (y) = 0.57094 0.62130
# Poissons Ratio (z) = -0.00597 0.31154
#
# Static dielectric constant tensor:
#      x y z
#    x 3.218340 0.000000 -0.090140 
#    y 0.000000 3.083180 0.000000 
#    z -0.090140 0.000000 3.364640 
# 
# 
# High freq. dielectric constant tensor:
#      x y z
#    x 1.669080 0.000000 -0.005020 
#    y 0.000000 1.660530 0.000000 
#    z -0.005020 0.000000 1.680530 
# 
# From -- ./inp_files/24628.got.cif
#   From: 2010.06.25/outbox.cif.g09.slc.cpg/sg10_13_cif.got.tgz:24628.got - 2010.06.27 22:07:45.
