data_PCOD8059511
_publ_section_title
;
Structure prediction by ZEFSAII (Michael W. Deem and Ramdas Pophale) SiO2 
 PCOD8059511
Probable space group: P 2/M
;
_chemical_formula_sum "Si O2"
_cell_formula_units_Z 32
_cell_length_a 19.601565
_cell_length_b 13.961868
_cell_length_c 24.051716
_cell_angle_alpha 90.000000
_cell_angle_beta 162.237282
_cell_angle_gamma 90.000000
_cell_volume 2008.112096
_symmetry_space_group_name_H-M "P 2/M"
_symmetry_group_IT_number 10
_symmetry_cell_setting 'monoclinic'
loop_
_space_group_symop_operation_xyz
x,y,z
-x,y,-z
-x,-y,-z
x,-y,z
loop_
_atom_site_type_symbol
_atom_site_label
_atom_site_fract_x
_atom_site_fract_y
_atom_site_fract_z
Si Si1 0.804929 0.608022 0.304930
Si Si2 0.567455 0.390023 0.378716
Si Si3 0.999367 0.388874 0.654324
Si Si4 0.177449 0.892971 0.088726
Si Si5 0.139623 0.230907 0.226428
Si Si6 0.187492 0.390024 0.998754
Si Si7 0.380803 0.611126 0.035763
Si Si8 0.513144 0.230904 0.599953
O O1 0.731700 0.500000 0.231701
O O2 0.590062 0.660964 0.166006
O O3 0.000000 0.607891 0.500000
O O4 0.893832 0.660963 0.317890
O O5 0.623255 0.500000 0.437669
O O6 0.756206 0.348679 0.482822
O O7 0.564695 0.330098 0.433110
O O8 0.327052 0.381059 0.163525
O O9 0.970257 0.500000 0.617059
O O10 0.156907 0.369397 0.828453
O O11 0.402541 0.840939 0.285958
O O12 0.245347 0.000000 0.122668
O O13 0.000000 0.897762 0.000000
O O14 0.063788 0.840939 0.947207
O O15 0.302366 0.187885 0.401181
O O16 0.283014 0.254109 0.283012
O O17 0.038368 0.330101 0.169948
O O18 0.119083 0.500000 0.933497
O O19 0.337323 0.348677 0.063941
O O20 0.442533 0.500000 0.089336
#
# Coordination Sequence:
#
# PCOD8059511 Si02
#       8
#     4   4   4   4   4   4   4   4
#     4   9  15  23  35  51  73 103 143 186 223 260
#     4  10  19  30  44  62  88 123 159 191 223 261
#     4   9  16  25  37  54  77 108 147 187 224 260
#     4   9  18  34  53  71  91 112 140 183 232 279
#     4  10  20  33  49  69  92 119 152 187 225 269
#     4  10  19  30  44  62  88 123 159 191 223 261
#     4   9  16  25  37  54  77 108 147 187 224 260
#     4  10  20  33  49  69  92 119 152 187 225 269
#
# _framework density 15.935366
#
# number of rings (size 3 to 8) (size 9 to 14) (size 15 to 20)
#    0.000    2.500    1.250    1.875    0.000    7.000 
#    0.000    5.000    0.000    0.000    0.000    0.000 
#    0.000    0.000    0.000    2.250    0.000    9.250 
#
# Total GULP energy -396593.634838 kJ/mol
# GULP energy per Si atom -12393.551089 kJ/mol
# Density = 1.589910 g / cm^3
# Si number density = 15.935366 Si / 1000 Ang^3
#
#
#
# Elastic Constant Matrix: (Units=GPa)
#
#
# Indices 1 2 3 4 5 6 
#
# 1 77.7993 33.1454 34.2598 0.0000 -4.1860 0.0000
# 2 33.1454 55.8657 31.7878 0.0000 0.5266 0.0000
# 3 34.2598 31.7878 89.2685 0.0000 -0.2652 0.0000
# 4 0.0000 0.0000 0.0000 12.0071 0.0000 -3.6815
# 5 -4.1860 0.5266 -0.2652 0.0000 25.6485 0.0000
# 6 0.0000 0.0000 0.0000 -3.6815 0.0000 2.5195
#
#
#
# Elastic Compliance Matrix: (Units=1/GPa)
#
#
# Indices 1 2 3 4 5 6 
#
# 1 0.018500 -0.008743 -0.003977 0.000000 0.003158 0.000000
# 2 -0.008743 0.026588 -0.006118 0.000000 -0.002036 0.000000
# 3 -0.003977 -0.006118 0.014906 0.000000 -0.000369 0.000000
# 4 0.000000 0.000000 0.000000 0.150880 0.000000 0.220464
# 5 0.003158 -0.002036 -0.000369 0.000000 0.039542 0.000000
# 6 0.000000 0.000000 0.000000 0.220464 0.000000 0.719036
#
#
# Mechanical properties :
#
#
# Convention : Reuss Voigt Hill
#
# Bulk Modulus (GPa) = 44.80917 46.81327 45.81122
# Shear Modulus (GPa) = 4.92821 16.28440 10.60631
#
# Velocity S-wave (km/s) = 1.76049 3.20019 2.58269
# Velocity P-wave (km/s) = 5.68444 6.56473 6.14038
#
# Compressibility (1/GPa) = 0.02231686
#
# Stress axis : x y z
#
# Youngs Moduli (GPa) = 54.05522 37.61135 67.08610
#
# Poissons Ratio (x) = 0.32882 0.26682
# Poissons Ratio (y) = 0.47258 0.41046
# Poissons Ratio (z) = 0.21499 0.23012
#
# Static dielectric constant tensor:
#      x y z
#    x 3.207930 0.000000 0.028490 
#    y 0.000000 2.606110 0.000000 
#    z 0.028490 0.000000 3.134370 
# 
# 
# High freq. dielectric constant tensor:
#      x y z
#    x 1.615620 0.000000 -0.005520 
#    y 0.000000 1.534450 0.000000 
#    z -0.005520 0.000000 1.629840 
# 
# From -- ./inp_files/29142.got.cif
#   From: 2010.06.25/outbox.cif.g09.slc.cpg/sg10_15_cif.got.tgz:29142.got - 2010.06.27 22:07:45.
