data_PCOD8059233
_publ_section_title
;
Structure prediction by ZEFSAII (Michael W. Deem and Ramdas Pophale) SiO2 
 PCOD8059233
Probable space group: P 2/M
;
_chemical_formula_sum "Si O2"
_cell_formula_units_Z 28
_cell_length_a 10.068393
_cell_length_b 9.112286
_cell_length_c 29.726418
_cell_angle_alpha 90.000000
_cell_angle_beta 33.901696
_cell_angle_gamma 90.000000
_cell_volume 1521.195326
_symmetry_space_group_name_H-M "P 2/M"
_symmetry_group_IT_number 10
_symmetry_cell_setting 'monoclinic'
loop_
_space_group_symop_operation_xyz
x,y,z
-x,y,-z
-x,-y,-z
x,-y,z
loop_
_atom_site_type_symbol
_atom_site_label
_atom_site_fract_x
_atom_site_fract_y
_atom_site_fract_z
Si Si1 0.873144 0.828680 0.258291
Si Si2 0.906571 0.826174 0.597158
Si Si3 0.656939 0.828960 0.998281
Si Si4 0.351903 0.830855 0.171473
Si Si5 0.650243 0.827366 0.580029
Si Si6 0.591863 0.672560 0.753400
Si Si7 0.105979 0.673166 0.841686
O O1 0.622427 0.778738 0.351208
O O2 0.923157 0.738327 0.199563
O O3 0.077216 0.796037 0.237076
O O4 0.869808 0.000000 0.245770
O O5 0.739795 0.769122 0.603185
O O6 0.823659 0.746003 0.665694
O O7 0.177636 0.774877 0.509028
O O8 0.888154 0.000000 0.610151
O O9 0.900800 0.738060 0.931250
O O10 0.719484 0.000000 0.976811
O O11 0.500000 0.778264 0.000000
O O12 0.513931 0.791833 0.083421
O O13 0.435876 0.728810 0.188219
O O14 0.382335 0.000000 0.176897
O O15 0.677407 0.000000 0.574671
O O16 0.627958 0.500000 0.743881
O O17 0.358194 0.719924 0.791591
O O18 0.077772 0.500000 0.847116
#
# Coordination Sequence:
#
# PCOD8059233 Si02
#       7
#     4   4   4   4   4   4   4
#     4  10  18  35  60  85 111 141 183 234 278 323
#     4   9  16  31  56  84 111 142 183 229 279 327
#     4  10  20  38  61  86 111 137 181 235 278 323
#     4  10  22  38  59  83 108 144 185 227 280 331
#     4   8  15  28  55  89 111 135 179 235 281 320
#     4  11  24  39  53  78 117 155 187 222 271 330
#     4  11  23  36  55  83 113 148 186 222 272 331
#
# _framework density 18.406578
#
# number of rings (size 3 to 8) (size 9 to 14) (size 15 to 20)
#    0.000    2.143    2.857    1.714    0.000    3.714 
#    0.000    5.714    0.000    4.286    0.000    0.000 
#    0.000    0.000    0.000    0.000    0.000    0.000 
#
# Total GULP energy -347206.670281 kJ/mol
# GULP energy per Si atom -12400.238224 kJ/mol
# Density = 1.836468 g / cm^3
# Si number density = 18.406578 Si / 1000 Ang^3
#
#
#
# Elastic Constant Matrix: (Units=GPa)
#
#
# Indices 1 2 3 4 5 6 
#
# 1 53.6518 32.3774 34.1970 0.0000 6.6364 0.0000
# 2 32.3774 54.2960 42.6678 0.0000 -0.1849 0.0000
# 3 34.1970 42.6678 127.1732 0.0000 -5.2146 0.0000
# 4 0.0000 0.0000 0.0000 10.6624 0.0000 -2.3742
# 5 6.6364 -0.1849 -5.2146 0.0000 30.8116 0.0000
# 6 0.0000 0.0000 0.0000 -2.3742 0.0000 23.7895
#
#
#
# Elastic Compliance Matrix: (Units=1/GPa)
#
#
# Indices 1 2 3 4 5 6 
#
# 1 0.031428 -0.016141 -0.003340 0.000000 -0.007431 0.000000
# 2 -0.016141 0.033353 -0.006746 0.000000 0.002535 0.000000
# 3 -0.003340 -0.006746 0.011130 0.000000 0.002563 0.000000
# 4 0.000000 0.000000 0.000000 0.095919 0.000000 0.009573
# 5 -0.007431 0.002535 0.002563 0.000000 0.034505 0.000000
# 6 0.000000 0.000000 0.000000 0.009573 0.000000 0.042991
#
#
# Mechanical properties :
#
#
# Convention : Reuss Voigt Hill
#
# Bulk Modulus (GPa) = 42.63346 50.40061 46.51704
# Shear Modulus (GPa) = 16.14999 21.44460 18.79729
#
# Velocity S-wave (km/s) = 2.96531 3.41699 3.19913
# Velocity P-wave (km/s) = 5.91071 6.55813 6.24282
#
# Compressibility (1/GPa) = 0.02345576
#
# Stress axis : x y z
#
# Youngs Moduli (GPa) = 31.81913 29.98273 89.84904
#
# Poissons Ratio (x) = 0.48396 0.30010
# Poissons Ratio (y) = 0.51360 0.60610
# Poissons Ratio (z) = 0.10628 0.20226
#
# Static dielectric constant tensor:
#      x y z
#    x 3.260680 0.000000 -0.236790 
#    y 0.000000 3.143520 0.000000 
#    z -0.236790 0.000000 3.779870 
# 
# 
# High freq. dielectric constant tensor:
#      x y z
#    x 1.695220 0.000000 -0.008060 
#    y 0.000000 1.692380 0.000000 
#    z -0.008060 0.000000 1.731540 
# 
# From -- ./inp_files/37062.got.cif
#   From: 2010.06.25/outbox.cif.g09.slc.cpg/sg10_19_cif.got.tgz:37062.got - 2010.06.27 22:07:45.
