data_PCOD8059969
_publ_section_title
;
Structure prediction by ZEFSAII (Michael W. Deem and Ramdas Pophale) SiO2 
 PCOD8059969
Probable space group: P 2/M
;
_chemical_formula_sum "Si O2"
_cell_formula_units_Z 20
_cell_length_a 18.650297
_cell_length_b 9.343499
_cell_length_c 9.534249
_cell_angle_alpha 90.000000
_cell_angle_beta 136.932210
_cell_angle_gamma 90.000000
_cell_volume 1134.528704
_symmetry_space_group_name_H-M "P 2/M"
_symmetry_group_IT_number 10
_symmetry_cell_setting 'monoclinic'
loop_
_space_group_symop_operation_xyz
x,y,z
-x,y,-z
-x,-y,-z
x,-y,z
loop_
_atom_site_type_symbol
_atom_site_label
_atom_site_fract_x
_atom_site_fract_y
_atom_site_fract_z
Si Si1 0.069165 0.165045 0.377961
Si Si2 0.827492 0.832970 0.004508
Si Si3 0.383645 0.333649 0.801298
Si Si4 0.242524 0.834301 0.401818
Si Si5 0.790618 0.667373 0.220817
O O1 0.136501 0.199831 0.335920
O O2 0.107514 0.261025 0.562507
O O3 0.950317 0.204610 0.172480
O O4 0.081216 0.000000 0.440688
O O5 0.770788 0.739352 0.042109
O O6 0.810088 0.000000 0.011314
O O7 0.775397 0.787662 0.783570
O O8 0.384945 0.500000 0.765483
O O9 0.340273 0.253110 0.602839
O O10 0.312136 0.301036 0.833900
O O11 0.500000 0.276503 0.000000
O O12 0.271401 0.000000 0.454365
O O13 0.812165 0.500000 0.233654
#
# Coordination Sequence:
#
# PCOD8059969 Si02
#       5
#     4   4   4   4   4
#     4   9  17  31  50  70  97 134 166 190 225 277
#     4  10  19  31  48  72 103 133 157 188 234 284
#     4   9  19  37  56  70  89 122 162 201 243 290
#     4   9  18  32  51  75  98 123 161 201 233 274
#     4  10  20  32  48  72  98 125 161 201 237 278
#
# _framework density 17.628466
#
# number of rings (size 3 to 8) (size 9 to 14) (size 15 to 20)
#    0.000    2.600    0.000    1.800    0.000    7.600 
#    0.000    1.000    0.000   12.000    0.000    0.000 
#    0.000    0.000    0.000    0.000    0.000    0.000 
#
# Total GULP energy -248067.042397 kJ/mol
# GULP energy per Si atom -12403.352120 kJ/mol
# Density = 1.758834 g / cm^3
# Si number density = 17.628466 Si / 1000 Ang^3
#
#
#
# Elastic Constant Matrix: (Units=GPa)
#
#
# Indices 1 2 3 4 5 6 
#
# 1 67.9259 48.7742 77.1798 0.0000 -7.1226 0.0000
# 2 48.7742 72.3189 70.5460 0.0000 -8.4143 0.0000
# 3 77.1798 70.5460 156.7828 0.0000 -8.8146 0.0000
# 4 0.0000 0.0000 0.0000 14.8860 0.0000 3.6201
# 5 -7.1226 -8.4143 -8.8146 0.0000 35.9022 0.0000
# 6 0.0000 0.0000 0.0000 3.6201 0.0000 24.4468
#
#
#
# Elastic Compliance Matrix: (Units=1/GPa)
#
#
# Indices 1 2 3 4 5 6 
#
# 1 0.039959 -0.013677 -0.013437 0.000000 0.001423 0.000000
# 2 -0.013677 0.029670 -0.006469 0.000000 0.002652 0.000000
# 3 -0.013437 -0.006469 0.015888 0.000000 -0.000281 0.000000
# 4 0.000000 0.000000 0.000000 0.069687 0.000000 -0.010319
# 5 0.001423 0.002652 -0.000281 0.000000 0.028688 0.000000
# 6 0.000000 0.000000 0.000000 -0.010319 0.000000 0.042433
#
#
# Mechanical properties :
#
#
# Convention : Reuss Voigt Hill
#
# Bulk Modulus (GPa) = 54.48788 76.66972 65.57880
# Shear Modulus (GPa) = 16.68853 21.74884 19.21868
#
# Velocity S-wave (km/s) = 3.08016 3.51627 3.30541
# Velocity P-wave (km/s) = 6.60499 7.75061 7.20062
#
# Compressibility (1/GPa) = 0.01835270
#
# Stress axis : x y z
#
# Youngs Moduli (GPa) = 25.02571 33.70372 62.94215
#
# Poissons Ratio (x) = 0.46096 0.84573
# Poissons Ratio (y) = 0.34227 0.40715
# Poissons Ratio (z) = 0.33626 0.21802
#
# Static dielectric constant tensor:
#      x y z
#    x 3.251220 0.000000 -0.095380 
#    y 0.000000 3.235070 0.000000 
#    z -0.095380 0.000000 3.295210 
# 
# 
# High freq. dielectric constant tensor:
#      x y z
#    x 1.674350 0.000000 -0.009440 
#    y 0.000000 1.678020 0.000000 
#    z -0.009440 0.000000 1.677970 
# 
# From -- ./inp_files/22143.got.cif
#   From: 2010.06.25/outbox.cif.g09.slc.cpg/sg10_12_cif.got.tgz:22143.got - 2010.06.27 22:07:45.
