data_PCOD8059640
_publ_section_title
;
Structure prediction by ZEFSAII (Michael W. Deem and Ramdas Pophale) SiO2 
 PCOD8059640
Probable space group: P 2/M
;
_chemical_formula_sum "Si O2"
_cell_formula_units_Z 24
_cell_length_a 9.699316
_cell_length_b 11.945139
_cell_length_c 20.088336
_cell_angle_alpha 90.000000
_cell_angle_beta 35.702472
_cell_angle_gamma 90.000000
_cell_volume 1358.231779
_symmetry_space_group_name_H-M "P 2/M"
_symmetry_group_IT_number 10
_symmetry_cell_setting 'monoclinic'
loop_
_space_group_symop_operation_xyz
x,y,z
-x,y,-z
-x,-y,-z
x,-y,z
loop_
_atom_site_type_symbol
_atom_site_label
_atom_site_fract_x
_atom_site_fract_y
_atom_site_fract_z
Si Si1 0.463534 0.206023 0.323355
Si Si2 0.811300 0.798279 0.702891
Si Si3 0.552355 0.000000 0.380517
Si Si4 0.560344 0.131360 0.051508
Si Si5 0.885780 0.000000 0.360401
Si Si6 0.066574 0.874739 0.898198
Si Si7 0.862657 0.623321 0.485885
O O1 0.282842 0.174174 0.334574
O O2 0.483688 0.107590 0.366610
O O3 0.730174 0.219492 0.190053
O O4 0.379185 0.312335 0.399735
O O5 0.588147 0.788000 0.840515
O O6 0.974133 0.687183 0.632810
O O7 0.971310 0.892873 0.672084
O O8 0.824091 0.000000 0.304344
O O9 0.372719 0.000000 0.510825
O O10 0.512188 0.000000 0.088108
O O11 0.500000 0.159922 0.000000
O O12 0.835321 0.161899 0.948982
O O13 0.156064 0.000000 0.839213
O O14 0.000000 0.885169 0.000000
O O15 0.800687 0.500000 0.481198
O O16 0.000000 0.608753 0.500000
#
# Coordination Sequence:
#
# PCOD8059640 Si02
#       7
#     4   4   2   4   2   4   4
#     4  11  20  33  57  81 110 148 181 221 273 326
#     4  11  20  34  57  80 110 147 183 224 267 333
#     4  11  23  33  47  83 117 147 172 218 281 330
#     4  10  21  32  48  78 114 151 177 210 265 328
#     4  11  23  33  47  81 121 144 174 217 275 340
#     4  10  19  30  46  76 114 145 174 215 256 325
#     4   9  20  37  58  83 105 136 186 240 281 312
#
# _framework density 17.670031999999999
#
# number of rings (size 3 to 8) (size 9 to 14) (size 15 to 20)
#    0.000    1.667    5.000    0.500    2.333    0.667 
#    0.000    0.000    0.000    4.000    0.000    0.000 
#    0.000    0.000    0.000    0.000    0.000    0.000 
#
# Total GULP energy -297317.842570 kJ/mol
# GULP energy per Si atom -12388.243440 kJ/mol
# Density = 1.762981 g / cm^3
# Si number density = 17.670032 Si / 1000 Ang^3
#
#
#
# Elastic Constant Matrix: (Units=GPa)
#
#
# Indices 1 2 3 4 5 6 
#
# 1 110.5273 40.4967 27.9669 0.0000 -10.6272 0.0000
# 2 40.4967 112.9620 56.0540 0.0000 -6.7935 0.0000
# 3 27.9669 56.0540 110.2676 0.0000 -12.5696 0.0000
# 4 0.0000 0.0000 0.0000 38.2680 0.0000 -11.4433
# 5 -10.6272 -6.7935 -12.5696 0.0000 26.8367 0.0000
# 6 0.0000 0.0000 0.0000 -11.4433 0.0000 -3.5057
#
#
#
# Elastic Compliance Matrix: (Units=1/GPa)
#
#
# Indices 1 2 3 4 5 6 
#
# 1 0.010735 -0.003325 -0.000680 0.000000 0.003091 0.000000
# 2 -0.003325 0.012870 -0.005787 0.000000 -0.000769 0.000000
# 3 -0.000680 -0.005787 0.012661 0.000000 0.004196 0.000000
# 4 0.000000 0.000000 0.000000 0.013224 0.000000 -0.043165
# 5 0.003091 -0.000769 0.004196 0.000000 0.040257 0.000000
# 6 0.000000 0.000000 0.000000 -0.043165 0.000000 -0.144349
#
#
# Mechanical properties :
#
#
# Convention : Reuss Voigt Hill
#
# Bulk Modulus (GPa) = 59.94327 64.75469 62.34898
# Shear Modulus (GPa) = -169.73413 26.26907 -71.73253
#
# Velocity S-wave (km/s) = -9.81153 3.85989 -6.37838
# Velocity P-wave (km/s) = 9.71378 7.52271 4.34548
#
# Compressibility (1/GPa) = 0.01668244
#
# Stress axis : x y z
#
# Youngs Moduli (GPa) = 93.15207 77.70136 78.98122
#
# Poissons Ratio (x) = 0.25837 0.05371
# Poissons Ratio (y) = 0.30975 0.45703
# Poissons Ratio (z) = 0.06335 0.44963
#
# Static dielectric constant tensor:
#      x y z
#    x 3.863550 0.000000 -0.395460 
#    y 0.000000 3.084510 0.000000 
#    z -0.395460 0.000000 4.046770 
# 
# 
# High freq. dielectric constant tensor:
#      x y z
#    x 1.689000 0.000000 -0.002280 
#    y 0.000000 1.628190 0.000000 
#    z -0.002280 0.000000 1.704090 
# 
# From -- ./inp_files/82427.got.cif
#   From: 2010.06.25/outbox.cif.g09.slc.cpg/sg10_42_cif.got.tgz:82427.got - 2010.06.27 22:07:45.
