data_PCOD8059994
_publ_section_title
;
Structure prediction by ZEFSAII (Michael W. Deem and Ramdas Pophale) SiO2 
 PCOD8059994
Probable space group: P 2/M
;
_chemical_formula_sum "Si O2"
_cell_formula_units_Z 32
_cell_length_a 11.314715
_cell_length_b 13.978636
_cell_length_c 11.655255
_cell_angle_alpha 90.000000
_cell_angle_beta 99.564490
_cell_angle_gamma 90.000000
_cell_volume 1817.819693
_symmetry_space_group_name_H-M "P 2/M"
_symmetry_group_IT_number 10
_symmetry_cell_setting 'monoclinic'
loop_
_space_group_symop_operation_xyz
x,y,z
-x,y,-z
-x,-y,-z
x,-y,z
loop_
_atom_site_type_symbol
_atom_site_label
_atom_site_fract_x
_atom_site_fract_y
_atom_site_fract_z
Si Si1 0.705070 0.889997 0.865227
Si Si2 0.724656 0.889591 0.472362
Si Si3 0.909592 0.391720 0.820837
Si Si4 0.368791 0.234888 0.936813
Si Si5 0.444616 0.891076 0.742864
Si Si6 0.175072 0.608894 0.938538
Si Si7 0.847807 0.207752 0.699539
Si Si8 0.941605 0.103510 0.367090
O O1 0.586807 0.877258 0.768774
O O2 0.813251 0.843129 0.812575
O O3 0.734743 0.000000 0.894429
O O4 0.689911 0.839190 0.984281
O O5 0.592926 0.872334 0.396894
O O6 0.755700 0.820223 0.583060
O O7 0.805643 0.865483 0.372289
O O8 0.743470 0.000000 0.516508
O O9 0.897714 0.500000 0.773327
O O10 0.848668 0.322152 0.717122
O O11 0.048707 0.363856 0.859939
O O12 0.837116 0.379543 0.927010
O O13 0.379208 0.181799 0.817503
O O14 0.281870 0.325504 0.907854
O O15 0.500000 0.269331 0.000000
O O16 0.410884 0.000000 0.773252
O O17 0.208577 0.500000 0.913101
O O18 0.985071 0.178612 0.696587
O O19 0.000000 0.094115 0.500000
O O20 0.945834 0.000000 0.305495
#
# Coordination Sequence:
#
# PCOD8059994 Si02
#       8
#     4   4   4   4   4   4   4   4
#     4  10  19  31  48  74 104 132 165 208 249 287
#     4   9  18  32  49  72 100 137 174 198 235 290
#     4   9  19  34  53  74  98 127 160 204 260 307
#     4  10  19  32  52  76 103 132 165 201 252 300
#     4   9  19  33  48  69 104 143 171 196 236 295
#     4   9  18  35  54  74  99 125 162 209 253 300
#     4  11  18  29  52  74  97 128 168 208 245 284
#     4   8  15  27  42  65  96 127 159 191 232 282
#
# _framework density 17.603505999999999
#
# number of rings (size 3 to 8) (size 9 to 14) (size 15 to 20)
#    0.000    2.625    1.250    3.000    1.750    2.250 
#    0.000    1.875    0.000    4.875    0.000    0.875 
#    0.000    0.000    0.000    0.000    0.000    0.000 
#
# Total GULP energy -396605.628492 kJ/mol
# GULP energy per Si atom -12393.925890 kJ/mol
# Density = 1.756344 g / cm^3
# Si number density = 17.603506 Si / 1000 Ang^3
#
#
#
# Elastic Constant Matrix: (Units=GPa)
#
#
# Indices 1 2 3 4 5 6 
#
# 1 37.0969 34.4295 14.8104 0.0000 -6.4887 0.0000
# 2 34.4295 111.6266 42.3762 0.0000 -0.6011 0.0000
# 3 14.8104 42.3762 56.8585 0.0000 4.0109 0.0000
# 4 0.0000 0.0000 0.0000 28.0143 0.0000 -2.0306
# 5 -6.4887 -0.6011 4.0109 0.0000 26.3175 0.0000
# 6 0.0000 0.0000 0.0000 -2.0306 0.0000 29.1247
#
#
#
# Elastic Compliance Matrix: (Units=1/GPa)
#
#
# Indices 1 2 3 4 5 6 
#
# 1 0.040358 -0.011340 -0.002774 0.000000 0.010114 0.000000
# 2 -0.011340 0.015757 -0.008712 0.000000 -0.001108 0.000000
# 3 -0.002774 -0.008712 0.025135 0.000000 -0.004714 0.000000
# 4 0.000000 0.000000 0.000000 0.035877 0.000000 0.002501
# 5 0.010114 -0.001108 -0.004714 0.000000 0.041184 0.000000
# 6 0.000000 0.000000 0.000000 0.002501 0.000000 0.034510
#
#
# Mechanical properties :
#
#
# Convention : Reuss Voigt Hill
#
# Bulk Modulus (GPa) = 28.09104 43.20158 35.64631
# Shear Modulus (GPa) = 19.97283 24.28903 22.13093
#
# Velocity S-wave (km/s) = 3.37203 3.71857 3.54953
# Velocity P-wave (km/s) = 5.58149 6.55986 6.09035
#
# Compressibility (1/GPa) = 0.03559854
#
# Stress axis : x y z
#
# Youngs Moduli (GPa) = 24.77833 63.46236 39.78449
#
# Poissons Ratio (x) = 0.71967 0.11037
# Poissons Ratio (y) = 0.28099 0.34659
# Poissons Ratio (z) = 0.06874 0.55287
#
# Static dielectric constant tensor:
#      x y z
#    x 3.813320 0.000000 -0.047720 
#    y 0.000000 3.143260 0.000000 
#    z -0.047720 0.000000 2.999390 
# 
# 
# High freq. dielectric constant tensor:
#      x y z
#    x 1.682940 0.000000 -0.003070 
#    y 0.000000 1.662470 0.000000 
#    z -0.003070 0.000000 1.660050 
# 
# From -- ./inp_files/46678.got.cif
#   From: 2010.06.25/outbox.cif.g09.slc.cpg/sg10_24_cif.got.tgz:46678.got - 2010.06.27 22:07:45.
