data_PCOD8059475
_publ_section_title
;
Structure prediction by ZEFSAII (Michael W. Deem and Ramdas Pophale) SiO2 
 PCOD8059475
Probable space group: P 2/M
;
_chemical_formula_sum "Si O2"
_cell_formula_units_Z 28
_cell_length_a 33.790002
_cell_length_b 7.477540
_cell_length_c 34.190756
_cell_angle_alpha 90.000000
_cell_angle_beta 8.781051
_cell_angle_gamma 90.000000
_cell_volume 1318.797379
_symmetry_space_group_name_H-M "P 2/M"
_symmetry_group_IT_number 10
_symmetry_cell_setting 'monoclinic'
loop_
_space_group_symop_operation_xyz
x,y,z
-x,y,-z
-x,-y,-z
x,-y,z
loop_
_atom_site_type_symbol
_atom_site_label
_atom_site_fract_x
_atom_site_fract_y
_atom_site_fract_z
Si Si1 0.276526 0.500000 0.750000
Si Si2 0.157498 0.289855 0.250000
Si Si3 0.020815 0.214294 0.750000
Si Si4 0.480379 0.799018 0.250000
Si Si5 0.342781 0.212587 0.750006
Si Si6 0.223452 0.000000 0.250000
Si Si7 0.890238 0.789399 0.250005
Si Si8 0.391312 0.708367 0.250000
O O1 0.500000 0.500000 0.500000
O O2 0.301802 0.317948 0.749999
O O3 0.000000 0.500000 0.000000
O O4 0.167937 0.500000 0.250000
O O5 0.883261 0.233032 0.499542
O O6 0.197903 0.180562 0.250000
O O7 0.382345 0.233032 0.000458
O O8 0.244350 0.295015 0.503565
O O9 0.065500 0.289810 0.750000
O O10 0.019347 0.000000 0.750000
O O11 0.751479 0.295015 0.996436
O O12 0.433122 0.805445 0.250000
O O13 0.496562 0.000000 0.250000
O O14 0.615309 0.275487 0.502012
O O15 0.334019 0.000000 0.750007
O O16 0.119312 0.275491 0.998007
O O17 0.000000 0.000000 0.500000
O O18 0.500000 0.000000 0.000000
O O19 0.893320 0.000000 0.249998
O O20 0.400002 0.500000 0.250000
#
# Coordination Sequence:
#
# PCOD8059475 Si02
#       8
#     2   4   4   4   4   2   4   4
#     4  12  26  42  62  88 122 150 182 246 300 350
#     4  10  23  41  62  88 117 155 197 235 292 349
#     4   9  17  30  49  81 114 146 191 238 292 336
#     4  10  19  29  51  82 112 149 193 241 287 334
#     4  10  21  38  62  87 111 151 197 231 288 349
#     4  12  26  42  66  96 122 150 190 246 300 358
#     4   9  17  33  59  83 112 152 194 242 279 343
#     4  10  21  38  58  80 116 159 196 241 284 342
#
# _framework density 21.231465
#
# number of rings (size 3 to 8) (size 9 to 14) (size 15 to 20)
#    0.000    2.000    0.000    3.429    2.000    4.571 
#    0.000    0.000    9.429    0.000    0.000    0.000 
#    0.000    0.000    0.000    0.000    0.000    0.000 
#
# Total GULP energy -347245.510804 kJ/mol
# GULP energy per Si atom -12401.625386 kJ/mol
# Density = 2.118314 g / cm^3
# Si number density = 21.231465 Si / 1000 Ang^3
#
#
#
# Elastic Constant Matrix: (Units=GPa)
#
#
# Indices 1 2 3 4 5 6 
#
# 1 188.0855 44.1085 116.2644 0.0000 -1.4118 0.0000
# 2 44.1085 59.7332 31.4989 0.0000 0.5847 0.0000
# 3 116.2644 31.4989 246.7450 0.0000 -1.3067 0.0000
# 4 0.0000 0.0000 0.0000 -0.6030 0.0000 -1.0058
# 5 -1.4118 0.5847 -1.3067 0.0000 51.1305 0.0000
# 6 0.0000 0.0000 0.0000 -1.0058 0.0000 -22.2825
#
#
#
# Elastic Compliance Matrix: (Units=1/GPa)
#
#
# Indices 1 2 3 4 5 6 
#
# 1 0.008482 -0.004458 -0.003426 0.000000 0.000198 0.000000
# 2 -0.004458 0.020296 -0.000492 0.000000 -0.000368 0.000000
# 3 -0.003426 -0.000492 0.005730 0.000000 0.000057 0.000000
# 4 0.000000 0.000000 0.000000 -1.793291 0.000000 0.080947
# 5 0.000198 -0.000368 0.000057 0.000000 0.019569 0.000000
# 6 0.000000 0.000000 0.000000 0.080947 0.000000 -0.048532
#
#
# Mechanical properties :
#
#
# Convention : Reuss Voigt Hill
#
# Bulk Modulus (GPa) = 56.32280 97.58970 76.95625
# Shear Modulus (GPa) = -2.83274 25.82845 11.49786
#
# Velocity S-wave (km/s) = -1.15634 3.49165 2.32964
# Velocity P-wave (km/s) = 4.98024 7.89429 6.60010
#
# Compressibility (1/GPa) = 0.01775480
#
# Stress axis : x y z
#
# Youngs Moduli (GPa) = 117.90073 49.26987 174.50853
#
# Poissons Ratio (x) = 0.21966 0.59793
# Poissons Ratio (y) = 0.52563 0.08590
# Poissons Ratio (z) = 0.40397 0.02425
#
# Static dielectric constant tensor:
#      x y z
#    x 3.791050 0.000000 -0.031240 
#    y 0.000000 3.398190 0.000000 
#    z -0.031240 0.000000 4.464330 
# 
# 
# High freq. dielectric constant tensor:
#      x y z
#    x 1.832900 0.000000 -0.001130 
#    y 0.000000 1.819170 0.000000 
#    z -0.001130 0.000000 1.857250 
# 
# From -- ./inp_files/96008.got.cif
#   From: 2010.06.25/outbox.cif.g09.slc.cpg/sg10_49_cif.got.tgz:96008.got - 2010.06.27 22:07:45.
