data_PCOD8059632
_publ_section_title
;
Structure prediction by ZEFSAII (Michael W. Deem and Ramdas Pophale) SiO2 
 PCOD8059632
Probable space group: P 2/M
;
_chemical_formula_sum "Si O2"
_cell_formula_units_Z 26
_cell_length_a 13.244184
_cell_length_b 21.030098
_cell_length_c 5.132275
_cell_angle_alpha 90.000000
_cell_angle_beta 75.541780
_cell_angle_gamma 90.000000
_cell_volume 1384.203012
_symmetry_space_group_name_H-M "P 2/M"
_symmetry_group_IT_number 10
_symmetry_cell_setting 'monoclinic'
loop_
_space_group_symop_operation_xyz
x,y,z
-x,y,-z
-x,-y,-z
x,-y,z
loop_
_atom_site_type_symbol
_atom_site_label
_atom_site_fract_x
_atom_site_fract_y
_atom_site_fract_z
Si Si1 0.253527 0.902275 0.141669
Si Si2 0.616312 0.097967 0.428155
Si Si3 0.927066 0.000000 0.791645
Si Si4 0.876913 0.644143 0.598990
Si Si5 0.385482 0.752972 0.558220
Si Si6 0.260670 0.753175 0.135429
Si Si7 0.124102 0.571330 0.903488
O O1 0.317291 0.920771 0.360222
O O2 0.143029 0.936860 0.186943
O O3 0.229563 0.827121 0.144687
O O4 0.322698 0.928356 0.860017
O O5 0.500000 0.067735 0.500000
O O6 0.604944 0.172628 0.397757
O O7 0.000000 0.000000 0.500000
O O8 0.000000 0.000000 0.000000
O O9 0.840236 0.714501 0.703836
O O10 0.833583 0.617892 0.351821
O O11 0.000000 0.647291 0.500000
O O12 0.834404 0.595868 0.846141
O O13 0.500000 0.721208 0.500000
O O14 0.348577 0.739029 0.291837
O O15 0.305503 0.727380 0.830757
O O16 0.165363 0.500000 0.825237
O O17 0.000000 0.571693 0.000000
#
# Coordination Sequence:
#
# PCOD8059632 Si02
#       7
#     4   4   2   4   4   4   4
#     4  10  21  37  55  77 103 135 175 216 258 307
#     4   9  17  33  57  82 106 129 155 202 272 332
#     4  12  26  44  59  72  97 142 194 228 246 286
#     4  10  19  30  46  72 104 134 165 203 245 294
#     4   9  17  30  50  74 102 134 163 199 252 309
#     4  10  19  32  51  76 105 131 163 211 258 298
#     4   9  17  30  47  67  97 136 169 199 242 296
#
# _framework density 18.783372
#
# number of rings (size 3 to 8) (size 9 to 14) (size 15 to 20)
#    0.000    2.308    0.000    3.231    0.000    6.154 
#    0.000    4.615    0.000    0.000    0.000    0.000 
#    0.000   43.077    0.000    0.000    0.000    0.000 
#
# Total GULP energy -322262.362316 kJ/mol
# GULP energy per Si atom -12394.706243 kJ/mol
# Density = 1.874062 g / cm^3
# Si number density = 18.783372 Si / 1000 Ang^3
#
#
#
# Elastic Constant Matrix: (Units=GPa)
#
#
# Indices 1 2 3 4 5 6 
#
# 1 91.7857 33.7382 53.9115 0.0000 3.7629 0.0000
# 2 33.7382 81.4816 44.2062 0.0000 -2.9069 0.0000
# 3 53.9115 44.2062 155.7497 0.0000 6.0743 0.0000
# 4 0.0000 0.0000 0.0000 3.9499 0.0000 3.5479
# 5 3.7629 -2.9069 6.0743 0.0000 27.8965 0.0000
# 6 0.0000 0.0000 0.0000 3.5479 0.0000 3.2026
#
#
#
# Elastic Compliance Matrix: (Units=1/GPa)
#
#
# Indices 1 2 3 4 5 6 
#
# 1 0.014730 -0.004045 -0.003890 0.000000 -0.001561 0.000000
# 2 -0.004045 0.015782 -0.003192 0.000000 0.002885 0.000000
# 3 -0.003890 -0.003192 0.008740 0.000000 -0.001711 0.000000
# 4 0.000000 0.000000 0.000000 51.645252 0.000000-57.214376
# 5 -0.001561 0.002885 -0.001711 0.000000 0.036731 0.000000
# 6 0.000000 0.000000 0.000000-57.214376 0.000000 63.696290
#
#
# Mechanical properties :
#
#
# Convention : Reuss Voigt Hill
#
# Bulk Modulus (GPa) = 58.82589 65.85876 62.34232
# Shear Modulus (GPa) = 0.04331 20.15386 10.09858
#
# Velocity S-wave (km/s) = 0.15201 3.27916 2.32121
# Velocity P-wave (km/s) = 5.60507 7.03389 6.35974
#
# Compressibility (1/GPa) = 0.01699932
#
# Stress axis : x y z
#
# Youngs Moduli (GPa) = 67.88648 63.36313 114.42001
#
# Poissons Ratio (x) = 0.25628 0.44509
# Poissons Ratio (y) = 0.27457 0.36522
# Poissons Ratio (z) = 0.26408 0.20225
#
# Static dielectric constant tensor:
#      x y z
#    x 3.319000 0.000000 0.116850 
#    y 0.000000 3.356750 0.000000 
#    z 0.116850 0.000000 3.776280 
# 
# 
# High freq. dielectric constant tensor:
#      x y z
#    x 1.708960 0.000000 0.015580 
#    y 0.000000 1.707540 0.000000 
#    z 0.015580 0.000000 1.749810 
# 
# From -- ./inp_files/7671.got.cif
#   From: 2010.06.25/outbox.cif.g09.slc.cpg/sg10_4_cif.got.tgz:7671.got - 2010.06.27 22:07:45.
