data_PCOD8059237
_publ_section_title
;
Structure prediction by ZEFSAII (Michael W. Deem and Ramdas Pophale) SiO2 
 PCOD8059237
Probable space group: P 2/M
;
_chemical_formula_sum "Si O2"
_cell_formula_units_Z 32
_cell_length_a 24.664043
_cell_length_b 9.061406
_cell_length_c 14.393095
_cell_angle_alpha 90.000000
_cell_angle_beta 150.473165
_cell_angle_gamma 90.000000
_cell_volume 1585.302689
_symmetry_space_group_name_H-M "P 2/M"
_symmetry_group_IT_number 10
_symmetry_cell_setting 'monoclinic'
loop_
_space_group_symop_operation_xyz
x,y,z
-x,y,-z
-x,-y,-z
x,-y,z
loop_
_atom_site_type_symbol
_atom_site_label
_atom_site_fract_x
_atom_site_fract_y
_atom_site_fract_z
Si Si1 0.472779 0.334019 0.055631
Si Si2 0.480501 0.670247 0.578661
Si Si3 0.884810 0.173348 0.373675
Si Si4 0.326312 0.324393 0.998501
Si Si5 0.953948 0.671876 0.032054
Si Si6 0.260537 0.173303 0.315428
Si Si7 0.713090 0.663886 0.466522
Si Si8 0.128426 0.669227 0.451323
O O1 0.435475 0.500000 0.973879
O O2 0.377088 0.264919 0.976111
O O3 0.582037 0.335162 0.280788
O O4 0.500000 0.246860 0.000000
O O5 0.500000 0.695671 0.500000
O O6 0.456366 0.500000 0.567030
O O7 0.591716 0.723747 0.796681
O O8 0.375537 0.763994 0.451250
O O9 0.882453 0.228635 0.475726
O O10 0.000000 0.218147 0.500000
O O11 0.865501 0.000000 0.344558
O O12 0.791766 0.247313 0.169459
O O13 0.311058 0.500000 0.975187
O O14 0.925578 0.500000 0.989120
O O15 0.842793 0.759198 0.894024
O O16 0.000000 0.721914 0.000000
O O17 0.039777 0.711631 0.240813
O O18 0.240068 0.216696 0.392400
O O19 0.261955 0.000000 0.305014
O O20 0.759168 0.500000 0.562169
O O21 0.752492 0.697936 0.419764
O O22 0.116290 0.500000 0.465953
#
# Coordination Sequence:
#
# PCOD8059237 Si02
#       8
#     4   4   4   4   4   4   4   4
#     4   9  16  28  54  88 117 147 187 240 299 351
#     4  10  22  42  67  92 119 157 208 262 308 354
#     4  11  26  45  62  84 123 169 204 247 308 369
#     4  10  20  38  65  92 117 151 202 257 300 350
#     4  10  20  38  63  89 121 162 210 259 305 360
#     4  12  24  36  56  88 128 167 199 241 305 372
#     4  10  18  35  60  86 121 157 198 249 301 359
#     4  10  21  38  66  95 117 155 209 261 306 353
#
# _framework density 20.185420000000001
#
# number of rings (size 3 to 8) (size 9 to 14) (size 15 to 20)
#    0.000    1.750    2.500    2.250    0.000    6.000 
#    0.000    3.750    0.000    1.500    0.000    0.000 
#    0.000    0.000    0.000    0.000    0.000    0.000 
#
# Total GULP energy -396731.980689 kJ/mol
# GULP energy per Si atom -12397.874397 kJ/mol
# Density = 2.013948 g / cm^3
# Si number density = 20.185420 Si / 1000 Ang^3
#
#
#
# Elastic Constant Matrix: (Units=GPa)
#
#
# Indices 1 2 3 4 5 6 
#
# 1 90.0907 40.8742 45.5264 0.0000 10.1634 0.0000
# 2 40.8742 77.3132 49.7253 0.0000 13.0419 0.0000
# 3 45.5264 49.7253 116.5916 0.0000 17.2550 0.0000
# 4 0.0000 0.0000 0.0000 13.9989 0.0000 5.0118
# 5 10.1634 13.0419 17.2550 0.0000 33.6985 0.0000
# 6 0.0000 0.0000 0.0000 5.0118 0.0000 22.0091
#
#
#
# Elastic Compliance Matrix: (Units=1/GPa)
#
#
# Indices 1 2 3 4 5 6 
#
# 1 0.015611 -0.005906 -0.003482 0.000000 -0.000640 0.000000
# 2 -0.005906 0.020393 -0.005937 0.000000 -0.003071 0.000000
# 3 -0.003482 -0.005937 0.012955 0.000000 -0.003286 0.000000
# 4 0.000000 0.000000 0.000000 0.077775 0.000000 -0.017710
# 5 -0.000640 -0.003071 -0.003286 0.000000 0.032739 0.000000
# 6 0.000000 0.000000 0.000000 -0.017710 0.000000 0.049469
#
#
# Mechanical properties :
#
#
# Convention : Reuss Voigt Hill
#
# Bulk Modulus (GPa) = 54.61695 61.80527 58.21111
# Shear Modulus (GPa) = 20.35042 23.79928 22.07485
#
# Velocity S-wave (km/s) = 3.17862 3.43743 3.31056
# Velocity P-wave (km/s) = 6.37086 6.81468 6.59650
#
# Compressibility (1/GPa) = 0.01830934
#
# Stress axis : x y z
#
# Youngs Moduli (GPa) = 64.05588 49.03596 77.18993
#
# Poissons Ratio (x) = 0.28959 0.26881
# Poissons Ratio (y) = 0.37830 0.45827
# Poissons Ratio (z) = 0.22307 0.29112
#
# Static dielectric constant tensor:
#      x y z
#    x 3.695340 0.000000 0.053630 
#    y 0.000000 3.301380 0.000000 
#    z 0.053630 0.000000 3.859150 
# 
# 
# High freq. dielectric constant tensor:
#      x y z
#    x 1.787200 0.000000 0.003870 
#    y 0.000000 1.748370 0.000000 
#    z 0.003870 0.000000 1.807000 
# 
# From -- ./inp_files/71601.got.cif
#   From: 2010.06.25/outbox.cif.g09.slc.cpg/sg10_36_cif.got.tgz:71601.got - 2010.06.27 22:07:45.
