data_PCOD8059068
_publ_section_title
;
Structure prediction by ZEFSAII (Michael W. Deem and Ramdas Pophale) SiO2 
 PCOD8059068
Probable space group: P 2/M
;
_chemical_formula_sum "Si O2"
_cell_formula_units_Z 24
_cell_length_a 16.571829
_cell_length_b 8.834934
_cell_length_c 22.941984
_cell_angle_alpha 90.000000
_cell_angle_beta 157.154614
_cell_angle_gamma 90.000000
_cell_volume 1304.101473
_symmetry_space_group_name_H-M "P 2/M"
_symmetry_group_IT_number 10
_symmetry_cell_setting 'monoclinic'
loop_
_space_group_symop_operation_xyz
x,y,z
-x,y,-z
-x,-y,-z
x,-y,z
loop_
_atom_site_type_symbol
_atom_site_label
_atom_site_fract_x
_atom_site_fract_y
_atom_site_fract_z
Si Si1 0.272640 0.177172 0.829323
Si Si2 0.125564 0.320309 0.391624
Si Si3 0.416111 0.677623 0.687447
Si Si4 0.466317 0.822389 0.544610
Si Si5 0.228293 0.328166 0.678041
Si Si6 0.233755 0.321461 0.164470
O O1 0.241705 0.219242 0.741669
O O2 0.109963 0.261661 0.763283
O O3 0.240060 0.000000 0.815832
O O4 0.500000 0.230231 0.000000
O O5 0.127931 0.500000 0.388260
O O6 0.240699 0.259809 0.526597
O O7 0.248892 0.253654 0.418573
O O8 0.381066 0.500000 0.667713
O O9 0.384144 0.739015 0.731861
O O10 0.642684 0.719216 0.812898
O O11 0.500000 0.780748 0.500000
O O12 0.661872 0.759316 0.711063
O O13 0.450988 0.000000 0.545045
O O14 0.286574 0.500000 0.735480
O O15 0.000000 0.325101 0.500000
O O16 0.241148 0.500000 0.181581
O O17 0.000000 0.262243 0.000000
#
# Coordination Sequence:
#
# PCOD8059068 Si02
#       6
#     4   4   4   4   4   4
#     4  11  24  39  53  77 117 153 182 222 275 330
#     4  10  19  36  61  83 106 141 187 232 275 324
#     4   8  15  30  53  80 106 134 172 227 277 312
#     4  10  21  37  57  82 114 149 183 223 275 333
#     4  10  18  33  57  81 106 137 183 232 270 319
#     4   9  18  34  56  81 112 144 182 231 276 319
#
# _framework density 18.403476000000001
#
# number of rings (size 3 to 8) (size 9 to 14) (size 15 to 20)
#    0.000    2.333    1.667    2.500    0.000    3.333 
#    3.000    0.833    0.000    0.000    0.000    0.000 
#    0.000    0.000    0.000    0.000    0.000    0.000 
#
# Total GULP energy -297559.583507 kJ/mol
# GULP energy per Si atom -12398.315979 kJ/mol
# Density = 1.836159 g / cm^3
# Si number density = 18.403476 Si / 1000 Ang^3
#
#
#
# Elastic Constant Matrix: (Units=GPa)
#
#
# Indices 1 2 3 4 5 6 
#
# 1 147.1193 48.3748 67.8120 0.0000 18.6922 0.0000
# 2 48.3748 61.5668 41.1312 0.0000 7.5209 0.0000
# 3 67.8120 41.1312 110.4314 0.0000 25.6649 0.0000
# 4 0.0000 0.0000 0.0000 -0.8407 0.0000 12.3565
# 5 18.6922 7.5209 25.6649 0.0000 29.6352 0.0000
# 6 0.0000 0.0000 0.0000 12.3565 0.0000 23.6121
#
#
#
# Elastic Compliance Matrix: (Units=1/GPa)
#
#
# Indices 1 2 3 4 5 6 
#
# 1 0.010723 -0.005439 -0.004141 0.000000 -0.001797 0.000000
# 2 -0.005439 0.024464 -0.006418 0.000000 0.002780 0.000000
# 3 -0.004141 -0.006418 0.016280 0.000000 -0.009858 0.000000
# 4 0.000000 0.000000 0.000000 -0.136855 0.000000 0.071618
# 5 -0.001797 0.002780 -0.009858 0.000000 0.042709 0.000000
# 6 0.000000 0.000000 0.000000 0.071618 0.000000 0.004873
#
#
# Mechanical properties :
#
#
# Convention : Reuss Voigt Hill
#
# Bulk Modulus (GPa) = 51.36047 70.41706 60.88876
# Shear Modulus (GPa) = 7356.46592 21.26797 3688.86694
#
# Velocity S-wave (km/s) = 63.29298 3.40317 44.81955
# Velocity P-wave (km/s) = 73.27554 7.33404 52.07251
#
# Compressibility (1/GPa) = 0.01947023
#
# Stress axis : x y z
#
# Youngs Moduli (GPa) = 93.26061 40.87582 61.42588
#
# Poissons Ratio (x) = 0.22233 0.25436
# Poissons Ratio (y) = 0.50725 0.39424
# Poissons Ratio (z) = 0.38619 0.26235
#
# Static dielectric constant tensor:
#      x y z
#    x 3.852300 0.000000 0.073160 
#    y 0.000000 3.229950 0.000000 
#    z 0.073160 0.000000 3.415750 
# 
# 
# High freq. dielectric constant tensor:
#      x y z
#    x 1.725920 0.000000 0.015390 
#    y 0.000000 1.699870 0.000000 
#    z 0.015390 0.000000 1.698310 
# 
# From -- ./inp_files/80133.got.cif
#   From: 2010.06.25/outbox.cif.g09.slc.cpg/sg10_41_cif.got.tgz:80133.got - 2010.06.27 22:07:45.
