data_PCOD8059532
_publ_section_title
;
Structure prediction by ZEFSAII (Michael W. Deem and Ramdas Pophale) SiO2 
 PCOD8059532
Probable space group: P 2/M
;
_chemical_formula_sum "Si O2"
_cell_formula_units_Z 28
_cell_length_a 15.629895
_cell_length_b 23.701263
_cell_length_c 5.284378
_cell_angle_alpha 90.000000
_cell_angle_beta 120.473602
_cell_angle_gamma 90.000000
_cell_volume 1687.172998
_symmetry_space_group_name_H-M "P 2/M"
_symmetry_group_IT_number 10
_symmetry_cell_setting 'monoclinic'
loop_
_space_group_symop_operation_xyz
x,y,z
-x,y,-z
-x,-y,-z
x,-y,z
loop_
_atom_site_type_symbol
_atom_site_label
_atom_site_fract_x
_atom_site_fract_y
_atom_site_fract_z
Si Si1 0.117233 0.246611 0.175849
Si Si2 0.531094 0.168642 0.796640
Si Si3 0.286567 0.899930 0.929850
Si Si4 0.117320 0.180382 0.675980
Si Si5 0.381928 0.937825 0.572892
Si Si6 0.118270 0.436186 0.677405
Si Si7 0.118521 0.626705 0.177781
O O1 0.152590 0.214387 0.480572
O O2 0.161495 0.309748 0.242243
O O3 0.152590 0.214387 0.977197
O O4 0.000000 0.251006 0.000000
O O5 0.500000 0.203484 0.500000
O O6 0.469599 0.108575 0.704398
O O7 0.500000 0.203484 0.000000
O O8 0.647532 0.157382 0.971297
O O9 0.172023 0.880206 0.758034
O O10 0.311089 0.934074 0.712345
O O11 0.311089 0.934074 0.220921
O O12 0.000000 0.168818 0.500000
O O13 0.431902 0.000000 0.647854
O O14 0.158743 0.500000 0.738115
O O15 0.158717 0.404830 0.487987
O O16 0.000000 0.435815 0.500000
O O17 0.158717 0.404830 0.988165
O O18 0.000000 0.626984 0.000000
#
# Coordination Sequence:
#
# PCOD8059532 Si02
#       7
#     4   4   4   4   4   4   4
#     4   9  17  28  42  57  71  95 133 176 212 234
#     4   8  16  27  42  64  86 103 121 147 185 227
#     4  10  19  30  45  64  84 105 127 157 197 235
#     4  10  19  31  45  59  77 102 135 171 207 239
#     4  10  19  31  48  68  86 103 124 151 190 238
#     4   9  15  21  30  46  69  95 119 149 198 253
#     4   9  15  23  34  48  67  90 122 162 201 238
#
# _framework density 16.595807000000001
#
# number of rings (size 3 to 8) (size 9 to 14) (size 15 to 20)
#    0.000    2.714    0.000    2.571    0.000   10.286 
#    0.000    0.000    0.000    2.571    0.000    0.000 
#    0.000    0.000    0.000    0.000    0.000    0.000 
#
# Total GULP energy -346984.506900 kJ/mol
# GULP energy per Si atom -12392.303818 kJ/mol
# Density = 1.655803 g / cm^3
# Si number density = 16.595807 Si / 1000 Ang^3
#
#
#
# Elastic Constant Matrix: (Units=GPa)
#
#
# Indices 1 2 3 4 5 6 
#
# 1 49.4666 18.6644 42.4851 0.0000 -19.9742 0.0000
# 2 18.6644 51.8533 19.9235 0.0000 -1.7202 0.0000
# 3 42.4851 19.9235 92.8234 0.0000 -39.2638 0.0000
# 4 0.0000 0.0000 0.0000 11.8026 0.0000 -6.3522
# 5 -19.9742 -1.7202 -39.2638 0.0000 37.1556 0.0000
# 6 0.0000 0.0000 0.0000 -6.3522 0.0000 7.1535
#
#
#
# Elastic Compliance Matrix: (Units=1/GPa)
#
#
# Indices 1 2 3 4 5 6 
#
# 1 0.036319 -0.008161 -0.012247 0.000000 0.006205 0.000000
# 2 -0.008161 0.023867 -0.005019 0.000000 -0.008587 0.000000
# 3 -0.012247 -0.005019 0.026352 0.000000 0.021031 0.000000
# 4 0.000000 0.000000 0.000000 0.162287 0.000000 0.144109
# 5 0.006205 -0.008587 0.021031 0.000000 0.052076 0.000000
# 6 0.000000 0.000000 0.000000 0.144109 0.000000 0.267759
#
#
# Mechanical properties :
#
#
# Convention : Reuss Voigt Hill
#
# Bulk Modulus (GPa) = 28.02499 39.58769 33.80634
# Shear Modulus (GPa) = 7.91881 18.76036 13.33959
#
# Velocity S-wave (km/s) = 2.18676 3.36583 2.83820
# Velocity P-wave (km/s) = 4.82694 6.24587 5.58168
#
# Compressibility (1/GPa) = 0.03568244
#
# Stress axis : x y z
#
# Youngs Moduli (GPa) = 27.53399 41.89962 37.94833
#
# Poissons Ratio (x) = 0.34196 0.46473
# Poissons Ratio (y) = 0.22472 0.19047
# Poissons Ratio (z) = 0.33720 0.21031
#
# Static dielectric constant tensor:
#      x y z
#    x 3.039850 0.000000 -0.656110 
#    y 0.000000 2.912570 0.000000 
#    z -0.656110 0.000000 3.520060 
# 
# 
# High freq. dielectric constant tensor:
#      x y z
#    x 1.606460 0.000000 -0.050080 
#    y 0.000000 1.603330 0.000000 
#    z -0.050080 0.000000 1.643120 
# 
# From -- ./inp_files/11736.got.cif
#   From: 2010.06.25/outbox.cif.g09.slc.cpg/sg10_6_cif.got.tgz:11736.got - 2010.06.27 22:07:45.
