data_PCOD8059537
_publ_section_title
;
Structure prediction by ZEFSAII (Michael W. Deem and Ramdas Pophale) SiO2 
 PCOD8059537
Probable space group: P 2/M
;
_chemical_formula_sum "Si O2"
_cell_formula_units_Z 32
_cell_length_a 27.747712
_cell_length_b 9.013545
_cell_length_c 20.851285
_cell_angle_alpha 90.000000
_cell_angle_beta 21.418047
_cell_angle_gamma 90.000000
_cell_volume 1904.367498
_symmetry_space_group_name_H-M "P 2/M"
_symmetry_group_IT_number 10
_symmetry_cell_setting 'monoclinic'
loop_
_space_group_symop_operation_xyz
x,y,z
-x,y,-z
-x,-y,-z
x,-y,z
loop_
_atom_site_type_symbol
_atom_site_label
_atom_site_fract_x
_atom_site_fract_y
_atom_site_fract_z
Si Si1 0.423406 0.666895 0.453113
Si Si2 0.309711 0.674212 0.225335
Si Si3 0.010712 0.328614 0.560503
Si Si4 0.797347 0.825877 0.910458
Si Si5 0.475163 0.824525 0.123515
Si Si6 0.493505 0.828058 0.769277
Si Si7 0.724736 0.332517 0.123288
Si Si8 0.349107 0.167280 0.665016
O O1 0.370028 0.500000 0.515211
O O2 0.413165 0.739776 0.395573
O O3 0.573310 0.672110 0.290389
O O4 0.333162 0.754771 0.615718
O O5 0.343178 0.500000 0.185032
O O6 0.156561 0.703815 0.404947
O O7 0.351740 0.749948 0.240226
O O8 0.389423 0.751263 0.068898
O O9 0.970827 0.500000 0.618908
O O10 0.000000 0.281459 0.500000
O O11 0.913023 0.227118 0.721391
O O12 0.808510 0.000000 0.907125
O O13 0.659080 0.780566 0.048989
O O14 0.812326 0.749602 0.961343
O O15 0.458562 0.789581 0.218919
O O16 0.479854 0.000000 0.104243
O O17 0.509496 0.000000 0.732972
O O18 0.776185 0.500000 0.066510
O O19 0.741426 0.251677 0.170935
O O20 0.500000 0.170840 0.500000
O O21 0.297207 0.000000 0.723396
#
# Coordination Sequence:
#
# PCOD8059537 Si02
#       8
#     4   4   4   4   4   4   4   4
#     4   9  16  24  37  58  83 114 149 183 219 262
#     4  10  20  33  49  68  89 114 147 185 224 267
#     4  10  21  35  49  66  90 119 149 183 224 267
#     4  10  19  30  45  65  89 117 151 187 223 266
#     4  10  19  32  50  68  89 116 147 184 225 268
#     4   9  18  30  43  63  90 119 149 183 224 266
#     4   9  16  26  39  56  82 115 150 184 219 262
#     4   9  15  23  36  54  80 114 149 184 220 259
#
# _framework density 16.803478999999999
#
# number of rings (size 3 to 8) (size 9 to 14) (size 15 to 20)
#    0.000    2.500    0.000    3.750    0.000    7.250 
#    0.000    0.000    0.000    0.000    0.000    0.000 
#    0.000    1.000    0.000   10.500    0.000    8.875 
#
# Total GULP energy -396809.477029 kJ/mol
# GULP energy per Si atom -12400.296157 kJ/mol
# Density = 1.676523 g / cm^3
# Si number density = 16.803479 Si / 1000 Ang^3
#
#
#
# Elastic Constant Matrix: (Units=GPa)
#
#
# Indices 1 2 3 4 5 6 
#
# 1 103.5183 63.6713 53.4481 0.0000 32.5166 0.0000
# 2 63.6713 126.3173 50.4172 0.0000 25.1272 0.0000
# 3 53.4481 50.4172 67.3242 0.0000 24.7601 0.0000
# 4 0.0000 0.0000 0.0000 28.8801 0.0000 10.1623
# 5 32.5166 25.1272 24.7601 0.0000 31.2225 0.0000
# 6 0.0000 0.0000 0.0000 10.1623 0.0000 23.9438
#
#
#
# Elastic Compliance Matrix: (Units=1/GPa)
#
#
# Indices 1 2 3 4 5 6 
#
# 1 0.020377 -0.004663 -0.008838 0.000000 -0.010460 0.000000
# 2 -0.004663 0.012614 -0.005360 0.000000 -0.001045 0.000000
# 3 -0.008838 -0.005360 0.029523 0.000000 -0.009894 0.000000
# 4 0.000000 0.000000 0.000000 0.040705 0.000000 -0.017276
# 5 -0.010460 -0.001045 -0.009894 0.000000 0.051609 0.000000
# 6 0.000000 0.000000 0.000000 -0.017276 0.000000 0.049097
#
#
# Mechanical properties :
#
#
# Convention : Reuss Voigt Hill
#
# Bulk Modulus (GPa) = 40.33701 70.24813 55.29257
# Shear Modulus (GPa) = 20.00700 25.45083 22.72892
#
# Velocity S-wave (km/s) = 3.45432 3.89603 3.68180
# Velocity P-wave (km/s) = 6.32195 7.88259 7.14501
#
# Compressibility (1/GPa) = 0.02479113
#
# Stress axis : x y z
#
# Youngs Moduli (GPa) = 49.07430 79.27545 33.87165
#
# Poissons Ratio (x) = 0.36965 0.29937
# Poissons Ratio (y) = 0.22883 0.18157
# Poissons Ratio (z) = 0.43374 0.42495
#
# Static dielectric constant tensor:
#      x y z
#    x 3.091940 0.000000 0.293770 
#    y 0.000000 3.313990 0.000000 
#    z 0.293770 0.000000 2.877780 
# 
# 
# High freq. dielectric constant tensor:
#      x y z
#    x 1.630770 0.000000 0.038220 
#    y 0.000000 1.664940 0.000000 
#    z 0.038220 0.000000 1.614110 
# 
# From -- ./inp_files/56421.got.cif
#   From: 2010.06.25/outbox.cif.g09.slc.cpg/sg10_29_cif.got.tgz:56421.got - 2010.06.27 22:07:45.
