data_PCOD8059478
_publ_section_title
;
Structure prediction by ZEFSAII (Michael W. Deem and Ramdas Pophale) SiO2 
 PCOD8059478
Probable space group: P 2/M
;
_chemical_formula_sum "Si O2"
_cell_formula_units_Z 28
_cell_length_a 26.128347
_cell_length_b 16.311381
_cell_length_c 29.010295
_cell_angle_alpha 90.000000
_cell_angle_beta 171.153025
_cell_angle_gamma 90.000000
_cell_volume 1901.515449
_symmetry_space_group_name_H-M "P 2/M"
_symmetry_group_IT_number 10
_symmetry_cell_setting 'monoclinic'
loop_
_space_group_symop_operation_xyz
x,y,z
-x,y,-z
-x,-y,-z
x,-y,z
loop_
_atom_site_type_symbol
_atom_site_label
_atom_site_fract_x
_atom_site_fract_y
_atom_site_fract_z
Si Si1 0.951747 0.905890 0.685113
Si Si2 0.393766 0.324922 0.852975
Si Si3 0.276037 0.902269 0.342356
Si Si4 0.723617 0.904820 0.384744
Si Si5 0.469021 0.097884 0.333452
Si Si6 0.603584 0.000000 0.144295
Si Si7 0.303462 0.837493 0.734540
Si Si8 0.393069 0.500000 0.852690
O O1 0.888869 0.867395 0.578215
O O2 0.708903 0.865651 0.507126
O O3 0.846729 0.000000 0.586350
O O4 0.326166 0.895189 0.035505
O O5 0.510278 0.247492 0.924962
O O6 0.533996 0.412894 0.957703
O O7 0.000000 0.330723 0.500000
O O8 0.500000 0.308600 0.000000
O O9 0.500000 0.867392 0.500000
O O10 0.416162 0.867945 0.515007
O O11 0.282295 0.000000 0.346902
O O12 0.901931 0.869537 0.004652
O O13 0.837032 0.849137 0.442144
O O14 0.825747 0.000000 0.466135
O O15 0.486264 0.000000 0.348880
O O16 0.466026 0.082143 0.047746
O O17 0.000000 0.000000 0.500000
O O18 0.500000 0.000000 0.000000
O O19 0.000000 0.834940 0.500000
O O20 0.000000 0.500000 0.500000
O O21 0.500000 0.500000 0.000000
#
# Coordination Sequence:
#
# PCOD8059478 Si02
#       8
#     4   4   4   4   4   2   4   2
#     4   9  18  29  40  49  62  86 119 146 172 202
#     4   9  17  28  42  58  74  91 111 134 169 219
#     4   9  15  21  32  50  68  82  99 127 168 212
#     4  10  19  30  39  51  65  86 116 150 176 212
#     4   9  15  24  35  46  62  84 106 133 164 204
#     4  10  20  30  40  52  70  92 114 136 171 224
#     4  10  20  32  42  57  73  94 115 147 189 232
#     4   8  14  26  42  58  74  90 108 132 160 206
#
# _framework density 14.725096000000001
#
# number of rings (size 3 to 8) (size 9 to 14) (size 15 to 20)
#    0.000    2.714    0.714    1.714    0.000    9.714 
#    0.000    0.000    0.000    0.000    0.000    0.000 
#    0.000    0.000    0.000    0.000    0.000    0.000 
#
# Total GULP energy -346903.593333 kJ/mol
# GULP energy per Si atom -12389.414048 kJ/mol
# Density = 1.469158 g / cm^3
# Si number density = 14.725096 Si / 1000 Ang^3
#
#
#
# Elastic Constant Matrix: (Units=GPa)
#
#
# Indices 1 2 3 4 5 6 
#
# 1 90.9121 14.2333 13.2925 0.0000 -6.8832 0.0000
# 2 14.2333 89.3049 -4.0261 0.0000 -4.7917 0.0000
# 3 13.2925 -4.0261 33.3923 0.0000 -10.9714 0.0000
# 4 0.0000 0.0000 0.0000 6.4964 0.0000 -4.6847
# 5 -6.8832 -4.7917 -10.9714 0.0000 31.8038 0.0000
# 6 0.0000 0.0000 0.0000 -4.6847 0.0000 5.6889
#
#
#
# Elastic Compliance Matrix: (Units=1/GPa)
#
#
# Indices 1 2 3 4 5 6 
#
# 1 0.012088 -0.002113 -0.004863 0.000000 0.000620 0.000000
# 2 -0.002113 0.011799 0.003042 0.000000 0.002370 0.000000
# 3 -0.004863 0.003042 0.036152 0.000000 0.011877 0.000000
# 4 0.000000 0.000000 0.000000 0.378973 0.000000 0.312076
# 5 0.000620 0.002370 0.011877 0.000000 0.036031 0.000000
# 6 0.000000 0.000000 0.000000 0.312076 0.000000 0.432768
#
#
# Mechanical properties :
#
#
# Convention : Reuss Voigt Hill
#
# Bulk Modulus (GPa) = 19.16724 28.95650 24.06187
# Shear Modulus (GPa) = 5.35866 21.47179 13.41522
#
# Velocity S-wave (km/s) = 1.90972 3.82275 3.02163
# Velocity P-wave (km/s) = 4.23175 6.26035 5.34320
#
# Compressibility (1/GPa) = 0.05217235
#
# Stress axis : x y z
#
# Youngs Moduli (GPa) = 82.72407 84.75586 27.66098
#
# Poissons Ratio (x) = 0.17905 0.13451
# Poissons Ratio (y) = 0.17476 -0.08415
# Poissons Ratio (z) = 0.40228 -0.25784
#
# Static dielectric constant tensor:
#      x y z
#    x 2.986460 0.000000 -0.182640 
#    y 0.000000 3.835600 0.000000 
#    z -0.182640 0.000000 2.942390 
# 
# 
# High freq. dielectric constant tensor:
#      x y z
#    x 1.558060 0.000000 -0.026140 
#    y 0.000000 1.494750 0.000000 
#    z -0.026140 0.000000 1.572800 
# 
# From -- ./inp_files/91319.got.cif
#   From: 2010.06.25/outbox.cif.g09.slc.cpg/sg10_46_cif.got.tgz:91319.got - 2010.06.27 22:07:45.
