data_PCOD8059497
_publ_section_title
;
Structure prediction by ZEFSAII (Michael W. Deem and Ramdas Pophale) SiO2 
 PCOD8059497
Probable space group: P 2/M
;
_chemical_formula_sum "Si O2"
_cell_formula_units_Z 32
_cell_length_a 11.495172
_cell_length_b 9.826862
_cell_length_c 16.818169
_cell_angle_alpha 90.000000
_cell_angle_beta 86.521544
_cell_angle_gamma 90.000000
_cell_volume 1896.305031
_symmetry_space_group_name_H-M "P 2/M"
_symmetry_group_IT_number 10
_symmetry_cell_setting 'monoclinic'
loop_
_space_group_symop_operation_xyz
x,y,z
-x,y,-z
-x,-y,-z
x,-y,z
loop_
_atom_site_type_symbol
_atom_site_label
_atom_site_fract_x
_atom_site_fract_y
_atom_site_fract_z
Si Si1 0.579895 0.658601 0.741939
Si Si2 0.741183 0.341285 0.587808
Si Si3 0.951944 0.157875 0.917101
Si Si4 0.370750 0.157333 0.532321
Si Si5 0.630030 0.843682 0.283330
Si Si6 0.889367 0.155495 0.237929
Si Si7 0.047883 0.650268 0.316511
Si Si8 0.786544 0.650626 0.841858
O O1 0.546457 0.500000 0.740280
O O2 0.649035 0.700982 0.659587
O O3 0.464136 0.747911 0.754581
O O4 0.657439 0.690393 0.816970
O O5 0.727042 0.500000 0.567201
O O6 0.720358 0.250461 0.511195
O O7 0.873083 0.309848 0.610978
O O8 0.833934 0.241429 0.903908
O O9 0.051768 0.190997 0.848652
O O10 0.917330 0.000000 0.918522
O O11 0.000000 0.204983 0.000000
O O12 0.500000 0.196561 0.500000
O O13 0.355928 0.192476 0.624967
O O14 0.343059 0.000000 0.515114
O O15 0.752533 0.815020 0.234890
O O16 0.590405 0.000000 0.274655
O O17 0.943428 0.243943 0.307475
O O18 0.912120 0.000000 0.261222
O O19 0.993568 0.500000 0.330997
O O20 0.131769 0.649113 0.237789
O O21 0.785233 0.500000 0.880851
#
# Coordination Sequence:
#
# PCOD8059497 Si02
#       8
#     4   4   4   4   4   4   4   4
#     4   9  17  29  46  68  92 119 153 191 227 262
#     4   9  17  29  46  67  89 115 151 195 236 268
#     4   9  17  30  50  75  97 116 144 183 223 265
#     4  10  19  30  43  63  90 119 154 194 228 263
#     4  10  20  32  45  64  92 123 154 187 225 269
#     4   9  18  32  48  67  92 121 150 181 222 272
#     4   8  15  29  47  66  89 116 149 190 228 265
#     4   8  15  28  46  70  96 118 146 185 224 263
#
# _framework density 16.874922000000002
#
# number of rings (size 3 to 8) (size 9 to 14) (size 15 to 20)
#    0.000    3.000    1.250    1.500    0.000    2.500 
#    0.000    3.125    0.000    4.500    0.000    5.250 
#    0.000    0.000    0.000    0.000    0.000    0.000 
#
# Total GULP energy -396743.439967 kJ/mol
# GULP energy per Si atom -12398.232499 kJ/mol
# Density = 1.683651 g / cm^3
# Si number density = 16.874922 Si / 1000 Ang^3
#
#
#
# Elastic Constant Matrix: (Units=GPa)
#
#
# Indices 1 2 3 4 5 6 
#
# 1 101.3008 68.8787 43.8009 0.0000 21.5260 0.0000
# 2 68.8787 88.6778 47.1682 0.0000 25.4787 0.0000
# 3 43.8009 47.1682 66.1784 0.0000 22.4744 0.0000
# 4 0.0000 0.0000 0.0000 22.0408 0.0000 11.0122
# 5 21.5260 25.4787 22.4744 0.0000 26.7050 0.0000
# 6 0.0000 0.0000 0.0000 11.0122 0.0000 32.1082
#
#
#
# Elastic Compliance Matrix: (Units=1/GPa)
#
#
# Indices 1 2 3 4 5 6 
#
# 1 0.021482 -0.014656 -0.003697 0.000000 -0.000222 0.000000
# 2 -0.014656 0.029853 -0.008284 0.000000 -0.009697 0.000000
# 3 -0.003697 -0.008284 0.027676 0.000000 -0.012407 0.000000
# 4 0.000000 0.000000 0.000000 0.054753 0.000000 -0.018779
# 5 -0.000222 -0.009697 -0.012407 0.000000 0.057318 0.000000
# 6 0.000000 0.000000 0.000000 -0.018779 0.000000 0.037585
#
#
# Mechanical properties :
#
#
# Convention : Reuss Voigt Hill
#
# Bulk Modulus (GPa) = 38.85516 63.98361 51.41938
# Shear Modulus (GPa) = 17.21048 22.59142 19.90095
#
# Velocity S-wave (km/s) = 3.19703 3.66287 3.43785
# Velocity P-wave (km/s) = 6.05833 7.47580 6.80408
#
# Compressibility (1/GPa) = 0.02573661
#
# Stress axis : x y z
#
# Youngs Moduli (GPa) = 46.54976 33.49775 36.13248
#
# Poissons Ratio (x) = 0.49093 0.13359
# Poissons Ratio (y) = 0.68222 0.29933
# Poissons Ratio (z) = 0.17211 0.27751
#
# Static dielectric constant tensor:
#      x y z
#    x 3.150060 0.000000 0.173180 
#    y 0.000000 3.262610 0.000000 
#    z 0.173180 0.000000 2.941380 
# 
# 
# High freq. dielectric constant tensor:
#      x y z
#    x 1.641290 0.000000 0.018070 
#    y 0.000000 1.653080 0.000000 
#    z 0.018070 0.000000 1.620690 
# 
# From -- ./inp_files/52751.got.cif
#   From: 2010.06.25/outbox.cif.g09.slc.cpg/sg10_27_cif.got.tgz:52751.got - 2010.06.27 22:07:45.
