data_PCOD8059527
_publ_section_title
;
Structure prediction by ZEFSAII (Michael W. Deem and Ramdas Pophale) SiO2 
 PCOD8059527
Probable space group: P 2/M
;
_chemical_formula_sum "Si O2"
_cell_formula_units_Z 28
_cell_length_a 16.548119
_cell_length_b 9.151962
_cell_length_c 15.776052
_cell_angle_alpha 90.000000
_cell_angle_beta 44.671394
_cell_angle_gamma 90.000000
_cell_volume 1679.736055
_symmetry_space_group_name_H-M "P 2/M"
_symmetry_group_IT_number 10
_symmetry_cell_setting 'monoclinic'
loop_
_space_group_symop_operation_xyz
x,y,z
-x,y,-z
-x,-y,-z
x,-y,z
loop_
_atom_site_type_symbol
_atom_site_label
_atom_site_fract_x
_atom_site_fract_y
_atom_site_fract_z
Si Si1 0.187032 0.170877 0.188438
Si Si2 0.720823 0.831720 0.064007
Si Si3 0.539260 0.827992 0.746223
Si Si4 0.931573 0.329008 0.970309
Si Si5 0.026280 0.671562 0.718087
Si Si6 0.312433 0.334896 0.244626
Si Si7 0.737930 0.336062 0.535030
O O1 0.255267 0.244972 0.212986
O O2 0.060719 0.240464 0.276722
O O3 0.174826 0.000000 0.216055
O O4 0.256889 0.204052 0.050867
O O5 0.590362 0.788135 0.183363
O O6 0.805352 0.741181 0.061255
O O7 0.745068 0.000000 0.064875
O O8 0.570194 0.746860 0.812243
O O9 0.625732 0.768731 0.607694
O O10 0.554978 0.000000 0.747320
O O11 0.912432 0.500000 0.994135
O O12 0.000000 0.265779 0.000000
O O13 0.004508 0.289342 0.832333
O O14 0.009988 0.500000 0.712057
O O15 0.154995 0.723522 0.599131
O O16 0.340667 0.500000 0.193343
O O17 0.228039 0.337727 0.390017
O O18 0.705256 0.500000 0.529481
#
# Coordination Sequence:
#
# PCOD8059527 Si02
#       7
#     4   4   4   4   4   4   4
#     4  10  19  30  44  67  95 123 160 196 231 271
#     4   9  19  33  49  69  95 126 153 186 234 281
#     4   9  17  31  48  66  90 123 161 196 227 264
#     4   9  18  32  53  79  98 115 146 187 230 279
#     4   9  17  32  50  67  94 125 150 187 237 279
#     4   9  18  31  44  65  93 125 162 194 230 269
#     4   8  17  31  46  65  90 125 160 190 228 273
#
# _framework density 16.669286
#
# number of rings (size 3 to 8) (size 9 to 14) (size 15 to 20)
#    0.857    2.143    0.000    0.857    0.000    3.714 
#    0.000    5.714    0.000    0.857    0.000    6.000 
#    0.000    0.000    0.000    0.000    0.000    0.000 
#
# Total GULP energy -347005.077985 kJ/mol
# GULP energy per Si atom -12393.038499 kJ/mol
# Density = 1.663135 g / cm^3
# Si number density = 16.669286 Si / 1000 Ang^3
#
#
#
# Elastic Constant Matrix: (Units=GPa)
#
#
# Indices 1 2 3 4 5 6 
#
# 1 123.5163 56.0151 56.5046 0.0000 -13.9363 0.0000
# 2 56.0151 77.2525 38.4562 0.0000 -14.6075 0.0000
# 3 56.5046 38.4562 65.4757 0.0000 -30.5491 0.0000
# 4 0.0000 0.0000 0.0000 21.8030 0.0000 -6.7561
# 5 -13.9363 -14.6075 -30.5491 0.0000 25.6592 0.0000
# 6 0.0000 0.0000 0.0000 -6.7561 0.0000 27.1592
#
#
#
# Elastic Compliance Matrix: (Units=1/GPa)
#
#
# Indices 1 2 3 4 5 6 
#
# 1 0.018399 -0.006577 -0.020470 0.000000 -0.018123 0.000000
# 2 -0.006577 0.020977 -0.006162 0.000000 0.001033 0.000000
# 3 -0.020470 -0.006162 0.066890 0.000000 0.065011 0.000000
# 4 0.000000 0.000000 0.000000 0.049696 0.000000 0.012362
# 5 -0.018123 0.001033 0.065011 0.000000 0.107117 0.000000
# 6 0.000000 0.000000 0.000000 0.012362 0.000000 0.039895
#
#
# Mechanical properties :
#
#
# Convention : Reuss Voigt Hill
#
# Bulk Modulus (GPa) = 25.09694 63.13291 44.11493
# Shear Modulus (GPa) = 13.06595 22.60886 17.83740
#
# Velocity S-wave (km/s) = 2.80274 3.68682 3.27475
# Velocity P-wave (km/s) = 5.05592 7.48863 6.38912
#
# Compressibility (1/GPa) = 0.03984549
#
# Stress axis : x y z
#
# Youngs Moduli (GPa) = 54.35201 47.67201 14.95003
#
# Poissons Ratio (x) = 0.31356 0.30603
# Poissons Ratio (y) = 0.35750 0.09212
# Poissons Ratio (z) = 1.11259 0.29376
#
# Static dielectric constant tensor:
#      x y z
#    x 2.981820 0.000000 -0.103740 
#    y 0.000000 3.167640 0.000000 
#    z -0.103740 0.000000 3.084380 
# 
# 
# High freq. dielectric constant tensor:
#      x y z
#    x 1.621120 0.000000 -0.012900 
#    y 0.000000 1.648630 0.000000 
#    z -0.012900 0.000000 1.626120 
# 
# From -- ./inp_files/66423.got.cif
#   From: 2010.06.25/outbox.cif.g09.slc.cpg/sg10_34_cif.got.tgz:66423.got - 2010.06.27 22:07:45.
