data_PCOD8059859
_publ_section_title
;
Structure prediction by ZEFSAII (Michael W. Deem and Ramdas Pophale) SiO2 
 PCOD8059859
Probable space group: P 2/M
;
_chemical_formula_sum "Si O2"
_cell_formula_units_Z 28
_cell_length_a 18.528995
_cell_length_b 9.032372
_cell_length_c 13.934533
_cell_angle_alpha 90.000000
_cell_angle_beta 132.098189
_cell_angle_gamma 90.000000
_cell_volume 1730.407011
_symmetry_space_group_name_H-M "P 2/M"
_symmetry_group_IT_number 10
_symmetry_cell_setting 'monoclinic'
loop_
_space_group_symop_operation_xyz
x,y,z
-x,y,-z
-x,-y,-z
x,-y,z
loop_
_atom_site_type_symbol
_atom_site_label
_atom_site_fract_x
_atom_site_fract_y
_atom_site_fract_z
Si Si1 0.411869 0.173715 0.991076
Si Si2 0.783164 0.328067 0.247817
Si Si3 0.600611 0.325043 0.626435
Si Si4 0.323108 0.674894 0.496969
Si Si5 0.031217 0.167020 0.637750
Si Si6 0.466325 0.325685 0.234882
Si Si7 0.154658 0.672352 0.480139
O O1 0.436047 0.228870 0.118372
O O2 0.391782 0.000000 0.975588
O O3 0.500000 0.215584 0.000000
O O4 0.317977 0.254733 0.867813
O O5 0.779275 0.500000 0.218566
O O6 0.868370 0.255640 0.259753
O O7 0.801543 0.300129 0.375997
O O8 0.500000 0.255018 0.500000
O O9 0.593082 0.500000 0.611146
O O10 0.681712 0.272207 0.620288
O O11 0.611483 0.284337 0.748774
O O12 0.314236 0.500000 0.496826
O O13 0.425133 0.721569 0.636486
O O14 0.231710 0.742004 0.473174
O O15 0.000000 0.171939 0.500000
O O16 0.946929 0.242941 0.625674
O O17 0.046470 0.000000 0.687614
O O18 0.461451 0.500000 0.205723
O O19 0.134012 0.500000 0.444391
#
# Coordination Sequence:
#
# PCOD8059859 Si02
#       7
#     4   4   4   4   4   4   4
#     4  11  23  34  43  60  89 122 151 179 214 255
#     4  10  19  31  47  65  86 114 150 186 214 248
#     4   7  11  21  40  65  88 110 140 179 219 256
#     4   8  13  23  42  68  93 114 140 179 222 257
#     4   9  17  29  44  62  87 117 145 175 216 263
#     4   9  16  28  46  65  86 116 153 185 212 249
#     4   9  16  26  43  67  91 114 143 180 218 255
#
# _framework density 16.181163999999999
#
# number of rings (size 3 to 8) (size 9 to 14) (size 15 to 20)
#    0.000    3.000    0.000    3.857    0.000    4.571 
#    0.000    0.714    0.000    4.714    0.000    1.000 
#    0.000    8.000    0.000    0.000    0.000    0.000 
#
# Total GULP energy -346909.775799 kJ/mol
# GULP energy per Si atom -12389.634850 kJ/mol
# Density = 1.614434 g / cm^3
# Si number density = 16.181164 Si / 1000 Ang^3
#
#
#
# Elastic Constant Matrix: (Units=GPa)
#
#
# Indices 1 2 3 4 5 6 
#
# 1 152.1127 58.7465 55.1874 0.0000 12.8290 0.0000
# 2 58.7465 68.0198 44.1673 0.0000 9.0577 0.0000
# 3 55.1874 44.1673 61.5095 0.0000 11.9694 0.0000
# 4 0.0000 0.0000 0.0000 16.0534 0.0000 4.6070
# 5 12.8290 9.0577 11.9694 0.0000 26.6055 0.0000
# 6 0.0000 0.0000 0.0000 4.6070 0.0000 17.3837
#
#
#
# Elastic Compliance Matrix: (Units=1/GPa)
#
#
# Indices 1 2 3 4 5 6 
#
# 1 0.010824 -0.005689 -0.005466 0.000000 -0.000823 0.000000
# 2 -0.005689 0.030542 -0.016808 0.000000 -0.000093 0.000000
# 3 -0.005466 -0.016808 0.034637 0.000000 -0.007225 0.000000
# 4 0.000000 0.000000 0.000000 0.067420 0.000000 -0.017867
# 5 -0.000823 -0.000093 -0.007225 0.000000 0.041265 0.000000
# 6 0.000000 0.000000 0.000000 -0.017867 0.000000 0.062260
#
#
# Mechanical properties :
#
#
# Convention : Reuss Voigt Hill
#
# Bulk Modulus (GPa) = 49.81137 66.42715 58.11926
# Shear Modulus (GPa) = 16.15169 20.24458 18.19813
#
# Velocity S-wave (km/s) = 3.16282 3.54095 3.35722
# Velocity P-wave (km/s) = 6.64743 7.60652 7.14309
#
# Compressibility (1/GPa) = 0.02007574
#
# Stress axis : x y z
#
# Youngs Moduli (GPa) = 92.38896 32.74212 28.87121
#
# Poissons Ratio (x) = 0.18629 0.15780
# Poissons Ratio (y) = 0.52564 0.48527
# Poissons Ratio (z) = 0.50497 0.55033
#
# Static dielectric constant tensor:
#      x y z
#    x 3.591290 0.000000 0.021780 
#    y 0.000000 2.890650 0.000000 
#    z 0.021780 0.000000 2.785450 
# 
# 
# High freq. dielectric constant tensor:
#      x y z
#    x 1.634050 0.000000 0.005010 
#    y 0.000000 1.602450 0.000000 
#    z 0.005010 0.000000 1.581520 
# 
# From -- ./inp_files/54670.got.cif
#   From: 2010.06.25/outbox.cif.g09.slc.cpg/sg10_28_cif.got.tgz:54670.got - 2010.06.27 22:07:45.
