data_PCOD8059882
_publ_section_title
;
Structure prediction by ZEFSAII (Michael W. Deem and Ramdas Pophale) SiO2 
 PCOD8059882
Probable space group: P 2/M
;
_chemical_formula_sum "Si O2"
_cell_formula_units_Z 28
_cell_length_a 12.560096
_cell_length_b 31.291736
_cell_length_c 5.128932
_cell_angle_alpha 90.000000
_cell_angle_beta 46.815349
_cell_angle_gamma 90.000000
_cell_volume 1469.831735
_symmetry_space_group_name_H-M "P 2/M"
_symmetry_group_IT_number 10
_symmetry_cell_setting 'monoclinic'
loop_
_space_group_symop_operation_xyz
x,y,z
-x,y,-z
-x,-y,-z
x,-y,z
loop_
_atom_site_type_symbol
_atom_site_label
_atom_site_fract_x
_atom_site_fract_y
_atom_site_fract_z
Si Si1 0.673158 0.256561 0.194613
Si Si2 0.325894 0.597861 0.299796
Si Si3 0.594411 0.047762 0.585153
Si Si4 0.674131 0.548131 0.201359
Si Si5 0.166867 0.117143 0.743703
Si Si6 0.833594 0.827961 0.762323
Si Si7 0.673754 0.306143 0.698500
O O1 0.500000 0.253735 0.500000
O O2 0.732449 0.274861 0.370640
O O3 0.729348 0.210379 0.019126
O O4 0.730986 0.289044 0.878163
O O5 0.265589 0.569145 0.636059
O O6 0.265733 0.645899 0.439293
O O7 0.500000 0.598528 0.000000
O O8 0.265888 0.576753 0.136105
O O9 0.500000 0.066606 0.500000
O O10 0.732605 0.075843 0.435920
O O11 0.648481 0.000000 0.418638
O O12 0.500000 0.046056 0.000000
O O13 0.500000 0.547572 0.500000
O O14 0.734607 0.500000 0.073567
O O15 0.204714 0.152685 0.458561
O O16 0.194598 0.135406 0.982413
O O17 0.000000 0.101931 0.000000
O O18 0.000000 0.811544 0.500000
O O19 0.500000 0.306640 0.000000
#
# Coordination Sequence:
#
# PCOD8059882 Si02
#       7
#     4   4   4   4   4   4   4
#     4  10  19  31  47  68  92 120 159 201 240 289
#     4   9  15  23  34  48  71 104 141 185 231 270
#     4  10  21  37  57  83 113 142 174 215 260 302
#     4   9  15  21  30  46  69 101 144 186 222 270
#     4  10  21  37  56  78 105 139 176 211 250 305
#     4  10  21  36  53  75 103 133 168 209 254 301
#     4   9  17  28  42  61  85 114 153 198 239 285
#
# _framework density 19.049800999999999
#
# number of rings (size 3 to 8) (size 9 to 14) (size 15 to 20)
#    0.000    2.429    0.000    3.000    0.000    7.143 
#    0.000    0.000    0.000    5.143    0.000    0.000 
#    0.000    0.000    0.000    0.000    0.000   50.000 
#
# Total GULP energy -347099.874213 kJ/mol
# GULP energy per Si atom -12396.424079 kJ/mol
# Density = 1.900644 g / cm^3
# Si number density = 19.049801 Si / 1000 Ang^3
#
#
#
# Elastic Constant Matrix: (Units=GPa)
#
#
# Indices 1 2 3 4 5 6 
#
# 1 62.4374 34.7232 39.0590 0.0000 22.8102 0.0000
# 2 34.7232 113.4358 44.1416 0.0000 -4.3148 0.0000
# 3 39.0590 44.1416 73.8909 0.0000 25.5061 0.0000
# 4 0.0000 0.0000 0.0000 19.4851 0.0000 16.4752
# 5 22.8102 -4.3148 25.5061 0.0000 27.7586 0.0000
# 6 0.0000 0.0000 0.0000 16.4752 0.0000 14.1121
#
#
#
# Elastic Compliance Matrix: (Units=1/GPa)
#
#
# Indices 1 2 3 4 5 6 
#
# 1 0.032679 -0.010264 -0.001937 0.000000 -0.026669 0.000000
# 2 -0.010264 0.018172 -0.013644 0.000000 0.023796 0.000000
# 3 -0.001937 -0.013644 0.033524 0.000000 -0.031333 0.000000
# 4 0.000000 0.000000 0.000000 3.983598 0.000000 -4.650671
# 5 -0.026669 0.023796 -0.031333 0.000000 0.090428 0.000000
# 6 0.000000 0.000000 0.000000 -4.650671 0.000000 5.500311
#
#
# Mechanical properties :
#
#
# Convention : Reuss Voigt Hill
#
# Bulk Modulus (GPa) = 30.59542 53.95687 42.27615
# Shear Modulus (GPa) = 0.51433 21.06050 10.78742
#
# Velocity S-wave (km/s) = 0.52017 3.32859 2.38223
# Velocity P-wave (km/s) = 4.05665 6.56949 5.45961
#
# Compressibility (1/GPa) = 0.03268463
#
# Stress axis : x y z
#
# Youngs Moduli (GPa) = 30.60111 55.03029 29.82970
#
# Poissons Ratio (x) = 0.56482 0.05778
# Poissons Ratio (y) = 0.31408 0.40700
# Poissons Ratio (z) = 0.05927 0.75084
#
# Static dielectric constant tensor:
#      x y z
#    x 3.413400 0.000000 0.571770 
#    y 0.000000 3.566680 0.000000 
#    z 0.571770 0.000000 3.200080 
# 
# 
# High freq. dielectric constant tensor:
#      x y z
#    x 1.718380 0.000000 0.044060 
#    y 0.000000 1.747970 0.000000 
#    z 0.044060 0.000000 1.724210 
# 
# From -- ./inp_files/10251.got.cif
#   From: 2010.06.25/outbox.cif.g09.slc.cpg/sg10_6_cif.got.tgz:10251.got - 2010.06.27 22:07:45.
