data_PCOD8059043
_publ_section_title
;
Structure prediction by ZEFSAII (Michael W. Deem and Ramdas Pophale) SiO2 
 PCOD8059043
Probable space group: P 2/M
;
_chemical_formula_sum "Si O2"
_cell_formula_units_Z 32
_cell_length_a 9.136538
_cell_length_b 13.073035
_cell_length_c 28.790279
_cell_angle_alpha 90.000000
_cell_angle_beta 28.366786
_cell_angle_gamma 90.000000
_cell_volume 1633.811600
_symmetry_space_group_name_H-M "P 2/M"
_symmetry_group_IT_number 10
_symmetry_cell_setting 'monoclinic'
loop_
_space_group_symop_operation_xyz
x,y,z
-x,y,-z
-x,-y,-z
x,-y,z
loop_
_atom_site_type_symbol
_atom_site_label
_atom_site_fract_x
_atom_site_fract_y
_atom_site_fract_z
Si Si1 0.796314 0.704562 0.744128
Si Si2 0.111356 0.618824 0.569488
Si Si3 0.253077 0.117877 0.175188
Si Si4 0.794813 0.884887 0.220124
Si Si5 0.446319 0.308448 0.322677
Si Si6 0.213894 0.382683 0.859689
Si Si7 0.727945 0.779107 0.976343
Si Si8 0.321355 0.385048 0.648635
O O1 0.791311 0.821156 0.763913
O O2 0.456753 0.661473 0.829386
O O3 0.006423 0.695285 0.639450
O O4 0.965704 0.637232 0.736399
O O5 0.046942 0.500000 0.601443
O O6 0.468113 0.634048 0.456233
O O7 0.905368 0.653113 0.582527
O O8 0.954897 0.129804 0.225633
O O9 0.311535 0.000000 0.171612
O O10 0.551852 0.162725 0.066271
O O11 0.497420 0.811728 0.296810
O O12 0.037750 0.859985 0.111725
O O13 0.676765 0.000000 0.246675
O O14 0.650001 0.375594 0.230280
O O15 0.566889 0.315697 0.340957
O O16 0.140189 0.500000 0.892338
O O17 0.900206 0.318105 0.950702
O O18 0.500000 0.737408 0.000000
O O19 0.360773 0.500000 0.654714
#
# Coordination Sequence:
#
# PCOD8059043 Si02
#       8
#     4   4   4   4   4   4   4   4
#     4  11  21  36  54  80 111 148 182 221 274 328
#     4  10  21  36  54  79 117 150 177 225 276 320
#     4  10  20  37  59  81 107 141 185 234 275 317
#     4   9  17  33  58  84 111 142 179 230 283 321
#     4  10  18  33  55  85 110 143 186 227 271 319
#     4  10  21  37  54  78 121 154 173 218 276 327
#     4   9  19  36  59  85 109 141 185 225 271 327
#     4  11  20  33  57  84 108 143 190 226 266 327
#
# _framework density 19.586102
#
# number of rings (size 3 to 8) (size 9 to 14) (size 15 to 20)
#    0.000    2.000    1.250    4.125    0.000    4.250 
#    0.000    9.375    0.000    4.500    0.000    0.000 
#    0.000    0.000    0.000    0.000    0.000    0.000 
#
# Total GULP energy -396720.317947 kJ/mol
# GULP energy per Si atom -12397.509936 kJ/mol
# Density = 1.954152 g / cm^3
# Si number density = 19.586102 Si / 1000 Ang^3
#
#
#
# Elastic Constant Matrix: (Units=GPa)
#
#
# Indices 1 2 3 4 5 6 
#
# 1 81.0858 46.7571 26.7187 0.0000 2.3578 0.0000
# 2 46.7571 147.7959 53.4938 0.0000 -4.5780 0.0000
# 3 26.7187 53.4938 59.5296 0.0000 -7.5500 0.0000
# 4 0.0000 0.0000 0.0000 24.0755 0.0000 0.2469
# 5 2.3578 -4.5780 -7.5500 0.0000 29.7214 0.0000
# 6 0.0000 0.0000 0.0000 0.2469 0.0000 33.8234
#
#
#
# Elastic Compliance Matrix: (Units=1/GPa)
#
#
# Indices 1 2 3 4 5 6 
#
# 1 0.015886 -0.003559 -0.004300 0.000000 -0.002901 0.000000
# 2 -0.003559 0.010842 -0.008160 0.000000 -0.000121 0.000000
# 3 -0.004300 -0.008160 0.026809 0.000000 0.005894 0.000000
# 4 0.000000 0.000000 0.000000 0.041539 0.000000 -0.000303
# 5 -0.002901 -0.000121 0.005894 0.000000 0.035355 0.000000
# 6 0.000000 0.000000 0.000000 -0.000303 0.000000 0.029568
#
#
# Mechanical properties :
#
#
# Convention : Reuss Voigt Hill
#
# Bulk Modulus (GPa) = 46.51575 60.26115 53.38845
# Shear Modulus (GPa) = 25.09999 28.28684 26.69341
#
# Velocity S-wave (km/s) = 3.58372 3.80443 3.69572
# Velocity P-wave (km/s) = 6.39726 7.08042 6.74749
#
# Compressibility (1/GPa) = 0.02149810
#
# Stress axis : x y z
#
# Youngs Moduli (GPa) = 62.94759 92.23330 37.30127
#
# Poissons Ratio (x) = 0.32830 0.16038
# Poissons Ratio (y) = 0.22406 0.30440
# Poissons Ratio (z) = 0.27064 0.75267
#
# Static dielectric constant tensor:
#      x y z
#    x 3.643940 0.000000 -0.168100 
#    y 0.000000 3.507190 0.000000 
#    z -0.168100 0.000000 3.477110 
# 
# 
# High freq. dielectric constant tensor:
#      x y z
#    x 1.768000 0.000000 -0.006010 
#    y 0.000000 1.751560 0.000000 
#    z -0.006010 0.000000 1.746230 
# 
# From -- ./inp_files/94654.got.cif
#   From: 2010.06.25/outbox.cif.g09.slc.cpg/sg10_48_cif.got.tgz:94654.got - 2010.06.27 22:07:45.
