data_PCOD8059910
_publ_section_title
;
Structure prediction by ZEFSAII (Michael W. Deem and Ramdas Pophale) SiO2 
 PCOD8059910
Probable space group: P 2/M
;
_chemical_formula_sum "Si O2"
_cell_formula_units_Z 28
_cell_length_a 21.809844
_cell_length_b 8.623335
_cell_length_c 16.697151
_cell_angle_alpha 90.000000
_cell_angle_beta 148.456037
_cell_angle_gamma 90.000000
_cell_volume 1642.852654
_symmetry_space_group_name_H-M "P 2/M"
_symmetry_group_IT_number 10
_symmetry_cell_setting 'monoclinic'
loop_
_space_group_symop_operation_xyz
x,y,z
-x,y,-z
-x,-y,-z
x,-y,z
loop_
_atom_site_type_symbol
_atom_site_label
_atom_site_fract_x
_atom_site_fract_y
_atom_site_fract_z
Si Si1 0.656751 0.817203 0.619771
Si Si2 0.094227 0.815654 0.168305
Si Si3 0.985674 0.816305 0.750115
Si Si4 0.854660 0.678669 0.286952
Si Si5 0.095448 0.179766 0.506195
Si Si6 0.573394 0.317527 0.690123
Si Si7 0.770015 0.679259 0.027003
O O1 0.776497 0.760205 0.712310
O O2 0.549437 0.773820 0.441564
O O3 0.643333 0.726346 0.687814
O O4 0.657039 0.000000 0.637360
O O5 0.064595 0.747059 0.223088
O O6 0.087795 0.000000 0.163133
O O7 0.000000 0.749837 0.000000
O O8 0.119085 0.765461 0.886697
O O9 0.900071 0.762016 0.581490
O O10 0.986785 0.000000 0.753985
O O11 0.894398 0.500000 0.331160
O O12 0.815488 0.728457 0.333985
O O13 0.757365 0.706839 0.109371
O O14 0.962911 0.788729 0.386151
O O15 0.126392 0.000000 0.546757
O O16 0.548011 0.500000 0.662489
O O17 0.650830 0.263148 0.852317
O O18 0.789871 0.500000 0.029464
#
# Coordination Sequence:
#
# PCOD8059910 Si02
#       7
#     4   4   4   4   4   4   4
#     4  10  19  31  48  67  85 110 147 179 206 250
#     4   9  17  29  45  65  88 113 141 174 210 247
#     4   9  17  28  43  63  88 117 144 174 212 253
#     4   9  15  24  38  56  81 111 141 171 206 248
#     4   9  15  23  36  57  84 111 139 169 207 252
#     4  10  19  32  47  63  88 115 140 176 220 254
#     4   9  18  29  42  63  88 115 144 175 212 254
#
# _framework density 17.043524999999999
#
# number of rings (size 3 to 8) (size 9 to 14) (size 15 to 20)
#    0.000    2.714    0.000    4.286    0.000    3.429 
#    0.000    1.429    0.000    3.857    0.000    1.000 
#    0.000    8.000    0.000    0.000    0.000    0.000 
#
# Total GULP energy -346925.879298 kJ/mol
# GULP energy per Si atom -12390.209975 kJ/mol
# Density = 1.700473 g / cm^3
# Si number density = 17.043525 Si / 1000 Ang^3
#
#
#
# Elastic Constant Matrix: (Units=GPa)
#
#
# Indices 1 2 3 4 5 6 
#
# 1 98.4872 12.3396 74.6216 0.0000 -18.3855 0.0000
# 2 12.3396 20.7277 17.1541 0.0000 -3.7460 0.0000
# 3 74.6216 17.1541 141.4892 0.0000 -27.2318 0.0000
# 4 0.0000 0.0000 0.0000 20.2967 0.0000 -7.4618
# 5 -18.3855 -3.7460 -27.2318 0.0000 31.7947 0.0000
# 6 0.0000 0.0000 0.0000 -7.4618 0.0000 6.3073
#
#
#
# Elastic Compliance Matrix: (Units=1/GPa)
#
#
# Indices 1 2 3 4 5 6 
#
# 1 0.017252 -0.002985 -0.008243 0.000000 0.002564 0.000000
# 2 -0.002985 0.054163 -0.004905 0.000000 0.000454 0.000000
# 3 -0.008243 -0.004905 0.013149 0.000000 0.005917 0.000000
# 4 0.000000 0.000000 0.000000 0.087190 0.000000 0.103148
# 5 0.002564 0.000454 0.005917 0.000000 0.038056 0.000000
# 6 0.000000 0.000000 0.000000 0.103148 0.000000 0.280573
#
#
# Mechanical properties :
#
#
# Convention : Reuss Voigt Hill
#
# Bulk Modulus (GPa) = 19.12144 52.10385 35.61265
# Shear Modulus (GPa) = 9.25785 22.11899 15.68842
#
# Velocity S-wave (km/s) = 2.33317 3.60640 3.03725
# Velocity P-wave (km/s) = 4.30137 6.92668 5.76544
#
# Compressibility (1/GPa) = 0.05229730
#
# Stress axis : x y z
#
# Youngs Moduli (GPa) = 57.96395 18.46275 76.05272
#
# Poissons Ratio (x) = 0.05511 0.62693
# Poissons Ratio (y) = 0.17302 0.37304
# Poissons Ratio (z) = 0.47782 0.09056
#
# Static dielectric constant tensor:
#      x y z
#    x 3.403910 0.000000 -0.608650 
#    y 0.000000 3.071500 0.000000 
#    z -0.608650 0.000000 3.587580 
# 
# 
# High freq. dielectric constant tensor:
#      x y z
#    x 1.626750 0.000000 -0.040440 
#    y 0.000000 1.651440 0.000000 
#    z -0.040440 0.000000 1.653780 
# 
# From -- ./inp_files/79871.got.cif
#   From: 2010.06.25/outbox.cif.g09.slc.cpg/sg10_40_cif.got.tgz:79871.got - 2010.06.27 22:07:45.
