data_PCOD8059104
_publ_section_title
;
Structure prediction by ZEFSAII (Michael W. Deem and Ramdas Pophale) SiO2 
 PCOD8059104
Probable space group: P 2/M
;
_chemical_formula_sum "Si O2"
_cell_formula_units_Z 32
_cell_length_a 13.546150
_cell_length_b 14.361267
_cell_length_c 12.004343
_cell_angle_alpha 90.000000
_cell_angle_beta 134.856925
_cell_angle_gamma 90.000000
_cell_volume 1655.441435
_symmetry_space_group_name_H-M "P 2/M"
_symmetry_group_IT_number 10
_symmetry_cell_setting 'monoclinic'
loop_
_space_group_symop_operation_xyz
x,y,z
-x,y,-z
-x,-y,-z
x,-y,z
loop_
_atom_site_type_symbol
_atom_site_label
_atom_site_fract_x
_atom_site_fract_y
_atom_site_fract_z
Si Si1 0.840292 0.755032 0.409782
Si Si2 0.849408 0.607167 0.842411
Si Si3 0.660796 0.603550 0.904587
Si Si4 0.343634 0.896517 0.329144
Si Si5 0.338965 0.395586 0.853253
Si Si6 0.241048 0.243868 0.404099
Si Si7 0.611795 0.890829 0.182349
Si Si8 0.482042 0.779474 0.272311
O O1 0.749507 0.665076 0.303770
O O2 0.840236 0.764866 0.543804
O O3 0.762598 0.841514 0.286519
O O4 0.000000 0.748421 0.500000
O O5 0.843816 0.500000 0.800168
O O6 0.756762 0.625950 0.876681
O O7 0.809200 0.666999 0.703761
O O8 0.000000 0.638812 0.000000
O O9 0.592732 0.500000 0.836691
O O10 0.550156 0.686869 0.823261
O O11 0.737626 0.607075 0.086070
O O12 0.500000 0.904176 0.500000
O O13 0.230130 0.852405 0.324249
O O14 0.349224 0.827968 0.225899
O O15 0.290401 0.000000 0.254862
O O16 0.338535 0.500000 0.803923
O O17 0.500000 0.363088 0.000000
O O18 0.406343 0.256982 0.549659
O O19 0.551231 0.858868 0.251829
O O20 0.639097 0.000000 0.203809
O O21 0.500000 0.861343 0.000000
#
# Coordination Sequence:
#
# PCOD8059104 Si02
#       8
#     4   4   4   4   4   4   4   4
#     4  11  24  38  58  88 120 155 198 245 300 351
#     4  10  22  38  55  78 110 154 197 233 280 342
#     4  10  20  34  58  86 115 151 188 234 286 341
#     4   9  17  31  53  80 107 138 176 225 283 341
#     4  10  21  39  60  85 119 160 201 241 292 352
#     4  10  21  36  54  81 111 147 188 234 291 346
#     4  10  21  39  62  87 117 156 201 245 295 354
#     4  10  18  33  58  87 118 142 184 237 292 345
#
# _framework density 19.330190999999999
#
# number of rings (size 3 to 8) (size 9 to 14) (size 15 to 20)
#    0.000    2.000    1.250    3.000    1.750    4.500 
#    0.000    1.250    0.000    0.375    0.000    0.000 
#    0.000    0.000    0.000    0.000    0.000    0.000 
#
# Total GULP energy -396495.418084 kJ/mol
# GULP energy per Si atom -12390.481815 kJ/mol
# Density = 1.928619 g / cm^3
# Si number density = 19.330191 Si / 1000 Ang^3
#
#
#
# Elastic Constant Matrix: (Units=GPa)
#
#
# Indices 1 2 3 4 5 6 
#
# 1 106.8602 43.8516 42.9174 0.0000 -0.5906 0.0000
# 2 43.8516 126.3177 50.7868 0.0000 1.1454 0.0000
# 3 42.9174 50.7868 82.6705 0.0000 2.2331 0.0000
# 4 0.0000 0.0000 0.0000 19.7283 0.0000 -12.3432
# 5 -0.5906 1.1454 2.2331 0.0000 23.8158 0.0000
# 6 0.0000 0.0000 0.0000 -12.3432 0.0000 17.4752
#
#
#
# Elastic Compliance Matrix: (Units=1/GPa)
#
#
# Indices 1 2 3 4 5 6 
#
# 1 0.012309 -0.002261 -0.005025 0.000000 0.000885 0.000000
# 2 -0.002261 0.010929 -0.005539 0.000000 -0.000062 0.000000
# 3 -0.005025 -0.005539 0.018150 0.000000 -0.001560 0.000000
# 4 0.000000 0.000000 0.000000 0.090827 0.000000 0.064153
# 5 0.000885 -0.000062 -0.001560 0.000000 0.042160 0.000000
# 6 0.000000 0.000000 0.000000 0.064153 0.000000 0.102537
#
#
# Mechanical properties :
#
#
# Convention : Reuss Voigt Hill
#
# Bulk Modulus (GPa) = 63.53857 65.66222 64.60039
# Shear Modulus (GPa) = 16.24402 24.09002 20.16702
#
# Velocity S-wave (km/s) = 2.90201 3.53404 3.23351
# Velocity P-wave (km/s) = 6.64608 7.12005 6.88714
#
# Compressibility (1/GPa) = 0.01573847
#
# Stress axis : x y z
#
# Youngs Moduli (GPa) = 81.24260 91.50203 55.09782
#
# Poissons Ratio (x) = 0.20686 0.27687
# Poissons Ratio (y) = 0.18367 0.30516
# Poissons Ratio (z) = 0.40825 0.50679
#
# Static dielectric constant tensor:
#      x y z
#    x 3.529240 0.000000 -0.179730 
#    y 0.000000 3.696910 0.000000 
#    z -0.179730 0.000000 3.383300 
# 
# 
# High freq. dielectric constant tensor:
#      x y z
#    x 1.749410 0.000000 -0.026760 
#    y 0.000000 1.765220 0.000000 
#    z -0.026760 0.000000 1.724740 
# 
# From -- ./inp_files/51657.got.cif
#   From: 2010.06.25/outbox.cif.g09.slc.cpg/sg10_26_cif.got.tgz:51657.got - 2010.06.27 22:07:45.
