data_PCOD8059109
_publ_section_title
;
Structure prediction by ZEFSAII (Michael W. Deem and Ramdas Pophale) SiO2 
 PCOD8059109
Probable space group: P 2/M
;
_chemical_formula_sum "Si O2"
_cell_formula_units_Z 32
_cell_length_a 19.911365
_cell_length_b 9.301465
_cell_length_c 24.832831
_cell_angle_alpha 90.000000
_cell_angle_beta 156.580997
_cell_angle_gamma 90.000000
_cell_volume 1827.946956
_symmetry_space_group_name_H-M "P 2/M"
_symmetry_group_IT_number 10
_symmetry_cell_setting 'monoclinic'
loop_
_space_group_symop_operation_xyz
x,y,z
-x,y,-z
-x,-y,-z
x,-y,z
loop_
_atom_site_type_symbol
_atom_site_label
_atom_site_fract_x
_atom_site_fract_y
_atom_site_fract_z
Si Si1 0.475682 0.168387 0.309216
Si Si2 0.310340 0.668647 0.847845
Si Si3 0.807035 0.331552 0.844023
Si Si4 0.021888 0.167712 0.690117
Si Si5 0.192605 0.669327 0.644482
Si Si6 0.215869 0.168630 0.394358
Si Si7 0.693260 0.832847 0.655305
Si Si8 0.289455 0.164901 0.615277
O O1 0.304534 0.258207 0.191256
O O2 0.608496 0.227624 0.451601
O O3 0.549806 0.198129 0.304366
O O4 0.436210 0.000000 0.288369
O O5 0.280820 0.500000 0.832481
O O6 0.191362 0.745581 0.803477
O O7 0.268700 0.720455 0.757046
O O8 0.500000 0.714892 0.000000
O O9 0.768252 0.500000 0.813559
O O10 0.763989 0.264517 0.754590
O O11 0.000000 0.299210 0.000000
O O12 0.947251 0.224442 0.692547
O O13 0.883232 0.201999 0.542700
O O14 0.066616 0.000000 0.724803
O O15 0.204313 0.500000 0.645395
O O16 0.303427 0.739683 0.678879
O O17 0.000000 0.723631 0.500000
O O18 0.198443 0.205337 0.318583
O O19 0.226311 0.000000 0.413094
O O20 0.500000 0.796517 0.500000
O O21 0.712316 0.000000 0.685358
O O22 0.290411 0.000000 0.633828
#
# Coordination Sequence:
#
# PCOD8059109 Si02
#       8
#     4   4   4   4   4   4   4   4
#     4   9  17  34  56  78 104 135 174 215 260 314
#     4  10  21  36  51  70 101 138 172 207 251 304
#     4  11  24  38  51  75 113 148 177 215 262 312
#     4   9  17  31  52  77 105 133 163 207 259 306
#     4  10  19  32  51  75 102 134 174 213 248 301
#     4   8  15  30  53  81 106 127 162 215 265 303
#     4  10  18  33  59  83 104 136 177 220 263 311
#     4   9  18  31  53  82 106 129 165 219 266 301
#
# _framework density 17.505977999999999
#
# number of rings (size 3 to 8) (size 9 to 14) (size 15 to 20)
#    0.000    2.500    2.500    1.875    0.000    2.750 
#    0.000    3.750    0.000    6.000    0.000    0.000 
#    0.000    0.000    0.000    0.000    0.000    0.000 
#
# Total GULP energy -396764.409167 kJ/mol
# GULP energy per Si atom -12398.887786 kJ/mol
# Density = 1.746613 g / cm^3
# Si number density = 17.505978 Si / 1000 Ang^3
#
#
#
# Elastic Constant Matrix: (Units=GPa)
#
#
# Indices 1 2 3 4 5 6 
#
# 1 136.4847 54.6052 68.4687 0.0000 15.5245 0.0000
# 2 54.6052 58.5844 50.9463 0.0000 10.0889 0.0000
# 3 68.4687 50.9463 107.9185 0.0000 12.1456 0.0000
# 4 0.0000 0.0000 0.0000 22.8684 0.0000 -0.0333
# 5 15.5245 10.0889 12.1456 0.0000 27.7388 0.0000
# 6 0.0000 0.0000 0.0000 -0.0333 0.0000 10.7741
#
#
#
# Elastic Compliance Matrix: (Units=1/GPa)
#
#
# Indices 1 2 3 4 5 6 
#
# 1 0.012871 -0.007990 -0.004113 0.000000 -0.002496 0.000000
# 2 -0.007990 0.034533 -0.010858 0.000000 -0.003334 0.000000
# 3 -0.004113 -0.010858 0.017143 0.000000 -0.001255 0.000000
# 4 0.000000 0.000000 0.000000 0.043729 0.000000 0.000135
# 5 -0.002496 -0.003334 -0.001255 0.000000 0.039210 0.000000
# 6 0.000000 0.000000 0.000000 0.000135 0.000000 0.092815
#
#
# Mechanical properties :
#
#
# Convention : Reuss Voigt Hill
#
# Bulk Modulus (GPa) = 53.69156 72.33645 63.01400
# Shear Modulus (GPa) = 17.09807 20.87409 18.98608
#
# Velocity S-wave (km/s) = 3.12861 3.45686 3.29682
# Velocity P-wave (km/s) = 6.61724 7.57257 7.11097
#
# Compressibility (1/GPa) = 0.01862490
#
# Stress axis : x y z
#
# Youngs Moduli (GPa) = 77.69588 28.95776 58.33338
#
# Poissons Ratio (x) = 0.23137 0.23992
# Poissons Ratio (y) = 0.62078 0.63339
# Poissons Ratio (z) = 0.31956 0.31442
#
# Static dielectric constant tensor:
#      x y z
#    x 3.479500 0.000000 0.085210 
#    y 0.000000 3.030200 0.000000 
#    z 0.085210 0.000000 3.072020 
# 
# 
# High freq. dielectric constant tensor:
#      x y z
#    x 1.691910 0.000000 0.010550 
#    y 0.000000 1.657960 0.000000 
#    z 0.010550 0.000000 1.652340 
# 
# From -- ./inp_files/93819.got.cif
#   From: 2010.06.25/outbox.cif.g09.slc.cpg/sg10_47_cif.got.tgz:93819.got - 2010.06.27 22:07:45.
