data_PCOD8059818
_publ_section_title
;
Structure prediction by ZEFSAII (Michael W. Deem and Ramdas Pophale) SiO2 
 PCOD8059818
Probable space group: P 2/M
;
_chemical_formula_sum "Si O2"
_cell_formula_units_Z 32
_cell_length_a 20.325829
_cell_length_b 9.054562
_cell_length_c 28.609199
_cell_angle_alpha 90.000000
_cell_angle_beta 21.739132
_cell_angle_gamma 90.000000
_cell_volume 1950.160737
_symmetry_space_group_name_H-M "P 2/M"
_symmetry_group_IT_number 10
_symmetry_cell_setting 'monoclinic'
loop_
_space_group_symop_operation_xyz
x,y,z
-x,y,-z
-x,-y,-z
x,-y,z
loop_
_atom_site_type_symbol
_atom_site_label
_atom_site_fract_x
_atom_site_fract_y
_atom_site_fract_z
Si Si1 0.780464 0.333135 0.555077
Si Si2 0.092619 0.833251 0.388696
Si Si3 0.712537 0.829508 0.062065
Si Si4 0.877965 0.172759 0.217201
Si Si5 0.460050 0.173367 0.725950
Si Si6 0.596837 0.665834 0.776434
Si Si7 0.626571 0.675028 0.309902
Si Si8 0.659273 0.662423 0.431176
O O1 0.803582 0.500000 0.521196
O O2 0.655863 0.242950 0.601879
O O3 0.694479 0.332729 0.662622
O O4 0.972417 0.255185 0.430787
O O5 0.285544 0.756905 0.264120
O O6 0.000000 0.831871 0.500000
O O7 0.116994 0.000000 0.354598
O O8 0.658846 0.790783 0.150434
O O9 0.596823 0.737983 0.101238
O O10 0.674772 0.000000 0.076604
O O11 0.915857 0.786819 0.920495
O O12 0.783352 0.261764 0.238450
O O13 0.804801 0.221535 0.316543
O O14 0.842776 0.000000 0.233267
O O15 0.358223 0.248564 0.750256
O O16 0.480102 0.000000 0.703904
O O17 0.574607 0.500000 0.810021
O O18 0.653285 0.500000 0.287875
O O19 0.431479 0.713149 0.460220
O O20 0.500000 0.651457 0.500000
O O21 0.747759 0.500000 0.377984
#
# Coordination Sequence:
#
# PCOD8059818 Si02
#       8
#     4   4   4   4   4   4   4   4
#     4   9  16  26  39  57  82 110 143 180 215 252
#     4   9  15  23  37  56  79 109 143 177 214 254
#     4   9  19  32  43  60  89 120 146 178 218 257
#     4  10  19  31  48  67  86 111 145 182 219 260
#     4  10  19  31  45  61  86 119 151 179 213 258
#     4   9  16  25  39  58  80 110 146 180 212 251
#     4  10  20  33  47  64  87 113 143 181 223 261
#     4   8  16  31  48  65  85 107 134 176 226 265
#
# _framework density 16.408904
#
# number of rings (size 3 to 8) (size 9 to 14) (size 15 to 20)
#    0.000    2.750    0.000    3.000    0.000    9.250 
#    0.000    2.500    0.000    0.000    0.000    0.000 
#    0.000    1.000    0.000   10.500    0.000    8.875 
#
# Total GULP energy -396732.562076 kJ/mol
# GULP energy per Si atom -12397.892565 kJ/mol
# Density = 1.637156 g / cm^3
# Si number density = 16.408904 Si / 1000 Ang^3
#
#
#
# Elastic Constant Matrix: (Units=GPa)
#
#
# Indices 1 2 3 4 5 6 
#
# 1 21.1937 28.5153 38.4323 0.0000 -14.4532 0.0000
# 2 28.5153 117.6004 59.2109 0.0000 -17.7414 0.0000
# 3 38.4323 59.2109 92.5337 0.0000 -19.4771 0.0000
# 4 0.0000 0.0000 0.0000 22.8270 0.0000 -2.9561
# 5 -14.4532 -17.7414 -19.4771 0.0000 19.5079 0.0000
# 6 0.0000 0.0000 0.0000 -2.9561 0.0000 22.4411
#
#
#
# Elastic Compliance Matrix: (Units=1/GPa)
#
#
# Indices 1 2 3 4 5 6 
#
# 1 0.389987 -0.008726 -0.123118 0.000000 0.158078 0.000000
# 2 -0.008726 0.013032 -0.004533 0.000000 0.000860 0.000000
# 3 -0.123118 -0.004533 0.056688 0.000000 -0.038741 0.000000
# 4 0.000000 0.000000 0.000000 0.044568 0.000000 0.005871
# 5 0.158078 0.000860 -0.038741 0.000000 0.130482 0.000000
# 6 0.000000 0.000000 0.000000 0.005871 0.000000 0.045334
#
#
# Mechanical properties :
#
#
# Convention : Reuss Voigt Hill
#
# Bulk Modulus (GPa) = 5.34895 53.73832 29.54364
# Shear Modulus (GPa) = 4.92532 19.96647 12.44589
#
# Velocity S-wave (km/s) = 1.73440 3.49206 2.75705
# Velocity P-wave (km/s) = 2.69772 7.00570 5.30837
#
# Compressibility (1/GPa) = 0.18695253
#
# Stress axis : x y z
#
# Youngs Moduli (GPa) = 2.56419 76.73691 17.64034
#
# Poissons Ratio (x) = 0.66960 2.17184
# Poissons Ratio (y) = 0.02237 0.07997
# Poissons Ratio (z) = 0.31570 0.34788
#
# Static dielectric constant tensor:
#      x y z
#    x 2.925390 0.000000 -0.103560 
#    y 0.000000 3.267340 0.000000 
#    z -0.103560 0.000000 3.011530 
# 
# 
# High freq. dielectric constant tensor:
#      x y z
#    x 1.598100 0.000000 -0.025030 
#    y 0.000000 1.649080 0.000000 
#    z -0.025030 0.000000 1.603780 
# 
# From -- ./inp_files/54803.got.cif
#   From: 2010.06.25/outbox.cif.g09.slc.cpg/sg10_28_cif.got.tgz:54803.got - 2010.06.27 22:07:45.
