data_PCOD8059566
_publ_section_title
;
Structure prediction by ZEFSAII (Michael W. Deem and Ramdas Pophale) SiO2 
 PCOD8059566
Probable space group: P 2/M
;
_chemical_formula_sum "Si O2"
_cell_formula_units_Z 32
_cell_length_a 18.574578
_cell_length_b 13.305906
_cell_length_c 21.524001
_cell_angle_alpha 90.000000
_cell_angle_beta 20.457438
_cell_angle_gamma 90.000000
_cell_volume 1859.293093
_symmetry_space_group_name_H-M "P 2/M"
_symmetry_group_IT_number 10
_symmetry_cell_setting 'monoclinic'
loop_
_space_group_symop_operation_xyz
x,y,z
-x,y,-z
-x,-y,-z
x,-y,z
loop_
_atom_site_type_symbol
_atom_site_label
_atom_site_fract_x
_atom_site_fract_y
_atom_site_fract_z
Si Si1 0.073748 0.886009 0.506584
Si Si2 0.073603 0.613358 0.107507
Si Si3 0.530364 0.613365 0.288537
Si Si4 0.332744 0.113988 0.086927
Si Si5 0.771496 0.112062 0.409530
Si Si6 0.212855 0.197040 0.058663
Si Si7 0.369794 0.304296 0.543380
Si Si8 0.601633 0.197034 0.669881
O O1 0.253967 0.814897 0.386669
O O2 0.000000 0.842834 0.500000
O O3 0.890862 0.883679 0.703039
O O4 0.157174 0.000000 0.430549
O O5 0.080198 0.500000 0.128386
O O6 0.139250 0.687228 0.110698
O O7 0.844652 0.639503 0.269850
O O8 0.228389 0.625675 0.923898
O O9 0.454526 0.500000 0.336912
O O10 0.501269 0.639514 0.384245
O O11 0.389473 0.687233 0.360590
O O12 0.332032 0.185104 0.027336
O O13 0.393990 0.000000 0.018285
O O14 0.500000 0.157172 0.000000
O O15 0.670182 0.189031 0.443297
O O16 0.676377 0.123861 0.555024
O O17 0.017758 0.123868 0.213642
O O18 0.722169 0.000000 0.425954
O O19 0.368347 0.168026 0.877241
O O20 0.500000 0.306476 0.500000
#
# Coordination Sequence:
#
# PCOD8059566 Si02
#       8
#     4   4   4   4   4   4   4   4
#     4  10  19  30  45  69 101 133 166 205 248 294
#     4   9  19  35  54  76 100 129 165 204 252 302
#     4   9  19  35  54  76 100 129 165 204 252 302
#     4  10  19  30  45  69 101 133 166 205 248 294
#     4  10  20  34  51  72 100 135 173 205 241 298
#     4  10  19  32  51  73  99 131 167 210 250 292
#     4  10  21  35  52  77 105 130 163 207 252 299
#     4  10  19  32  51  73  99 131 167 210 250 292
#
# _framework density 17.210843000000001
#
# number of rings (size 3 to 8) (size 9 to 14) (size 15 to 20)
#    0.000    2.250    1.250    1.875    0.000    4.750 
#    0.000    1.250    0.000    0.750    0.000    7.000 
#    0.000    0.000    0.000    0.000    0.000    0.000 
#
# Total GULP energy -396785.686770 kJ/mol
# GULP energy per Si atom -12399.552712 kJ/mol
# Density = 1.717167 g / cm^3
# Si number density = 17.210843 Si / 1000 Ang^3
#
#
#
# Elastic Constant Matrix: (Units=GPa)
#
#
# Indices 1 2 3 4 5 6 
#
# 1 121.0961 54.9597 42.9663 0.0000 -8.4428 0.0000
# 2 54.9597 114.5319 46.2446 0.0000 -2.0622 0.0000
# 3 42.9663 46.2446 99.1740 0.0000 3.2582 0.0000
# 4 0.0000 0.0000 0.0000 16.3313 0.0000 0.1140
# 5 -8.4428 -2.0622 3.2582 0.0000 24.0332 0.0000
# 6 0.0000 0.0000 0.0000 0.1140 0.0000 15.8629
#
#
#
# Elastic Compliance Matrix: (Units=1/GPa)
#
#
# Indices 1 2 3 4 5 6 
#
# 1 0.011585 -0.004192 -0.003200 0.000000 0.004144 0.000000
# 2 -0.004192 0.012336 -0.003940 0.000000 0.000120 0.000000
# 3 -0.003200 -0.003940 0.013415 0.000000 -0.003281 0.000000
# 4 0.000000 0.000000 0.000000 0.061235 0.000000 -0.000440
# 5 0.004144 0.000120 -0.003281 0.000000 0.043520 0.000000
# 6 0.000000 0.000000 0.000000 -0.000440 0.000000 0.063043
#
#
# Mechanical properties :
#
#
# Convention : Reuss Voigt Hill
#
# Bulk Modulus (GPa) = 68.16387 69.23813 68.70100
# Shear Modulus (GPa) = 21.48785 23.95424 22.72105
#
# Velocity S-wave (km/s) = 3.53725 3.73475 3.63734
# Velocity P-wave (km/s) = 7.50827 7.67558 7.59238
#
# Compressibility (1/GPa) = 0.01467053
#
# Stress axis : x y z
#
# Youngs Moduli (GPa) = 86.31781 81.06400 74.54498
#
# Poissons Ratio (x) = 0.33986 0.23857
# Poissons Ratio (y) = 0.36188 0.29369
# Poissons Ratio (z) = 0.27625 0.31938
#
# Static dielectric constant tensor:
#      x y z
#    x 3.040060 0.000000 0.103300 
#    y 0.000000 3.222350 0.000000 
#    z 0.103300 0.000000 3.474920 
# 
# 
# High freq. dielectric constant tensor:
#      x y z
#    x 1.644960 0.000000 0.009480 
#    y 0.000000 1.651280 0.000000 
#    z 0.009480 0.000000 1.684820 
# 
# From -- ./inp_files/85934.got.cif
#   From: 2010.06.25/outbox.cif.g09.slc.cpg/sg10_43_cif.got.tgz:85934.got - 2010.06.27 22:07:45.
