data_PCOD8059299
_publ_section_title
;
Structure prediction by ZEFSAII (Michael W. Deem and Ramdas Pophale) SiO2 
 PCOD8059299
Probable space group: P 2/M
;
_chemical_formula_sum "Si O2"
_cell_formula_units_Z 28
_cell_length_a 23.930699
_cell_length_b 13.661233
_cell_length_c 17.946968
_cell_angle_alpha 90.000000
_cell_angle_beta 19.188228
_cell_angle_gamma 90.000000
_cell_volume 1928.412253
_symmetry_space_group_name_H-M "P 2/M"
_symmetry_group_IT_number 10
_symmetry_cell_setting 'monoclinic'
loop_
_space_group_symop_operation_xyz
x,y,z
-x,y,-z
-x,-y,-z
x,-y,z
loop_
_atom_site_type_symbol
_atom_site_label
_atom_site_fract_x
_atom_site_fract_y
_atom_site_fract_z
Si Si1 0.760809 0.234005 0.643811
Si Si2 0.172614 0.613390 0.327388
Si Si3 0.069146 0.883706 0.026118
Si Si4 0.259678 0.883710 0.645052
Si Si5 0.928300 0.116012 0.810544
Si Si6 0.429951 0.234004 0.974674
Si Si7 0.594007 0.116008 0.144832
O O1 0.842021 0.336234 0.572032
O O2 0.626372 0.256462 0.747257
O O3 0.902711 0.161273 0.435930
O O4 0.664233 0.183007 0.835765
O O5 0.213682 0.500000 0.286322
O O6 0.000000 0.631294 0.500000
O O7 0.329879 0.663764 0.084178
O O8 0.102562 0.843424 0.066913
O O9 0.885896 0.846157 0.228210
O O10 0.070207 0.000000 0.025875
O O11 0.216173 0.846612 0.783824
O O12 0.441506 0.843417 0.389011
O O13 0.262343 0.000000 0.641582
O O14 0.951448 0.000000 0.781496
O O15 0.769198 0.149233 0.961600
O O16 0.419991 0.161281 0.918658
O O17 0.582673 0.000000 0.150256
#
# Coordination Sequence:
#
# PCOD8059299 Si02
#       7
#     4   4   4   4   4   4   4
#     4   9  19  31  44  62  83 111 143 175 205 245
#     4   9  17  31  50  67  84 105 129 166 214 255
#     4   8  14  25  40  56  76 106 143 179 212 247
#     4   8  14  25  40  56  76 106 143 179 212 247
#     4  10  19  28  40  59  85 116 146 179 214 247
#     4   9  19  31  44  62  83 111 143 175 205 245
#     4  10  19  28  40  59  85 116 146 179 214 247
#
# _framework density 14.519717
#
# number of rings (size 3 to 8) (size 9 to 14) (size 15 to 20)
#    0.857    2.143    0.000    2.571    0.000    4.000 
#    0.000    5.714    0.000    0.000    0.000    0.000 
#    0.000    1.143    0.000   12.000    0.000    5.714 
#
# Total GULP energy -346897.121112 kJ/mol
# GULP energy per Si atom -12389.182897 kJ/mol
# Density = 1.448667 g / cm^3
# Si number density = 14.519717 Si / 1000 Ang^3
#
#
#
# Elastic Constant Matrix: (Units=GPa)
#
#
# Indices 1 2 3 4 5 6 
#
# 1 113.9666 31.6907 58.0460 0.0000 -6.7030 0.0000
# 2 31.6907 30.3325 30.3098 0.0000 -3.7745 0.0000
# 3 58.0460 30.3098 108.7909 0.0000 -7.3072 0.0000
# 4 0.0000 0.0000 0.0000 6.9144 0.0000 -8.8157
# 5 -6.7030 -3.7745 -7.3072 0.0000 25.0926 0.0000
# 6 0.0000 0.0000 0.0000 -8.8157 0.0000 10.1429
#
#
#
# Elastic Compliance Matrix: (Units=1/GPa)
#
#
# Indices 1 2 3 4 5 6 
#
# 1 0.013910 -0.009791 -0.004634 0.000000 0.000894 0.000000
# 2 -0.009791 0.052837 -0.009321 0.000000 0.002618 0.000000
# 3 -0.004634 -0.009321 0.014365 0.000000 0.001543 0.000000
# 4 0.000000 0.000000 0.000000 -1.337567 0.000000 -1.162538
# 5 0.000894 0.002618 0.001543 0.000000 0.040934 0.000000
# 6 0.000000 0.000000 0.000000 -1.162538 0.000000 -0.911821
#
#
# Mechanical properties :
#
#
# Convention : Reuss Voigt Hill
#
# Bulk Modulus (GPa) = 29.74389 54.79812 42.27101
# Shear Modulus (GPa) = -2.41704 17.29955 7.44126
#
# Velocity S-wave (km/s) = -1.29162 3.45549 2.26629
# Velocity P-wave (km/s) = 4.27847 7.33096 6.00201
#
# Compressibility (1/GPa) = 0.03362035
#
# Stress axis : x y z
#
# Youngs Moduli (GPa) = 71.89197 18.92608 69.61465
#
# Poissons Ratio (x) = 0.18531 0.32258
# Poissons Ratio (y) = 0.70390 0.64886
# Poissons Ratio (z) = 0.33313 0.17641
#
# Static dielectric constant tensor:
#      x y z
#    x 2.995150 0.000000 -0.020750 
#    y 0.000000 2.359670 0.000000 
#    z -0.020750 0.000000 2.987420 
# 
# 
# High freq. dielectric constant tensor:
#      x y z
#    x 1.565130 0.000000 -0.009210 
#    y 0.000000 1.495100 0.000000 
#    z -0.009210 0.000000 1.561730 
# 
# From -- ./inp_files/80210.got.cif
#   From: 2010.06.25/outbox.cif.g09.slc.cpg/sg10_41_cif.got.tgz:80210.got - 2010.06.27 22:07:45.
