data_PCOD8059870
_publ_section_title
;
Structure prediction by ZEFSAII (Michael W. Deem and Ramdas Pophale) SiO2 
 PCOD8059870
Probable space group: P 2/M
;
_chemical_formula_sum "Si O2"
_cell_formula_units_Z 28
_cell_length_a 17.456605
_cell_length_b 9.587625
_cell_length_c 18.601902
_cell_angle_alpha 90.000000
_cell_angle_beta 33.106581
_cell_angle_gamma 90.000000
_cell_volume 1700.506997
_symmetry_space_group_name_H-M "P 2/M"
_symmetry_group_IT_number 10
_symmetry_cell_setting 'monoclinic'
loop_
_space_group_symop_operation_xyz
x,y,z
-x,y,-z
-x,-y,-z
x,-y,z
loop_
_atom_site_type_symbol
_atom_site_label
_atom_site_fract_x
_atom_site_fract_y
_atom_site_fract_z
Si Si1 0.043936 0.845212 0.312600
Si Si2 0.848428 0.342992 0.655722
Si Si3 0.419981 0.337469 0.635106
Si Si4 0.094683 0.163212 0.722783
Si Si5 0.386548 0.163186 0.422925
Si Si6 0.742100 0.845232 0.622722
Si Si7 0.101956 0.338087 0.854943
O O1 0.145524 0.735350 0.272225
O O2 0.020121 0.801725 0.248467
O O3 0.894959 0.849252 0.468256
O O4 0.111286 0.000000 0.264312
O O5 0.795092 0.500000 0.710537
O O6 0.736742 0.264733 0.692170
O O7 0.000000 0.342712 0.500000
O O8 0.500000 0.293072 0.500000
O O9 0.440849 0.500000 0.635373
O O10 0.481492 0.250839 0.653267
O O11 0.258297 0.296118 0.754889
O O12 0.248685 0.209434 0.575334
O O13 0.051659 0.250093 0.826231
O O14 0.093016 0.000000 0.742353
O O15 0.367368 0.198049 0.353462
O O16 0.415518 0.000000 0.411278
O O17 0.706250 0.000000 0.680514
O O18 0.093474 0.500000 0.840570
O O19 0.000000 0.299935 0.000000
#
# Coordination Sequence:
#
# PCOD8059870 Si02
#       7
#     4   4   4   4   4   4   4
#     4   8  14  24  37  53  77 111 145 177 215 260
#     4   9  15  21  31  52  80 111 146 179 213 254
#     4  10  19  31  47  67  88 115 152 188 224 269
#     4   9  17  29  45  65  87 113 150 190 226 266
#     4   9  17  28  44  66  88 114 149 188 227 265
#     4   8  14  24  36  52  79 113 144 174 215 263
#     4  10  21  35  48  64  90 121 150 185 231 275
#
# _framework density 16.465678
#
# number of rings (size 3 to 8) (size 9 to 14) (size 15 to 20)
#    0.000    3.000    1.429    2.143    0.000    4.000 
#    0.000    2.857    0.000    0.000    0.000    0.000 
#    0.000    1.143    0.000   12.857    0.000    9.714 
#
# Total GULP energy -347126.702983 kJ/mol
# GULP energy per Si atom -12397.382249 kJ/mol
# Density = 1.642820 g / cm^3
# Si number density = 16.465678 Si / 1000 Ang^3
#
#
#
# Elastic Constant Matrix: (Units=GPa)
#
#
# Indices 1 2 3 4 5 6 
#
# 1 153.6704 90.0564 35.4185 0.0000 5.8127 0.0000
# 2 90.0564 99.8064 25.1699 0.0000 5.8751 0.0000
# 3 35.4185 25.1699 50.6133 0.0000 2.1198 0.0000
# 4 0.0000 0.0000 0.0000 10.4771 0.0000 -0.6904
# 5 5.8127 5.8751 2.1198 0.0000 11.1666 0.0000
# 6 0.0000 0.0000 0.0000 -0.6904 0.0000 26.2822
#
#
#
# Elastic Compliance Matrix: (Units=1/GPa)
#
#
# Indices 1 2 3 4 5 6 
#
# 1 0.014545 -0.012046 -0.004169 0.000000 -0.000442 0.000000
# 2 -0.012046 0.021716 -0.002171 0.000000 -0.004742 0.000000
# 3 -0.004169 -0.002171 0.023805 0.000000 -0.001207 0.000000
# 4 0.000000 0.000000 0.000000 0.095611 0.000000 0.002512
# 5 -0.000442 -0.004742 -0.001207 0.000000 0.092507 0.000000
# 6 0.000000 0.000000 0.000000 0.002512 0.000000 0.038114
#
#
# Mechanical properties :
#
#
# Convention : Reuss Voigt Hill
#
# Bulk Modulus (GPa) = 42.93083 67.26440 55.09761
# Shear Modulus (GPa) = 15.11331 19.81490 17.46411
#
# Velocity S-wave (km/s) = 3.03292 3.47278 3.26028
# Velocity P-wave (km/s) = 6.19632 7.55117 6.90704
#
# Compressibility (1/GPa) = 0.02329329
#
# Stress axis : x y z
#
# Youngs Moduli (GPa) = 68.75369 46.04986 42.00800
#
# Poissons Ratio (x) = 0.55474 0.17513
# Poissons Ratio (y) = 0.82824 0.09118
# Poissons Ratio (z) = 0.28663 0.09995
#
# Static dielectric constant tensor:
#      x y z
#    x 3.283660 0.000000 0.007050 
#    y 0.000000 3.177840 0.000000 
#    z 0.007050 0.000000 2.532170 
# 
# 
# High freq. dielectric constant tensor:
#      x y z
#    x 1.647670 0.000000 0.000790 
#    y 0.000000 1.636610 0.000000 
#    z 0.000790 0.000000 1.561330 
# 
# From -- ./inp_files/38003.got.cif
#   From: 2010.06.25/outbox.cif.g09.slc.cpg/sg10_20_cif.got.tgz:38003.got - 2010.06.27 22:07:45.
