data_PCOD8059996
_publ_section_title
;
Structure prediction by ZEFSAII (Michael W. Deem and Ramdas Pophale) SiO2 
 PCOD8059996
Probable space group: P 2/M
;
_chemical_formula_sum "Si O2"
_cell_formula_units_Z 28
_cell_length_a 15.915423
_cell_length_b 7.700628
_cell_length_c 14.415196
_cell_angle_alpha 90.000000
_cell_angle_beta 61.361042
_cell_angle_gamma 90.000000
_cell_volume 1550.564531
_symmetry_space_group_name_H-M "P 2/M"
_symmetry_group_IT_number 10
_symmetry_cell_setting 'monoclinic'
loop_
_space_group_symop_operation_xyz
x,y,z
-x,y,-z
-x,-y,-z
x,-y,z
loop_
_atom_site_type_symbol
_atom_site_label
_atom_site_fract_x
_atom_site_fract_y
_atom_site_fract_z
Si Si1 0.634896 0.305991 0.179823
Si Si2 0.252215 0.699976 0.703060
Si Si3 0.589446 0.206548 0.513633
Si Si4 0.121094 0.000000 0.835746
Si Si5 0.435471 0.807258 0.267006
Si Si6 0.227745 0.301721 0.059216
Si Si7 0.896282 0.000000 0.938302
Si Si8 0.599616 0.303297 0.911132
O O1 0.592192 0.500000 0.203988
O O2 0.668647 0.247132 0.263036
O O3 0.549944 0.182204 0.190880
O O4 0.725843 0.295925 0.066210
O O5 0.217291 0.500000 0.732067
O O6 0.307652 0.727654 0.577106
O O7 0.162676 0.828040 0.763581
O O8 0.500000 0.279858 0.500000
O O9 0.584020 0.279009 0.622143
O O10 0.585089 0.000000 0.516603
O O11 0.009503 0.000000 0.875059
O O12 0.141819 0.000000 0.935158
O O13 0.388666 0.703410 0.206279
O O14 0.392517 0.000000 0.285429
O O15 0.194270 0.500000 0.101123
O O16 0.304998 0.224484 0.092190
O O17 0.138221 0.171244 0.099702
O O18 0.596865 0.500000 0.948941
O O19 0.500000 0.213562 0.000000
#
# Coordination Sequence:
#
# PCOD8059996 Si02
#       8
#     4   4   4   2   4   4   2   4
#     4  10  19  31  48  74 111 148 184 222 258 311
#     4  11  22  36  58  80 108 153 188 221 272 327
#     4  10  20  34  51  76 114 151 186 227 264 314
#     4  11  24  40  57  85 113 137 181 232 281 333
#     4  11  22  30  48  79 112 151 190 228 258 309
#     4  10  21  36  55  80 109 149 191 222 264 326
#     4  11  24  38  61  81 109 149 173 228 291 327
#     4  10  20  34  50  73 112 152 186 226 264 312
#
# _framework density 18.057939000000001
#
# number of rings (size 3 to 8) (size 9 to 14) (size 15 to 20)
#    0.000    1.571    5.000    0.429    3.000    2.286 
#    0.000    1.429    0.000    0.000    0.000    2.000 
#    0.000    3.429    0.000    0.000    0.000    0.000 
#
# Total GULP energy -347065.216110 kJ/mol
# GULP energy per Si atom -12395.186290 kJ/mol
# Density = 1.801684 g / cm^3
# Si number density = 18.057939 Si / 1000 Ang^3
#
#
#
# Elastic Constant Matrix: (Units=GPa)
#
#
# Indices 1 2 3 4 5 6 
#
# 1 103.6452 39.7774 41.1144 0.0000 4.9795 0.0000
# 2 39.7774 75.2774 24.5311 0.0000 -8.3500 0.0000
# 3 41.1144 24.5311 80.3503 0.0000 6.5201 0.0000
# 4 0.0000 0.0000 0.0000 17.5498 0.0000 1.7578
# 5 4.9795 -8.3500 6.5201 0.0000 29.5301 0.0000
# 6 0.0000 0.0000 0.0000 1.7578 0.0000 22.0730
#
#
#
# Elastic Compliance Matrix: (Units=1/GPa)
#
#
# Indices 1 2 3 4 5 6 
#
# 1 0.014195 -0.006159 -0.005140 0.000000 -0.003000 0.000000
# 2 -0.006159 0.018272 -0.002984 0.000000 0.006864 0.000000
# 3 -0.005140 -0.002984 0.016276 0.000000 -0.003571 0.000000
# 4 0.000000 0.000000 0.000000 0.057439 0.000000 -0.004574
# 5 -0.003000 0.006864 -0.003571 0.000000 0.037099 0.000000
# 6 0.000000 0.000000 0.000000 -0.004574 0.000000 0.045669
#
#
# Mechanical properties :
#
#
# Convention : Reuss Voigt Hill
#
# Bulk Modulus (GPa) = 49.55797 52.23539 50.89668
# Shear Modulus (GPa) = 22.29744 24.08726 23.19235
#
# Velocity S-wave (km/s) = 3.51774 3.65620 3.58764
# Velocity P-wave (km/s) = 6.63346 6.84201 6.73854
#
# Compressibility (1/GPa) = 0.02017839
#
# Stress axis : x y z
#
# Youngs Moduli (GPa) = 70.44819 54.72751 61.43909
#
# Poissons Ratio (x) = 0.33704 0.31578
# Poissons Ratio (y) = 0.43386 0.18335
# Poissons Ratio (z) = 0.36208 0.16332
#
# Static dielectric constant tensor:
#      x y z
#    x 3.148920 0.000000 0.205510 
#    y 0.000000 3.383950 0.000000 
#    z 0.205510 0.000000 3.203210 
# 
# 
# High freq. dielectric constant tensor:
#      x y z
#    x 1.672680 0.000000 0.020780 
#    y 0.000000 1.701650 0.000000 
#    z 0.020780 0.000000 1.675860 
# 
# From -- ./inp_files/49429.got.cif
#   From: 2010.06.25/outbox.cif.g09.slc.cpg/sg10_25_cif.got.tgz:49429.got - 2010.06.27 22:07:45.
