data_PCOD8059585
_publ_section_title
;
Structure prediction by ZEFSAII (Michael W. Deem and Ramdas Pophale) SiO2 
 PCOD8059585
Probable space group: P 2/M
;
_chemical_formula_sum "Si O2"
_cell_formula_units_Z 32
_cell_length_a 11.147241
_cell_length_b 9.068213
_cell_length_c 20.991898
_cell_angle_alpha 90.000000
_cell_angle_beta 63.099175
_cell_angle_gamma 90.000000
_cell_volume 1892.360625
_symmetry_space_group_name_H-M "P 2/M"
_symmetry_group_IT_number 10
_symmetry_cell_setting 'monoclinic'
loop_
_space_group_symop_operation_xyz
x,y,z
-x,y,-z
-x,-y,-z
x,-y,z
loop_
_atom_site_type_symbol
_atom_site_label
_atom_site_fract_x
_atom_site_fract_y
_atom_site_fract_z
Si Si1 0.584801 0.833997 0.619492
Si Si2 0.487054 0.668932 0.243250
Si Si3 0.794826 0.669209 0.208092
Si Si4 0.283077 0.325993 0.040060
Si Si5 0.724358 0.166813 0.346287
Si Si6 0.476745 0.326599 0.104692
Si Si7 0.345323 0.666549 0.516951
Si Si8 0.989389 0.826702 0.928647
O O1 0.600371 0.760291 0.685021
O O2 0.430670 0.831757 0.635735
O O3 0.672859 0.744347 0.547044
O O4 0.640200 0.000000 0.609428
O O5 0.439487 0.500000 0.259136
O O6 0.644030 0.682467 0.219572
O O7 0.459594 0.738410 0.179864
O O8 0.840253 0.500000 0.203744
O O9 0.810902 0.745737 0.273056
O O10 0.885724 0.751111 0.135317
O O11 0.254737 0.500000 0.039734
O O12 0.346128 0.289153 0.094071
O O13 0.147202 0.235668 0.067642
O O14 0.387172 0.267295 0.961426
O O15 0.742991 0.246253 0.409798
O O16 0.778433 0.000000 0.338360
O O17 0.496341 0.500000 0.105339
O O18 0.500000 0.667462 0.500000
O O19 0.291157 0.500000 0.525151
O O20 0.995489 0.000000 0.915045
O O21 0.000000 0.786180 0.000000
#
# Coordination Sequence:
#
# PCOD8059585 Si02
#       8
#     4   4   4   4   4   4   4   4
#     4   9  16  24  35  55  83 115 148 180 218 263
#     4   9  16  27  43  64  89 116 147 183 223 265
#     4  10  19  30  46  66  87 116 154 188 218 262
#     4   9  17  32  52  70  87 112 148 185 222 267
#     4   9  16  26  39  56  83 116 146 180 222 264
#     4   8  15  29  50  71  89 111 143 185 227 265
#     4   9  15  23  36  54  78 111 150 186 217 255
#     4  11  23  35  46  64  92 121 148 183 226 266
#
# _framework density 16.910095999999999
#
# number of rings (size 3 to 8) (size 9 to 14) (size 15 to 20)
#    0.000    2.750    0.000    3.375    0.000    7.000 
#    0.000    2.500    0.000    0.000    0.000    0.000 
#    0.000    1.000    0.000   10.750    0.000    7.875 
#
# Total GULP energy -396746.868683 kJ/mol
# GULP energy per Si atom -12398.339646 kJ/mol
# Density = 1.687161 g / cm^3
# Si number density = 16.910096 Si / 1000 Ang^3
#
#
#
# Elastic Constant Matrix: (Units=GPa)
#
#
# Indices 1 2 3 4 5 6 
#
# 1 33.6345 24.4486 28.3813 0.0000 14.9109 0.0000
# 2 24.4486 114.1384 71.5662 0.0000 15.9579 0.0000
# 3 28.3813 71.5662 139.0902 0.0000 36.8437 0.0000
# 4 0.0000 0.0000 0.0000 30.6371 0.0000 2.9264
# 5 14.9109 15.9579 36.8437 0.0000 25.8408 0.0000
# 6 0.0000 0.0000 0.0000 2.9264 0.0000 14.1920
#
#
#
# Elastic Compliance Matrix: (Units=1/GPa)
#
#
# Indices 1 2 3 4 5 6 
#
# 1 0.043854 -0.006413 0.000008 0.000000 -0.021357 0.000000
# 2 -0.006413 0.013966 -0.007348 0.000000 0.005553 0.000000
# 3 0.000008 -0.007348 0.015696 0.000000 -0.017846 0.000000
# 4 0.000000 0.000000 0.000000 0.033296 0.000000 -0.006866
# 5 -0.021357 0.005553 -0.017846 0.000000 0.073038 0.000000
# 6 0.000000 0.000000 0.000000 -0.006866 0.000000 0.071878
#
#
# Mechanical properties :
#
#
# Convention : Reuss Voigt Hill
#
# Bulk Modulus (GPa) = 21.73429 59.51725 40.62577
# Shear Modulus (GPa) = 16.97389 24.96511 20.96950
#
# Velocity S-wave (km/s) = 3.17167 3.84649 3.52527
# Velocity P-wave (km/s) = 5.12771 7.41620 6.37548
#
# Compressibility (1/GPa) = 0.04601025
#
# Stress axis : x y z
#
# Youngs Moduli (GPa) = 22.80319 71.60205 63.70984
#
# Poissons Ratio (x) = 0.45918 -0.00054
# Poissons Ratio (y) = 0.14623 0.46816
# Poissons Ratio (z) = -0.00019 0.52616
#
# Static dielectric constant tensor:
#      x y z
#    x 2.780510 0.000000 0.334330 
#    y 0.000000 3.216480 0.000000 
#    z 0.334330 0.000000 3.406650 
# 
# 
# High freq. dielectric constant tensor:
#      x y z
#    x 1.595540 0.000000 0.025820 
#    y 0.000000 1.652600 0.000000 
#    z 0.025820 0.000000 1.660900 
# 
# From -- ./inp_files/52717.got.cif
#   From: 2010.06.25/outbox.cif.g09.slc.cpg/sg10_27_cif.got.tgz:52717.got - 2010.06.27 22:07:45.
