data_PCOD8059639
_publ_section_title
;
Structure prediction by ZEFSAII (Michael W. Deem and Ramdas Pophale) SiO2 
 PCOD8059639
Probable space group: P 2/M
;
_chemical_formula_sum "Si O2"
_cell_formula_units_Z 28
_cell_length_a 8.363155
_cell_length_b 9.959560
_cell_length_c 28.071792
_cell_angle_alpha 90.000000
_cell_angle_beta 140.941869
_cell_angle_gamma 90.000000
_cell_volume 1473.315651
_symmetry_space_group_name_H-M "P 2/M"
_symmetry_group_IT_number 10
_symmetry_cell_setting 'monoclinic'
loop_
_space_group_symop_operation_xyz
x,y,z
-x,y,-z
-x,-y,-z
x,-y,z
loop_
_atom_site_type_symbol
_atom_site_label
_atom_site_fract_x
_atom_site_fract_y
_atom_site_fract_z
Si Si1 0.355154 0.147366 0.378527
Si Si2 0.236876 0.153407 0.085228
Si Si3 0.316414 0.353323 0.808066
Si Si4 0.203098 0.345868 0.263887
Si Si5 0.683501 0.144308 0.791276
Si Si6 0.909379 0.155460 0.531284
Si Si7 0.870298 0.215268 0.323139
O O1 0.350002 0.264266 0.338433
O O2 0.607594 0.174642 0.467711
O O3 0.108530 0.138667 0.354895
O O4 0.380895 0.000000 0.359651
O O5 0.481611 0.242457 0.130148
O O6 0.166280 0.166423 0.124563
O O7 0.301484 0.000000 0.086122
O O8 0.000000 0.207326 0.000000
O O9 0.443598 0.500000 0.839918
O O10 0.196829 0.340436 0.726950
O O11 0.095785 0.340912 0.795998
O O12 0.301408 0.500000 0.284809
O O13 0.258307 0.273127 0.226985
O O14 0.384903 0.127757 0.734070
O O15 0.768559 0.000000 0.788397
O O16 0.000000 0.202804 0.500000
O O17 0.048074 0.248536 0.603351
O O18 0.988529 0.000000 0.558197
#
# Coordination Sequence:
#
# PCOD8059639 Si02
#       7
#     4   4   4   4   4   4   4
#     4  10  19  32  53  77 102 135 175 220 268 315
#     4   9  19  36  58  85 112 136 168 211 256 304
#     4   9  20  37  56  78 104 139 178 213 254 308
#     4  10  21  36  52  74 106 139 176 218 258 305
#     4  10  19  32  54  79 103 134 171 211 257 309
#     4  10  19  30  46  73 107 138 171 216 267 317
#     4  10  19  32  52  77 104 132 173 220 262 307
#
# _framework density 19.004753999999998
#
# number of rings (size 3 to 8) (size 9 to 14) (size 15 to 20)
#    0.000    2.286    0.000    3.000    0.000    9.429 
#    0.000    1.429    0.000    9.429    0.000    0.000 
#    0.000    0.000    0.000    0.000    0.000    0.000 
#
# Total GULP energy -346959.360614 kJ/mol
# GULP energy per Si atom -12391.405736 kJ/mol
# Density = 1.896150 g / cm^3
# Si number density = 19.004754 Si / 1000 Ang^3
#
#
#
# Elastic Constant Matrix: (Units=GPa)
#
#
# Indices 1 2 3 4 5 6 
#
# 1 83.3361 39.4469 46.8044 0.0000 -5.9120 0.0000
# 2 39.4469 112.8264 46.0045 0.0000 1.8749 0.0000
# 3 46.8044 46.0045 134.2442 0.0000 -2.3046 0.0000
# 4 0.0000 0.0000 0.0000 17.3018 0.0000 3.6549
# 5 -5.9120 1.8749 -2.3046 0.0000 22.9765 0.0000
# 6 0.0000 0.0000 0.0000 3.6549 0.0000 21.8206
#
#
#
# Elastic Compliance Matrix: (Units=1/GPa)
#
#
# Indices 1 2 3 4 5 6 
#
# 1 0.016687 -0.004140 -0.004327 0.000000 0.004198 0.000000
# 2 -0.004140 0.011363 -0.002489 0.000000 -0.002242 0.000000
# 3 -0.004327 -0.002489 0.009812 0.000000 0.000074 0.000000
# 4 0.000000 0.000000 0.000000 0.059917 0.000000 -0.010036
# 5 0.004198 -0.002242 0.000074 0.000000 0.044793 0.000000
# 6 0.000000 0.000000 0.000000 -0.010036 0.000000 0.047509
#
#
# Mechanical properties :
#
#
# Convention : Reuss Voigt Hill
#
# Bulk Modulus (GPa) = 62.69627 66.10203 64.39915
# Shear Modulus (GPa) = 23.00852 25.62982 24.31917
#
# Velocity S-wave (km/s) = 3.48325 3.67631 3.58108
# Velocity P-wave (km/s) = 7.01703 7.27171 7.14550
#
# Compressibility (1/GPa) = 0.01594991
#
# Stress axis : x y z
#
# Youngs Moduli (GPa) = 59.92610 88.00761 101.91474
#
# Poissons Ratio (x) = 0.36431 0.44102
# Poissons Ratio (y) = 0.24807 0.25368
# Poissons Ratio (z) = 0.25932 0.21906
#
# Static dielectric constant tensor:
#      x y z
#    x 3.449470 0.000000 -0.022230 
#    y 0.000000 3.363050 0.000000 
#    z -0.022230 0.000000 3.484670 
# 
# 
# High freq. dielectric constant tensor:
#      x y z
#    x 1.734330 0.000000 0.000950 
#    y 0.000000 1.721620 0.000000 
#    z 0.000950 0.000000 1.730980 
# 
# From -- ./inp_files/37937.got.cif
#   From: 2010.06.25/outbox.cif.g09.slc.cpg/sg10_19_cif.got.tgz:37937.got - 2010.06.27 22:07:45.
