data_PCOD8059839
_publ_section_title
;
Structure prediction by ZEFSAII (Michael W. Deem and Ramdas Pophale) SiO2 
 PCOD8059839
Probable space group: P 2/M
;
_chemical_formula_sum "Si O2"
_cell_formula_units_Z 24
_cell_length_a 11.417877
_cell_length_b 29.007978
_cell_length_c 8.730094
_cell_angle_alpha 90.000000
_cell_angle_beta 25.778635
_cell_angle_gamma 90.000000
_cell_volume 1257.495679
_symmetry_space_group_name_H-M "P 2/M"
_symmetry_group_IT_number 10
_symmetry_cell_setting 'monoclinic'
loop_
_space_group_symop_operation_xyz
x,y,z
-x,y,-z
-x,-y,-z
x,-y,z
loop_
_atom_site_type_symbol
_atom_site_label
_atom_site_fract_x
_atom_site_fract_y
_atom_site_fract_z
Si Si1 0.904306 0.208853 0.786868
Si Si2 0.595800 0.052071 0.712777
Si Si3 0.904166 0.104825 0.787320
Si Si4 0.595298 0.262051 0.714297
Si Si5 0.695331 0.648549 0.413922
Si Si6 0.695832 0.548662 0.412415
O O1 0.870785 0.156859 0.887628
O O2 0.000000 0.208005 0.500000
O O3 0.122544 0.235189 0.633792
O O4 0.620718 0.235145 0.135611
O O5 0.878942 0.078423 0.363524
O O6 0.628899 0.000000 0.613383
O O7 0.500000 0.051848 0.000000
O O8 0.378906 0.078446 0.863561
O O9 0.000000 0.105144 0.500000
O O10 0.625431 0.314143 0.623574
O O11 0.500000 0.263810 0.000000
O O12 0.500000 0.654730 0.500000
O O13 0.650021 0.598065 0.549714
O O14 0.000000 0.654724 0.000000
O O15 0.500000 0.548138 0.500000
O O16 0.644086 0.500000 0.567532
O O17 0.000000 0.548139 0.000000
#
# Coordination Sequence:
#
# PCOD8059839 Si02
#       6
#     4   4   4   4   4   4
#     4   9  17  28  42  59  80 112 153 190 220 259
#     4   9  15  21  30  46  69  98 134 176 217 255
#     4   9  15  23  34  48  69  99 139 180 211 250
#     4  10  19  31  46  65  90 119 154 192 227 265
#     4  10  19  31  48  70  94 120 152 188 229 273
#     4   8  14  25  42  64  88 114 146 183 219 261
#
# _framework density 19.085553000000001
#
# number of rings (size 3 to 8) (size 9 to 14) (size 15 to 20)
#    0.000    2.833    0.000    2.500    0.000    6.000 
#    0.000    0.000    0.000    0.500    0.000    0.000 
#    0.000   17.333    0.000    0.000    0.000  212.667 
#
# Total GULP energy -297365.015638 kJ/mol
# GULP energy per Si atom -12390.208985 kJ/mol
# Density = 1.904211 g / cm^3
# Si number density = 19.085553 Si / 1000 Ang^3
#
#
#
# Elastic Constant Matrix: (Units=GPa)
#
#
# Indices 1 2 3 4 5 6 
#
# 1 38.1212 43.3590 45.2035 0.0000 -33.7466 0.0000
# 2 43.3590 234.8455 61.2982 0.0000 -32.2096 0.0000
# 3 45.2035 61.2982 86.4207 0.0000 -52.6150 0.0000
# 4 0.0000 0.0000 0.0000 26.3040 0.0000 -10.9181
# 5 -33.7466 -32.2096 -52.6150 0.0000 39.6139 0.0000
# 6 0.0000 0.0000 0.0000 -10.9181 0.0000 20.2113
#
#
#
# Elastic Compliance Matrix: (Units=1/GPa)
#
#
# Indices 1 2 3 4 5 6 
#
# 1 0.123660 -0.010195 0.008564 0.000000 0.108429 0.000000
# 2 -0.010195 0.006162 -0.006664 0.000000 -0.012526 0.000000
# 3 0.008564 -0.006664 0.067733 0.000000 0.091839 0.000000
# 4 0.000000 0.000000 0.000000 0.049005 0.000000 0.026473
# 5 0.108429 -0.012526 0.091839 0.000000 0.229409 0.000000
# 6 0.000000 0.000000 0.000000 0.026473 0.000000 0.063778
#
#
# Mechanical properties :
#
#
# Convention : Reuss Voigt Hill
#
# Bulk Modulus (GPa) = 5.52598 73.23432 39.38015
# Shear Modulus (GPa) = 8.10822 31.19429 19.65125
#
# Velocity S-wave (km/s) = 2.06339 4.04721 3.21228
# Velocity P-wave (km/s) = 2.92890 7.76497 5.86827
#
# Compressibility (1/GPa) = 0.18096331
#
# Stress axis : x y z
#
# Youngs Moduli (GPa) = 8.08671 162.28848 14.76386
#
# Poissons Ratio (x) = 1.65452 -0.12643
# Poissons Ratio (y) = 0.08244 0.09839
# Poissons Ratio (z) = -0.06925 1.08156
#
# Static dielectric constant tensor:
#      x y z
#    x 3.033070 0.000000 -0.607620 
#    y 0.000000 4.178710 0.000000 
#    z -0.607620 0.000000 3.373150 
# 
# 
# High freq. dielectric constant tensor:
#      x y z
#    x 1.690960 0.000000 -0.060500 
#    y 0.000000 1.773750 0.000000 
#    z -0.060500 0.000000 1.724830 
# 
# From -- ./inp_files/7983.got.cif
#   From: 2010.06.25/outbox.cif.g09.slc.cpg/sg10_4_cif.got.tgz:7983.got - 2010.06.27 22:07:45.
