data_PCOD8059055
_publ_section_title
;
Structure prediction by ZEFSAII (Michael W. Deem and Ramdas Pophale) SiO2 
 PCOD8059055
Probable space group: P 2/M
;
_chemical_formula_sum "Si O2"
_cell_formula_units_Z 32
_cell_length_a 12.072375
_cell_length_b 9.183939
_cell_length_c 19.610104
_cell_angle_alpha 90.000000
_cell_angle_beta 128.132396
_cell_angle_gamma 90.000000
_cell_volume 1710.203633
_symmetry_space_group_name_H-M "P 2/M"
_symmetry_group_IT_number 10
_symmetry_cell_setting 'monoclinic'
loop_
_space_group_symop_operation_xyz
x,y,z
-x,y,-z
-x,-y,-z
x,-y,z
loop_
_atom_site_type_symbol
_atom_site_label
_atom_site_fract_x
_atom_site_fract_y
_atom_site_fract_z
Si Si1 0.609871 0.171341 0.100080
Si Si2 0.049543 0.335697 0.095319
Si Si3 0.609186 0.326570 0.243402
Si Si4 0.909795 0.829006 0.155765
Si Si5 0.925533 0.666008 0.671949
Si Si6 0.615000 0.666792 0.592014
Si Si7 0.640794 0.673277 0.753354
Si Si8 0.080888 0.672513 0.596603
O O1 0.581642 0.256356 0.159244
O O2 0.760591 0.219645 0.128870
O O3 0.601074 0.000000 0.112128
O O4 0.500000 0.217864 0.000000
O O5 0.047178 0.500000 0.123947
O O6 0.207941 0.271446 0.161532
O O7 0.935130 0.239737 0.091533
O O8 0.000000 0.332394 0.000000
O O9 0.608357 0.500000 0.233921
O O10 0.484731 0.270870 0.245664
O O11 0.757584 0.273692 0.333141
O O12 0.030993 0.768934 0.250156
O O13 0.921564 0.000000 0.153555
O O14 0.974670 0.500000 0.704629
O O15 0.758471 0.677083 0.604127
O O16 0.992566 0.726118 0.628046
O O17 0.500000 0.745550 0.500000
O O18 0.570256 0.500000 0.586701
O O19 0.620785 0.738696 0.669455
O O20 0.639812 0.500000 0.751841
O O21 0.079419 0.500000 0.589995
O O22 0.000000 0.739579 0.500000
#
# Coordination Sequence:
#
# PCOD8059055 Si02
#       8
#     4   4   4   4   4   4   4   4
#     4  10  23  41  57  76 107 145 181 223 275 328
#     4  10  21  37  57  81 110 142 175 218 273 324
#     4  10  20  34  55  82 110 140 178 224 269 320
#     4  11  22  37  58  80 106 141 185 230 270 317
#     4  10  18  33  56  79 107 143 183 224 275 325
#     4   9  17  28  49  80 109 139 175 217 265 319
#     4   9  18  32  49  77 112 138 169 216 264 314
#     4   9  18  30  49  81 113 139 173 223 274 319
#
# _framework density 18.711221999999999
#
# number of rings (size 3 to 8) (size 9 to 14) (size 15 to 20)
#    0.000    2.250    2.500    0.375    3.500    1.000 
#    0.000    0.625    0.000    1.875    0.000    0.000 
#    0.000    0.000    0.000    0.000    0.000    0.000 
#
# Total GULP energy -396737.546706 kJ/mol
# GULP energy per Si atom -12398.048335 kJ/mol
# Density = 1.866863 g / cm^3
# Si number density = 18.711222 Si / 1000 Ang^3
#
#
#
# Elastic Constant Matrix: (Units=GPa)
#
#
# Indices 1 2 3 4 5 6 
#
# 1 138.9007 28.9018 47.9303 0.0000 -3.3965 0.0000
# 2 28.9018 27.9767 17.1125 0.0000 -2.5224 0.0000
# 3 47.9303 17.1125 126.3627 0.0000 3.0119 0.0000
# 4 0.0000 0.0000 0.0000 8.6216 0.0000 0.5727
# 5 -3.3965 -2.5224 3.0119 0.0000 28.1077 0.0000
# 6 0.0000 0.0000 0.0000 0.5727 0.0000 15.1147
#
#
#
# Elastic Compliance Matrix: (Units=1/GPa)
#
#
# Indices 1 2 3 4 5 6 
#
# 1 0.009900 -0.008566 -0.002612 0.000000 0.000708 0.000000
# 2 -0.008566 0.046855 -0.003180 0.000000 0.003510 0.000000
# 3 -0.002612 -0.003180 0.009373 0.000000 -0.001605 0.000000
# 4 0.000000 0.000000 0.000000 0.116280 0.000000 -0.004406
# 5 0.000708 0.003510 -0.001605 0.000000 0.036150 0.000000
# 6 0.000000 0.000000 0.000000 -0.004406 0.000000 0.066328
#
#
# Mechanical properties :
#
#
# Convention : Reuss Voigt Hill
#
# Bulk Modulus (GPa) = 26.72890 53.45881 40.09386
# Shear Modulus (GPa) = 15.33395 23.65518 19.49456
#
# Velocity S-wave (km/s) = 2.86581 3.55945 3.23129
# Velocity P-wave (km/s) = 5.02657 6.74725 5.94945
#
# Compressibility (1/GPa) = 0.03741269
#
# Stress axis : x y z
#
# Youngs Moduli (GPa) = 101.00503 21.34241 106.68506
#
# Poissons Ratio (x) = 0.18283 0.27867
# Poissons Ratio (y) = 0.86525 0.33922
# Poissons Ratio (z) = 0.26384 0.06786
#
# Static dielectric constant tensor:
#      x y z
#    x 3.686460 0.000000 -0.001210 
#    y 0.000000 3.015000 0.000000 
#    z -0.001210 0.000000 3.628090 
# 
# 
# High freq. dielectric constant tensor:
#      x y z
#    x 1.742120 0.000000 0.000560 
#    y 0.000000 1.671970 0.000000 
#    z 0.000560 0.000000 1.738080 
# 
# From -- ./inp_files/49886.got.cif
#   From: 2010.06.25/outbox.cif.g09.slc.cpg/sg10_25_cif.got.tgz:49886.got - 2010.06.27 22:07:45.
