data_PCOD8059693
_publ_section_title
;
Structure prediction by ZEFSAII (Michael W. Deem and Ramdas Pophale) SiO2 
 PCOD8059693
Probable space group: P 2/M
;
_chemical_formula_sum "Si O2"
_cell_formula_units_Z 32
_cell_length_a 11.557134
_cell_length_b 13.922856
_cell_length_c 14.630206
_cell_angle_alpha 90.000000
_cell_angle_beta 134.709435
_cell_angle_gamma 90.000000
_cell_volume 1673.035808
_symmetry_space_group_name_H-M "P 2/M"
_symmetry_group_IT_number 10
_symmetry_cell_setting 'monoclinic'
loop_
_space_group_symop_operation_xyz
x,y,z
-x,y,-z
-x,-y,-z
x,-y,z
loop_
_atom_site_type_symbol
_atom_site_label
_atom_site_fract_x
_atom_site_fract_y
_atom_site_fract_z
Si Si1 0.768198 0.295304 0.534894
Si Si2 0.704297 0.610381 0.679589
Si Si3 0.665813 0.289362 0.836027
Si Si4 0.635349 0.614192 0.278745
Si Si5 0.691683 0.890884 0.591984
Si Si6 0.106848 0.391028 0.732287
Si Si7 0.918786 0.606482 0.081373
Si Si8 0.817295 0.891246 0.862176
O O1 0.664975 0.352267 0.555834
O O2 0.702353 0.326597 0.401096
O O3 0.750430 0.181420 0.544815
O O4 0.958784 0.318798 0.636490
O O5 0.653699 0.500000 0.659529
O O6 0.611670 0.670764 0.705991
O O7 0.894227 0.630545 0.799237
O O8 0.537934 0.333736 0.837573
O O9 0.684965 0.174209 0.842838
O O10 0.844875 0.325477 0.963448
O O11 0.617035 0.500000 0.287613
O O12 0.747437 0.634865 0.254377
O O13 0.500000 0.876101 0.500000
O O14 0.796618 0.868743 0.742479
O O15 0.726853 0.000000 0.579296
O O16 0.042976 0.500000 0.678597
O O17 0.173579 0.382264 0.872652
O O18 0.895810 0.500000 0.029409
O O19 0.765533 0.000000 0.854214
O O20 0.000000 0.871475 0.000000
#
# Coordination Sequence:
#
# PCOD8059693 Si02
#       8
#     4   4   4   4   4   4   4   4
#     4  11  20  34  58  78 105 147 187 228 279 329
#     4  10  19  30  47  77 111 140 171 214 273 336
#     4  12  21  32  51  79 115 144 175 227 283 337
#     4  11  23  36  53  79 111 150 192 232 273 328
#     4  10  21  38  58  85 119 149 183 233 291 346
#     4   9  20  38  56  76 104 146 198 235 265 320
#     4   9  18  32  51  73 103 144 182 219 269 327
#     4  10  21  37  58  84 114 151 193 232 277 345
#
# _framework density 19.126906999999999
#
# number of rings (size 3 to 8) (size 9 to 14) (size 15 to 20)
#    0.000    1.750    1.250    5.250    1.750    2.500 
#    0.000    3.125    0.000    2.250    0.000    0.875 
#    0.000    0.000    0.000    0.000    0.000    0.000 
#
# Total GULP energy -396659.251751 kJ/mol
# GULP energy per Si atom -12395.601617 kJ/mol
# Density = 1.908337 g / cm^3
# Si number density = 19.126907 Si / 1000 Ang^3
#
#
#
# Elastic Constant Matrix: (Units=GPa)
#
#
# Indices 1 2 3 4 5 6 
#
# 1 82.4327 38.1653 -3.3750 0.0000 -3.8502 0.0000
# 2 38.1653 122.2571 10.9167 0.0000 7.4817 0.0000
# 3 -3.3750 10.9167 57.3851 0.0000 -7.0598 0.0000
# 4 0.0000 0.0000 0.0000 -3.6233 0.0000 7.7199
# 5 -3.8502 7.4817 -7.0598 0.0000 21.7420 0.0000
# 6 0.0000 0.0000 0.0000 7.7199 0.0000 25.8686
#
#
#
# Elastic Compliance Matrix: (Units=1/GPa)
#
#
# Indices 1 2 3 4 5 6 
#
# 1 0.014881 -0.005190 0.002506 0.000000 0.005235 0.000000
# 2 -0.005190 0.010397 -0.002954 0.000000 -0.005456 0.000000
# 3 0.002506 -0.002954 0.019077 0.000000 0.007655 0.000000
# 4 0.000000 0.000000 0.000000 -0.168716 0.000000 0.050349
# 5 0.005235 -0.005456 0.007655 0.000000 0.051284 0.000000
# 6 0.000000 0.000000 0.000000 0.050349 0.000000 0.023631
#
#
# Mechanical properties :
#
#
# Convention : Reuss Voigt Hill
#
# Bulk Modulus (GPa) = 30.22931 39.27656 34.75293
# Shear Modulus (GPa) = -184.21204 23.22197 -80.49503
#
# Velocity S-wave (km/s) = -9.82443 3.48817 -6.49431
# Velocity P-wave (km/s) = 10.62327 6.06650 6.16650
#
# Compressibility (1/GPa) = 0.03308048
#
# Stress axis : x y z
#
# Youngs Moduli (GPa) = 67.20002 96.17937 52.41823
#
# Poissons Ratio (x) = 0.49913 -0.13138
# Poissons Ratio (y) = 0.34874 0.15486
# Poissons Ratio (z) = -0.16843 0.28415
#
# Static dielectric constant tensor:
#      x y z
#    x 3.553570 0.000000 -0.022140 
#    y 0.000000 3.549590 0.000000 
#    z -0.022140 0.000000 3.661150 
# 
# 
# High freq. dielectric constant tensor:
#      x y z
#    x 1.720020 0.000000 0.002110 
#    y 0.000000 1.734200 0.000000 
#    z 0.002110 0.000000 1.758800 
# 
# From -- ./inp_files/65147.got.cif
#   From: 2010.06.25/outbox.cif.g09.slc.cpg/sg10_33_cif.got.tgz:65147.got - 2010.06.27 22:07:45.
