data_PCOD8059625
_publ_section_title
;
Structure prediction by ZEFSAII (Michael W. Deem and Ramdas Pophale) SiO2 
 PCOD8059625
Probable space group: P 2/M
;
_chemical_formula_sum "Si O2"
_cell_formula_units_Z 28
_cell_length_a 10.338541
_cell_length_b 9.210550
_cell_length_c 30.827659
_cell_angle_alpha 90.000000
_cell_angle_beta 32.595691
_cell_angle_gamma 90.000000
_cell_volume 1581.387594
_symmetry_space_group_name_H-M "P 2/M"
_symmetry_group_IT_number 10
_symmetry_cell_setting 'monoclinic'
loop_
_space_group_symop_operation_xyz
x,y,z
-x,y,-z
-x,-y,-z
x,-y,z
loop_
_atom_site_type_symbol
_atom_site_label
_atom_site_fract_x
_atom_site_fract_y
_atom_site_fract_z
Si Si1 0.933684 0.169460 0.416189
Si Si2 0.173171 0.839023 0.992360
Si Si3 0.472097 0.666317 0.158801
Si Si4 0.281481 0.169938 0.833914
Si Si5 0.517129 0.169528 0.395524
Si Si6 0.073505 0.667720 0.672120
Si Si7 0.398780 0.830025 0.334254
O O1 0.695421 0.196181 0.510848
O O2 0.907280 0.255720 0.379447
O O3 0.159113 0.233633 0.379515
O O4 0.970265 0.000000 0.394804
O O5 0.000983 0.787201 0.080912
O O6 0.276391 0.000000 0.972054
O O7 0.396428 0.732391 0.920945
O O8 0.000000 0.839464 0.000000
O O9 0.550266 0.500000 0.140747
O O10 0.547919 0.746091 0.181211
O O11 0.188977 0.684863 0.232808
O O12 0.367775 0.206770 0.760960
O O13 0.314180 0.000000 0.835390
O O14 0.748595 0.258023 0.344443
O O15 0.438006 0.233855 0.371099
O O16 0.584658 0.000000 0.373433
O O17 0.142218 0.500000 0.646439
O O18 0.356420 0.000000 0.351064
#
# Coordination Sequence:
#
# PCOD8059625 Si02
#       7
#     4   4   4   4   4   4   4
#     4  10  19  34  57  79  99 128 169 214 256 299
#     4   8  15  26  44  72 101 126 157 199 249 299
#     4  10  19  30  46  70  99 131 169 206 243 290
#     4   9  16  29  50  75 101 129 159 198 252 302
#     4  10  21  35  53  78 102 131 171 209 252 304
#     4  11  23  36  50  72 104 139 173 209 249 297
#     4   9  17  32  55  79 104 130 162 209 255 299
#
# _framework density 17.705967999999999
#
# number of rings (size 3 to 8) (size 9 to 14) (size 15 to 20)
#    0.000    2.429    1.429    2.571    0.000    8.286 
#    0.000    1.429    0.000    2.571    0.000    6.000 
#    0.000    0.000    0.000    0.000    0.000    0.000 
#
# Total GULP energy -347129.512078 kJ/mol
# GULP energy per Si atom -12397.482574 kJ/mol
# Density = 1.766567 g / cm^3
# Si number density = 17.705968 Si / 1000 Ang^3
#
#
#
# Elastic Constant Matrix: (Units=GPa)
#
#
# Indices 1 2 3 4 5 6 
#
# 1 82.8515 30.2142 28.1261 0.0000 -11.2195 0.0000
# 2 30.2142 68.3004 44.0027 0.0000 -7.7899 0.0000
# 3 28.1261 44.0027 98.6177 0.0000 -10.7832 0.0000
# 4 0.0000 0.0000 0.0000 22.2577 0.0000 -8.3740
# 5 -11.2195 -7.7899 -10.7832 0.0000 7.2952 0.0000
# 6 0.0000 0.0000 0.0000 -8.3740 0.0000 4.3539
#
#
#
# Elastic Compliance Matrix: (Units=1/GPa)
#
#
# Indices 1 2 3 4 5 6 
#
# 1 0.016664 -0.004834 -0.000427 0.000000 0.019835 0.000000
# 2 -0.004834 0.022582 -0.008199 0.000000 0.004560 0.000000
# 3 -0.000427 -0.008199 0.015376 0.000000 0.013317 0.000000
# 4 0.000000 0.000000 0.000000 0.162559 0.000000 0.312657
# 5 0.019835 0.004560 0.013317 0.000000 0.192134 0.000000
# 6 0.000000 0.000000 0.000000 0.312657 0.000000 0.831030
#
#
# Mechanical properties :
#
#
# Convention : Reuss Voigt Hill
#
# Bulk Modulus (GPa) = 36.09807 50.49508 43.29657
# Shear Modulus (GPa) = 3.91697 16.60979 10.26338
#
# Velocity S-wave (km/s) = 1.48897 3.06615 2.41022
# Velocity P-wave (km/s) = 4.83610 6.41215 5.67906
#
# Compressibility (1/GPa) = 0.02770231
#
# Stress axis : x y z
#
# Youngs Moduli (GPa) = 60.01110 44.28343 65.03591
#
# Poissons Ratio (x) = 0.21409 0.02775
# Poissons Ratio (y) = 0.29012 0.53320
# Poissons Ratio (z) = 0.02560 0.36306
#
# Static dielectric constant tensor:
#      x y z
#    x 3.113160 0.000000 0.062790 
#    y 0.000000 3.183260 0.000000 
#    z 0.062790 0.000000 3.725650 
# 
# 
# High freq. dielectric constant tensor:
#      x y z
#    x 1.650690 0.000000 0.001760 
#    y 0.000000 1.667040 0.000000 
#    z 0.001760 0.000000 1.705890 
# 
# From -- ./inp_files/94490.got.cif
#   From: 2010.06.25/outbox.cif.g09.slc.cpg/sg10_48_cif.got.tgz:94490.got - 2010.06.27 22:07:45.
