data_PCOD8059020
_publ_section_title
;
Structure prediction by ZEFSAII (Michael W. Deem and Ramdas Pophale) SiO2 
 PCOD8059020
Probable space group: P 2/M
;
_chemical_formula_sum "Si O2"
_cell_formula_units_Z 32
_cell_length_a 26.134598
_cell_length_b 8.828775
_cell_length_c 20.288077
_cell_angle_alpha 90.000000
_cell_angle_beta 21.319651
_cell_angle_gamma 90.000000
_cell_volume 1701.947270
_symmetry_space_group_name_H-M "P 2/M"
_symmetry_group_IT_number 10
_symmetry_cell_setting 'monoclinic'
loop_
_space_group_symop_operation_xyz
x,y,z
-x,y,-z
-x,-y,-z
x,-y,z
loop_
_atom_site_type_symbol
_atom_site_label
_atom_site_fract_x
_atom_site_fract_y
_atom_site_fract_z
Si Si1 0.838723 0.178285 0.196747
Si Si2 0.305954 0.680407 0.126572
Si Si3 0.659214 0.321380 0.149730
Si Si4 0.183762 0.680788 0.410318
Si Si5 0.867890 0.319384 0.789191
Si Si6 0.641068 0.679985 0.538055
Si Si7 0.612491 0.680162 0.720989
Si Si8 0.661117 0.677164 0.296091
O O1 0.771463 0.252211 0.342121
O O2 0.761077 0.229642 0.223758
O O3 0.825986 0.000000 0.218588
O O4 0.000000 0.231902 0.000000
O O5 0.309501 0.500000 0.123272
O O6 0.255021 0.743587 0.258088
O O7 0.198330 0.737873 0.199878
O O8 0.460706 0.744836 0.924758
O O9 0.651157 0.500000 0.149600
O O10 0.504510 0.257036 0.318307
O O11 0.703806 0.279757 0.170353
O O12 0.775584 0.253550 0.960459
O O13 0.182986 0.500000 0.409953
O O14 0.270944 0.742334 0.368179
O O15 0.025634 0.744800 0.605743
O O16 0.869175 0.500000 0.789895
O O17 0.648735 0.500000 0.523621
O O18 0.651359 0.735976 0.601168
O O19 0.606963 0.500000 0.729202
O O20 0.500000 0.724725 0.500000
O O21 0.680962 0.500000 0.287457
#
# Coordination Sequence:
#
# PCOD8059020 Si02
#       8
#     4   4   4   4   4   4   4   4
#     4  11  25  41  55  77 109 139 168 209 263 318
#     4   9  14  22  35  52  84 129 166 197 240 294
#     4   9  16  28  47  71  98 127 166 215 254 294
#     4   9  16  22  31  55  90 126 166 203 238 294
#     4   9  15  23  35  54  85 127 166 198 242 295
#     4  10  18  33  55  75  99 133 172 212 256 306
#     4   9  16  25  40  62  88 124 166 205 247 294
#     4  10  19  34  58  83 104 132 174 218 257 305
#
# _framework density 18.801993
#
# number of rings (size 3 to 8) (size 9 to 14) (size 15 to 20)
#    0.000    2.500    2.500    1.125    0.000    5.250 
#    0.000    2.500    0.000    0.000    0.000    0.000 
#    0.000    2.000    0.000    1.625    0.000    2.250 
#
# Total GULP energy -396761.897994 kJ/mol
# GULP energy per Si atom -12398.809312 kJ/mol
# Density = 1.875920 g / cm^3
# Si number density = 18.801993 Si / 1000 Ang^3
#
#
#
# Elastic Constant Matrix: (Units=GPa)
#
#
# Indices 1 2 3 4 5 6 
#
# 1 158.1229 17.1104 101.5470 0.0000 3.5299 0.0000
# 2 17.1104 14.1810 22.9203 0.0000 1.3630 0.0000
# 3 101.5470 22.9203 182.5956 0.0000 3.1998 0.0000
# 4 0.0000 0.0000 0.0000 7.9845 0.0000 -5.9264
# 5 3.5299 1.3630 3.1998 0.0000 40.7262 0.0000
# 6 0.0000 0.0000 0.0000 -5.9264 0.0000 2.0393
#
#
#
# Elastic Compliance Matrix: (Units=1/GPa)
#
#
# Indices 1 2 3 4 5 6 
#
# 1 0.010008 -0.003835 -0.005079 0.000000 -0.000340 0.000000
# 2 -0.003835 0.090112 -0.009144 0.000000 -0.001965 0.000000
# 3 -0.005079 -0.009144 0.009449 0.000000 0.000004 0.000000
# 4 0.000000 0.000000 0.000000 -0.108243 0.000000 -0.314569
# 5 -0.000340 -0.001965 0.000004 0.000000 0.024649 0.000000
# 6 0.000000 0.000000 0.000000 -0.314569 0.000000 -0.423812
#
#
# Mechanical properties :
#
#
# Convention : Reuss Voigt Hill
#
# Bulk Modulus (GPa) = 13.61392 70.89500 42.25446
# Shear Modulus (GPa) = -14.82640 24.37145 4.77252
#
# Velocity S-wave (km/s) = -2.81117 3.60421 1.59494
# Velocity P-wave (km/s) = 1.81121 7.42350 5.09057
#
# Compressibility (1/GPa) = 0.07345421
#
# Stress axis : x y z
#
# Youngs Moduli (GPa) = 99.91802 11.09725 105.83442
#
# Poissons Ratio (x) = 0.04255 0.53749
# Poissons Ratio (y) = 0.38314 0.96779
# Poissons Ratio (z) = 0.50744 0.10148
#
# Static dielectric constant tensor:
#      x y z
#    x 3.692700 0.000000 0.050560 
#    y 0.000000 2.687200 0.000000 
#    z 0.050560 0.000000 3.704320 
# 
# 
# High freq. dielectric constant tensor:
#      x y z
#    x 1.747070 0.000000 0.005630 
#    y 0.000000 1.650220 0.000000 
#    z 0.005630 0.000000 1.742610 
# 
# From -- ./inp_files/86753.got.cif
#   From: 2010.06.25/outbox.cif.g09.slc.cpg/sg10_44_cif.got.tgz:86753.got - 2010.06.27 22:07:45.
