data_PCOD8059182
_publ_section_title
;
Structure prediction by ZEFSAII (Michael W. Deem and Ramdas Pophale) SiO2 
 PCOD8059182
Probable space group: P 2/M
;
_chemical_formula_sum "Si O2"
_cell_formula_units_Z 32
_cell_length_a 28.089189
_cell_length_b 9.282186
_cell_length_c 21.856889
_cell_angle_alpha 90.000000
_cell_angle_beta 162.274113
_cell_angle_gamma 90.000000
_cell_volume 1735.053958
_symmetry_space_group_name_H-M "P 2/M"
_symmetry_group_IT_number 10
_symmetry_cell_setting 'monoclinic'
loop_
_space_group_symop_operation_xyz
x,y,z
-x,y,-z
-x,-y,-z
x,-y,z
loop_
_atom_site_type_symbol
_atom_site_label
_atom_site_fract_x
_atom_site_fract_y
_atom_site_fract_z
Si Si1 0.433967 0.167399 0.162511
Si Si2 0.789711 0.166164 0.578207
Si Si3 0.232234 0.329305 0.823857
Si Si4 0.952684 0.170386 0.009977
Si Si5 0.743917 0.665509 0.951652
Si Si6 0.109254 0.665931 0.413879
Si Si7 0.323767 0.668116 0.268917
Si Si8 0.898780 0.329958 0.462140
O O1 0.618531 0.191641 0.396092
O O2 0.354354 0.234026 0.124365
O O3 0.390884 0.000000 0.105286
O O4 0.376868 0.246073 0.030826
O O5 0.801206 0.246017 0.527809
O O6 0.915006 0.225779 0.780619
O O7 0.822531 0.000000 0.605080
O O8 0.256564 0.500000 0.862293
O O9 0.222566 0.286586 0.739971
O O10 0.073439 0.272925 0.661809
O O11 0.931505 0.000000 0.988143
O O12 0.788402 0.243948 0.823660
O O13 0.000000 0.218849 0.000000
O O14 0.695481 0.500000 0.904050
O O15 0.707446 0.714855 0.838561
O O16 0.925198 0.689831 0.185028
O O17 0.154503 0.500000 0.459824
O O18 0.161820 0.723275 0.545684
O O19 0.500000 0.710563 0.500000
O O20 0.290441 0.500000 0.238278
O O21 0.916990 0.500000 0.485699
#
# Coordination Sequence:
#
# PCOD8059182 Si02
#       8
#     4   4   4   4   4   4   4   4
#     4  11  23  36  53  80 114 147 183 226 271 321
#     4  10  23  40  54  76 112 149 184 225 270 319
#     4   9  16  32  55  79 109 142 177 224 276 321
#     4  10  22  40  60  80 108 149 192 225 262 321
#     4  10  20  36  58  82 110 142 182 227 272 324
#     4  10  18  34  59  84 105 137 186 230 270 323
#     4  10  22  39  58  86 118 142 173 226 281 326
#     4   8  15  29  54  82 107 137 176 226 275 320
#
# _framework density 18.443228999999999
#
# number of rings (size 3 to 8) (size 9 to 14) (size 15 to 20)
#    0.000    2.250    2.500    1.125    1.750    2.500 
#    0.000    2.500    0.000    3.750    0.000    0.000 
#    0.000    0.000    0.000    0.000    0.000    0.000 
#
# Total GULP energy -396800.519611 kJ/mol
# GULP energy per Si atom -12400.016238 kJ/mol
# Density = 1.840125 g / cm^3
# Si number density = 18.443229 Si / 1000 Ang^3
#
#
#
# Elastic Constant Matrix: (Units=GPa)
#
#
# Indices 1 2 3 4 5 6 
#
# 1 126.6353 46.9746 49.4193 0.0000 -14.7437 0.0000
# 2 46.9746 56.7372 34.1669 0.0000 3.4944 0.0000
# 3 49.4193 34.1669 76.5089 0.0000 -6.6320 0.0000
# 4 0.0000 0.0000 0.0000 -25.7089 0.0000 38.4125
# 5 -14.7437 3.4944 -6.6320 0.0000 24.3671 0.0000
# 6 0.0000 0.0000 0.0000 38.4125 0.0000 7.5642
#
#
#
# Elastic Compliance Matrix: (Units=1/GPa)
#
#
# Indices 1 2 3 4 5 6 
#
# 1 0.014136 -0.009872 -0.003951 0.000000 0.008894 0.000000
# 2 -0.009872 0.032066 -0.009074 0.000000 -0.013041 0.000000
# 3 -0.003951 -0.009074 0.020053 0.000000 0.004368 0.000000
# 4 0.000000 0.000000 0.000000 -0.004529 0.000000 0.023002
# 5 0.008894 -0.013041 0.004368 0.000000 0.049479 0.000000
# 6 0.000000 0.000000 0.000000 0.023002 0.000000 0.015395
#
#
# Mechanical properties :
#
#
# Convention : Reuss Voigt Hill
#
# Bulk Modulus (GPa) = 48.87283 57.88922 53.38103
# Shear Modulus (GPa) = 27.89960 9.86585 18.88272
#
# Velocity S-wave (km/s) = 3.89360 2.31537 3.20321
# Velocity P-wave (km/s) = 6.83887 6.21320 6.53353
#
# Compressibility (1/GPa) = 0.02046127
#
# Stress axis : x y z
#
# Youngs Moduli (GPa) = 70.74074 31.18594 49.86689
#
# Poissons Ratio (x) = 0.30787 0.19705
# Poissons Ratio (y) = 0.69835 0.45247
# Poissons Ratio (z) = 0.27953 0.28297
#
# Static dielectric constant tensor:
#      x y z
#    x 4.191370 0.000000 -0.453380 
#    y 0.000000 3.200910 0.000000 
#    z -0.453380 0.000000 3.477160 
# 
# 
# High freq. dielectric constant tensor:
#      x y z
#    x 1.724420 0.000000 -0.014830 
#    y 0.000000 1.693900 0.000000 
#    z -0.014830 0.000000 1.712940 
# 
# From -- ./inp_files/86923.got.cif
#   From: 2010.06.25/outbox.cif.g09.slc.cpg/sg10_44_cif.got.tgz:86923.got - 2010.06.27 22:07:45.
