data_PCOD8059105
_publ_section_title
;
Structure prediction by ZEFSAII (Michael W. Deem and Ramdas Pophale) SiO2 
 PCOD8059105
Probable space group: P 2/M
;
_chemical_formula_sum "Si O2"
_cell_formula_units_Z 24
_cell_length_a 12.899011
_cell_length_b 8.701037
_cell_length_c 15.140145
_cell_angle_alpha 90.000000
_cell_angle_beta 42.027999
_cell_angle_gamma 90.000000
_cell_volume 1137.637623
_symmetry_space_group_name_H-M "P 2/M"
_symmetry_group_IT_number 10
_symmetry_cell_setting 'monoclinic'
loop_
_space_group_symop_operation_xyz
x,y,z
-x,y,-z
-x,-y,-z
x,-y,z
loop_
_atom_site_type_symbol
_atom_site_label
_atom_site_fract_x
_atom_site_fract_y
_atom_site_fract_z
Si Si1 0.168270 0.823241 0.233364
Si Si2 0.656263 0.180070 0.148115
Si Si3 0.086976 0.319643 0.113719
Si Si4 0.527751 0.678121 0.583971
Si Si5 0.556907 0.319348 0.866457
Si Si6 0.154027 0.174505 0.623005
O O1 0.203414 0.726832 0.120655
O O2 0.264579 0.742333 0.250916
O O3 0.981087 0.815545 0.366974
O O4 0.220406 0.000000 0.187825
O O5 0.595697 0.224643 0.282954
O O6 0.533942 0.237033 0.153574
O O7 0.677119 0.000000 0.127066
O O8 0.826013 0.257975 0.028618
O O9 0.061703 0.500000 0.123129
O O10 0.919901 0.239592 0.237833
O O11 0.500000 0.718395 0.500000
O O12 0.503789 0.500000 0.620544
O O13 0.702322 0.724389 0.499736
O O14 0.548492 0.500000 0.855078
O O15 0.500000 0.270576 0.000000
O O16 0.208575 0.000000 0.603945
#
# Coordination Sequence:
#
# PCOD8059105 Si02
#       6
#     4   4   4   4   4   4
#     4   9  18  31  53  84 119 157 195 234 288 349
#     4  12  24  38  60  90 125 161 203 255 300 353
#     4  10  18  33  58  87 121 158 198 243 293 350
#     4  11  25  45  67  89 117 155 200 252 308 364
#     4  11  20  31  54  87 124 164 201 243 296 354
#     4   9  19  37  62  89 120 158 198 244 300 361
#
# _framework density 21.096347999999999
#
# number of rings (size 3 to 8) (size 9 to 14) (size 15 to 20)
#    1.000    0.667    1.667    4.500    0.000    2.000 
#    0.000    1.667    0.000   10.000    0.000    0.000 
#    0.000    0.000    0.000    0.000    0.000    0.000 
#
# Total GULP energy -297452.224778 kJ/mol
# GULP energy per Si atom -12393.842699 kJ/mol
# Density = 2.104833 g / cm^3
# Si number density = 21.096348 Si / 1000 Ang^3
#
#
#
# Elastic Constant Matrix: (Units=GPa)
#
#
# Indices 1 2 3 4 5 6 
#
# 1 15.3618 7.8571 -9.9470 0.0000 0.9368 0.0000
# 2 7.8571 106.9989 6.7350 0.0000 5.1146 0.0000
# 3 -9.9470 6.7350 60.0896 0.0000 -3.6376 0.0000
# 4 0.0000 0.0000 0.0000 36.0711 0.0000 -2.5319
# 5 0.9368 5.1146 -3.6376 0.0000 24.1356 0.0000
# 6 0.0000 0.0000 0.0000 -2.5319 0.0000 23.1234
#
#
#
# Elastic Compliance Matrix: (Units=1/GPa)
#
#
# Indices 1 2 3 4 5 6 
#
# 1 0.077180 -0.006540 0.013535 0.000000 0.000430 0.000000
# 2 -0.006540 0.010081 -0.002348 0.000000 -0.002236 0.000000
# 3 0.013535 -0.002348 0.019320 0.000000 0.002884 0.000000
# 4 0.000000 0.000000 0.000000 0.027938 0.000000 0.003059
# 5 0.000430 -0.002236 0.002884 0.000000 0.042324 0.000000
# 6 0.000000 0.000000 0.000000 0.003059 0.000000 0.043581
#
#
# Mechanical properties :
#
#
# Convention : Reuss Voigt Hill
#
# Bulk Modulus (GPa) = 8.62997 21.30447 14.96722
# Shear Modulus (GPa) = 20.01967 28.51970 24.26969
#
# Velocity S-wave (km/s) = 3.08387 3.68078 3.39547
# Velocity P-wave (km/s) = 4.09633 5.30893 4.74156
#
# Compressibility (1/GPa) = 0.11587531
#
# Stress axis : x y z
#
# Youngs Moduli (GPa) = 12.95678 99.19848 51.75950
#
# Poissons Ratio (x) = 0.64875 -0.70057
# Poissons Ratio (y) = 0.08474 0.12152
# Poissons Ratio (z) = -0.17537 0.23290
#
# Static dielectric constant tensor:
#      x y z
#    x 3.585570 0.000000 -0.200150 
#    y 0.000000 3.758920 0.000000 
#    z -0.200150 0.000000 3.684750 
# 
# 
# High freq. dielectric constant tensor:
#      x y z
#    x 1.804170 0.000000 -0.023630 
#    y 0.000000 1.839790 0.000000 
#    z -0.023630 0.000000 1.809430 
# 
# From -- ./inp_files/66315.got.cif
#   From: 2010.06.25/outbox.cif.g09.slc.cpg/sg10_34_cif.got.tgz:66315.got - 2010.06.27 22:07:45.
