data_PCOD8059127
_publ_section_title
;
Structure prediction by ZEFSAII (Michael W. Deem and Ramdas Pophale) SiO2 
 PCOD8059127
Probable space group: P 2/M
;
_chemical_formula_sum "Si O2"
_cell_formula_units_Z 24
_cell_length_a 22.180883
_cell_length_b 10.436376
_cell_length_c 14.923324
_cell_angle_alpha 90.000000
_cell_angle_beta 160.418898
_cell_angle_gamma 90.000000
_cell_volume 1157.767777
_symmetry_space_group_name_H-M "P 2/M"
_symmetry_group_IT_number 10
_symmetry_cell_setting 'monoclinic'
loop_
_space_group_symop_operation_xyz
x,y,z
-x,y,-z
-x,-y,-z
x,-y,z
loop_
_atom_site_type_symbol
_atom_site_label
_atom_site_fract_x
_atom_site_fract_y
_atom_site_fract_z
Si Si1 0.500000 0.202603 0.000000
Si Si2 0.000000 0.208106 0.500000
Si Si3 0.689734 0.859059 0.438217
Si Si4 0.050391 0.358969 0.237103
Si Si5 0.682398 0.352494 0.808868
Si Si6 0.651870 0.858273 0.919523
Si Si7 0.799853 0.361407 0.357339
O O1 0.629675 0.125000 0.249033
O O2 0.613148 0.286682 0.087785
O O3 0.961543 0.294110 0.532608
O O4 0.823191 0.127851 0.226391
O O5 0.846223 0.752530 0.673437
O O6 0.523423 0.821729 0.268719
O O7 0.765517 0.000000 0.570412
O O8 0.060281 0.500000 0.202622
O O9 0.151274 0.372498 0.471356
O O10 0.843446 0.319780 0.965134
O O11 0.500000 0.334187 0.500000
O O12 0.703760 0.500000 0.874042
O O13 0.684564 0.252467 0.893150
O O14 0.628776 0.000000 0.842720
O O15 0.768941 0.500000 0.270321
#
# Coordination Sequence:
#
# PCOD8059127 Si02
#       7
#     2   2   4   4   4   4   4
#     4  10  18  34  48  76 115 158 199 238 277 342
#     4  12  20  36  52  84 123 160 193 240 287 352
#     4  10  21  36  54  81 117 159 200 239 284 347
#     4   9  19  37  57  84 113 146 192 241 290 347
#     4  10  22  43  68  91 116 149 196 251 304 358
#     4  11  24  40  58  88 124 159 202 244 292 352
#     4  10  19  30  50  79 115 153 191 235 288 347
#
# _framework density 20.729545000000002
#
# number of rings (size 3 to 8) (size 9 to 14) (size 15 to 20)
#    0.000    1.833    3.333    1.000    0.000    3.000 
#    0.000    0.833    0.000    5.000    0.000    0.000 
#    0.000    0.000    0.000    0.000    0.000    0.000 
#
# Total GULP energy -297386.199956 kJ/mol
# GULP energy per Si atom -12391.091665 kJ/mol
# Density = 2.068236 g / cm^3
# Si number density = 20.729545 Si / 1000 Ang^3
#
#
#
# Elastic Constant Matrix: (Units=GPa)
#
#
# Indices 1 2 3 4 5 6 
#
# 1 52.8604 46.4573 35.3553 0.0000 26.4258 0.0000
# 2 46.4573 146.7565 63.2651 0.0000 27.9487 0.0000
# 3 35.3553 63.2651 116.0588 0.0000 32.3277 0.0000
# 4 0.0000 0.0000 0.0000 6.5906 0.0000 7.8301
# 5 26.4258 27.9487 32.3277 0.0000 37.5345 0.0000
# 6 0.0000 0.0000 0.0000 7.8301 0.0000 24.7959
#
#
#
# Elastic Compliance Matrix: (Units=1/GPa)
#
#
# Indices 1 2 3 4 5 6 
#
# 1 0.035308 -0.006892 -0.001979 0.000000 -0.018022 0.000000
# 2 -0.006892 0.010559 -0.003707 0.000000 0.000183 0.000000
# 3 -0.001979 -0.003707 0.013266 0.000000 -0.007271 0.000000
# 4 0.000000 0.000000 0.000000 0.242835 0.000000 -0.076683
# 5 -0.018022 0.000183 -0.007271 0.000000 0.045457 0.000000
# 6 0.000000 0.000000 0.000000 -0.076683 0.000000 0.064544
#
#
# Mechanical properties :
#
#
# Convention : Reuss Voigt Hill
#
# Bulk Modulus (GPa) = 29.43262 67.31456 48.37359
# Shear Modulus (GPa) = 11.14951 25.15742 18.15346
#
# Velocity S-wave (km/s) = 2.32169 3.48746 2.96248
# Velocity P-wave (km/s) = 4.62776 6.98282 5.92351
#
# Compressibility (1/GPa) = 0.03397591
#
# Stress axis : x y z
#
# Youngs Moduli (GPa) = 28.32234 94.70553 75.38299
#
# Poissons Ratio (x) = 0.65268 0.14920
# Poissons Ratio (y) = 0.19519 0.27947
# Poissons Ratio (z) = 0.05606 0.35110
#
# Static dielectric constant tensor:
#      x y z
#    x 3.342110 0.000000 0.288150 
#    y 0.000000 4.085340 0.000000 
#    z 0.288150 0.000000 3.747150 
# 
# 
# High freq. dielectric constant tensor:
#      x y z
#    x 1.782040 0.000000 0.027630 
#    y 0.000000 1.819970 0.000000 
#    z 0.027630 0.000000 1.806800 
# 
# From -- ./inp_files/70597.got.cif
#   From: 2010.06.25/outbox.cif.g09.slc.cpg/sg10_36_cif.got.tgz:70597.got - 2010.06.27 22:07:45.
