data_PCOD8059473
_publ_section_title
;
Structure prediction by ZEFSAII (Michael W. Deem and Ramdas Pophale) SiO2 
 PCOD8059473
Probable space group: P 2/M
;
_chemical_formula_sum "Si O2"
_cell_formula_units_Z 32
_cell_length_a 19.416417
_cell_length_b 9.095780
_cell_length_c 14.239399
_cell_angle_alpha 90.000000
_cell_angle_beta 46.975479
_cell_angle_gamma 90.000000
_cell_volume 1838.462451
_symmetry_space_group_name_H-M "P 2/M"
_symmetry_group_IT_number 10
_symmetry_cell_setting 'monoclinic'
loop_
_space_group_symop_operation_xyz
x,y,z
-x,y,-z
-x,-y,-z
x,-y,z
loop_
_atom_site_type_symbol
_atom_site_label
_atom_site_fract_x
_atom_site_fract_y
_atom_site_fract_z
Si Si1 0.792826 0.832702 0.764528
Si Si2 0.656828 0.329408 0.026501
Si Si3 0.182271 0.669433 0.987138
Si Si4 0.861318 0.674589 0.369891
Si Si5 0.099345 0.328650 0.873453
Si Si6 0.955692 0.829641 0.748781
Si Si7 0.517823 0.173274 0.877334
Si Si8 0.274003 0.169678 0.374433
O O1 0.897745 0.805277 0.706218
O O2 0.793073 0.804082 0.653285
O O3 0.759694 0.000000 0.816803
O O4 0.718576 0.724949 0.881658
O O5 0.636685 0.500000 0.031435
O O6 0.713219 0.297132 0.071033
O O7 0.557523 0.246108 0.122808
O O8 0.154195 0.500000 0.034302
O O9 0.179143 0.701256 0.878341
O O10 0.105624 0.772496 0.107106
O O11 0.862381 0.500000 0.374416
O O12 0.867639 0.736560 0.257135
O O13 0.764257 0.733306 0.504269
O O14 0.948225 0.738845 0.348750
O O15 0.082773 0.500000 0.872398
O O16 0.000000 0.258441 0.000000
O O17 0.979551 0.000000 0.742841
O O18 0.620862 0.222505 0.748053
O O19 0.505100 0.000000 0.884058
O O20 0.500000 0.229469 0.000000
O O21 0.273193 0.000000 0.405660
#
# Coordination Sequence:
#
# PCOD8059473 Si02
#       8
#     4   4   4   4   4   4   4   4
#     4   9  18  34  52  70 100 142 178 200 240 307
#     4  10  19  29  50  82 109 127 159 218 262 291
#     4   9  17  32  52  76 104 134 168 206 256 304
#     4  11  22  35  52  74 103 137 171 212 257 303
#     4   9  16  31  55  75  97 135 174 205 247 307
#     4  10  19  31  50  75 103 136 173 210 245 295
#     4  10  19  35  57  75  98 137 176 205 246 308
#     4  10  21  37  54  72  99 136 175 212 247 297
#
# _framework density 17.405850000000001
#
# number of rings (size 3 to 8) (size 9 to 14) (size 15 to 20)
#    0.000    2.250    2.500    1.125    0.000    2.750 
#    0.000    4.375    0.000    0.750    0.000    5.250 
#    0.000    0.000    0.000    0.000    0.000    0.000 
#
# Total GULP energy -396780.039150 kJ/mol
# GULP energy per Si atom -12399.376223 kJ/mol
# Density = 1.736623 g / cm^3
# Si number density = 17.405850 Si / 1000 Ang^3
#
#
#
# Elastic Constant Matrix: (Units=GPa)
#
#
# Indices 1 2 3 4 5 6 
#
# 1 108.3687 37.2584 63.4503 0.0000 -3.1567 0.0000
# 2 37.2584 54.6384 42.8478 0.0000 -5.6094 0.0000
# 3 63.4503 42.8478 118.8488 0.0000 -2.4430 0.0000
# 4 0.0000 0.0000 0.0000 28.0490 0.0000 -5.3458
# 5 -3.1567 -5.6094 -2.4430 0.0000 23.1991 0.0000
# 6 0.0000 0.0000 0.0000 -5.3458 0.0000 23.3354
#
#
#
# Elastic Compliance Matrix: (Units=1/GPa)
#
#
# Indices 1 2 3 4 5 6 
#
# 1 0.014448 -0.005293 -0.005803 0.000000 0.000075 0.000000
# 2 -0.005293 0.028100 -0.007196 0.000000 0.005317 0.000000
# 3 -0.005803 -0.007196 0.014085 0.000000 -0.001046 0.000000
# 4 0.000000 0.000000 0.000000 0.037279 0.000000 0.008540
# 5 0.000075 0.005317 -0.001046 0.000000 0.044291 0.000000
# 6 0.000000 0.000000 0.000000 0.008540 0.000000 0.044810
#
#
# Mechanical properties :
#
#
# Convention : Reuss Voigt Hill
#
# Bulk Modulus (GPa) = 49.87893 63.21876 56.54884
# Shear Modulus (GPa) = 22.09647 24.13667 23.11657
#
# Velocity S-wave (km/s) = 3.56685 3.72788 3.64825
# Velocity P-wave (km/s) = 6.75883 7.41139 7.09262
#
# Compressibility (1/GPa) = 0.02004855
#
# Stress axis : x y z
#
# Youngs Moduli (GPa) = 69.21499 35.58673 70.99748
#
# Poissons Ratio (x) = 0.18837 0.41203
# Poissons Ratio (y) = 0.36638 0.51087
# Poissons Ratio (z) = 0.40168 0.25607
#
# Static dielectric constant tensor:
#      x y z
#    x 3.446140 0.000000 0.008140 
#    y 0.000000 3.150090 0.000000 
#    z 0.008140 0.000000 3.041170 
# 
# 
# High freq. dielectric constant tensor:
#      x y z
#    x 1.677850 0.000000 -0.002570 
#    y 0.000000 1.664080 0.000000 
#    z -0.002570 0.000000 1.643710 
# 
# From -- ./inp_files/58288.got.cif
#   From: 2010.06.25/outbox.cif.g09.slc.cpg/sg10_30_cif.got.tgz:58288.got - 2010.06.27 22:07:45.
