data_PCOD8059190
_publ_section_title
;
Structure prediction by ZEFSAII (Michael W. Deem and Ramdas Pophale) SiO2 
 PCOD8059190
Probable space group: P 2/M
;
_chemical_formula_sum "Si O2"
_cell_formula_units_Z 28
_cell_length_a 13.483520
_cell_length_b 8.610633
_cell_length_c 11.363627
_cell_angle_alpha 90.000000
_cell_angle_beta 96.638481
_cell_angle_gamma 90.000000
_cell_volume 1310.490069
_symmetry_space_group_name_H-M "P 2/M"
_symmetry_group_IT_number 10
_symmetry_cell_setting 'monoclinic'
loop_
_space_group_symop_operation_xyz
x,y,z
-x,y,-z
-x,-y,-z
x,-y,z
loop_
_atom_site_type_symbol
_atom_site_label
_atom_site_fract_x
_atom_site_fract_y
_atom_site_fract_z
Si Si1 0.240609 0.821428 0.377512
Si Si2 0.456634 0.180779 0.120318
Si Si3 0.111501 0.317299 0.550731
Si Si4 0.261236 0.326449 0.023666
Si Si5 0.123634 0.683207 0.816382
Si Si6 0.547754 0.318130 0.630505
Si Si7 0.905876 0.673846 0.816281
O O1 0.199428 0.774965 0.498652
O O2 0.334959 0.716889 0.355401
O O3 0.149388 0.790772 0.277913
O O4 0.274102 0.000000 0.378452
O O5 0.338190 0.213465 0.099184
O O6 0.497802 0.251428 0.250803
O O7 0.479250 0.000000 0.129968
O O8 0.500000 0.247663 0.000000
O O9 0.126460 0.500000 0.533059
O O10 0.128532 0.261315 0.684570
O O11 0.000000 0.266077 0.500000
O O12 0.308973 0.500000 0.021793
O O13 0.154941 0.336400 0.072953
O O14 0.223976 0.252284 0.894736
O O15 0.131523 0.500000 0.830855
O O16 0.017198 0.738447 0.855696
O O17 0.500000 0.252261 0.500000
O O18 0.528305 0.500000 0.633518
O O19 0.912925 0.500000 0.758635
#
# Coordination Sequence:
#
# PCOD8059190 Si02
#       7
#     4   4   4   4   4   4   4
#     4  12  24  37  59  89 124 160 198 244 308 376
#     4  11  25  44  66  94 131 169 204 251 322 391
#     4  10  19  35  58  83 119 164 212 258 297 348
#     4  10  20  35  61  91 120 157 205 254 299 357
#     4   9  18  33  56  89 122 159 206 254 300 348
#     4  11  25  46  72  98 121 155 212 271 318 375
#     4  10  18  34  59  86 118 157 204 247 295 355
#
# _framework density 21.366053000000001
#
# number of rings (size 3 to 8) (size 9 to 14) (size 15 to 20)
#    0.000    1.571    2.857    2.571    0.000    5.429 
#    0.000    5.714    0.000    1.714    0.000    0.000 
#    0.000    0.000    0.000    0.000    0.000    0.000 
#
# Total GULP energy -346928.627633 kJ/mol
# GULP energy per Si atom -12390.308130 kJ/mol
# Density = 2.131742 g / cm^3
# Si number density = 21.366053 Si / 1000 Ang^3
#
#
#
# Elastic Constant Matrix: (Units=GPa)
#
#
# Indices 1 2 3 4 5 6 
#
# 1 53.6069 10.9635 25.3045 0.0000 -7.6891 0.0000
# 2 10.9635 52.1355 28.1554 0.0000 -3.9660 0.0000
# 3 25.3045 28.1554 155.6294 0.0000 -1.1237 0.0000
# 4 0.0000 0.0000 0.0000 20.6310 0.0000 -6.3422
# 5 -7.6891 -3.9660 -1.1237 0.0000 35.7348 0.0000
# 6 0.0000 0.0000 0.0000 -6.3422 0.0000 10.5731
#
#
#
# Elastic Compliance Matrix: (Units=1/GPa)
#
#
# Indices 1 2 3 4 5 6 
#
# 1 0.021167 -0.002539 -0.002952 0.000000 0.004180 0.000000
# 2 -0.002539 0.021743 -0.003508 0.000000 0.001756 0.000000
# 3 -0.002952 -0.003508 0.007534 0.000000 -0.000788 0.000000
# 4 0.000000 0.000000 0.000000 0.059430 0.000000 0.035648
# 5 0.004180 0.001756 -0.000788 0.000000 0.029054 0.000000
# 6 0.000000 0.000000 0.000000 0.035648 0.000000 0.115963
#
#
# Mechanical properties :
#
#
# Convention : Reuss Voigt Hill
#
# Bulk Modulus (GPa) = 30.82058 43.35760 37.08909
# Shear Modulus (GPa) = 17.62404 26.51766 22.07085
#
# Velocity S-wave (km/s) = 2.87516 3.52676 3.21750
# Velocity P-wave (km/s) = 5.04761 6.07626 5.58566
#
# Compressibility (1/GPa) = 0.03244586
#
# Stress axis : x y z
#
# Youngs Moduli (GPa) = 47.24423 45.99221 132.72313
#
# Poissons Ratio (x) = 0.11677 0.39181
# Poissons Ratio (y) = 0.11995 0.46560
# Poissons Ratio (z) = 0.13947 0.16134
#
# Static dielectric constant tensor:
#      x y z
#    x 3.771940 0.000000 -0.131490 
#    y 0.000000 3.485370 0.000000 
#    z -0.131490 0.000000 4.410610 
# 
# 
# High freq. dielectric constant tensor:
#      x y z
#    x 1.829590 0.000000 -0.005380 
#    y 0.000000 1.799350 0.000000 
#    z -0.005380 0.000000 1.859620 
# 
# From -- ./inp_files/49370.got.cif
#   From: 2010.06.25/outbox.cif.g09.slc.cpg/sg10_25_cif.got.tgz:49370.got - 2010.06.27 22:07:45.
