data_PCOD8059131
_publ_section_title
;
Structure prediction by ZEFSAII (Michael W. Deem and Ramdas Pophale) SiO2 
 PCOD8059131
Probable space group: P 2/M
;
_chemical_formula_sum "Si O2"
_cell_formula_units_Z 28
_cell_length_a 23.831208
_cell_length_b 11.850144
_cell_length_c 16.558879
_cell_angle_alpha 90.000000
_cell_angle_beta 19.027959
_cell_angle_gamma 90.000000
_cell_volume 1524.605649
_symmetry_space_group_name_H-M "P 2/M"
_symmetry_group_IT_number 10
_symmetry_cell_setting 'monoclinic'
loop_
_space_group_symop_operation_xyz
x,y,z
-x,y,-z
-x,-y,-z
x,-y,z
loop_
_atom_site_type_symbol
_atom_site_label
_atom_site_fract_x
_atom_site_fract_y
_atom_site_fract_z
Si Si1 0.201526 0.281256 0.567879
Si Si2 0.303964 0.132451 0.283737
Si Si3 0.155863 0.370551 0.924918
Si Si4 0.922067 0.276996 0.523289
Si Si5 0.395525 0.368297 0.450774
Si Si6 0.710542 0.500000 0.811389
Si Si7 0.334317 0.500000 0.313929
Si Si8 0.773601 0.628285 0.989003
O O1 0.243994 0.174282 0.453949
O O2 0.328047 0.286330 0.472196
O O3 0.222292 0.390899 0.484472
O O4 0.004394 0.284580 0.866705
O O5 0.199825 0.185207 0.351258
O O6 0.274734 0.000000 0.322022
O O7 0.500000 0.167161 0.000000
O O8 0.093725 0.500000 0.997082
O O9 0.296398 0.337460 0.667543
O O10 0.245401 0.354230 0.889604
O O11 0.817445 0.389761 0.690431
O O12 0.000000 0.227150 0.500000
O O13 0.073512 0.296575 0.253242
O O14 0.364735 0.500000 0.470320
O O15 0.594691 0.338411 0.191066
O O16 0.651456 0.500000 0.800480
O O17 0.517917 0.500000 0.113578
O O18 0.820454 0.500000 0.903810
#
# Coordination Sequence:
#
# PCOD8059131 Si02
#       8
#     4   4   4   4   4   2   2   4
#     4  12  20  35  58  85 112 147 192 236 284 335
#     4  11  26  46  63  80 108 150 198 244 291 342
#     4  10  18  34  53  82 122 160 191 222 273 340
#     4  12  24  36  59  88 118 150 185 237 290 348
#     4  10  21  31  53  87 126 158 185 225 274 342
#     4  11  21  34  50  87 122 151 183 220 293 348
#     4  11  20  30  55  83 117 154 184 226 283 355
#     4  10  20  34  50  83 125 160 185 215 273 345
#
# _framework density 18.365404999999999
#
# number of rings (size 3 to 8) (size 9 to 14) (size 15 to 20)
#    0.000    1.143    5.000    1.929    4.000    3.143 
#    0.000    0.000    0.000    1.714    0.000    1.000 
#    0.000    0.000    0.000    0.000    0.000    0.000 
#
# Total GULP energy -347256.472450 kJ/mol
# GULP energy per Si atom -12402.016873 kJ/mol
# Density = 1.832360 g / cm^3
# Si number density = 18.365405 Si / 1000 Ang^3
#
#
#
# Elastic Constant Matrix: (Units=GPa)
#
#
# Indices 1 2 3 4 5 6 
#
# 1 111.8503 37.8037 29.0354 0.0000 -17.3075 0.0000
# 2 37.8037 62.3091 38.7405 0.0000 -5.3269 0.0000
# 3 29.0354 38.7405 92.0429 0.0000 -11.1520 0.0000
# 4 0.0000 0.0000 0.0000 21.5061 0.0000 0.6966
# 5 -17.3075 -5.3269 -11.1520 0.0000 34.4596 0.0000
# 6 0.0000 0.0000 0.0000 0.6966 0.0000 11.6917
#
#
#
# Elastic Compliance Matrix: (Units=1/GPa)
#
#
# Indices 1 2 3 4 5 6 
#
# 1 0.012047 -0.006632 -0.000416 0.000000 0.004891 0.000000
# 2 -0.006632 0.025394 -0.008872 0.000000 -0.002277 0.000000
# 3 -0.000416 -0.008872 0.015132 0.000000 0.003317 0.000000
# 4 0.000000 0.000000 0.000000 0.046588 0.000000 -0.002776
# 5 0.004891 -0.002277 0.003317 0.000000 0.032197 0.000000
# 6 0.000000 0.000000 0.000000 -0.002776 0.000000 0.085696
#
#
# Mechanical properties :
#
#
# Convention : Reuss Voigt Hill
#
# Bulk Modulus (GPa) = 48.23410 53.04017 50.63713
# Shear Modulus (GPa) = 19.54600 24.23965 21.89283
#
# Velocity S-wave (km/s) = 3.26588 3.63692 3.45638
# Velocity P-wave (km/s) = 6.36725 6.82491 6.60005
#
# Compressibility (1/GPa) = 0.02073222
#
# Stress axis : x y z
#
# Youngs Moduli (GPa) = 83.00898 39.37880 66.08555
#
# Poissons Ratio (x) = 0.26116 0.02751
# Poissons Ratio (y) = 0.55052 0.58632
# Poissons Ratio (z) = 0.03456 0.34937
#
# Static dielectric constant tensor:
#      x y z
#    x 3.483470 0.000000 -0.017290 
#    y 0.000000 2.925320 0.000000 
#    z -0.017290 0.000000 3.609540 
# 
# 
# High freq. dielectric constant tensor:
#      x y z
#    x 1.731010 0.000000 -0.002730 
#    y 0.000000 1.644740 0.000000 
#    z -0.002730 0.000000 1.732630 
# 
# From -- ./inp_files/80226.got.cif
#   From: 2010.06.25/outbox.cif.g09.slc.cpg/sg10_41_cif.got.tgz:80226.got - 2010.06.27 22:07:45.
