data_PCOD8059729
_publ_section_title
;
Structure prediction by ZEFSAII (Michael W. Deem and Ramdas Pophale) SiO2 
 PCOD8059729
Probable space group: P 2/M
;
_chemical_formula_sum "Si O2"
_cell_formula_units_Z 28
_cell_length_a 22.336600
_cell_length_b 13.720774
_cell_length_c 22.896276
_cell_angle_alpha 90.000000
_cell_angle_beta 12.889219
_cell_angle_gamma 90.000000
_cell_volume 1565.291643
_symmetry_space_group_name_H-M "P 2/M"
_symmetry_group_IT_number 10
_symmetry_cell_setting 'monoclinic'
loop_
_space_group_symop_operation_xyz
x,y,z
-x,y,-z
-x,-y,-z
x,-y,z
loop_
_atom_site_type_symbol
_atom_site_label
_atom_site_fract_x
_atom_site_fract_y
_atom_site_fract_z
Si Si1 0.705939 0.615231 0.960819
Si Si2 0.277749 0.614955 0.461666
Si Si3 0.933258 0.108492 0.495934
Si Si4 0.566695 0.228519 0.004031
Si Si5 0.854397 0.695931 0.076326
Si Si6 0.694042 0.386872 0.433936
Si Si7 0.709025 0.894666 0.250809
O O1 0.685673 0.500000 0.968580
O O2 0.613196 0.666737 0.989309
O O3 0.002197 0.651677 0.695115
O O4 0.520754 0.650748 0.190286
O O5 0.274132 0.500000 0.469032
O O6 0.317044 0.655355 0.489742
O O7 0.000000 0.099784 0.500000
O O8 0.174827 0.160873 0.232845
O O9 0.891092 0.000000 0.509751
O O10 0.669262 0.172828 0.737877
O O11 0.500000 0.249331 0.000000
O O12 0.600382 0.623476 0.314968
O O13 0.730247 0.804992 0.184943
O O14 0.000000 0.683708 0.000000
O O15 0.074844 0.674268 0.817822
O O16 0.777073 0.500000 0.351978
O O17 0.500000 0.864297 0.500000
O O18 0.622630 0.000000 0.304615
O O19 0.000000 0.908793 0.000000
#
# Coordination Sequence:
#
# PCOD8059729 Si02
#       7
#     4   4   4   4   4   4   4
#     4  10  19  33  52  73  99 129 165 208 246 287
#     4   9  19  35  52  69  91 129 180 216 233 266
#     4   9  17  30  47  69 100 134 167 202 238 286
#     4  10  19  30  48  77 106 130 159 197 253 311
#     4  11  21  33  50  77 107 131 159 196 249 308
#     4  11  22  35  51  72 101 135 169 203 238 286
#     4   9  17  31  50  71  97 127 160 198 235 279
#
# _framework density 17.88804
#
# number of rings (size 3 to 8) (size 9 to 14) (size 15 to 20)
#    0.000    2.143    0.000    4.714    0.000    6.000 
#    0.000    0.000    0.000    5.143    0.000   20.000 
#    0.000    0.000    0.000    0.000    0.000    0.000 
#
# Total GULP energy -347131.583867 kJ/mol
# GULP energy per Si atom -12397.556567 kJ/mol
# Density = 1.784733 g / cm^3
# Si number density = 17.888040 Si / 1000 Ang^3
#
#
#
# Elastic Constant Matrix: (Units=GPa)
#
#
# Indices 1 2 3 4 5 6 
#
# 1 59.4890 38.1903 15.5630 0.0000 -1.5269 0.0000
# 2 38.1903 81.4611 23.7586 0.0000 -2.0842 0.0000
# 3 15.5630 23.7586 109.6630 0.0000 -8.6624 0.0000
# 4 0.0000 0.0000 0.0000 7.8261 0.0000 -7.9558
# 5 -1.5269 -2.0842 -8.6624 0.0000 18.7053 0.0000
# 6 0.0000 0.0000 0.0000 -7.9558 0.0000 2.7569
#
#
#
# Elastic Compliance Matrix: (Units=1/GPa)
#
#
# Indices 1 2 3 4 5 6 
#
# 1 0.024159 -0.011022 -0.001019 0.000000 0.000272 0.000000
# 2 -0.011022 0.018133 -0.002362 0.000000 0.000027 0.000000
# 3 -0.001019 -0.002362 0.010118 0.000000 0.004339 0.000000
# 4 0.000000 0.000000 0.000000 -0.066083 0.000000 -0.190698
# 5 0.000272 0.000027 0.004339 0.000000 0.055495 0.000000
# 6 0.000000 0.000000 0.000000 -0.190698 0.000000 -0.187587
#
#
# Mechanical properties :
#
#
# Convention : Reuss Voigt Hill
#
# Bulk Modulus (GPa) = 42.36700 45.07077 43.71888
# Shear Modulus (GPa) = -45.83390 17.39773 -14.21808
#
# Velocity S-wave (km/s) = -5.06737 3.12202 -2.82234
# Velocity P-wave (km/s) = 3.24064 6.18440 3.72458
#
# Compressibility (1/GPa) = 0.02360328
#
# Stress axis : x y z
#
# Youngs Moduli (GPa) = 41.39186 55.14875 98.83376
#
# Poissons Ratio (x) = 0.60786 0.10073
# Poissons Ratio (y) = 0.45623 0.23346
# Poissons Ratio (z) = 0.04218 0.13027
#
# Static dielectric constant tensor:
#      x y z
#    x 3.123140 0.000000 0.012620 
#    y 0.000000 3.566550 0.000000 
#    z 0.012620 0.000000 3.623970 
# 
# 
# High freq. dielectric constant tensor:
#      x y z
#    x 1.655840 0.000000 0.000160 
#    y 0.000000 1.686450 0.000000 
#    z 0.000160 0.000000 1.719790 
# 
# From -- ./inp_files/90969.got.cif
#   From: 2010.06.25/outbox.cif.g09.slc.cpg/sg10_46_cif.got.tgz:90969.got - 2010.06.27 22:07:45.
