data_PCOD8059464
_publ_section_title
;
Structure prediction by ZEFSAII (Michael W. Deem and Ramdas Pophale) SiO2 
 PCOD8059464
Probable space group: P 2/M
;
_chemical_formula_sum "Si O2"
_cell_formula_units_Z 26
_cell_length_a 5.560307
_cell_length_b 21.728123
_cell_length_c 12.333354
_cell_angle_alpha 90.000000
_cell_angle_beta 111.520777
_cell_angle_gamma 90.000000
_cell_volume 1386.174842
_symmetry_space_group_name_H-M "P 2/M"
_symmetry_group_IT_number 10
_symmetry_cell_setting 'monoclinic'
loop_
_space_group_symop_operation_xyz
x,y,z
-x,y,-z
-x,-y,-z
x,-y,z
loop_
_atom_site_type_symbol
_atom_site_label
_atom_site_fract_x
_atom_site_fract_y
_atom_site_fract_z
Si Si1 0.503965 0.236335 0.339092
Si Si2 0.000000 0.174955 0.500000
Si Si3 0.394933 0.373683 0.366551
Si Si4 0.092859 0.862295 0.289854
Si Si5 0.414681 0.185193 0.871126
Si Si6 0.759453 0.068959 0.881424
Si Si7 0.108391 0.571047 0.637729
O O1 0.772993 0.224529 0.444321
O O2 0.381704 0.300388 0.354465
O O3 0.334383 0.180506 0.352792
O O4 0.512730 0.233919 0.209530
O O5 0.005168 0.127234 0.603234
O O6 0.500000 0.395285 0.500000
O O7 0.599800 0.399678 0.310130
O O8 0.097155 0.398714 0.310137
O O9 0.163091 0.923343 0.233263
O O10 0.891483 0.824855 0.181747
O O11 0.540521 0.117869 0.874510
O O12 0.500000 0.213664 0.000000
O O13 0.649203 0.000000 0.878289
O O14 0.000000 0.080273 0.000000
O O15 0.133806 0.500000 0.673009
O O16 0.000000 0.581564 0.500000
#
# Coordination Sequence:
#
# PCOD8059464 Si02
#       7
#     4   2   4   4   4   4   4
#     4  10  22  32  53  78 105 140 179 224 263 327
#     4  10  20  34  53  74 105 138 184 208 272 324
#     4  10  19  29  49  72 106 143 189 222 267 324
#     4  10  20  35  53  75 107 136 171 219 269 322
#     4  10  20  35  54  77 106 136 168 217 281 323
#     4  10  20  34  54  79 103 132 176 220 264 326
#     4   9  18  30  45  69 105 147 184 225 268 315
#
# _framework density 18.756654000000001
#
# number of rings (size 3 to 8) (size 9 to 14) (size 15 to 20)
#    0.000    2.154    1.538    1.846    7.538    2.769 
#    0.000    0.385    0.000   12.000    0.000    0.000 
#    0.000    3.692    0.000    0.000    0.000    0.000 
#
# Total GULP energy -322128.125668 kJ/mol
# GULP energy per Si atom -12389.543295 kJ/mol
# Density = 1.871396 g / cm^3
# Si number density = 18.756654 Si / 1000 Ang^3
#
#
#
# Elastic Constant Matrix: (Units=GPa)
#
#
# Indices 1 2 3 4 5 6 
#
# 1 104.5031 30.8957 21.3710 0.0000 7.6998 0.0000
# 2 30.8957 76.4873 12.0384 0.0000 1.6965 0.0000
# 3 21.3710 12.0384 91.9253 0.0000 -4.1538 0.0000
# 4 0.0000 0.0000 0.0000 9.8984 0.0000 -9.2972
# 5 7.6998 1.6965 -4.1538 0.0000 23.1809 0.0000
# 6 0.0000 0.0000 0.0000 -9.2972 0.0000 14.2584
#
#
#
# Elastic Compliance Matrix: (Units=1/GPa)
#
#
# Indices 1 2 3 4 5 6 
#
# 1 0.011584 -0.004227 -0.002318 0.000000 -0.003954 0.000000
# 2 -0.004227 0.014930 -0.000966 0.000000 0.000138 0.000000
# 3 -0.002318 -0.000966 0.011676 0.000000 0.002933 0.000000
# 4 0.000000 0.000000 0.000000 0.260678 0.000000 0.169976
# 5 -0.003954 0.000138 0.002933 0.000000 0.044968 0.000000
# 6 0.000000 0.000000 0.000000 0.169976 0.000000 0.180967
#
#
# Mechanical properties :
#
#
# Convention : Reuss Voigt Hill
#
# Bulk Modulus (GPa) = 43.16232 44.61399 43.88816
# Shear Modulus (GPa) = 9.13160 23.37491 16.25325
#
# Velocity S-wave (km/s) = 2.20885 3.53401 2.94689
# Velocity P-wave (km/s) = 5.43756 6.36315 5.91848
#
# Compressibility (1/GPa) = 0.02316836
#
# Stress axis : x y z
#
# Youngs Moduli (GPa) = 86.32538 66.97755 85.64254
#
# Poissons Ratio (x) = 0.28309 0.19854
# Poissons Ratio (y) = 0.36486 0.08277
# Poissons Ratio (z) = 0.20012 0.06473
#
# Static dielectric constant tensor:
#      x y z
#    x 3.878830 0.000000 -0.097720 
#    y 0.000000 3.141300 0.000000 
#    z -0.097720 0.000000 3.420710 
# 
# 
# High freq. dielectric constant tensor:
#      x y z
#    x 1.750460 0.000000 -0.000460 
#    y 0.000000 1.698130 0.000000 
#    z -0.000460 0.000000 1.696080 
# 
# From -- ./inp_files/39628.got.cif
#   From: 2010.06.25/outbox.cif.g09.slc.cpg/sg10_20_cif.got.tgz:39628.got - 2010.06.27 22:07:45.
