data_PCOD8059805
_publ_section_title
;
Structure prediction by ZEFSAII (Michael W. Deem and Ramdas Pophale) SiO2 
 PCOD8059805
Probable space group: P 2/M
;
_chemical_formula_sum "Si O2"
_cell_formula_units_Z 28
_cell_length_a 5.162835
_cell_length_b 21.083287
_cell_length_c 22.459452
_cell_angle_alpha 90.000000
_cell_angle_beta 69.603562
_cell_angle_gamma 90.000000
_cell_volume 2291.427040
_symmetry_space_group_name_H-M "P 2/M"
_symmetry_group_IT_number 10
_symmetry_cell_setting 'monoclinic'
loop_
_space_group_symop_operation_xyz
x,y,z
-x,y,-z
-x,-y,-z
x,-y,z
loop_
_atom_site_type_symbol
_atom_site_label
_atom_site_fract_x
_atom_site_fract_y
_atom_site_fract_z
Si Si1 0.815042 0.633944 0.457073
Si Si2 0.398707 0.924178 0.710489
Si Si3 0.778253 0.924732 0.144407
Si Si4 0.611928 0.924273 0.928142
Si Si5 0.813864 0.000000 0.457525
Si Si6 0.986575 0.886138 0.362580
Si Si7 0.816809 0.500000 0.455937
Si Si8 0.817146 0.772468 0.455768
O O1 0.500000 0.632573 0.500000
O O2 0.878006 0.567267 0.415715
O O3 0.867652 0.702241 0.422079
O O4 0.000000 0.632904 0.500000
O O5 0.332518 0.902983 0.782807
O O6 0.152325 0.896280 0.690420
O O7 0.684954 0.892434 0.668651
O O8 0.417812 0.000000 0.701814
O O9 0.579364 0.897439 0.109259
O O10 0.082554 0.897266 0.107831
O O11 0.786597 0.000000 0.140814
O O12 0.611347 0.000000 0.928065
O O13 0.500000 0.898394 0.000000
O O14 0.500000 0.000000 0.500000
O O15 0.868591 0.937674 0.416291
O O16 0.000000 0.000000 0.500000
O O17 0.909450 0.818191 0.395361
O O18 0.500000 0.500000 0.500000
O O19 0.000000 0.500000 0.500000
O O20 0.500000 0.783776 0.500000
O O21 0.000000 0.783793 0.500000
#
# Coordination Sequence:
#
# PCOD8059805 Si02
#       8
#     4   4   4   4   2   4   2   4
#     4   8  14  23  37  52  70  86 102 123 153 201
#     4  11  20  33  42  53  66  85 115 145 174 207
#     4   9  17  26  39  52  68  88 105 129 159 193
#     4   9  15  24  37  56  74  88 102 120 151 197
#     4  12  22  32  42  52  62  76 101 144 187 222
#     4  12  21  32  43  52  65  84 111 146 180 221
#     4   8  12  20  34  54  70  86 102 118 144 188
#     4  10  19  31  41  53  68  86 107 137 180 222
#
# _framework density 12.21946
#
# number of rings (size 3 to 8) (size 9 to 14) (size 15 to 20)
#    0.000    2.143    1.429    3.857    0.000    4.000 
#    0.000    0.000    0.000    0.000    0.000    0.000 
#    0.000    0.000    0.000    0.000    0.000    0.000 
#
# Total GULP energy -346879.120439 kJ/mol
# GULP energy per Si atom -12388.540016 kJ/mol
# Density = 1.219165 g / cm^3
# Si number density = 12.219460 Si / 1000 Ang^3
#
#
#
# Elastic Constant Matrix: (Units=GPa)
#
#
# Indices 1 2 3 4 5 6 
#
# 1 88.0088 7.4244 21.7642 0.0000 2.7675 0.0000
# 2 7.4244 80.9010 24.0200 0.0000 1.3371 0.0000
# 3 21.7642 24.0200 61.2835 0.0000 3.3936 0.0000
# 4 0.0000 0.0000 0.0000 4.5269 0.0000 -0.4991
# 5 2.7675 1.3371 3.3936 0.0000 24.2326 0.0000
# 6 0.0000 0.0000 0.0000 -0.4991 0.0000 10.8439
#
#
#
# Elastic Compliance Matrix: (Units=1/GPa)
#
#
# Indices 1 2 3 4 5 6 
#
# 1 0.012475 0.000193 -0.004461 0.000000 -0.000811 0.000000
# 2 0.000193 0.013992 -0.005552 0.000000 -0.000017 0.000000
# 3 -0.004461 -0.005552 0.020189 0.000000 -0.002012 0.000000
# 4 0.000000 0.000000 0.000000 0.222029 0.000000 0.010219
# 5 -0.000811 -0.000017 -0.002012 0.000000 0.041642 0.000000
# 6 0.000000 0.000000 0.000000 0.010219 0.000000 0.092688
#
#
# Mechanical properties :
#
#
# Convention : Reuss Voigt Hill
#
# Bulk Modulus (GPa) = 37.01447 37.40117 37.20782
# Shear Modulus (GPa) = 11.58318 19.71965 15.65142
#
# Velocity S-wave (km/s) = 3.08219 4.02156 3.58279
# Velocity P-wave (km/s) = 6.55924 7.22760 6.90152
#
# Compressibility (1/GPa) = 0.02701646
#
# Stress axis : x y z
#
# Youngs Moduli (GPa) = 80.16084 71.47116 49.53123
#
# Poissons Ratio (x) = -0.01380 0.22097
# Poissons Ratio (y) = -0.01548 0.27498
# Poissons Ratio (z) = 0.35761 0.39678
#
# Static dielectric constant tensor:
#      x y z
#    x 2.926490 0.000000 -0.020790 
#    y 0.000000 2.741320 0.000000 
#    z -0.020790 0.000000 2.394560 
# 
# 
# High freq. dielectric constant tensor:
#      x y z
#    x 1.494300 0.000000 -0.001590 
#    y 0.000000 1.429230 0.000000 
#    z -0.001590 0.000000 1.431330 
# 
# From -- ./inp_files/11653.got.cif
#   From: 2010.06.25/outbox.cif.g09.slc.cpg/sg10_6_cif.got.tgz:11653.got - 2010.06.27 22:07:45.
