data_PCOD8059719
_publ_section_title
;
Structure prediction by ZEFSAII (Michael W. Deem and Ramdas Pophale) SiO2 
 PCOD8059719
Probable space group: P 2/M
;
_chemical_formula_sum "Si O2"
_cell_formula_units_Z 32
_cell_length_a 18.948276
_cell_length_b 8.673482
_cell_length_c 26.791275
_cell_angle_alpha 90.000000
_cell_angle_beta 24.587362
_cell_angle_gamma 90.000000
_cell_volume 1832.034484
_symmetry_space_group_name_H-M "P 2/M"
_symmetry_group_IT_number 10
_symmetry_cell_setting 'monoclinic'
loop_
_space_group_symop_operation_xyz
x,y,z
-x,y,-z
-x,-y,-z
x,-y,z
loop_
_atom_site_type_symbol
_atom_site_label
_atom_site_fract_x
_atom_site_fract_y
_atom_site_fract_z
Si Si1 0.666029 0.820715 0.239580
Si Si2 0.677068 0.677262 0.502708
Si Si3 0.839877 0.676558 0.500289
Si Si4 0.598029 0.181547 0.735238
Si Si5 0.896734 0.322654 0.170831
Si Si6 0.880467 0.170518 0.624650
Si Si7 0.691862 0.820632 0.389485
Si Si8 0.275774 0.677413 0.903065
O O1 0.507917 0.720363 0.358756
O O2 0.824742 0.781810 0.172633
O O3 0.714332 0.782961 0.152064
O O4 0.620407 0.000000 0.274003
O O5 0.673858 0.500000 0.487718
O O6 0.814374 0.705339 0.457969
O O7 0.731676 0.782248 0.421206
O O8 0.804791 0.500000 0.537247
O O9 0.706338 0.780398 0.616125
O O10 0.034972 0.719005 0.388354
O O11 0.698736 0.231569 0.721061
O O12 0.421274 0.272654 0.848421
O O13 0.564206 0.000000 0.756956
O O14 0.854078 0.500000 0.186495
O O15 0.818653 0.276304 0.273917
O O16 0.097795 0.295537 0.044888
O O17 0.000000 0.162402 0.500000
O O18 0.861009 0.000000 0.660555
O O19 0.500000 0.772208 0.500000
O O20 0.721757 0.000000 0.359932
O O21 0.300718 0.500000 0.871192
#
# Coordination Sequence:
#
# PCOD8059719 Si02
#       8
#     4   4   4   4   4   4   4   4
#     4  12  23  35  54  78 105 139 177 216 261 309
#     4  11  22  35  54  78 106 140 176 215 263 311
#     4  10  19  30  48  75 105 137 174 213 255 309
#     4  10  19  31  49  73 104 141 174 210 257 308
#     4  11  24  40  57  75 102 139 177 220 265 311
#     4   8  16  29  45  69 102 138 172 206 253 309
#     4  11  23  38  57  80 102 131 177 223 264 312
#     4  11  23  37  53  77 106 140 179 215 259 314
#
# _framework density 17.466919000000001
#
# number of rings (size 3 to 8) (size 9 to 14) (size 15 to 20)
#    0.000    1.500    2.500    4.500    0.000    8.250 
#    0.000    0.000    0.000    0.000    0.000    0.875 
#    0.000    7.000    0.000    0.000    0.000    0.000 
#
# Total GULP energy -396873.193763 kJ/mol
# GULP energy per Si atom -12402.287305 kJ/mol
# Density = 1.742716 g / cm^3
# Si number density = 17.466919 Si / 1000 Ang^3
#
#
#
# Elastic Constant Matrix: (Units=GPa)
#
#
# Indices 1 2 3 4 5 6 
#
# 1 111.8687 36.1482 44.7796 0.0000 -21.3991 0.0000
# 2 36.1482 53.8906 18.8942 0.0000 -5.1806 0.0000
# 3 44.7796 18.8942 75.9374 0.0000 -6.5313 0.0000
# 4 0.0000 0.0000 0.0000 18.2089 0.0000 -2.6308
# 5 -21.3991 -5.1806 -6.5313 0.0000 19.7672 0.0000
# 6 0.0000 0.0000 0.0000 -2.6308 0.0000 31.2932
#
#
#
# Elastic Compliance Matrix: (Units=1/GPa)
#
#
# Indices 1 2 3 4 5 6 
#
# 1 0.016757 -0.007513 -0.006815 0.000000 0.013920 0.000000
# 2 -0.007513 0.023974 -0.001743 0.000000 -0.002426 0.000000
# 3 -0.006815 -0.001743 0.017443 0.000000 -0.002071 0.000000
# 4 0.000000 0.000000 0.000000 0.055594 0.000000 0.004674
# 5 0.013920 -0.002426 -0.002071 0.000000 0.064338 0.000000
# 6 0.000000 0.000000 0.000000 0.004674 0.000000 0.032349
#
#
# Mechanical properties :
#
#
# Convention : Reuss Voigt Hill
#
# Bulk Modulus (GPa) = 38.41500 49.03785 43.72642
# Shear Modulus (GPa) = 19.89858 23.31215 21.60537
#
# Velocity S-wave (km/s) = 3.37889 3.65724 3.52082
# Velocity P-wave (km/s) = 6.10436 6.78009 6.45108
#
# Compressibility (1/GPa) = 0.02603150
#
# Stress axis : x y z
#
# Youngs Moduli (GPa) = 59.67496 41.71271 57.32890
#
# Poissons Ratio (x) = 0.31338 0.39071
# Poissons Ratio (y) = 0.44833 0.09994
# Poissons Ratio (z) = 0.40669 0.07272
#
# Static dielectric constant tensor:
#      x y z
#    x 3.530130 0.000000 -0.272510 
#    y 0.000000 3.346900 0.000000 
#    z -0.272510 0.000000 3.022130 
# 
# 
# High freq. dielectric constant tensor:
#      x y z
#    x 1.676530 0.000000 -0.018130 
#    y 0.000000 1.689500 0.000000 
#    z -0.018130 0.000000 1.635950 
# 
# From -- ./inp_files/93677.got.cif
#   From: 2010.06.25/outbox.cif.g09.slc.cpg/sg10_47_cif.got.tgz:93677.got - 2010.06.27 22:07:45.
