data_PCOD8059893
_publ_section_title
;
Structure prediction by ZEFSAII (Michael W. Deem and Ramdas Pophale) SiO2 
 PCOD8059893
Probable space group: P 2/M
;
_chemical_formula_sum "Si O2"
_cell_formula_units_Z 32
_cell_length_a 10.304206
_cell_length_b 13.758501
_cell_length_c 14.260560
_cell_angle_alpha 90.000000
_cell_angle_beta 80.874623
_cell_angle_gamma 90.000000
_cell_volume 1996.138054
_symmetry_space_group_name_H-M "P 2/M"
_symmetry_group_IT_number 10
_symmetry_cell_setting 'monoclinic'
loop_
_space_group_symop_operation_xyz
x,y,z
-x,y,-z
-x,-y,-z
x,-y,z
loop_
_atom_site_type_symbol
_atom_site_label
_atom_site_fract_x
_atom_site_fract_y
_atom_site_fract_z
Si Si1 0.221265 0.110017 0.615687
Si Si2 0.522022 0.217766 0.387505
Si Si3 0.154594 0.386465 0.250114
Si Si4 0.872931 0.615712 0.960318
Si Si5 0.598432 0.384672 0.065645
Si Si6 0.729514 0.892606 0.609592
Si Si7 0.026982 0.232852 0.387681
Si Si8 0.455447 0.612950 0.268836
O O1 0.339338 0.167479 0.653183
O O2 0.250780 0.102315 0.503223
O O3 0.090328 0.172690 0.646692
O O4 0.206230 0.000000 0.657992
O O5 0.500000 0.224109 0.500000
O O6 0.411113 0.153006 0.350119
O O7 0.509313 0.327216 0.351037
O O8 0.123323 0.500000 0.261825
O O9 0.131207 0.348683 0.146874
O O10 0.050675 0.333579 0.330468
O O11 0.303828 0.364392 0.263466
O O12 0.873972 0.500000 0.961600
O O13 0.744852 0.655541 0.029930
O O14 0.000000 0.657750 0.000000
O O15 0.597602 0.500000 0.056336
O O16 0.547146 0.352993 0.172775
O O17 0.500000 0.339917 0.000000
O O18 0.843345 0.830315 0.643459
O O19 0.734971 0.000000 0.652599
O O20 0.000000 0.255808 0.500000
O O21 0.474689 0.500000 0.290333
#
# Coordination Sequence:
#
# PCOD8059893 Si02
#       8
#     4   4   4   4   4   4   4   4
#     4   9  18  31  47  68  95 123 153 203 260 285
#     4  10  19  31  47  69  98 130 163 199 235 280
#     4  10  19  32  49  69  98 135 166 194 232 280
#     4   9  17  29  47  70  95 120 152 201 249 281
#     4   9  15  27  47  68  89 120 159 197 241 281
#     4   9  16  29  49  69  89 120 162 204 248 288
#     4  10  19  31  48  70  98 131 165 198 230 284
#     4  10  19  31  49  70  97 134 169 197 228 278
#
# _framework density 16.030956
#
# number of rings (size 3 to 8) (size 9 to 14) (size 15 to 20)
#    0.000    2.500    2.500    0.750    0.000    4.500 
#    0.000    1.875    0.000    0.000    0.000    0.000 
#    0.000   20.000    0.000    0.000    0.000    0.000 
#
# Total GULP energy -396703.442907 kJ/mol
# GULP energy per Si atom -12396.982591 kJ/mol
# Density = 1.599447 g / cm^3
# Si number density = 16.030956 Si / 1000 Ang^3
#
#
#
# Elastic Constant Matrix: (Units=GPa)
#
#
# Indices 1 2 3 4 5 6 
#
# 1 133.2902 46.3121 35.5918 0.0000 -4.5900 0.0000
# 2 46.3121 79.9229 37.3794 0.0000 -2.0191 0.0000
# 3 35.5918 37.3794 51.5143 0.0000 -6.5898 0.0000
# 4 0.0000 0.0000 0.0000 3.2070 0.0000 -0.9403
# 5 -4.5900 -2.0191 -6.5898 0.0000 19.5619 0.0000
# 6 0.0000 0.0000 0.0000 -0.9403 0.0000 24.2915
#
#
#
# Elastic Compliance Matrix: (Units=1/GPa)
#
#
# Indices 1 2 3 4 5 6 
#
# 1 0.009932 -0.003885 -0.003968 0.000000 0.000593 0.000000
# 2 -0.003885 0.020606 -0.012658 0.000000 -0.003049 0.000000
# 3 -0.003968 -0.012658 0.032450 0.000000 0.008694 0.000000
# 4 0.000000 0.000000 0.000000 0.315394 0.000000 0.012208
# 5 0.000593 -0.003049 0.008694 0.000000 0.053873 0.000000
# 6 0.000000 0.000000 0.000000 0.012208 0.000000 0.041639
#
#
# Mechanical properties :
#
#
# Convention : Reuss Voigt Hill
#
# Bulk Modulus (GPa) = 45.52098 55.92157 50.72127
# Shear Modulus (GPa) = 9.57417 19.10836 14.34127
#
# Velocity S-wave (km/s) = 2.44648 3.45623 2.99423
# Velocity P-wave (km/s) = 6.03636 7.13349 6.60773
#
# Compressibility (1/GPa) = 0.02196789
#
# Stress axis : x y z
#
# Youngs Moduli (GPa) = 100.68458 48.52925 30.81627
#
# Poissons Ratio (x) = 0.18852 0.12227
# Poissons Ratio (y) = 0.39112 0.39008
# Poissons Ratio (z) = 0.39947 0.61429
#
# Static dielectric constant tensor:
#      x y z
#    x 3.299940 0.000000 -0.040220 
#    y 0.000000 2.872250 0.000000 
#    z -0.040220 0.000000 2.806250 
# 
# 
# High freq. dielectric constant tensor:
#      x y z
#    x 1.631990 0.000000 -0.003290 
#    y 0.000000 1.589560 0.000000 
#    z -0.003290 0.000000 1.584720 
# 
# From -- ./inp_files/29162.got.cif
#   From: 2010.06.25/outbox.cif.g09.slc.cpg/sg10_15_cif.got.tgz:29162.got - 2010.06.27 22:07:45.
