data_PCOD8059006
_publ_section_title
;
Structure prediction by ZEFSAII (Michael W. Deem and Ramdas Pophale) SiO2 
 PCOD8059006
Probable space group: P 2/M
;
_chemical_formula_sum "Si O2"
_cell_formula_units_Z 32
_cell_length_a 12.631972
_cell_length_b 8.915568
_cell_length_c 19.157539
_cell_angle_alpha 90.000000
_cell_angle_beta 51.004502
_cell_angle_gamma 90.000000
_cell_volume 1676.834170
_symmetry_space_group_name_H-M "P 2/M"
_symmetry_group_IT_number 10
_symmetry_cell_setting 'monoclinic'
loop_
_space_group_symop_operation_xyz
x,y,z
-x,y,-z
-x,-y,-z
x,-y,z
loop_
_atom_site_type_symbol
_atom_site_label
_atom_site_fract_x
_atom_site_fract_y
_atom_site_fract_z
Si Si1 0.756907 0.824324 0.770006
Si Si2 0.835797 0.670123 0.990621
Si Si3 0.861975 0.326115 0.523516
Si Si4 0.347961 0.670244 0.059307
Si Si5 0.030745 0.674154 0.665043
Si Si6 0.395517 0.678706 0.285823
Si Si7 0.698747 0.322048 0.184485
Si Si8 0.915868 0.322182 0.202000
O O1 0.744545 0.779062 0.856052
O O2 0.636282 0.743647 0.777416
O O3 0.903671 0.764327 0.685843
O O4 0.746878 0.000000 0.763038
O O5 0.880441 0.500000 0.987191
O O6 0.701084 0.678885 0.999558
O O7 0.962762 0.747009 0.896827
O O8 0.792021 0.745741 0.082420
O O9 0.862716 0.500000 0.543384
O O10 0.854701 0.303484 0.442348
O O11 0.722416 0.257524 0.613366
O O12 0.000000 0.254268 0.500000
O O13 0.336972 0.500000 0.092473
O O14 0.500000 0.731562 0.000000
O O15 0.989679 0.500000 0.689160
O O16 0.079594 0.739091 0.720045
O O17 0.397487 0.500000 0.281919
O O18 0.544001 0.740217 0.248426
O O19 0.693610 0.500000 0.176664
O O20 0.771083 0.277493 0.227511
O O21 0.934567 0.500000 0.197717
#
# Coordination Sequence:
#
# PCOD8059006 Si02
#       8
#     4   4   4   4   4   4   4   4
#     4  12  23  33  49  75 107 137 167 210 264 308
#     4   9  15  25  44  72 102 131 163 202 246 292
#     4   9  16  28  51  76  98 130 171 210 255 308
#     4  10  19  32  51  75 102 138 178 209 246 303
#     4  10  18  33  54  75 100 133 172 209 255 309
#     4  10  19  34  53  73 101 135 171 212 257 311
#     4   9  17  28  46  76 105 129 165 212 254 295
#     4   9  16  27  47  74 104 132 165 211 254 294
#
# _framework density 19.083580999999999
#
# number of rings (size 3 to 8) (size 9 to 14) (size 15 to 20)
#    0.000    2.250    2.500    2.250    0.000    3.750 
#    0.000    1.875    0.000    4.500    0.000    0.875 
#    0.000    2.000    0.000    0.000    0.000    0.000 
#
# Total GULP energy -396572.075659 kJ/mol
# GULP energy per Si atom -12392.877364 kJ/mol
# Density = 1.904015 g / cm^3
# Si number density = 19.083581 Si / 1000 Ang^3
#
#
#
# Elastic Constant Matrix: (Units=GPa)
#
#
# Indices 1 2 3 4 5 6 
#
# 1 127.5370 10.9126 48.5312 0.0000 0.5826 0.0000
# 2 10.9126 25.3069 8.9770 0.0000 0.2515 0.0000
# 3 48.5312 8.9770 103.9883 0.0000 6.0216 0.0000
# 4 0.0000 0.0000 0.0000 3.0311 0.0000 -0.8862
# 5 0.5826 0.2515 6.0216 0.0000 25.9252 0.0000
# 6 0.0000 0.0000 0.0000 -0.8862 0.0000 3.3301
#
#
#
# Elastic Compliance Matrix: (Units=1/GPa)
#
#
# Indices 1 2 3 4 5 6 
#
# 1 0.009722 -0.002655 -0.004355 0.000000 0.000819 0.000000
# 2 -0.002655 0.041493 -0.002355 0.000000 0.000204 0.000000
# 3 -0.004355 -0.002355 0.012007 0.000000 -0.002668 0.000000
# 4 0.000000 0.000000 0.000000 0.357755 0.000000 0.095206
# 5 0.000819 0.000204 -0.002668 0.000000 0.039172 0.000000
# 6 0.000000 0.000000 0.000000 0.095206 0.000000 0.325624
#
#
# Mechanical properties :
#
#
# Convention : Reuss Voigt Hill
#
# Bulk Modulus (GPa) = 22.47632 43.74154 33.10893
# Shear Modulus (GPa) = 6.10253 19.01804 12.56028
#
# Velocity S-wave (km/s) = 1.79018 3.16027 2.56827
# Velocity P-wave (km/s) = 4.00954 6.02388 5.11681
#
# Compressibility (1/GPa) = 0.04449127
#
# Stress axis : x y z
#
# Youngs Moduli (GPa) = 102.86363 24.10042 83.28599
#
# Poissons Ratio (x) = 0.06399 0.36273
# Poissons Ratio (y) = 0.27313 0.19610
# Poissons Ratio (z) = 0.44800 0.05675
#
# Static dielectric constant tensor:
#      x y z
#    x 3.573680 0.000000 -0.024280 
#    y 0.000000 2.783930 0.000000 
#    z -0.024280 0.000000 3.716410 
# 
# 
# High freq. dielectric constant tensor:
#      x y z
#    x 1.744120 0.000000 0.004930 
#    y 0.000000 1.661740 0.000000 
#    z 0.004930 0.000000 1.747040 
# 
# From -- ./inp_files/83523.got.cif
#   From: 2010.06.25/outbox.cif.g09.slc.cpg/sg10_42_cif.got.tgz:83523.got - 2010.06.27 22:07:45.
