data_PCOD8059890
_publ_section_title
;
Structure prediction by ZEFSAII (Michael W. Deem and Ramdas Pophale) SiO2 
 PCOD8059890
Probable space group: P 2/M
;
_chemical_formula_sum "Si O2"
_cell_formula_units_Z 28
_cell_length_a 14.813244
_cell_length_b 12.695316
_cell_length_c 9.726467
_cell_angle_alpha 90.000000
_cell_angle_beta 109.165809
_cell_angle_gamma 90.000000
_cell_volume 1727.762664
_symmetry_space_group_name_H-M "P 2/M"
_symmetry_group_IT_number 10
_symmetry_cell_setting 'monoclinic'
loop_
_space_group_symop_operation_xyz
x,y,z
-x,y,-z
-x,-y,-z
x,-y,z
loop_
_atom_site_type_symbol
_atom_site_label
_atom_site_fract_x
_atom_site_fract_y
_atom_site_fract_z
Si Si1 0.391278 0.878364 0.287389
Si Si2 0.227399 0.804561 0.705050
Si Si3 0.391278 0.878364 0.603889
Si Si4 0.905221 0.000000 0.042064
Si Si5 0.905221 0.000000 0.363157
Si Si6 0.088415 0.379997 0.636506
Si Si7 0.088415 0.620003 0.951909
Si Si8 0.227399 0.195439 0.022349
O O1 0.363026 0.861426 0.431513
O O2 0.500000 0.842217 0.315936
O O3 0.323238 0.807789 0.159465
O O4 0.378967 0.000000 0.239814
O O5 0.323238 0.807789 0.663773
O O6 0.155353 0.897382 0.626938
O O7 0.178864 0.692702 0.648655
O O8 0.256818 0.815584 0.878409
O O9 0.378967 0.000000 0.639153
O O10 0.844647 0.897382 0.971585
O O11 0.933203 0.000000 0.216602
O O12 0.000000 0.000000 0.000000
O O13 0.000000 0.000000 0.500000
O O14 0.118000 0.500000 0.618025
O O15 0.056312 0.366334 0.778156
O O16 0.000000 0.343097 0.500000
O O17 0.118000 0.500000 0.999975
O O18 0.178864 0.692702 0.030209
O O19 0.000000 0.656903 0.000000
#
# Coordination Sequence:
#
# PCOD8059890 Si02
#       8
#     4   4   4   2   2   4   4   4
#     4   9  18  32  49  70  95 122 154 191 232 281
#     4  10  19  31  47  69  96 123 154 192 232 276
#     4   9  18  32  49  70  95 122 154 191 232 281
#     4  10  20  30  41  64  95 123 150 183 225 274
#     4  10  20  30  41  64  95 123 150 183 225 274
#     4   9  18  32  49  69  94 125 161 197 230 269
#     4   9  18  32  49  69  94 125 161 197 230 269
#     4  10  19  31  47  69  96 123 154 192 232 276
#
# _framework density 16.205929999999999
#
# number of rings (size 3 to 8) (size 9 to 14) (size 15 to 20)
#    0.000    2.571    1.429    1.714    0.000    2.857 
#    0.000    1.429    0.000    0.857    0.000    6.000 
#    0.000    0.000    0.000    0.000    0.000    0.000 
#
# Total GULP energy -347263.747519 kJ/mol
# GULP energy per Si atom -12402.276697 kJ/mol
# Density = 1.616904 g / cm^3
# Si number density = 16.205930 Si / 1000 Ang^3
#
#
#
# Elastic Constant Matrix: (Units=GPa)
#
#
# Indices 1 2 3 4 5 6 
#
# 1 120.8552 48.0871 61.0145 0.0000 -7.5215 0.0000
# 2 48.0871 73.8233 41.0770 0.0000 2.6730 0.0000
# 3 61.0145 41.0770 89.1648 0.0000 19.6053 0.0000
# 4 0.0000 0.0000 0.0000 19.0648 0.0000 1.3044
# 5 -7.5215 2.6730 19.6053 0.0000 29.4395 0.0000
# 6 0.0000 0.0000 0.0000 1.3044 0.0000 22.4857
#
#
#
# Elastic Compliance Matrix: (Units=1/GPa)
#
#
# Indices 1 2 3 4 5 6 
#
# 1 0.017357 -0.004781 -0.012588 0.000000 0.013252 0.000000
# 2 -0.004781 0.020082 -0.006221 0.000000 0.001098 0.000000
# 3 -0.012588 -0.006221 0.027271 0.000000 -0.020813 0.000000
# 4 0.000000 0.000000 0.000000 0.052662 0.000000 -0.003055
# 5 0.013252 0.001098 -0.020813 0.000000 0.051114 0.000000
# 6 0.000000 0.000000 0.000000 -0.003055 0.000000 0.044650
#
#
# Mechanical properties :
#
#
# Convention : Reuss Voigt Hill
#
# Bulk Modulus (GPa) = 57.04824 64.91117 60.97971
# Shear Modulus (GPa) = 18.78571 23.10899 20.94735
#
# Velocity S-wave (km/s) = 3.40838 3.78028 3.59914
# Velocity P-wave (km/s) = 7.12516 7.69383 7.41495
#
# Compressibility (1/GPa) = 0.01752902
#
# Stress axis : x y z
#
# Youngs Moduli (GPa) = 57.61464 49.79535 36.66870
#
# Poissons Ratio (x) = 0.23809 0.46159
# Poissons Ratio (y) = 0.27548 0.22812
# Poissons Ratio (z) = 0.72525 0.30978
#
# Static dielectric constant tensor:
#      x y z
#    x 2.941980 0.000000 -0.041710 
#    y 0.000000 3.050280 0.000000 
#    z -0.041710 0.000000 3.051360 
# 
# 
# High freq. dielectric constant tensor:
#      x y z
#    x 1.615660 0.000000 -0.003760 
#    y 0.000000 1.611740 0.000000 
#    z -0.003760 0.000000 1.625520 
# 
# From -- ./inp_files/28379.got.cif
#   From: 2010.06.25/outbox.cif.g09.slc.cpg/sg10_15_cif.got.tgz:28379.got - 2010.06.27 22:07:45.
