data_PCOD8059706
_publ_section_title
;
Structure prediction by ZEFSAII (Michael W. Deem and Ramdas Pophale) SiO2 
 PCOD8059706
Probable space group: P 2/M
;
_chemical_formula_sum "Si O2"
_cell_formula_units_Z 32
_cell_length_a 22.947298
_cell_length_b 9.170506
_cell_length_c 11.670337
_cell_angle_alpha 90.000000
_cell_angle_beta 46.335739
_cell_angle_gamma 90.000000
_cell_volume 1776.583103
_symmetry_space_group_name_H-M "P 2/M"
_symmetry_group_IT_number 10
_symmetry_cell_setting 'monoclinic'
loop_
_space_group_symop_operation_xyz
x,y,z
-x,y,-z
-x,-y,-z
x,-y,z
loop_
_atom_site_type_symbol
_atom_site_label
_atom_site_fract_x
_atom_site_fract_y
_atom_site_fract_z
Si Si1 0.147831 0.169042 0.799688
Si Si2 0.393063 0.672160 0.741087
Si Si3 0.110681 0.330582 0.078714
Si Si4 0.227343 0.671674 0.357936
Si Si5 0.929682 0.332070 0.292592
Si Si6 0.429683 0.327732 0.438996
Si Si7 0.240053 0.672690 0.083244
Si Si8 0.309798 0.830130 0.444239
O O1 0.080432 0.238755 0.808910
O O2 0.235638 0.199665 0.629465
O O3 0.128027 0.000000 0.837532
O O4 0.145798 0.240744 0.926015
O O5 0.385220 0.500000 0.745891
O O6 0.475866 0.713465 0.692505
O O7 0.393018 0.728128 0.609877
O O8 0.317925 0.740212 0.912623
O O9 0.125470 0.500000 0.031250
O O10 0.158981 0.281810 0.126396
O O11 0.016727 0.297286 0.228436
O O12 0.244721 0.500000 0.342085
O O13 0.137062 0.709219 0.522579
O O14 0.235295 0.733654 0.218550
O O15 0.293004 0.754722 0.345251
O O16 0.922130 0.500000 0.266195
O O17 0.416138 0.500000 0.441065
O O18 0.388878 0.241678 0.390819
O O19 0.247960 0.500000 0.078086
O O20 0.325030 0.000000 0.403052
#
# Coordination Sequence:
#
# PCOD8059706 Si02
#       8
#     4   4   4   4   4   4   4   4
#     4  10  20  32  47  69  97 127 158 193 234 282
#     4   8  15  28  48  76 103 123 150 191 234 278
#     4  10  19  30  48  73  98 123 153 195 242 283
#     4   9  18  33  51  68  91 127 165 197 231 275
#     4   9  18  31  47  70  97 124 157 196 237 278
#     4   9  16  29  52  77  99 124 153 187 232 286
#     4   9  17  30  49  72  96 123 158 198 236 275
#     4  10  20  33  49  70  96 125 159 198 236 276
#
# _framework density 18.012103
#
# number of rings (size 3 to 8) (size 9 to 14) (size 15 to 20)
#    0.000    2.750    0.000    2.625    0.000    5.000 
#    0.000    5.000    0.000    6.000    0.000    4.375 
#    0.000    0.000    0.000    0.000    0.000    0.000 
#
# Total GULP energy -396799.496118 kJ/mol
# GULP energy per Si atom -12399.984254 kJ/mol
# Density = 1.797111 g / cm^3
# Si number density = 18.012103 Si / 1000 Ang^3
#
#
#
# Elastic Constant Matrix: (Units=GPa)
#
#
# Indices 1 2 3 4 5 6 
#
# 1 165.2957 47.7527 61.0737 0.0000 6.7969 0.0000
# 2 47.7527 49.7230 24.1394 0.0000 3.8749 0.0000
# 3 61.0737 24.1394 70.0184 0.0000 12.2735 0.0000
# 4 0.0000 0.0000 0.0000 15.2137 0.0000 -3.6742
# 5 6.7969 3.8749 12.2735 0.0000 28.2444 0.0000
# 6 0.0000 0.0000 0.0000 -3.6742 0.0000 1.1185
#
#
#
# Elastic Compliance Matrix: (Units=1/GPa)
#
#
# Indices 1 2 3 4 5 6 
#
# 1 0.010606 -0.006826 -0.007160 0.000000 0.001495 0.000000
# 2 -0.006826 0.028550 -0.003778 0.000000 -0.000632 0.000000
# 3 -0.007160 -0.003778 0.023204 0.000000 -0.007842 0.000000
# 4 0.000000 0.000000 0.000000 0.318084 0.000000 1.044921
# 5 0.001495 -0.000632 -0.007842 0.000000 0.038540 0.000000
# 6 0.000000 0.000000 0.000000 1.044921 0.000000 4.326714
#
#
# Mechanical properties :
#
#
# Convention : Reuss Voigt Hill
#
# Bulk Modulus (GPa) = 37.26798 61.21874 49.24336
# Shear Modulus (GPa) = 1.04380 19.05340 10.04860
#
# Velocity S-wave (km/s) = 0.76208 3.25593 2.36451
# Velocity P-wave (km/s) = 4.63786 6.94234 5.90364
#
# Compressibility (1/GPa) = 0.02683268
#
# Stress axis : x y z
#
# Youngs Moduli (GPa) = 94.28989 35.02569 43.09605
#
# Poissons Ratio (x) = 0.23909 0.30855
# Poissons Ratio (y) = 0.64363 0.16282
# Poissons Ratio (z) = 0.67507 0.13233
#
# Static dielectric constant tensor:
#      x y z
#    x 3.404370 0.000000 -0.040760 
#    y 0.000000 3.029830 0.000000 
#    z -0.040760 0.000000 3.496470 
# 
# 
# High freq. dielectric constant tensor:
#      x y z
#    x 1.705050 0.000000 -0.005040 
#    y 0.000000 1.665610 0.000000 
#    z -0.005040 0.000000 1.688060 
# 
# From -- ./inp_files/55214.got.cif
#   From: 2010.06.25/outbox.cif.g09.slc.cpg/sg10_28_cif.got.tgz:55214.got - 2010.06.27 22:07:45.
