data_PCOD8059755
_publ_section_title
;
Structure prediction by ZEFSAII (Michael W. Deem and Ramdas Pophale) SiO2 
 PCOD8059755
Probable space group: P 2/M
;
_chemical_formula_sum "Si O2"
_cell_formula_units_Z 30
_cell_length_a 14.656811
_cell_length_b 14.754190
_cell_length_c 15.222531
_cell_angle_alpha 90.000000
_cell_angle_beta 152.351524
_cell_angle_gamma 90.000000
_cell_volume 1527.574633
_symmetry_space_group_name_H-M "P 2/M"
_symmetry_group_IT_number 10
_symmetry_cell_setting 'monoclinic'
loop_
_space_group_symop_operation_xyz
x,y,z
-x,y,-z
-x,-y,-z
x,-y,z
loop_
_atom_site_type_symbol
_atom_site_label
_atom_site_fract_x
_atom_site_fract_y
_atom_site_fract_z
Si Si1 0.500000 0.233293 0.500000
Si Si2 0.969938 0.398881 0.068422
Si Si3 0.938403 0.237412 0.545004
Si Si4 0.557681 0.338860 0.724001
Si Si5 0.862472 0.396971 0.610531
Si Si6 0.242461 0.897784 0.384296
Si Si7 0.141183 0.103123 0.839755
Si Si8 0.465193 0.834609 0.742192
O O1 0.564882 0.299497 0.632344
O O2 0.684841 0.170190 0.629584
O O3 0.057877 0.500000 0.134852
O O4 0.740710 0.403896 0.895180
O O5 0.000000 0.347658 0.000000
O O6 0.076930 0.353130 0.243148
O O7 0.941124 0.331019 0.602044
O O8 0.724142 0.189861 0.359722
O O9 0.000000 0.263567 0.500000
O O10 0.100735 0.169049 0.723232
O O11 0.371498 0.400185 0.587386
O O12 0.572059 0.256895 0.804465
O O13 0.943339 0.500000 0.665875
O O14 0.386674 0.889863 0.591231
O O15 0.017699 0.872721 0.219141
O O16 0.253469 0.000000 0.357178
O O17 0.104383 0.000000 0.777481
O O18 0.367865 0.109647 0.064068
#
# Coordination Sequence:
#
# PCOD8059755 Si02
#       8
#     2   4   4   4   4   4   4   4
#     4  10  19  30  49  76 108 150 186 228 280 322
#     4  10  20  32  50  76 104 137 176 219 265 315
#     4  10  22  39  58  84 114 141 179 233 286 337
#     4  10  19  32  50  73 106 141 178 224 270 319
#     4  10  21  38  59  81 108 145 186 228 279 335
#     4   9  18  33  51  74 107 145 188 233 273 320
#     4  10  20  36  58  80 108 147 186 225 273 329
#     4   9  19  34  54  77 103 142 182 222 273 328
#
# _framework density 19.638976
#
# number of rings (size 3 to 8) (size 9 to 14) (size 15 to 20)
#    0.000    2.267    0.000    3.400    0.000    2.667 
#    0.000    5.333    0.000    7.200    0.000    7.467 
#    0.000    0.000    0.000    0.000    0.000    0.000 
#
# Total GULP energy -371864.906050 kJ/mol
# GULP energy per Si atom -12395.496868 kJ/mol
# Density = 1.959428 g / cm^3
# Si number density = 19.638976 Si / 1000 Ang^3
#
#
#
# Elastic Constant Matrix: (Units=GPa)
#
#
# Indices 1 2 3 4 5 6 
#
# 1 95.0666 26.5499 22.9916 0.0000 -12.7587 0.0000
# 2 26.5499 77.9189 16.8753 0.0000 -6.4095 0.0000
# 3 22.9916 16.8753 83.2175 0.0000 7.1890 0.0000
# 4 0.0000 0.0000 0.0000 20.5828 0.0000 2.9199
# 5 -12.7587 -6.4095 7.1890 0.0000 21.9038 0.0000
# 6 0.0000 0.0000 0.0000 2.9199 0.0000 21.8245
#
#
#
# Elastic Compliance Matrix: (Units=1/GPa)
#
#
# Indices 1 2 3 4 5 6 
#
# 1 0.013382 -0.003073 -0.003777 0.000000 0.008136 0.000000
# 2 -0.003073 0.014674 -0.002411 0.000000 0.003296 0.000000
# 3 -0.003777 -0.002411 0.014203 0.000000 -0.007567 0.000000
# 4 0.000000 0.000000 0.000000 0.049524 0.000000 -0.006626
# 5 0.008136 0.003296 -0.007567 0.000000 0.053841 0.000000
# 6 0.000000 0.000000 0.000000 -0.006626 0.000000 0.046707
#
#
# Mechanical properties :
#
#
# Convention : Reuss Voigt Hill
#
# Bulk Modulus (GPa) = 42.12806 43.22630 42.67718
# Shear Modulus (GPa) = 22.85546 25.51464 24.18505
#
# Velocity S-wave (km/s) = 3.41512 3.60833 3.51306
# Velocity P-wave (km/s) = 6.08675 6.27840 6.18332
#
# Compressibility (1/GPa) = 0.02373715
#
# Stress axis : x y z
#
# Youngs Moduli (GPa) = 74.72498 68.14692 70.40773
#
# Poissons Ratio (x) = 0.20939 0.26594
# Poissons Ratio (y) = 0.22960 0.16979
# Poissons Ratio (z) = 0.28224 0.16434
#
# Static dielectric constant tensor:
#      x y z
#    x 3.394520 0.000000 0.105230 
#    y 0.000000 3.519670 0.000000 
#    z 0.105230 0.000000 3.491370 
# 
# 
# High freq. dielectric constant tensor:
#      x y z
#    x 1.743540 0.000000 0.012530 
#    y 0.000000 1.767730 0.000000 
#    z 0.012530 0.000000 1.760510 
# 
# From -- ./inp_files/67604.got.cif
#   From: 2010.06.25/outbox.cif.g09.slc.cpg/sg10_34_cif.got.tgz:67604.got - 2010.06.27 22:07:45.
