data_PCOD8059952
_publ_section_title
;
Structure prediction by ZEFSAII (Michael W. Deem and Ramdas Pophale) SiO2 
 PCOD8059952
Probable space group: P 2/M
;
_chemical_formula_sum "Si O2"
_cell_formula_units_Z 32
_cell_length_a 21.578322
_cell_length_b 9.063353
_cell_length_c 11.475537
_cell_angle_alpha 90.000000
_cell_angle_beta 56.830210
_cell_angle_gamma 90.000000
_cell_volume 1878.592100
_symmetry_space_group_name_H-M "P 2/M"
_symmetry_group_IT_number 10
_symmetry_cell_setting 'monoclinic'
loop_
_space_group_symop_operation_xyz
x,y,z
-x,y,-z
-x,-y,-z
x,-y,z
loop_
_atom_site_type_symbol
_atom_site_label
_atom_site_fract_x
_atom_site_fract_y
_atom_site_fract_z
Si Si1 0.279369 0.326531 0.068622
Si Si2 0.855714 0.175071 0.906897
Si Si3 0.585728 0.165129 0.781402
Si Si4 0.015523 0.331058 0.348837
Si Si5 0.729323 0.326560 0.653017
Si Si6 0.129265 0.326934 0.627258
Si Si7 0.423980 0.166459 0.932421
Si Si8 0.086005 0.328812 0.926970
O O1 0.270753 0.500000 0.057900
O O2 0.224109 0.240659 0.041228
O O3 0.262824 0.281642 0.219646
O O4 0.362131 0.277122 0.945844
O O5 0.913360 0.233297 0.751982
O O6 0.852203 0.000000 0.906486
O O7 0.879033 0.226944 0.010848
O O8 0.654132 0.266166 0.671342
O O9 0.506741 0.219945 0.809472
O O10 0.601549 0.000000 0.720953
O O11 0.580034 0.168156 0.925264
O O12 0.031359 0.500000 0.293653
O O13 0.000000 0.321926 0.500000
O O14 0.945801 0.262345 0.351510
O O15 0.726010 0.500000 0.642557
O O16 0.798763 0.258471 0.510323
O O17 0.128178 0.500000 0.603084
O O18 0.130553 0.292132 0.762979
O O19 0.409435 0.000000 0.901838
O O20 0.094570 0.500000 0.953169
O O21 0.000000 0.289259 0.000000
#
# Coordination Sequence:
#
# PCOD8059952 Si02
#       8
#     4   4   4   4   4   4   4   4
#     4  10  19  31  48  71 100 132 167 201 240 290
#     4  12  24  35  49  71 101 129 161 204 252 298
#     4   8  14  25  42  65  97 135 164 189 231 289
#     4  10  19  34  55  74  96 128 165 199 238 293
#     4   9  17  29  47  73 101 127 160 202 241 284
#     4   9  17  31  51  73  94 122 160 204 248 283
#     4   8  14  26  43  65  96 132 166 196 233 280
#     4  10  19  36  58  72  88 121 169 213 248 292
#
# _framework density 17.034033000000001
#
# number of rings (size 3 to 8) (size 9 to 14) (size 15 to 20)
#    0.000    2.500    1.250    3.000    0.000    3.500 
#    0.000    3.750    0.000    0.000    0.000    0.875 
#    0.000    7.000    0.000    0.000    0.000    0.000 
#
# Total GULP energy -396693.589976 kJ/mol
# GULP energy per Si atom -12396.674687 kJ/mol
# Density = 1.699526 g / cm^3
# Si number density = 17.034033 Si / 1000 Ang^3
#
#
#
# Elastic Constant Matrix: (Units=GPa)
#
#
# Indices 1 2 3 4 5 6 
#
# 1 115.4599 55.6661 46.2944 0.0000 -21.3529 0.0000
# 2 55.6661 74.1088 26.1747 0.0000 -6.4466 0.0000
# 3 46.2944 26.1747 44.6498 0.0000 -6.5061 0.0000
# 4 0.0000 0.0000 0.0000 15.8934 0.0000 -5.5747
# 5 -21.3529 -6.4466 -6.5061 0.0000 25.6882 0.0000
# 6 0.0000 0.0000 0.0000 -5.5747 0.0000 26.3826
#
#
#
# Elastic Compliance Matrix: (Units=1/GPa)
#
#
# Indices 1 2 3 4 5 6 
#
# 1 0.021554 -0.009940 -0.014820 0.000000 0.011668 0.000000
# 2 -0.009940 0.021683 -0.002923 0.000000 -0.003562 0.000000
# 3 -0.014820 -0.002923 0.039014 0.000000 -0.003171 0.000000
# 4 0.000000 0.000000 0.000000 0.067956 0.000000 0.014359
# 5 0.011668 -0.003562 -0.003171 0.000000 0.046930 0.000000
# 6 0.000000 0.000000 0.000000 0.014359 0.000000 0.040938
#
#
# Mechanical properties :
#
#
# Convention : Reuss Voigt Hill
#
# Bulk Modulus (GPa) = 37.19839 54.49875 45.84857
# Shear Modulus (GPa) = 16.53420 20.66506 18.59963
#
# Velocity S-wave (km/s) = 3.11892 3.48683 3.30799
# Velocity P-wave (km/s) = 5.90384 6.94796 6.44707
#
# Compressibility (1/GPa) = 0.02688289
#
# Stress axis : x y z
#
# Youngs Moduli (GPa) = 46.39604 46.11891 25.63181
#
# Poissons Ratio (x) = 0.45844 0.37986
# Poissons Ratio (y) = 0.46120 0.07493
# Poissons Ratio (z) = 0.68759 0.13483
#
# Static dielectric constant tensor:
#      x y z
#    x 3.344180 0.000000 -0.349460 
#    y 0.000000 3.063330 0.000000 
#    z -0.349460 0.000000 3.193780 
# 
# 
# High freq. dielectric constant tensor:
#      x y z
#    x 1.654630 0.000000 -0.023950 
#    y 0.000000 1.639270 0.000000 
#    z -0.023950 0.000000 1.634600 
# 
# From -- ./inp_files/55230.got.cif
#   From: 2010.06.25/outbox.cif.g09.slc.cpg/sg10_28_cif.got.tgz:55230.got - 2010.06.27 22:07:45.
