data_PCOD8059005
_publ_section_title
;
Structure prediction by ZEFSAII (Michael W. Deem and Ramdas Pophale) SiO2 
 PCOD8059005
Probable space group: P 2/M
;
_chemical_formula_sum "Si O2"
_cell_formula_units_Z 32
_cell_length_a 9.904366
_cell_length_b 8.923547
_cell_length_c 24.436385
_cell_angle_alpha 90.000000
_cell_angle_beta 51.196961
_cell_angle_gamma 90.000000
_cell_volume 1683.094366
_symmetry_space_group_name_H-M "P 2/M"
_symmetry_group_IT_number 10
_symmetry_cell_setting 'monoclinic'
loop_
_space_group_symop_operation_xyz
x,y,z
-x,y,-z
-x,-y,-z
x,-y,z
loop_
_atom_site_type_symbol
_atom_site_label
_atom_site_fract_x
_atom_site_fract_y
_atom_site_fract_z
Si Si1 0.172779 0.676997 0.986408
Si Si2 0.148237 0.821345 0.503926
Si Si3 0.527370 0.825333 0.157605
Si Si4 0.317380 0.173987 0.768269
Si Si5 0.846758 0.177408 0.780633
Si Si6 0.150472 0.178318 0.626856
Si Si7 0.532453 0.178594 0.382104
Si Si8 0.065420 0.822598 0.120801
O O1 0.175805 0.500000 0.989396
O O2 0.179899 0.744190 0.045401
O O3 0.338935 0.731627 0.911626
O O4 0.000000 0.735777 0.000000
O O5 0.114779 0.763459 0.574341
O O6 0.337931 0.758952 0.439177
O O7 0.000000 0.759101 0.500000
O O8 0.146518 0.000000 0.502553
O O9 0.551098 0.796984 0.215935
O O10 0.336519 0.763552 0.194270
O O11 0.550076 0.000000 0.136882
O O12 0.394143 0.246358 0.693517
O O13 0.130888 0.240347 0.832333
O O14 0.287152 0.000000 0.763693
O O15 0.861305 0.228710 0.839458
O O16 0.001520 0.245292 0.704348
O O17 0.857444 0.000000 0.773601
O O18 0.339454 0.230391 0.601253
O O19 0.144458 0.000000 0.628978
O O20 0.524604 0.000000 0.381779
O O21 0.076295 0.000000 0.109029
#
# Coordination Sequence:
#
# PCOD8059005 Si02
#       8
#     4   4   4   4   4   4   4   4
#     4  11  23  37  53  74 100 129 160 201 250 300
#     4   9  17  23  31  52  86 128 165 195 235 288
#     4  10  20  33  51  75  98 126 164 207 251 292
#     4   9  16  26  45  68  89 120 166 208 240 282
#     4   9  18  30  47  71  96 122 161 211 251 284
#     4   9  15  25  38  55  85 124 162 199 239 285
#     4   9  15  24  37  56  84 123 166 201 236 283
#     4  10  18  33  54  74  96 126 166 207 245 291
#
# _framework density 19.012599999999999
#
# number of rings (size 3 to 8) (size 9 to 14) (size 15 to 20)
#    0.000    2.500    2.500    0.750    1.750    2.500 
#    0.000    3.125    0.000    0.000    0.000    0.000 
#    0.000    0.000    0.000    6.750    0.000    7.500 
#
# Total GULP energy -396699.846796 kJ/mol
# GULP energy per Si atom -12396.870212 kJ/mol
# Density = 1.896933 g / cm^3
# Si number density = 19.012600 Si / 1000 Ang^3
#
#
#
# Elastic Constant Matrix: (Units=GPa)
#
#
# Indices 1 2 3 4 5 6 
#
# 1 159.3325 17.1616 66.6339 0.0000 -2.7314 0.0000
# 2 17.1616 17.0222 17.3814 0.0000 3.2524 0.0000
# 3 66.6339 17.3814 130.2417 0.0000 8.4792 0.0000
# 4 0.0000 0.0000 0.0000 -0.8401 0.0000 -2.7908
# 5 -2.7314 3.2524 8.4792 0.0000 36.9086 0.0000
# 6 0.0000 0.0000 0.0000 -2.7908 0.0000 7.4630
#
#
#
# Elastic Compliance Matrix: (Units=1/GPa)
#
#
# Indices 1 2 3 4 5 6 
#
# 1 0.008425 -0.005017 -0.003766 0.000000 0.001931 0.000000
# 2 -0.005017 0.071580 -0.006651 0.000000 -0.005151 0.000000
# 3 -0.003766 -0.006651 0.010632 0.000000 -0.002135 0.000000
# 4 0.000000 0.000000 0.000000 -0.530868 0.000000 -0.198517
# 5 0.001931 -0.005151 -0.002135 0.000000 0.028181 0.000000
# 6 0.000000 0.000000 0.000000 -0.198517 0.000000 0.059760
#
#
# Mechanical properties :
#
#
# Convention : Reuss Voigt Hill
#
# Bulk Modulus (GPa) = 16.73124 56.55002 36.64063
# Shear Modulus (GPa) = -16.58371 22.40095 2.90862
#
# Velocity S-wave (km/s) = -2.95659 3.43624 1.23821
# Velocity P-wave (km/s) = 1.68405 6.74920 4.62145
#
# Compressibility (1/GPa) = 0.05976844
#
# Stress axis : x y z
#
# Youngs Moduli (GPa) = 118.69724 13.97041 94.05944
#
# Poissons Ratio (x) = 0.07009 0.35427
# Poissons Ratio (y) = 0.59548 0.62555
# Poissons Ratio (z) = 0.44707 0.09291
#
# Static dielectric constant tensor:
#      x y z
#    x 3.768340 0.000000 -0.001230 
#    y 0.000000 2.702700 0.000000 
#    z -0.001230 0.000000 3.682840 
# 
# 
# High freq. dielectric constant tensor:
#      x y z
#    x 1.752560 0.000000 0.004210 
#    y 0.000000 1.654190 0.000000 
#    z 0.004210 0.000000 1.753970 
# 
# From -- ./inp_files/87995.got.cif
#   From: 2010.06.25/outbox.cif.g09.slc.cpg/sg10_44_cif.got.tgz:87995.got - 2010.06.27 22:07:45.
