data_PCOD8059352
_publ_section_title
;
Structure prediction by ZEFSAII (Michael W. Deem and Ramdas Pophale) SiO2 
 PCOD8059352
Probable space group: P 2/M
;
_chemical_formula_sum "Si O2"
_cell_formula_units_Z 32
_cell_length_a 21.016247
_cell_length_b 9.201793
_cell_length_c 12.853554
_cell_angle_alpha 90.000000
_cell_angle_beta 53.732063
_cell_angle_gamma 90.000000
_cell_volume 2004.128977
_symmetry_space_group_name_H-M "P 2/M"
_symmetry_group_IT_number 10
_symmetry_cell_setting 'monoclinic'
loop_
_space_group_symop_operation_xyz
x,y,z
-x,y,-z
-x,-y,-z
x,-y,z
loop_
_atom_site_type_symbol
_atom_site_label
_atom_site_fract_x
_atom_site_fract_y
_atom_site_fract_z
Si Si1 0.595349 0.171877 0.020516
Si Si2 0.416177 0.171903 0.200636
Si Si3 0.841647 0.170427 0.272573
Si Si4 0.320796 0.829037 0.485341
Si Si5 0.672165 0.331404 0.129347
Si Si6 0.408020 0.831101 0.605550
Si Si7 0.160078 0.667391 0.939957
Si Si8 0.012189 0.838722 0.111422
O O1 0.506168 0.215531 0.138310
O O2 0.655587 0.257971 0.034712
O O3 0.608936 0.000000 0.020026
O O4 0.610810 0.225502 0.887241
O O5 0.359521 0.240961 0.344280
O O6 0.410060 0.000000 0.205935
O O7 0.772532 0.208480 0.421541
O O8 0.823341 0.253656 0.184273
O O9 0.926949 0.213019 0.239971
O O10 0.841530 0.000000 0.244230
O O11 0.362681 0.768273 0.548509
O O12 0.335942 0.000000 0.467647
O O13 0.649552 0.500000 0.147729
O O14 0.619146 0.257174 0.268222
O O15 0.764879 0.308999 0.059490
O O16 0.500000 0.806179 0.500000
O O17 0.388080 0.000000 0.643951
O O18 0.143488 0.500000 0.932222
O O19 0.083189 0.731722 0.073844
O O20 0.033631 0.000000 0.131029
O O21 0.000000 0.839002 0.000000
#
# Coordination Sequence:
#
# PCOD8059352 Si02
#       8
#     4   4   4   4   4   4   4   4
#     4   9  17  31  51  69  88 115 153 196 229 261
#     4   8  15  29  49  72  90 110 148 196 233 262
#     4   9  16  27  43  64  89 118 146 179 223 271
#     4   9  15  25  44  68  93 116 143 182 227 270
#     4  11  22  32  43  64  95 125 152 185 225 266
#     4  10  19  30  47  68  89 120 157 183 214 269
#     4  10  19  29  41  60  88 121 152 182 217 260
#     4   8  15  26  41  61  85 113 147 181 220 267
#
# _framework density 15.967036
#
# number of rings (size 3 to 8) (size 9 to 14) (size 15 to 20)
#    0.000    2.750    1.250    3.000    0.000    6.000 
#    0.000    1.250    0.000    1.500    0.000    0.875 
#    0.000    7.000    0.000    0.000    0.000    0.000 
#
# Total GULP energy -396642.870851 kJ/mol
# GULP energy per Si atom -12395.089714 kJ/mol
# Density = 1.593069 g / cm^3
# Si number density = 15.967036 Si / 1000 Ang^3
#
#
#
# Elastic Constant Matrix: (Units=GPa)
#
#
# Indices 1 2 3 4 5 6 
#
# 1 93.1477 46.2009 56.7167 0.0000 -8.2460 0.0000
# 2 46.2009 59.1881 29.7132 0.0000 -2.4581 0.0000
# 3 56.7167 29.7132 87.6405 0.0000 -6.5469 0.0000
# 4 0.0000 0.0000 0.0000 6.1873 0.0000 -4.0657
# 5 -8.2460 -2.4581 -6.5469 0.0000 24.8620 0.0000
# 6 0.0000 0.0000 0.0000 -4.0657 0.0000 18.9703
#
#
#
# Elastic Compliance Matrix: (Units=1/GPa)
#
#
# Indices 1 2 3 4 5 6 
#
# 1 0.024382 -0.013371 -0.010956 0.000000 0.003880 0.000000
# 2 -0.013371 0.027694 -0.000880 0.000000 -0.001928 0.000000
# 3 -0.010956 -0.000880 0.018892 0.000000 0.001254 0.000000
# 4 0.000000 0.000000 0.000000 0.188114 0.000000 0.040317
# 5 0.003880 -0.001928 0.001254 0.000000 0.041649 0.000000
# 6 0.000000 0.000000 0.000000 0.040317 0.000000 0.061355
#
#
# Mechanical properties :
#
#
# Convention : Reuss Voigt Hill
#
# Bulk Modulus (GPa) = 48.65115 56.13755 52.39435
# Shear Modulus (GPa) = 11.92318 17.16027 14.54172
#
# Velocity S-wave (km/s) = 2.73561 3.28187 3.02111
# Velocity P-wave (km/s) = 6.36506 7.04241 6.71229
#
# Compressibility (1/GPa) = 0.02055450
#
# Stress axis : x y z
#
# Youngs Moduli (GPa) = 41.01419 36.10868 52.93130
#
# Poissons Ratio (x) = 0.48280 0.57990
# Poissons Ratio (y) = 0.54840 0.04660
# Poissons Ratio (z) = 0.44934 0.03179
#
# Static dielectric constant tensor:
#      x y z
#    x 3.135440 0.000000 -0.261240 
#    y 0.000000 2.844500 0.000000 
#    z -0.261240 0.000000 3.266990 
# 
# 
# High freq. dielectric constant tensor:
#      x y z
#    x 1.607510 0.000000 -0.021210 
#    y 0.000000 1.590130 0.000000 
#    z -0.021210 0.000000 1.596000 
# 
# From -- ./inp_files/54784.got.cif
#   From: 2010.06.25/outbox.cif.g09.slc.cpg/sg10_28_cif.got.tgz:54784.got - 2010.06.27 22:07:45.
