data_PCOD8059618
_publ_section_title
;
Structure prediction by ZEFSAII (Michael W. Deem and Ramdas Pophale) SiO2 
 PCOD8059618
Probable space group: P 2/M
;
_chemical_formula_sum "Si O2"
_cell_formula_units_Z 32
_cell_length_a 28.555271
_cell_length_b 9.347464
_cell_length_c 20.898506
_cell_angle_alpha 90.000000
_cell_angle_beta 20.178399
_cell_angle_gamma 90.000000
_cell_volume 1924.174120
_symmetry_space_group_name_H-M "P 2/M"
_symmetry_group_IT_number 10
_symmetry_cell_setting 'monoclinic'
loop_
_space_group_symop_operation_xyz
x,y,z
-x,y,-z
-x,-y,-z
x,-y,z
loop_
_atom_site_type_symbol
_atom_site_label
_atom_site_fract_x
_atom_site_fract_y
_atom_site_fract_z
Si Si1 0.717561 0.840195 0.208597
Si Si2 0.431301 0.334863 0.154829
Si Si3 0.392407 0.331517 0.838631
Si Si4 0.119234 0.165668 0.391880
Si Si5 0.399708 0.167840 0.962123
Si Si6 0.456804 0.838438 0.453646
Si Si7 0.860517 0.665686 0.926255
Si Si8 0.125142 0.664481 0.513839
O O1 0.586894 0.836206 0.331671
O O2 0.673408 0.789377 0.336720
O O3 0.776430 0.000000 0.137046
O O4 0.833274 0.741794 0.029131
O O5 0.469183 0.500000 0.120470
O O6 0.481262 0.233996 0.147667
O O7 0.270450 0.311163 0.359601
O O8 0.500000 0.286619 0.000000
O O9 0.411851 0.500000 0.824895
O O10 0.391791 0.249159 0.905732
O O11 0.520228 0.272263 0.633735
O O12 0.251253 0.295481 0.984120
O O13 0.112322 0.246096 0.466775
O O14 0.000000 0.225563 0.500000
O O15 0.096786 0.000000 0.435538
O O16 0.260479 0.196703 0.176979
O O17 0.426726 0.000000 0.916211
O O18 0.434820 0.000000 0.455482
O O19 0.856090 0.500000 0.947627
O O20 0.008148 0.715329 0.712636
O O21 0.102921 0.500000 0.523422
#
# Coordination Sequence:
#
# PCOD8059618 Si02
#       8
#     4   4   4   4   4   4   4   4
#     4   8  14  25  43  66  94 130 163 191 227 276
#     4  10  20  36  55  71  89 119 161 206 245 284
#     4  10  19  30  46  70 100 130 160 194 235 283
#     4  10  21  34  48  69  96 125 156 191 235 286
#     4  11  22  34  50  70  94 124 159 200 243 284
#     4   8  14  26  43  65  95 129 163 193 227 274
#     4   9  18  30  45  70 101 129 158 195 236 282
#     4  10  20  34  51  70  93 124 160 198 241 282
#
# _framework density 16.630512
#
# number of rings (size 3 to 8) (size 9 to 14) (size 15 to 20)
#    0.000    2.500    1.250    2.250    0.000    3.000 
#    0.000    2.500    0.000    0.000    0.000    0.875 
#    0.000    7.000    0.000    0.000    0.000    0.000 
#
# Total GULP energy -396737.868567 kJ/mol
# GULP energy per Si atom -12398.058393 kJ/mol
# Density = 1.659266 g / cm^3
# Si number density = 16.630512 Si / 1000 Ang^3
#
#
#
# Elastic Constant Matrix: (Units=GPa)
#
#
# Indices 1 2 3 4 5 6 
#
# 1 -24.3158 2.5275 82.8846 0.0000 -9.8615 0.0000
# 2 2.5275 49.9552 78.3113 0.0000 3.2642 0.0000
# 3 82.8846 78.3113 100.3075 0.0000 29.2711 0.0000
# 4 0.0000 0.0000 0.0000 25.6067 0.0000 7.2893
# 5 -9.8615 3.2642 29.2711 0.0000 20.2653 0.0000
# 6 0.0000 0.0000 0.0000 7.2893 0.0000 32.0329
#
#
#
# Elastic Compliance Matrix: (Units=1/GPa)
#
#
# Indices 1 2 3 4 5 6 
#
# 1 0.007623 -0.020671 0.013457 0.000000 -0.012398 0.000000
# 2 -0.020671 0.033277 -0.007606 0.000000 -0.004432 0.000000
# 3 0.013457 -0.007606 0.004356 0.000000 0.001482 0.000000
# 4 0.000000 0.000000 0.000000 0.041757 0.000000 -0.009502
# 5 -0.012398 -0.004432 0.001482 0.000000 0.041886 0.000000
# 6 0.000000 0.000000 0.000000 -0.009502 0.000000 0.033380
#
#
# Mechanical properties :
#
#
# Convention : Reuss Voigt Hill
#
# Bulk Modulus (GPa) = 64.03791 50.37707 57.20749
# Shear Modulus (GPa) = 25.36453 13.06254 19.21354
#
# Velocity S-wave (km/s) = 3.90959 2.80564 3.40268
# Velocity P-wave (km/s) = 7.67918 6.39165 7.06481
#
# Compressibility (1/GPa) = 0.01561575
#
# Stress axis : x y z
#
# Youngs Moduli (GPa) = 131.18087 30.05064 229.56850
#
# Poissons Ratio (x) = 0.62117 -3.08922
# Poissons Ratio (y) = 2.71159 1.74615
# Poissons Ratio (z) = -1.76525 0.22857
#
# Static dielectric constant tensor:
#      x y z
#    x 2.982650 0.000000 0.204970 
#    y 0.000000 3.210370 0.000000 
#    z 0.204970 0.000000 3.128210 
# 
# 
# High freq. dielectric constant tensor:
#      x y z
#    x 1.618580 0.000000 0.023180 
#    y 0.000000 1.644390 0.000000 
#    z 0.023180 0.000000 1.634750 
# 
# From -- ./inp_files/54824.got.cif
#   From: 2010.06.25/outbox.cif.g09.slc.cpg/sg10_28_cif.got.tgz:54824.got - 2010.06.27 22:07:45.
