data_PCOD8059238
_publ_section_title
;
Structure prediction by ZEFSAII (Michael W. Deem and Ramdas Pophale) SiO2 
 PCOD8059238
Probable space group: P 2/M
;
_chemical_formula_sum "Si O2"
_cell_formula_units_Z 32
_cell_length_a 14.246303
_cell_length_b 8.499398
_cell_length_c 14.117394
_cell_angle_alpha 90.000000
_cell_angle_beta 87.309692
_cell_angle_gamma 90.000000
_cell_volume 1707.520585
_symmetry_space_group_name_H-M "P 2/M"
_symmetry_group_IT_number 10
_symmetry_cell_setting 'monoclinic'
loop_
_space_group_symop_operation_xyz
x,y,z
-x,y,-z
-x,-y,-z
x,-y,z
loop_
_atom_site_type_symbol
_atom_site_label
_atom_site_fract_x
_atom_site_fract_y
_atom_site_fract_z
Si Si1 0.138440 0.183740 0.732616
Si Si2 0.049976 0.313196 0.184297
Si Si3 0.334984 0.317013 0.184712
Si Si4 0.804484 0.183416 0.958699
Si Si5 0.516990 0.183758 0.106095
Si Si6 0.283686 0.682847 0.856625
Si Si7 0.188018 0.316297 0.338823
Si Si8 0.104992 0.682015 0.531961
O O1 0.235563 0.264585 0.760660
O O2 0.123167 0.213951 0.622771
O O3 0.056140 0.257448 0.800301
O O4 0.143257 0.000000 0.752309
O O5 0.055222 0.500000 0.175814
O O6 0.095940 0.238647 0.088312
O O7 0.108798 0.248434 0.271722
O O8 0.319299 0.500000 0.161725
O O9 0.281568 0.216427 0.108171
O O10 0.444351 0.272488 0.179296
O O11 0.291137 0.278626 0.290830
O O12 0.806953 0.000000 0.982444
O O13 0.788214 0.278969 0.055582
O O14 0.621086 0.220098 0.135155
O O15 0.497148 0.000000 0.113969
O O16 0.500000 0.245124 0.000000
O O17 0.308581 0.500000 0.853030
O O18 0.168324 0.500000 0.347474
O O19 0.174847 0.251419 0.446118
O O20 0.123638 0.500000 0.557306
O O21 0.000000 0.705444 0.500000
#
# Coordination Sequence:
#
# PCOD8059238 Si02
#       8
#     4   4   4   4   4   4   4   4
#     4  12  25  39  55  83 119 152 189 240 293 341
#     4  10  19  36  57  81 112 154 198 232 272 337
#     4  10  19  33  56  86 116 151 193 232 276 338
#     4  11  21  35  54  83 118 151 186 235 288 333
#     4  11  22  37  59  86 117 149 185 238 295 336
#     4  12  25  41  60  81 109 153 199 236 280 346
#     4   8  16  31  55  85 114 145 187 237 276 321
#     4  10  18  35  61  85 113 153 195 235 280 334
#
# _framework density 18.740622999999999
#
# number of rings (size 3 to 8) (size 9 to 14) (size 15 to 20)
#    0.000    1.500    2.500    5.250    0.000    1.250 
#    0.000    3.750    0.000    0.750    0.000    5.250 
#    0.000    0.000    0.000    0.000    0.000    0.000 
#
# Total GULP energy -396855.640667 kJ/mol
# GULP energy per Si atom -12401.738771 kJ/mol
# Density = 1.869797 g / cm^3
# Si number density = 18.740623 Si / 1000 Ang^3
#
#
#
# Elastic Constant Matrix: (Units=GPa)
#
#
# Indices 1 2 3 4 5 6 
#
# 1 102.5143 14.0264 39.7369 0.0000 -7.5431 0.0000
# 2 14.0264 63.1757 12.7785 0.0000 -3.1955 0.0000
# 3 39.7369 12.7785 76.5608 0.0000 -10.1467 0.0000
# 4 0.0000 0.0000 0.0000 20.1483 0.0000 -1.2504
# 5 -7.5431 -3.1955 -10.1467 0.0000 27.4199 0.0000
# 6 0.0000 0.0000 0.0000 -1.2504 0.0000 29.5515
#
#
#
# Elastic Compliance Matrix: (Units=1/GPa)
#
#
# Indices 1 2 3 4 5 6 
#
# 1 0.012372 -0.001474 -0.006044 0.000000 0.000995 0.000000
# 2 -0.001474 0.016581 -0.001893 0.000000 0.000826 0.000000
# 3 -0.006044 -0.001893 0.017103 0.000000 0.004446 0.000000
# 4 0.000000 0.000000 0.000000 0.049763 0.000000 0.002106
# 5 0.000995 0.000826 0.004446 0.000000 0.038485 0.000000
# 6 0.000000 0.000000 0.000000 0.002106 0.000000 0.033928
#
#
# Mechanical properties :
#
#
# Convention : Reuss Voigt Hill
#
# Bulk Modulus (GPa) = 36.71679 41.70382 39.21031
# Shear Modulus (GPa) = 25.49299 27.13787 26.31543
#
# Velocity S-wave (km/s) = 3.69223 3.80949 3.75132
# Velocity P-wave (km/s) = 6.14910 6.45377 6.30327
#
# Compressibility (1/GPa) = 0.02723550
#
# Stress axis : x y z
#
# Youngs Moduli (GPa) = 80.82572 60.31063 58.46784
#
# Poissons Ratio (x) = 0.08891 0.35335
# Poissons Ratio (y) = 0.11915 0.11067
# Poissons Ratio (z) = 0.48848 0.11416
#
# Static dielectric constant tensor:
#      x y z
#    x 3.415680 0.000000 -0.202420 
#    y 0.000000 3.329110 0.000000 
#    z -0.202420 0.000000 3.608560 
# 
# 
# High freq. dielectric constant tensor:
#      x y z
#    x 1.718370 0.000000 -0.017020 
#    y 0.000000 1.726410 0.000000 
#    z -0.017020 0.000000 1.716050 
# 
# From -- ./inp_files/66166.got.cif
#   From: 2010.06.25/outbox.cif.g09.slc.cpg/sg10_34_cif.got.tgz:66166.got - 2010.06.27 22:07:45.
