data_PCOD8059725
_publ_section_title
;
Structure prediction by ZEFSAII (Michael W. Deem and Ramdas Pophale) SiO2 
 PCOD8059725
Probable space group: P 2/M
;
_chemical_formula_sum "Si O2"
_cell_formula_units_Z 32
_cell_length_a 15.160459
_cell_length_b 9.215691
_cell_length_c 22.580891
_cell_angle_alpha 90.000000
_cell_angle_beta 147.653400
_cell_angle_gamma 90.000000
_cell_volume 1687.979980
_symmetry_space_group_name_H-M "P 2/M"
_symmetry_group_IT_number 10
_symmetry_cell_setting 'monoclinic'
loop_
_space_group_symop_operation_xyz
x,y,z
-x,y,-z
-x,-y,-z
x,-y,z
loop_
_atom_site_type_symbol
_atom_site_label
_atom_site_fract_x
_atom_site_fract_y
_atom_site_fract_z
Si Si1 0.042922 0.668197 0.229377
Si Si2 0.706409 0.335706 0.982063
Si Si3 0.198342 0.671231 0.709959
Si Si4 0.432564 0.666982 0.736452
Si Si5 0.049636 0.170263 0.354494
Si Si6 0.530242 0.155710 0.083230
Si Si7 0.635500 0.831785 0.624343
Si Si8 0.592280 0.835900 0.398059
O O1 0.070560 0.500000 0.261515
O O2 0.992890 0.751936 0.261480
O O3 0.205056 0.733406 0.292006
O O4 0.903807 0.682786 0.098555
O O5 0.655913 0.500000 0.971416
O O6 0.615392 0.301820 0.867591
O O7 0.639663 0.219759 0.989953
O O8 0.165699 0.500000 0.694833
O O9 0.282624 0.717410 0.695089
O O10 0.328367 0.723005 0.832752
O O11 0.031404 0.756904 0.632421
O O12 0.407698 0.500000 0.709522
O O13 0.416621 0.741744 0.665095
O O14 0.244708 0.194578 0.470950
O O15 0.002183 0.000000 0.324763
O O16 0.573982 0.000000 0.139740
O O17 0.500000 0.115747 0.000000
O O18 0.500000 0.783212 0.500000
O O19 0.564481 0.803905 0.649523
O O20 0.683491 0.000000 0.641475
O O21 0.592204 0.000000 0.375818
#
# Coordination Sequence:
#
# PCOD8059725 Si02
#       8
#     4   4   4   4   4   4   4   4
#     4  11  22  36  59  90 118 146 187 235 282 340
#     4   9  20  37  54  77 112 150 184 227 283 331
#     4  10  21  36  53  78 112 151 191 233 281 330
#     4   9  20  39  59  78 110 153 192 232 278 330
#     4  11  22  37  56  83 118 152 188 234 289 338
#     4  10  19  30  48  76 107 144 190 233 277 331
#     4  10  20  40  62  83 116 151 181 226 289 342
#     4  10  22  39  60  83 110 148 189 233 284 338
#
# _framework density 18.957571000000002
#
# number of rings (size 3 to 8) (size 9 to 14) (size 15 to 20)
#    0.000    2.000    1.250    3.000    0.000    8.750 
#    0.000    3.125    0.000    3.750    0.000    0.000 
#    0.000    0.000    0.000    0.000    0.000    0.000 
#
# Total GULP energy -396538.877880 kJ/mol
# GULP energy per Si atom -12391.839934 kJ/mol
# Density = 1.891442 g / cm^3
# Si number density = 18.957571 Si / 1000 Ang^3
#
#
#
# Elastic Constant Matrix: (Units=GPa)
#
#
# Indices 1 2 3 4 5 6 
#
# 1 79.4482 35.9933 26.5536 0.0000 2.4695 0.0000
# 2 35.9933 82.4349 26.9467 0.0000 5.7561 0.0000
# 3 26.5536 26.9467 50.5814 0.0000 11.7131 0.0000
# 4 0.0000 0.0000 0.0000 28.9283 0.0000 -0.7076
# 5 2.4695 5.7561 11.7131 0.0000 27.7819 0.0000
# 6 0.0000 0.0000 0.0000 -0.7076 0.0000 34.4829
#
#
#
# Elastic Compliance Matrix: (Units=1/GPa)
#
#
# Indices 1 2 3 4 5 6 
#
# 1 0.017241 -0.005515 -0.006674 0.000000 0.002424 0.000000
# 2 -0.005515 0.016455 -0.005757 0.000000 -0.000492 0.000000
# 3 -0.006674 -0.005757 0.028732 0.000000 -0.010328 0.000000
# 4 0.000000 0.000000 0.000000 0.034586 0.000000 0.000710
# 5 0.002424 -0.000492 -0.010328 0.000000 0.040235 0.000000
# 6 0.000000 0.000000 0.000000 0.000710 0.000000 0.029014
#
#
# Mechanical properties :
#
#
# Convention : Reuss Voigt Hill
#
# Bulk Modulus (GPa) = 37.68525 43.49464 40.58994
# Shear Modulus (GPa) = 23.69651 26.43668 25.06660
#
# Velocity S-wave (km/s) = 3.53934 3.73838 3.64022
# Velocity P-wave (km/s) = 6.05181 6.45189 6.25505
#
# Compressibility (1/GPa) = 0.02653558
#
# Stress axis : x y z
#
# Youngs Moduli (GPa) = 58.00200 60.77103 34.80411
#
# Poissons Ratio (x) = 0.33518 0.23228
# Poissons Ratio (y) = 0.31991 0.20037
# Poissons Ratio (z) = 0.38710 0.34986
#
# Static dielectric constant tensor:
#      x y z
#    x 3.400470 0.000000 0.132080 
#    y 0.000000 3.641180 0.000000 
#    z 0.132080 0.000000 3.477420 
# 
# 
# High freq. dielectric constant tensor:
#      x y z
#    x 1.722190 0.000000 0.007520 
#    y 0.000000 1.748830 0.000000 
#    z 0.007520 0.000000 1.731550 
# 
# From -- ./inp_files/89538.got.cif
#   From: 2010.06.25/outbox.cif.g09.slc.cpg/sg10_45_cif.got.tgz:89538.got - 2010.06.27 22:07:45.
