data_PCOD8059094
_publ_section_title
;
Structure prediction by ZEFSAII (Michael W. Deem and Ramdas Pophale) SiO2 
 PCOD8059094
Probable space group: P 2/M
;
_chemical_formula_sum "Si O2"
_cell_formula_units_Z 32
_cell_length_a 28.362131
_cell_length_b 9.135550
_cell_length_c 11.980831
_cell_angle_alpha 90.000000
_cell_angle_beta 147.257567
_cell_angle_gamma 90.000000
_cell_volume 1678.989912
_symmetry_space_group_name_H-M "P 2/M"
_symmetry_group_IT_number 10
_symmetry_cell_setting 'monoclinic'
loop_
_space_group_symop_operation_xyz
x,y,z
-x,y,-z
-x,-y,-z
x,-y,z
loop_
_atom_site_type_symbol
_atom_site_label
_atom_site_fract_x
_atom_site_fract_y
_atom_site_fract_z
Si Si1 0.511080 0.173718 0.148657
Si Si2 0.647550 0.172166 0.016288
Si Si3 0.160103 0.172169 0.588348
Si Si4 0.855442 0.669075 0.981808
Si Si5 0.999836 0.826218 0.127218
Si Si6 0.656864 0.331855 0.571793
Si Si7 0.103024 0.831855 0.713495
Si Si8 0.398501 0.330399 0.295960
O O1 0.600530 0.237747 0.373850
O O2 0.516647 0.000000 0.165903
O O3 0.500000 0.227921 0.000000
O O4 0.428543 0.233819 0.055291
O O5 0.742095 0.212162 0.257456
O O6 0.637173 0.000000 0.981318
O O7 0.645359 0.240398 0.889787
O O8 0.143526 0.232478 0.679924
O O9 0.088923 0.235398 0.360209
O O10 0.145948 0.000000 0.565517
O O11 0.883326 0.500000 0.040823
O O12 0.757633 0.687226 0.740429
O O13 0.917118 0.756791 0.021961
O O14 0.859882 0.732205 0.114758
O O15 0.991562 0.000000 0.122388
O O16 0.000000 0.775400 0.000000
O O17 0.626247 0.500000 0.502365
O O18 0.641944 0.275564 0.668173
O O19 0.000000 0.817806 0.500000
O O20 0.130428 0.000000 0.790174
O O21 0.500000 0.295680 0.500000
O O22 0.378822 0.500000 0.235481
#
# Coordination Sequence:
#
# PCOD8059094 Si02
#       8
#     4   4   4   4   4   4   4   4
#     4  10  22  38  56  81 111 143 184 236 280 320
#     4  10  20  34  55  81 110 141 177 225 280 331
#     4   9  18  34  55  82 111 139 177 228 278 327
#     4  11  23  37  56  84 118 147 182 232 281 331
#     4  10  21  39  62  83 107 148 195 231 272 330
#     4  10  22  39  57  81 113 151 186 223 275 336
#     4  10  18  33  58  82 111 146 183 225 275 339
#     4  10  19  34  57  81 110 144 181 225 272 328
#
# _framework density 19.059079000000001
#
# number of rings (size 3 to 8) (size 9 to 14) (size 15 to 20)
#    0.000    2.000    2.500    1.125    0.000    3.500 
#    0.000    3.125    0.000    0.000    0.000    0.000 
#    0.000    0.000    0.000    0.000    0.000    0.000 
#
# Total GULP energy -396852.201734 kJ/mol
# GULP energy per Si atom -12401.631304 kJ/mol
# Density = 1.901570 g / cm^3
# Si number density = 19.059079 Si / 1000 Ang^3
#
#
#
# Elastic Constant Matrix: (Units=GPa)
#
#
# Indices 1 2 3 4 5 6 
#
# 1 92.4699 23.0003 75.6017 0.0000 -16.3911 0.0000
# 2 23.0003 30.2778 35.4103 0.0000 -4.8179 0.0000
# 3 75.6017 35.4103 127.2464 0.0000 -7.1106 0.0000
# 4 0.0000 0.0000 0.0000 -317.4971 0.0000 204.2646
# 5 -16.3911 -4.8179 -7.1106 0.0000 30.9421 0.0000
# 6 0.0000 0.0000 0.0000 204.2646 0.0000 -97.0915
#
#
#
# Elastic Compliance Matrix: (Units=1/GPa)
#
#
# Indices 1 2 3 4 5 6 
#
# 1 0.023435 -0.000966 -0.013138 0.000000 0.009245 0.000000
# 2 -0.000966 0.049643 -0.013005 0.000000 0.004230 0.000000
# 3 -0.013138 -0.013005 0.019026 0.000000 -0.004612 0.000000
# 4 0.000000 0.000000 0.000000 0.008909 0.000000 0.018744
# 5 0.009245 0.004230 -0.004612 0.000000 0.036814 0.000000
# 6 0.000000 0.000000 0.000000 0.018744 0.000000 0.029134
#
#
# Mechanical properties :
#
#
# Convention : Reuss Voigt Hill
#
# Bulk Modulus (GPa) = 26.39442 57.55764 41.97603
# Shear Modulus (GPa) = 21.38512 -68.99719 -23.80604
#
# Velocity S-wave (km/s) = 3.35333 -6.02332 -3.53805
# Velocity P-wave (km/s) = 5.37325 4.25542 2.31983
#
# Compressibility (1/GPa) = 0.03788679
#
# Stress axis : x y z
#
# Youngs Moduli (GPa) = 42.67187 20.14367 52.56039
#
# Poissons Ratio (x) = 0.01946 0.69054
# Poissons Ratio (y) = 0.04122 0.68353
# Poissons Ratio (z) = 0.56062 0.26196
#
# Static dielectric constant tensor:
#      x y z
#    x 3.613860 0.000000 0.055290 
#    y 0.000000 3.255870 0.000000 
#    z 0.055290 0.000000 3.606840 
# 
# 
# High freq. dielectric constant tensor:
#      x y z
#    x 1.746190 0.000000 0.008490 
#    y 0.000000 1.717390 0.000000 
#    z 0.008490 0.000000 1.749600 
# 
# From -- ./inp_files/58333.got.cif
#   From: 2010.06.25/outbox.cif.g09.slc.cpg/sg10_30_cif.got.tgz:58333.got - 2010.06.27 22:07:45.
