data_PCOD8059125
_publ_section_title
;
Structure prediction by ZEFSAII (Michael W. Deem and Ramdas Pophale) SiO2 
 PCOD8059125
Probable space group: P 2/M
;
_chemical_formula_sum "Si O2"
_cell_formula_units_Z 32
_cell_length_a 18.990971
_cell_length_b 8.503425
_cell_length_c 11.748476
_cell_angle_alpha 90.000000
_cell_angle_beta 53.794408
_cell_angle_gamma 90.000000
_cell_volume 1530.889134
_symmetry_space_group_name_H-M "P 2/M"
_symmetry_group_IT_number 10
_symmetry_cell_setting 'monoclinic'
loop_
_space_group_symop_operation_xyz
x,y,z
-x,y,-z
-x,-y,-z
x,-y,z
loop_
_atom_site_type_symbol
_atom_site_label
_atom_site_fract_x
_atom_site_fract_y
_atom_site_fract_z
Si Si1 0.753181 0.681074 0.613549
Si Si2 0.403305 0.817887 0.374574
Si Si3 0.911967 0.818628 0.332232
Si Si4 0.417089 0.684257 0.834505
Si Si5 0.170749 0.818934 0.826707
Si Si6 0.733984 0.183312 0.875327
Si Si7 0.644369 0.317280 0.353513
Si Si8 0.895220 0.813593 0.869259
O O1 0.748666 0.500000 0.654131
O O2 0.676575 0.718281 0.598486
O O3 0.846250 0.714206 0.467736
O O4 0.741521 0.789352 0.734580
O O5 0.492757 0.774114 0.225120
O O6 0.413647 0.774912 0.498155
O O7 0.381826 0.000000 0.378503
O O8 0.896547 0.801248 0.212142
O O9 0.009734 0.753561 0.262047
O O10 0.900730 0.000000 0.380579
O O11 0.435943 0.500000 0.815882
O O12 0.379116 0.743295 0.750068
O O13 0.349353 0.724264 0.998173
O O14 0.254543 0.714580 0.718683
O O15 0.200536 0.000000 0.813491
O O16 0.125969 0.752415 0.983670
O O17 0.821489 0.248101 0.852927
O O18 0.721220 0.000000 0.913294
O O19 0.623166 0.500000 0.387257
O O20 0.898985 0.000000 0.867954
#
# Coordination Sequence:
#
# PCOD8059125 Si02
#       8
#     4   4   4   4   4   4   4   4
#     4  12  26  44  63  87 123 163 206 259 317 370
#     4  12  25  42  66  94 122 160 209 256 302 364
#     4  10  20  37  63  94 126 163 207 253 302 365
#     4  11  24  42  64  94 130 165 199 247 310 370
#     4  10  18  33  61  93 126 163 204 248 301 363
#     4  11  23  42  66  91 121 162 214 261 302 359
#     4  11  22  37  61  93 132 167 197 242 307 370
#     4   9  19  36  62  95 127 161 205 255 304 356
#
# _framework density 20.902885000000001
#
# number of rings (size 3 to 8) (size 9 to 14) (size 15 to 20)
#    0.000    1.250    2.500    4.125    0.000    5.500 
#    0.000    6.875    0.000    1.500    0.000    0.000 
#    0.000    0.000    0.000    0.000    0.000    0.000 
#
# Total GULP energy -396987.769449 kJ/mol
# GULP energy per Si atom -12405.867795 kJ/mol
# Density = 2.085531 g / cm^3
# Si number density = 20.902885 Si / 1000 Ang^3
#
#
#
# Elastic Constant Matrix: (Units=GPa)
#
#
# Indices 1 2 3 4 5 6 
#
# 1 62.1171 18.3230 52.8664 0.0000 -17.2728 0.0000
# 2 18.3230 60.1129 14.4351 0.0000 -5.6724 0.0000
# 3 52.8664 14.4351 117.7821 0.0000 -7.4458 0.0000
# 4 0.0000 0.0000 0.0000 28.9275 0.0000 6.3588
# 5 -17.2728 -5.6724 -7.4458 0.0000 41.8521 0.0000
# 6 0.0000 0.0000 0.0000 6.3588 0.0000 11.8117
#
#
#
# Elastic Compliance Matrix: (Units=1/GPa)
#
#
# Indices 1 2 3 4 5 6 
#
# 1 0.031364 -0.005558 -0.012770 0.000000 0.009919 0.000000
# 2 -0.005558 0.018287 0.000268 0.000000 0.000232 0.000000
# 3 -0.012770 0.000268 0.014016 0.000000 -0.002740 0.000000
# 4 0.000000 0.000000 0.000000 0.039209 0.000000 -0.021108
# 5 0.009919 0.000232 -0.002740 0.000000 0.027531 0.000000
# 6 0.000000 0.000000 0.000000 -0.021108 0.000000 0.096025
#
#
# Mechanical properties :
#
#
# Convention : Reuss Voigt Hill
#
# Bulk Modulus (GPa) = 36.29968 45.69569 40.99769
# Shear Modulus (GPa) = 18.40033 26.81076 22.60555
#
# Velocity S-wave (km/s) = 2.97017 3.58527 3.29212
# Velocity P-wave (km/s) = 5.40056 6.24879 5.84009
#
# Compressibility (1/GPa) = 0.02754845
#
# Stress axis : x y z
#
# Youngs Moduli (GPa) = 31.88354 54.68374 71.34811
#
# Poissons Ratio (x) = 0.30392 0.91109
# Poissons Ratio (y) = 0.17720 -0.01913
# Poissons Ratio (z) = 0.40714 -0.01466
#
# Static dielectric constant tensor:
#      x y z
#    x 3.847640 0.000000 -0.086110 
#    y 0.000000 3.523670 0.000000 
#    z -0.086110 0.000000 3.776050 
# 
# 
# High freq. dielectric constant tensor:
#      x y z
#    x 1.820850 0.000000 -0.007990 
#    y 0.000000 1.801170 0.000000 
#    z -0.007990 0.000000 1.825640 
# 
# From -- ./inp_files/55184.got.cif
#   From: 2010.06.25/outbox.cif.g09.slc.cpg/sg10_28_cif.got.tgz:55184.got - 2010.06.27 22:07:45.
