data_PCOD8059685
_publ_section_title
;
Structure prediction by ZEFSAII (Michael W. Deem and Ramdas Pophale) SiO2 
 PCOD8059685
Probable space group: P 2/M
;
_chemical_formula_sum "Si O2"
_cell_formula_units_Z 32
_cell_length_a 27.542532
_cell_length_b 8.924907
_cell_length_c 19.766389
_cell_angle_alpha 90.000000
_cell_angle_beta 158.881589
_cell_angle_gamma 90.000000
_cell_volume 1750.632703
_symmetry_space_group_name_H-M "P 2/M"
_symmetry_group_IT_number 10
_symmetry_cell_setting 'monoclinic'
loop_
_space_group_symop_operation_xyz
x,y,z
-x,y,-z
-x,-y,-z
x,-y,z
loop_
_atom_site_type_symbol
_atom_site_label
_atom_site_fract_x
_atom_site_fract_y
_atom_site_fract_z
Si Si1 0.333432 0.673797 0.074104
Si Si2 0.074245 0.175257 0.790876
Si Si3 0.108918 0.175664 0.196796
Si Si4 0.623654 0.832272 0.298230
Si Si5 0.354707 0.324903 0.944477
Si Si6 0.907058 0.825102 0.440512
Si Si7 0.894720 0.322750 0.664506
Si Si8 0.403930 0.834363 0.577437
O O1 0.306263 0.500000 0.052310
O O2 0.481371 0.716713 0.295353
O O3 0.225663 0.772793 0.973373
O O4 0.325633 0.714569 0.984843
O O5 0.981415 0.213649 0.606333
O O6 0.021802 0.266008 0.787040
O O7 0.074253 0.000000 0.807334
O O8 0.082272 0.271070 0.228988
O O9 0.256983 0.211762 0.357547
O O10 0.099127 0.000000 0.202818
O O11 0.000000 0.224227 0.000000
O O12 0.759123 0.744137 0.454509
O O13 0.612660 0.835894 0.364020
O O14 0.632723 0.000000 0.279977
O O15 0.492328 0.751063 0.097160
O O16 0.370287 0.500000 0.953539
O O17 0.233149 0.263204 0.741366
O O18 0.000000 0.767041 0.500000
O O19 0.875906 0.000000 0.391318
O O20 0.884856 0.500000 0.649403
O O21 0.445874 0.000000 0.606354
#
# Coordination Sequence:
#
# PCOD8059685 Si02
#       8
#     4   4   4   4   4   4   4   4
#     4  10  19  30  47  74 105 137 174 216 262 309
#     4  11  22  36  54  73 101 141 182 220 263 315
#     4   9  18  35  60  87 112 140 175 211 250 304
#     4   9  17  32  53  73  99 136 178 218 259 310
#     4  10  19  30  49  76 105 134 170 222 277 318
#     4  10  20  34  51  73 100 135 181 227 268 314
#     4  11  22  36  54  79 111 139 172 214 263 318
#     4   8  15  28  49  77 105 134 169 210 251 297
#
# _framework density 18.279105999999999
#
# number of rings (size 3 to 8) (size 9 to 14) (size 15 to 20)
#    0.000    2.250    1.250    3.375    0.000    5.500 
#    0.000    0.625    0.000    4.500    0.000    5.250 
#    0.000    0.000    0.000    0.000    0.000    0.000 
#
# Total GULP energy -396839.565027 kJ/mol
# GULP energy per Si atom -12401.236407 kJ/mol
# Density = 1.823750 g / cm^3
# Si number density = 18.279106 Si / 1000 Ang^3
#
#
#
# Elastic Constant Matrix: (Units=GPa)
#
#
# Indices 1 2 3 4 5 6 
#
# 1 56.7197 40.5044 32.0089 0.0000 12.1413 0.0000
# 2 40.5044 101.7748 46.6098 0.0000 10.1319 0.0000
# 3 32.0089 46.6098 124.8820 0.0000 14.6209 0.0000
# 4 0.0000 0.0000 0.0000 23.3068 0.0000 8.4307
# 5 12.1413 10.1319 14.6209 0.0000 17.7618 0.0000
# 6 0.0000 0.0000 0.0000 8.4307 0.0000 21.3140
#
#
#
# Elastic Compliance Matrix: (Units=1/GPa)
#
#
# Indices 1 2 3 4 5 6 
#
# 1 0.027846 -0.008759 -0.002462 0.000000 -0.012011 0.000000
# 2 -0.008759 0.014801 -0.003311 0.000000 0.000270 0.000000
# 3 -0.002462 -0.003311 0.010465 0.000000 -0.005043 0.000000
# 4 0.000000 0.000000 0.000000 0.050070 0.000000 -0.019805
# 5 -0.012011 0.000270 -0.005043 0.000000 0.068508 0.000000
# 6 0.000000 0.000000 0.000000 -0.019805 0.000000 0.054752
#
#
# Mechanical properties :
#
#
# Convention : Reuss Voigt Hill
#
# Bulk Modulus (GPa) = 41.58283 57.95809 49.77046
# Shear Modulus (GPa) = 18.97387 23.42674 21.20030
#
# Velocity S-wave (km/s) = 3.22531 3.58385 3.40929
# Velocity P-wave (km/s) = 6.05544 6.99295 6.54102
#
# Compressibility (1/GPa) = 0.02404839
#
# Stress axis : x y z
#
# Youngs Moduli (GPa) = 35.91194 67.56378 95.56015
#
# Poissons Ratio (x) = 0.59178 0.23526
# Poissons Ratio (y) = 0.31455 0.31637
# Poissons Ratio (z) = 0.08841 0.22368
#
# Static dielectric constant tensor:
#      x y z
#    x 3.032000 0.000000 0.217990 
#    y 0.000000 3.378180 0.000000 
#    z 0.217990 0.000000 3.567330 
# 
# 
# High freq. dielectric constant tensor:
#      x y z
#    x 1.670750 0.000000 0.024190 
#    y 0.000000 1.713930 0.000000 
#    z 0.024190 0.000000 1.711010 
# 
# From -- ./inp_files/87201.got.cif
#   From: 2010.06.25/outbox.cif.g09.slc.cpg/sg10_44_cif.got.tgz:87201.got - 2010.06.27 22:07:45.
