data_PCOD8059877
_publ_section_title
;
Structure prediction by ZEFSAII (Michael W. Deem and Ramdas Pophale) SiO2 
 PCOD8059877
Probable space group: P 2/M
;
_chemical_formula_sum "Si O2"
_cell_formula_units_Z 24
_cell_length_a 12.168971
_cell_length_b 8.710586
_cell_length_c 14.341917
_cell_angle_alpha 90.000000
_cell_angle_beta 68.624421
_cell_angle_gamma 90.000000
_cell_volume 1415.652462
_symmetry_space_group_name_H-M "P 2/M"
_symmetry_group_IT_number 10
_symmetry_cell_setting 'monoclinic'
loop_
_space_group_symop_operation_xyz
x,y,z
-x,y,-z
-x,-y,-z
x,-y,z
loop_
_atom_site_type_symbol
_atom_site_label
_atom_site_fract_x
_atom_site_fract_y
_atom_site_fract_z
Si Si1 0.058444 0.819534 0.348813
Si Si2 0.748993 0.321362 0.824685
Si Si3 0.572067 0.678316 0.567320
Si Si4 0.541520 0.180312 0.770898
Si Si5 0.841500 0.678637 0.498210
Si Si6 0.380487 0.830741 0.978847
O O1 0.129220 0.766461 0.235221
O O2 0.134946 0.774138 0.415476
O O3 0.931301 0.735692 0.390348
O O4 0.037905 0.000000 0.353176
O O5 0.771936 0.500000 0.807355
O O6 0.650277 0.273033 0.780684
O O7 0.711143 0.283680 0.942863
O O8 0.500000 0.734930 0.500000
O O9 0.548831 0.500000 0.595494
O O10 0.524638 0.775264 0.669090
O O11 0.709371 0.710952 0.504807
O O12 0.419185 0.223049 0.862971
O O13 0.568694 0.000000 0.773959
O O14 0.862644 0.500000 0.513261
O O15 0.322420 0.000000 0.994226
O O16 0.500000 0.836647 0.000000
#
# Coordination Sequence:
#
# PCOD8059877 Si02
#       6
#     4   4   4   4   4   4
#     4  11  20  30  47  69  97 128 159 196 241 289
#     4  11  19  28  45  70  97 127 159 193 238 292
#     4  10  21  35  51  71  97 130 165 201 239 280
#     4  10  19  31  47  67  95 128 161 199 239 282
#     4  10  19  32  48  68  95 126 162 199 238 285
#     4   8  16  29  43  64  94 125 156 192 236 286
#
# _framework density 16.953313999999999
#
# number of rings (size 3 to 8) (size 9 to 14) (size 15 to 20)
#    0.000    2.000    1.667    6.000    0.000    4.667 
#    0.000    0.000    0.000    0.000    0.000    1.167 
#    0.000    9.333    0.000    0.000    0.000    0.000 
#
# Total GULP energy -297565.341968 kJ/mol
# GULP energy per Si atom -12398.555915 kJ/mol
# Density = 1.691473 g / cm^3
# Si number density = 16.953314 Si / 1000 Ang^3
#
#
#
# Elastic Constant Matrix: (Units=GPa)
#
#
# Indices 1 2 3 4 5 6 
#
# 1 67.4602 19.5235 44.5127 0.0000 -6.8358 0.0000
# 2 19.5235 75.2082 36.5904 0.0000 -6.5035 0.0000
# 3 44.5127 36.5904 124.3033 0.0000 -20.7710 0.0000
# 4 0.0000 0.0000 0.0000 28.5090 0.0000 -7.2891
# 5 -6.8358 -6.5035 -20.7710 0.0000 22.3411 0.0000
# 6 0.0000 0.0000 0.0000 -7.2891 0.0000 9.1692
#
#
#
# Elastic Compliance Matrix: (Units=1/GPa)
#
#
# Indices 1 2 3 4 5 6 
#
# 1 0.019662 -0.001963 -0.006575 0.000000 -0.000668 0.000000
# 2 -0.001963 0.015717 -0.003859 0.000000 0.000387 0.000000
# 3 -0.006575 -0.003859 0.013037 0.000000 0.008985 0.000000
# 4 0.000000 0.000000 0.000000 0.044025 0.000000 0.034997
# 5 -0.000668 0.000387 0.008985 0.000000 0.053023 0.000000
# 6 0.000000 0.000000 0.000000 0.034997 0.000000 0.136882
#
#
# Mechanical properties :
#
#
# Convention : Reuss Voigt Hill
#
# Bulk Modulus (GPa) = 42.33295 52.02499 47.17897
# Shear Modulus (GPa) = 15.87238 23.09352 19.48295
#
# Velocity S-wave (km/s) = 3.06312 3.69478 3.39368
# Velocity P-wave (km/s) = 6.12657 6.99683 6.57611
#
# Compressibility (1/GPa) = 0.02362226
#
# Stress axis : x y z
#
# Youngs Moduli (GPa) = 50.85873 63.62574 76.70710
#
# Poissons Ratio (x) = 0.12491 0.50433
# Poissons Ratio (y) = 0.09985 0.29600
# Poissons Ratio (z) = 0.33438 0.24552
#
# Static dielectric constant tensor:
#      x y z
#    x 2.855790 0.000000 -0.343240 
#    y 0.000000 3.200770 0.000000 
#    z -0.343240 0.000000 3.536520 
# 
# 
# High freq. dielectric constant tensor:
#      x y z
#    x 1.598930 0.000000 -0.034920 
#    y 0.000000 1.664250 0.000000 
#    z -0.034920 0.000000 1.659050 
# 
# From -- ./inp_files/48666.got.cif
#   From: 2010.06.25/outbox.cif.g09.slc.cpg/sg10_25_cif.got.tgz:48666.got - 2010.06.27 22:07:45.
