data_PCOD8059909
_publ_section_title
;
Structure prediction by ZEFSAII (Michael W. Deem and Ramdas Pophale) SiO2 
 PCOD8059909
Probable space group: P 2/M
;
_chemical_formula_sum "Si O2"
_cell_formula_units_Z 30
_cell_length_a 15.855008
_cell_length_b 26.358947
_cell_length_c 13.648987
_cell_angle_alpha 90.000000
_cell_angle_beta 161.948908
_cell_angle_gamma 90.000000
_cell_volume 1767.532460
_symmetry_space_group_name_H-M "P 2/M"
_symmetry_group_IT_number 10
_symmetry_cell_setting 'monoclinic'
loop_
_space_group_symop_operation_xyz
x,y,z
-x,y,-z
-x,-y,-z
x,-y,z
loop_
_atom_site_type_symbol
_atom_site_label
_atom_site_fract_x
_atom_site_fract_y
_atom_site_fract_z
Si Si1 0.594850 0.442874 0.216494
Si Si2 0.408350 0.901857 0.788707
Si Si3 0.607233 0.789778 0.228841
Si Si4 0.896550 0.269113 0.274929
Si Si5 0.095648 0.383381 0.717235
Si Si6 0.913187 0.058022 0.800857
Si Si7 0.294209 0.058320 0.054948
Si Si8 0.194386 0.000000 0.621138
O O1 0.649298 0.500000 0.313702
O O2 0.864155 0.409181 0.527658
O O3 0.500000 0.443883 0.000000
O O4 0.364000 0.417111 0.027648
O O5 0.673026 0.914303 0.014140
O O6 0.177985 0.948180 0.533817
O O7 0.500000 0.896145 0.000000
O O8 0.303826 0.846620 0.639100
O O9 0.371052 0.765417 0.034734
O O10 0.500000 0.790126 0.000000
O O11 0.869880 0.754924 0.534254
O O12 0.841616 0.326311 0.177792
O O13 0.000000 0.269561 0.500000
O O14 0.000000 0.382427 0.500000
O O15 0.591460 0.062166 0.433071
O O16 0.016633 0.000000 0.916562
O O17 0.000000 0.083650 0.000000
O O18 0.077735 0.083992 0.891454
O O19 0.213395 0.000000 0.939019
O O20 0.000000 0.000000 0.500000
O O21 0.500000 0.000000 0.000000
#
# Coordination Sequence:
#
# PCOD8059909 Si02
#       8
#     4   4   4   4   4   4   4   2
#     4   9  15  21  29  44  63  82 100 127 174 229
#     4  10  21  35  46  64  87 113 136 165 199 245
#     4   9  18  28  41  52  70  93 123 157 190 220
#     4   9  16  27  38  51  62  85 121 156 186 216
#     4   9  15  22  33  44  60  80 107 141 174 215
#     4   9  18  32  49  67  85 103 128 162 195 230
#     4  10  19  31  48  67  85 108 133 157 194 244
#     4  10  22  34  46  58  77 108 135 156 188 234
#
# _framework density 16.972812999999999
#
# number of rings (size 3 to 8) (size 9 to 14) (size 15 to 20)
#    0.000    2.667    0.667    1.600    0.000   13.333 
#    0.000    0.000    0.000    0.000    0.000    0.000 
#    0.000    0.000    0.000    0.000    0.000    0.000 
#
# Total GULP energy -371803.644994 kJ/mol
# GULP energy per Si atom -12393.454833 kJ/mol
# Density = 1.693418 g / cm^3
# Si number density = 16.972813 Si / 1000 Ang^3
#
#
#
# Elastic Constant Matrix: (Units=GPa)
#
#
# Indices 1 2 3 4 5 6 
#
# 1 60.0609 17.1059 18.3595 0.0000 12.0736 0.0000
# 2 17.1059 141.7370 50.6055 0.0000 19.0464 0.0000
# 3 18.3595 50.6055 77.0662 0.0000 31.3875 0.0000
# 4 0.0000 0.0000 0.0000 24.7553 0.0000 8.3637
# 5 12.0736 19.0464 31.3875 0.0000 26.7678 0.0000
# 6 0.0000 0.0000 0.0000 8.3637 0.0000 2.9275
#
#
#
# Elastic Compliance Matrix: (Units=1/GPa)
#
#
# Indices 1 2 3 4 5 6 
#
# 1 0.018556 -0.000953 -0.001267 0.000000 -0.006205 0.000000
# 2 -0.000953 0.009280 -0.006417 0.000000 0.001351 0.000000
# 3 -0.001267 -0.006417 0.029476 0.000000 -0.029425 0.000000
# 4 0.000000 0.000000 0.000000 1.161819 0.000000 -3.319252
# 5 -0.006205 0.001351 -0.029425 0.000000 0.073699 0.000000
# 6 0.000000 0.000000 0.000000 -3.319252 0.000000 9.824504
#
#
# Mechanical properties :
#
#
# Convention : Reuss Voigt Hill
#
# Bulk Modulus (GPa) = 24.97700 50.11176 37.54438
# Shear Modulus (GPa) = 0.44851 23.74300 12.09576
#
# Velocity S-wave (km/s) = 0.51461 3.74422 2.67246
# Velocity P-wave (km/s) = 3.88599 6.94846 5.62948
#
# Compressibility (1/GPa) = 0.04003683
#
# Stress axis : x y z
#
# Youngs Moduli (GPa) = 53.89073 107.76054 33.92618
#
# Poissons Ratio (x) = 0.10271 0.04300
# Poissons Ratio (y) = 0.05136 0.21770
# Poissons Ratio (z) = 0.06830 0.69149
#
# Static dielectric constant tensor:
#      x y z
#    x 2.868730 0.000000 0.299000 
#    y 0.000000 3.507300 0.000000 
#    z 0.299000 0.000000 3.261250 
# 
# 
# High freq. dielectric constant tensor:
#      x y z
#    x 1.589990 0.000000 0.040840 
#    y 0.000000 1.638750 0.000000 
#    z 0.040840 0.000000 1.666190 
# 
# From -- ./inp_files/68038.got.cif
#   From: 2010.06.25/outbox.cif.g09.slc.cpg/sg10_35_cif.got.tgz:68038.got - 2010.06.27 22:07:45.
