data_PCOD8059280
_publ_section_title
;
Structure prediction by ZEFSAII (Michael W. Deem and Ramdas Pophale) SiO2 
 PCOD8059280
Probable space group: P 2/M
;
_chemical_formula_sum "Si O2"
_cell_formula_units_Z 32
_cell_length_a 8.812548
_cell_length_b 23.087389
_cell_length_c 14.749207
_cell_angle_alpha 90.000000
_cell_angle_beta 30.264410
_cell_angle_gamma 90.000000
_cell_volume 1512.404480
_symmetry_space_group_name_H-M "P 2/M"
_symmetry_group_IT_number 10
_symmetry_cell_setting 'monoclinic'
loop_
_space_group_symop_operation_xyz
x,y,z
-x,y,-z
-x,-y,-z
x,-y,z
loop_
_atom_site_type_symbol
_atom_site_label
_atom_site_fract_x
_atom_site_fract_y
_atom_site_fract_z
Si Si1 0.177369 0.868145 0.183940
Si Si2 0.663179 0.433544 0.151339
Si Si3 0.372730 0.612160 0.473401
Si Si4 0.174147 0.845253 0.819743
Si Si5 0.878986 0.763570 0.657627
Si Si6 0.327216 0.353810 0.183171
Si Si7 0.493086 0.262768 0.602417
Si Si8 0.640402 0.936384 0.525501
O O1 0.247795 0.813282 0.211828
O O2 0.025307 0.850645 0.167289
O O3 0.981077 0.914126 0.340733
O O4 0.500000 0.897723 0.000000
O O5 0.675533 0.500000 0.113848
O O6 0.448985 0.428447 0.349619
O O7 0.515726 0.398614 0.145224
O O8 0.000000 0.410971 0.000000
O O9 0.500000 0.582322 0.500000
O O10 0.592894 0.669670 0.351289
O O11 0.012581 0.623106 0.659943
O O12 0.294833 0.779250 0.768144
O O13 0.453200 0.889529 0.678486
O O14 0.000000 0.860960 0.000000
O O15 0.654934 0.707995 0.770352
O O16 0.000000 0.789419 0.500000
O O17 0.162391 0.733238 0.553259
O O18 0.500000 0.344524 0.000000
O O19 0.500000 0.233163 0.500000
O O20 0.500000 0.942595 0.500000
O O21 0.638962 0.000000 0.573567
#
# Coordination Sequence:
#
# PCOD8059280 Si02
#       8
#     4   4   4   4   4   4   4   4
#     4  11  23  38  60  94 130 162 211 264 320 378
#     4  11  25  46  68  94 129 170 220 271 318 380
#     4  10  22  39  66  97 129 169 212 265 320 389
#     4  11  22  38  62  93 126 169 215 259 315 379
#     4  11  22  38  63  89 129 165 203 259 320 380
#     4  11  23  42  65  97 131 168 215 264 325 382
#     4  10  18  38  60  86 124 165 206 254 312 375
#     4   9  19  40  65  86 122 172 215 263 312 370
#
# _framework density 21.158359999999998
#
# number of rings (size 3 to 8) (size 9 to 14) (size 15 to 20)
#    0.000    1.500    2.500    3.375    1.750    2.500 
#    4.500    0.000    0.000    2.625    0.000    0.000 
#    0.000    0.000    0.000    0.000    0.000    0.000 
#
# Total GULP energy -396511.613192 kJ/mol
# GULP energy per Si atom -12390.987912 kJ/mol
# Density = 2.111020 g / cm^3
# Si number density = 21.158360 Si / 1000 Ang^3
#
#
#
# Elastic Constant Matrix: (Units=GPa)
#
#
# Indices 1 2 3 4 5 6 
#
# 1 75.5241 41.7740 40.6161 0.0000 -0.7720 0.0000
# 2 41.7740 90.7271 38.6463 0.0000 -2.8045 0.0000
# 3 40.6161 38.6463 140.3707 0.0000 -1.4946 0.0000
# 4 0.0000 0.0000 0.0000 17.0550 0.0000 0.8670
# 5 -0.7720 -2.8045 -1.4946 0.0000 40.5926 0.0000
# 6 0.0000 0.0000 0.0000 0.8670 0.0000 -10.5913
#
#
#
# Elastic Compliance Matrix: (Units=1/GPa)
#
#
# Indices 1 2 3 4 5 6 
#
# 1 0.019202 -0.007343 -0.003537 0.000000 -0.000272 0.000000
# 2 -0.007343 0.015316 -0.002083 0.000000 0.000842 0.000000
# 3 -0.003537 -0.002083 0.008722 0.000000 0.000110 0.000000
# 4 0.000000 0.000000 0.000000 0.058391 0.000000 0.004780
# 5 -0.000272 0.000842 0.000110 0.000000 0.024692 0.000000
# 6 0.000000 0.000000 0.000000 0.004780 0.000000 -0.094025
#
#
# Mechanical properties :
#
#
# Convention : Reuss Voigt Hill
#
# Bulk Modulus (GPa) = 57.75800 60.96609 59.36204
# Shear Modulus (GPa) = 78.12992 21.78361 49.95676
#
# Velocity S-wave (km/s) = 6.08329 3.21214 4.86437
# Velocity P-wave (km/s) = 8.75780 6.52946 7.72441
#
# Compressibility (1/GPa) = 0.01731362
#
# Stress axis : x y z
#
# Youngs Moduli (GPa) = 52.07829 65.28953 114.64953
#
# Poissons Ratio (x) = 0.47941 0.40555
# Poissons Ratio (y) = 0.38240 0.23884
# Poissons Ratio (z) = 0.18422 0.13601
#
# Static dielectric constant tensor:
#      x y z
#    x 3.790080 0.000000 -0.064690 
#    y 0.000000 3.846720 0.000000 
#    z -0.064690 0.000000 3.836360 
# 
# 
# High freq. dielectric constant tensor:
#      x y z
#    x 1.826360 0.000000 -0.003490 
#    y 0.000000 1.820090 0.000000 
#    z -0.003490 0.000000 1.830610 
# 
# From -- ./inp_files/62695.got.cif
#   From: 2010.06.25/outbox.cif.g09.slc.cpg/sg10_32_cif.got.tgz:62695.got - 2010.06.27 22:07:45.
