data_PCOD8059118
_publ_section_title
;
Structure prediction by ZEFSAII (Michael W. Deem and Ramdas Pophale) SiO2 
 PCOD8059118
Probable space group: P 2/M
;
_chemical_formula_sum "Si O2"
_cell_formula_units_Z 32
_cell_length_a 20.949082
_cell_length_b 9.443955
_cell_length_c 25.693132
_cell_angle_alpha 90.000000
_cell_angle_beta 159.935216
_cell_angle_gamma 90.000000
_cell_volume 1743.951611
_symmetry_space_group_name_H-M "P 2/M"
_symmetry_group_IT_number 10
_symmetry_cell_setting 'monoclinic'
loop_
_space_group_symop_operation_xyz
x,y,z
-x,y,-z
-x,-y,-z
x,-y,z
loop_
_atom_site_type_symbol
_atom_site_label
_atom_site_fract_x
_atom_site_fract_y
_atom_site_fract_z
Si Si1 0.500085 0.164384 0.331480
Si Si2 0.533224 0.665487 0.966212
Si Si3 0.781681 0.338692 0.829236
Si Si4 0.101526 0.166584 0.779371
Si Si5 0.201334 0.666046 0.634914
Si Si6 0.175461 0.167334 0.347391
Si Si7 0.712394 0.843288 0.677204
Si Si8 0.224936 0.162941 0.549133
O O1 0.311569 0.255214 0.193671
O O2 0.640737 0.225455 0.482999
O O3 0.591307 0.187409 0.344929
O O4 0.451375 0.000000 0.303113
O O5 0.578357 0.500000 0.996778
O O6 0.351661 0.706561 0.793905
O O7 0.500000 0.711895 0.000000
O O8 0.707959 0.749878 0.078499
O O9 0.712841 0.500000 0.777693
O O10 0.725852 0.270210 0.732233
O O11 0.000000 0.326636 0.000000
O O12 0.009593 0.216207 0.763726
O O13 0.960810 0.206360 0.624755
O O14 0.143917 0.000000 0.811422
O O15 0.199852 0.500000 0.622410
O O16 0.251365 0.742411 0.619866
O O17 0.000000 0.718406 0.500000
O O18 0.171199 0.213899 0.283839
O O19 0.190658 0.000000 0.364463
O O20 0.500000 0.860252 0.500000
O O21 0.786830 0.000000 0.750914
O O22 0.210554 0.000000 0.555138
#
# Coordination Sequence:
#
# PCOD8059118 Si02
#       8
#     4   4   4   4   4   4   4   4
#     4   9  17  35  59  79 103 138 183 224 264 320
#     4  10  21  37  56  79 108 142 181 221 259 309
#     4  11  24  38  50  74 113 148 178 222 275 321
#     4   9  18  34  56  81 111 140 171 216 271 321
#     4  10  21  37  57  80 108 146 186 221 260 313
#     4   8  15  31  55  82 106 131 171 224 268 311
#     4  10  18  33  60  83 101 135 183 229 270 315
#     4   9  19  35  58  85 109 137 176 225 270 316
#
# _framework density 18.349133999999999
#
# number of rings (size 3 to 8) (size 9 to 14) (size 15 to 20)
#    0.000    2.500    1.250    2.625    0.000    4.250 
#    2.250    2.500    0.000    0.000    0.000    0.000 
#    0.000    0.000    0.000    0.000    0.000    0.000 
#
# Total GULP energy -396724.247710 kJ/mol
# GULP energy per Si atom -12397.632741 kJ/mol
# Density = 1.830737 g / cm^3
# Si number density = 18.349134 Si / 1000 Ang^3
#
#
#
# Elastic Constant Matrix: (Units=GPa)
#
#
# Indices 1 2 3 4 5 6 
#
# 1 129.6525 55.7248 60.7945 0.0000 12.1044 0.0000
# 2 55.7248 73.0011 51.9246 0.0000 9.4168 0.0000
# 3 60.7945 51.9246 92.9780 0.0000 10.5801 0.0000
# 4 0.0000 0.0000 0.0000 32.0636 0.0000 2.1075
# 5 12.1044 9.4168 10.5801 0.0000 27.2071 0.0000
# 6 0.0000 0.0000 0.0000 2.1075 0.0000 23.6352
#
#
#
# Elastic Compliance Matrix: (Units=1/GPa)
#
#
# Indices 1 2 3 4 5 6 
#
# 1 0.012712 -0.006154 -0.004681 0.000000 -0.001705 0.000000
# 2 -0.006154 0.025952 -0.010210 0.000000 -0.002274 0.000000
# 3 -0.004681 -0.010210 0.019753 0.000000 -0.002065 0.000000
# 4 0.000000 0.000000 0.000000 0.031372 0.000000 -0.002797
# 5 -0.001705 -0.002274 -0.002065 0.000000 0.039104 0.000000
# 6 0.000000 0.000000 0.000000 -0.002797 0.000000 0.042559
#
#
# Mechanical properties :
#
#
# Convention : Reuss Voigt Hill
#
# Bulk Modulus (GPa) = 61.25253 70.27994 65.76624
# Shear Modulus (GPa) = 22.83254 25.06035 23.94644
#
# Velocity S-wave (km/s) = 3.53135 3.69962 3.61646
# Velocity P-wave (km/s) = 7.07682 7.52557 7.30464
#
# Compressibility (1/GPa) = 0.01632586
#
# Stress axis : x y z
#
# Youngs Moduli (GPa) = 78.66475 38.53251 50.62499
#
# Poissons Ratio (x) = 0.23714 0.23698
# Poissons Ratio (y) = 0.48412 0.51691
# Poissons Ratio (z) = 0.36823 0.39344
#
# Static dielectric constant tensor:
#      x y z
#    x 3.603440 0.000000 0.210430 
#    y 0.000000 3.234800 0.000000 
#    z 0.210430 0.000000 3.222840 
# 
# 
# High freq. dielectric constant tensor:
#      x y z
#    x 1.722940 0.000000 0.012690 
#    y 0.000000 1.693000 0.000000 
#    z 0.012690 0.000000 1.700770 
# 
# From -- ./inp_files/93818.got.cif
#   From: 2010.06.25/outbox.cif.g09.slc.cpg/sg10_47_cif.got.tgz:93818.got - 2010.06.27 22:07:45.
