data_PCOD8059567
_publ_section_title
;
Structure prediction by ZEFSAII (Michael W. Deem and Ramdas Pophale) SiO2 
 PCOD8059567
Probable space group: P 2/M
;
_chemical_formula_sum "Si O2"
_cell_formula_units_Z 28
_cell_length_a 13.841976
_cell_length_b 9.022045
_cell_length_c 13.447468
_cell_angle_alpha 90.000000
_cell_angle_beta 121.346432
_cell_angle_gamma 90.000000
_cell_volume 1434.235801
_symmetry_space_group_name_H-M "P 2/M"
_symmetry_group_IT_number 10
_symmetry_cell_setting 'monoclinic'
loop_
_space_group_symop_operation_xyz
x,y,z
-x,y,-z
-x,-y,-z
x,-y,z
loop_
_atom_site_type_symbol
_atom_site_label
_atom_site_fract_x
_atom_site_fract_y
_atom_site_fract_z
Si Si1 0.625361 0.828402 0.160264
Si Si2 0.432165 0.676598 0.559338
Si Si3 0.047471 0.673387 0.773754
Si Si4 0.179773 0.668259 0.647814
Si Si5 0.247684 0.827196 0.975570
Si Si6 0.179830 0.328822 0.427218
Si Si7 0.440835 0.324406 0.173844
O O1 0.713771 0.778410 0.291435
O O2 0.681153 0.791167 0.084905
O O3 0.510079 0.737378 0.115631
O O4 0.594439 0.000000 0.153899
O O5 0.500000 0.734426 0.500000
O O6 0.426199 0.500000 0.559486
O O7 0.304489 0.744700 0.484233
O O8 0.498318 0.731796 0.692875
O O9 0.055542 0.500000 0.804151
O O10 0.090290 0.705469 0.684956
O O11 0.120730 0.762548 0.894267
O O12 0.916381 0.731468 0.701321
O O13 0.225739 0.500000 0.684342
O O14 0.128101 0.690797 0.510555
O O15 0.237809 0.000000 0.993685
O O16 0.314024 0.744784 0.100624
O O17 0.194777 0.500000 0.409882
O O18 0.431267 0.500000 0.163204
#
# Coordination Sequence:
#
# PCOD8059567 Si02
#       7
#     4   4   4   4   4   4   4
#     4  10  19  30  45  69 102 138 168 200 244 294
#     4   9  18  32  52  79 104 124 156 209 263 299
#     4   9  17  28  47  73 101 132 167 203 238 291
#     4   9  15  26  44  70 100 132 167 202 241 290
#     4  10  21  34  47  69 104 139 168 200 243 295
#     4   9  15  27  48  73 100 129 162 204 253 295
#     4  11  20  32  52  74  97 129 170 209 248 295
#
# _framework density 19.522590999999998
#
# number of rings (size 3 to 8) (size 9 to 14) (size 15 to 20)
#    0.000    2.429    1.429    2.143    0.000    5.143 
#    0.000    0.714    0.000    6.000    0.000    6.000 
#    0.000    0.000    0.000    0.000    0.000    0.000 
#
# Total GULP energy -346969.216317 kJ/mol
# GULP energy per Si atom -12391.757726 kJ/mol
# Density = 1.947816 g / cm^3
# Si number density = 19.522591 Si / 1000 Ang^3
#
#
#
# Elastic Constant Matrix: (Units=GPa)
#
#
# Indices 1 2 3 4 5 6 
#
# 1 57.2822 19.6248 48.5659 0.0000 19.9782 0.0000
# 2 19.6248 55.2337 42.5741 0.0000 16.3909 0.0000
# 3 48.5659 42.5741 136.4244 0.0000 49.8003 0.0000
# 4 0.0000 0.0000 0.0000 10.8709 0.0000 2.8140
# 5 19.9782 16.3909 49.8003 0.0000 33.8203 0.0000
# 6 0.0000 0.0000 0.0000 2.8140 0.0000 10.1994
#
#
#
# Elastic Compliance Matrix: (Units=1/GPa)
#
#
# Indices 1 2 3 4 5 6 
#
# 1 0.025498 -0.002645 -0.006965 0.000000 -0.003524 0.000000
# 2 -0.002645 0.024140 -0.006252 0.000000 -0.000931 0.000000
# 3 -0.006965 -0.006252 0.019790 0.000000 -0.021997 0.000000
# 4 0.000000 0.000000 0.000000 0.099063 0.000000 -0.027331
# 5 -0.003524 -0.000931 -0.021997 0.000000 0.064491 0.000000
# 6 0.000000 0.000000 0.000000 -0.027331 0.000000 0.105585
#
#
# Mechanical properties :
#
#
# Convention : Reuss Voigt Hill
#
# Bulk Modulus (GPa) = 26.52252 52.27442 39.39847
# Shear Modulus (GPa) = 13.05959 20.18983 16.62471
#
# Velocity S-wave (km/s) = 2.58921 3.21935 2.92132
# Velocity P-wave (km/s) = 4.74907 6.37601 5.62171
#
# Compressibility (1/GPa) = 0.03770381
#
# Stress axis : x y z
#
# Youngs Moduli (GPa) = 39.21868 41.42518 50.52944
#
# Poissons Ratio (x) = 0.10957 0.35196
# Poissons Ratio (y) = 0.10373 0.31591
# Poissons Ratio (z) = 0.27317 0.25899
#
# Static dielectric constant tensor:
#      x y z
#    x 3.450830 0.000000 0.383210 
#    y 0.000000 3.197560 0.000000 
#    z 0.383210 0.000000 3.796370 
# 
# 
# High freq. dielectric constant tensor:
#      x y z
#    x 1.724510 0.000000 0.031610 
#    y 0.000000 1.721100 0.000000 
#    z 0.031610 0.000000 1.769060 
# 
# From -- ./inp_files/66250.got.cif
#   From: 2010.06.25/outbox.cif.g09.slc.cpg/sg10_34_cif.got.tgz:66250.got - 2010.06.27 22:07:45.
