data_PCOD8059661
_publ_section_title
;
Structure prediction by ZEFSAII (Michael W. Deem and Ramdas Pophale) SiO2 
 PCOD8059661
Probable space group: P 2/M
;
_chemical_formula_sum "Si O2"
_cell_formula_units_Z 22
_cell_length_a 8.881461
_cell_length_b 13.850573
_cell_length_c 10.456473
_cell_angle_alpha 90.000000
_cell_angle_beta 114.235105
_cell_angle_gamma 90.000000
_cell_volume 1172.923598
_symmetry_space_group_name_H-M "P 2/M"
_symmetry_group_IT_number 10
_symmetry_cell_setting 'monoclinic'
loop_
_space_group_symop_operation_xyz
x,y,z
-x,y,-z
-x,-y,-z
x,-y,z
loop_
_atom_site_type_symbol
_atom_site_label
_atom_site_fract_x
_atom_site_fract_y
_atom_site_fract_z
Si Si1 0.000000 0.701898 0.500000
Si Si2 0.341126 0.390020 0.238255
Si Si3 0.783192 0.713550 0.045329
Si Si4 0.305910 0.388870 0.739002
Si Si5 0.189138 0.894462 0.099206
Si Si6 0.872805 0.754994 0.714400
O O1 0.142028 0.632403 0.601744
O O2 0.070526 0.771222 0.412229
O O3 0.307367 0.500000 0.262730
O O4 0.535763 0.368753 0.293470
O O5 0.269558 0.326467 0.329737
O O6 0.246973 0.365724 0.073870
O O7 0.679633 0.682558 0.134047
O O8 0.976875 0.716179 0.145840
O O9 0.726823 0.819307 0.971778
O O10 0.301916 0.500000 0.784545
O O11 0.199286 0.853083 0.248254
O O12 0.277399 0.000000 0.123960
O O13 0.000000 0.908718 0.000000
#
# Coordination Sequence:
#
# PCOD8059661 Si02
#       6
#     2   4   4   4   4   4
#     4  10  21  36  47  64  96 132 169 200 233 276
#     4  10  19  30  47  71  96 126 163 200 240 282
#     4   9  17  30  49  74  99 124 154 195 244 287
#     4  10  20  32  48  69  98 134 165 195 231 278
#     4   8  14  28  51  76  98 120 152 197 245 289
#     4   9  19  32  48  70  97 128 161 197 236 283
#
# _framework density 18.756550000000001
#
# number of rings (size 3 to 8) (size 9 to 14) (size 15 to 20)
#    0.000    2.727    0.000    3.000    0.000    7.273 
#    0.000    2.273    0.000    9.818    0.000    5.091 
#    0.000    0.000    0.000    0.000    0.000    0.000 
#
# Total GULP energy -272664.564439 kJ/mol
# GULP energy per Si atom -12393.843838 kJ/mol
# Density = 1.871386 g / cm^3
# Si number density = 18.756550 Si / 1000 Ang^3
#
#
#
# Elastic Constant Matrix: (Units=GPa)
#
#
# Indices 1 2 3 4 5 6 
#
# 1 71.7123 54.3057 38.4641 0.0000 -16.8454 0.0000
# 2 54.3057 137.4014 37.5355 0.0000 -19.8976 0.0000
# 3 38.4641 37.5355 82.3809 0.0000 -22.8035 0.0000
# 4 0.0000 0.0000 0.0000 7.5692 0.0000 -6.0757
# 5 -16.8454 -19.8976 -22.8035 0.0000 25.6871 0.0000
# 6 0.0000 0.0000 0.0000 -6.0757 0.0000 19.0423
#
#
#
# Elastic Compliance Matrix: (Units=1/GPa)
#
#
# Indices 1 2 3 4 5 6 
#
# 1 0.023851 -0.006959 -0.006799 0.000000 0.004215 0.000000
# 2 -0.006959 0.010678 -0.000782 0.000000 0.003014 0.000000
# 3 -0.006799 -0.000782 0.018916 0.000000 0.011728 0.000000
# 4 0.000000 0.000000 0.000000 0.177599 0.000000 0.056666
# 5 0.004215 0.003014 0.011728 0.000000 0.054441 0.000000
# 6 0.000000 0.000000 0.000000 0.056666 0.000000 0.070595
#
#
# Mechanical properties :
#
#
# Convention : Reuss Voigt Hill
#
# Bulk Modulus (GPa) = 41.04071 61.34502 51.19287
# Shear Modulus (GPa) = 12.71353 21.20568 16.95960
#
# Velocity S-wave (km/s) = 2.60632 3.36605 3.01025
# Velocity P-wave (km/s) = 5.56646 6.91982 6.27971
#
# Compressibility (1/GPa) = 0.02436605
#
# Stress axis : x y z
#
# Youngs Moduli (GPa) = 41.92632 93.64614 52.86599
#
# Poissons Ratio (x) = 0.65170 0.35942
# Poissons Ratio (y) = 0.29177 0.04134
# Poissons Ratio (z) = 0.28504 0.07323
#
# Static dielectric constant tensor:
#      x y z
#    x 3.469300 0.000000 -0.125220 
#    y 0.000000 3.589790 0.000000 
#    z -0.125220 0.000000 3.352760 
# 
# 
# High freq. dielectric constant tensor:
#      x y z
#    x 1.721910 0.000000 -0.008570 
#    y 0.000000 1.707260 0.000000 
#    z -0.008570 0.000000 1.714140 
# 
# From -- ./inp_files/42306.got.cif
#   From: 2010.06.25/outbox.cif.g09.slc.cpg/sg10_22_cif.got.tgz:42306.got - 2010.06.27 22:07:45.
