data_PCOD8059978
_publ_section_title
;
Structure prediction by ZEFSAII (Michael W. Deem and Ramdas Pophale) SiO2 
 PCOD8059978
Probable space group: P 2/M
;
_chemical_formula_sum "Si O2"
_cell_formula_units_Z 28
_cell_length_a 14.213798
_cell_length_b 9.482185
_cell_length_c 18.923704
_cell_angle_alpha 90.000000
_cell_angle_beta 147.131613
_cell_angle_gamma 90.000000
_cell_volume 1384.182706
_symmetry_space_group_name_H-M "P 2/M"
_symmetry_group_IT_number 10
_symmetry_cell_setting 'monoclinic'
loop_
_space_group_symop_operation_xyz
x,y,z
-x,y,-z
-x,-y,-z
x,-y,z
loop_
_atom_site_type_symbol
_atom_site_label
_atom_site_fract_x
_atom_site_fract_y
_atom_site_fract_z
Si Si1 0.642786 0.656613 0.245807
Si Si2 0.145762 0.337610 0.033729
Si Si3 0.069992 0.163957 0.846113
Si Si4 0.790861 0.837697 0.560858
Si Si5 0.647328 0.658146 0.038955
Si Si6 0.523437 0.334370 0.319879
Si Si7 0.067387 0.160279 0.621472
O O1 0.721871 0.500000 0.291802
O O2 0.637383 0.708967 0.323128
O O3 0.755599 0.750653 0.263315
O O4 0.442239 0.656071 0.094828
O O5 0.161015 0.500000 0.018122
O O6 0.088700 0.243593 0.931524
O O7 0.325379 0.285885 0.182669
O O8 0.000000 0.318202 0.000000
O O9 0.874861 0.180861 0.691868
O O10 0.195854 0.231037 0.865646
O O11 0.117628 0.000000 0.886122
O O12 0.612849 0.748047 0.441771
O O13 0.928120 0.781979 0.589234
O O14 0.743964 0.000000 0.516472
O O15 0.713556 0.500000 0.100613
O O16 0.500000 0.709017 0.000000
O O17 0.530915 0.500000 0.340473
O O18 0.000000 0.178596 0.500000
O O19 0.114327 0.000000 0.669583
#
# Coordination Sequence:
#
# PCOD8059978 Si02
#       7
#     4   4   4   4   4   4   4
#     4  10  19  31  49  77 110 144 193 246 286 335
#     4  10  22  44  71  93 116 148 192 250 309 366
#     4  11  23  38  59  88 124 159 197 247 299 360
#     4  10  22  38  54  81 121 162 198 237 289 347
#     4  10  20  35  55  80 117 161 203 248 296 346
#     4  10  20  36  59  86 112 144 191 243 293 351
#     4  10  19  31  48  72 109 158 205 239 277 336
#
# _framework density 20.228543999999999
#
# number of rings (size 3 to 8) (size 9 to 14) (size 15 to 20)
#    0.000    1.857    2.857    1.286    0.000    3.714 
#    0.000    0.714    0.000    4.286    0.000    0.000 
#    0.000    0.000    0.000    0.000    0.000    0.000 
#
# Total GULP energy -347142.058813 kJ/mol
# GULP energy per Si atom -12397.930672 kJ/mol
# Density = 2.018250 g / cm^3
# Si number density = 20.228544 Si / 1000 Ang^3
#
#
#
# Elastic Constant Matrix: (Units=GPa)
#
#
# Indices 1 2 3 4 5 6 
#
# 1 58.5088 42.9055 39.3934 0.0000 2.2897 0.0000
# 2 42.9055 88.4866 65.0495 0.0000 1.1486 0.0000
# 3 39.3934 65.0495 133.0884 0.0000 -1.2565 0.0000
# 4 0.0000 0.0000 0.0000 29.8822 0.0000 -8.3234
# 5 2.2897 1.1486 -1.2565 0.0000 20.9667 0.0000
# 6 0.0000 0.0000 0.0000 -8.3234 0.0000 11.6887
#
#
#
# Elastic Compliance Matrix: (Units=1/GPa)
#
#
# Indices 1 2 3 4 5 6 
#
# 1 0.027171 -0.011257 -0.002564 0.000000 -0.002504 0.000000
# 2 -0.011257 0.022349 -0.007596 0.000000 -0.000450 0.000000
# 3 -0.002564 -0.007596 0.011999 0.000000 0.001415 0.000000
# 4 0.000000 0.000000 0.000000 0.041745 0.000000 0.029726
# 5 -0.002504 -0.000450 0.001415 0.000000 0.048078 0.000000
# 6 0.000000 0.000000 0.000000 0.029726 0.000000 0.106720
#
#
# Mechanical properties :
#
#
# Convention : Reuss Voigt Hill
#
# Bulk Modulus (GPa) = 53.51922 63.86451 58.69186
# Shear Modulus (GPa) = 16.28008 21.35655 18.81831
#
# Velocity S-wave (km/s) = 2.83999 3.25278 3.05337
# Velocity P-wave (km/s) = 6.10482 6.76368 6.44268
#
# Compressibility (1/GPa) = 0.01868488
#
# Stress axis : x y z
#
# Youngs Moduli (GPa) = 36.80417 44.74376 83.34264
#
# Poissons Ratio (x) = 0.50370 0.21367
# Poissons Ratio (y) = 0.41432 0.63306
# Poissons Ratio (z) = 0.09436 0.33987
#
# Static dielectric constant tensor:
#      x y z
#    x 3.414480 0.000000 -0.064630 
#    y 0.000000 3.557250 0.000000 
#    z -0.064630 0.000000 3.755640 
# 
# 
# High freq. dielectric constant tensor:
#      x y z
#    x 1.765170 0.000000 -0.011070 
#    y 0.000000 1.780650 0.000000 
#    z -0.011070 0.000000 1.797850 
# 
# From -- ./inp_files/84994.got.cif
#   From: 2010.06.25/outbox.cif.g09.slc.cpg/sg10_43_cif.got.tgz:84994.got - 2010.06.27 22:07:45.
