data_PCOD8059422
_publ_section_title
;
Structure prediction by ZEFSAII (Michael W. Deem and Ramdas Pophale) SiO2 
 PCOD8059422
Probable space group: P 2/M
;
_chemical_formula_sum "Si O2"
_cell_formula_units_Z 28
_cell_length_a 26.341992
_cell_length_b 9.181123
_cell_length_c 24.195313
_cell_angle_alpha 90.000000
_cell_angle_beta 16.041479
_cell_angle_gamma 90.000000
_cell_volume 1616.995106
_symmetry_space_group_name_H-M "P 2/M"
_symmetry_group_IT_number 10
_symmetry_cell_setting 'monoclinic'
loop_
_space_group_symop_operation_xyz
x,y,z
-x,y,-z
-x,-y,-z
x,-y,z
loop_
_atom_site_type_symbol
_atom_site_label
_atom_site_fract_x
_atom_site_fract_y
_atom_site_fract_z
Si Si1 0.721148 0.172510 0.427397
Si Si2 0.618678 0.171392 0.143984
Si Si3 0.468668 0.173801 0.593987
Si Si4 0.322595 0.327014 0.032213
Si Si5 0.578803 0.672177 0.860513
Si Si6 0.869700 0.827490 0.981756
Si Si7 0.981873 0.327825 0.457445
O O1 0.579900 0.217811 0.623687
O O2 0.635060 0.228685 0.459388
O O3 0.737043 0.000000 0.408738
O O4 0.925198 0.240200 0.224399
O O5 0.647412 0.255788 0.057788
O O6 0.783494 0.217823 0.012921
O O7 0.624328 0.000000 0.127034
O O8 0.500000 0.238140 0.500000
O O9 0.270485 0.228694 0.823962
O O10 0.468940 0.000000 0.593155
O O11 0.326401 0.500000 0.020802
O O12 0.477160 0.269001 0.912703
O O13 0.132971 0.269010 0.256893
O O14 0.551714 0.500000 0.892023
O O15 0.788687 0.718799 0.633935
O O16 0.500000 0.739901 0.000000
O O17 0.882821 0.000000 0.971399
O O18 0.004503 0.500000 0.439243
O O19 0.000000 0.260085 0.500000
#
# Coordination Sequence:
#
# PCOD8059422 Si02
#       7
#     4   4   4   4   4   4   4
#     4   8  14  25  40  56  78 113 150 177 206 250
#     4   9  18  31  44  59  83 115 149 177 203 247
#     4   8  13  20  32  56  87 113 141 179 217 251
#     4  10  19  29  45  68  88 106 135 177 217 251
#     4   9  15  25  42  64  86 106 130 163 206 255
#     4   8  14  25  40  56  78 113 150 177 206 250
#     4   9  15  25  42  64  86 106 130 163 206 255
#
# _framework density 17.316068999999999
#
# number of rings (size 3 to 8) (size 9 to 14) (size 15 to 20)
#    0.000    3.286    1.429    1.714    0.000    1.714 
#    0.000    2.857    0.000    0.857    0.000    0.000 
#    0.000    9.143    0.000   10.286    0.000   11.429 
#
# Total GULP energy -346949.069268 kJ/mol
# GULP energy per Si atom -12391.038188 kJ/mol
# Density = 1.727666 g / cm^3
# Si number density = 17.316069 Si / 1000 Ang^3
#
#
#
# Elastic Constant Matrix: (Units=GPa)
#
#
# Indices 1 2 3 4 5 6 
#
# 1 167.7147 21.4543 117.7762 0.0000 7.2042 0.0000
# 2 21.4543 10.5845 17.8091 0.0000 4.0370 0.0000
# 3 117.7762 17.8091 168.7272 0.0000 -8.3169 0.0000
# 4 0.0000 0.0000 0.0000 13.2553 0.0000 12.9049
# 5 7.2042 4.0370 -8.3169 0.0000 38.8842 0.0000
# 6 0.0000 0.0000 0.0000 12.9049 0.0000 24.9113
#
#
#
# Elastic Compliance Matrix: (Units=1/GPa)
#
#
# Indices 1 2 3 4 5 6 
#
# 1 0.013442 -0.012250 -0.008237 0.000000 -0.002980 0.000000
# 2 -0.012250 0.134974 -0.006341 0.000000 -0.013100 0.000000
# 3 -0.008237 -0.006341 0.012586 0.000000 0.004876 0.000000
# 4 0.000000 0.000000 0.000000 0.152206 0.000000 -0.078848
# 5 -0.002980 -0.013100 0.004876 0.000000 0.028673 0.000000
# 6 0.000000 0.000000 0.000000 -0.078848 0.000000 0.080989
#
#
# Mechanical properties :
#
#
# Convention : Reuss Voigt Hill
#
# Bulk Modulus (GPa) = 9.31570 73.45618 41.38594
# Shear Modulus (GPa) = 9.75979 28.07594 18.91786
#
# Velocity S-wave (km/s) = 2.37666 4.03101 3.30889
# Velocity P-wave (km/s) = 3.59483 8.01113 6.20891
#
# Compressibility (1/GPa) = 0.10734564
#
# Stress axis : x y z
#
# Youngs Moduli (GPa) = 74.39566 7.40882 79.45527
#
# Poissons Ratio (x) = 0.09076 0.65443
# Poissons Ratio (y) = 0.91138 0.50383
# Poissons Ratio (z) = 0.61276 0.04698
#
# Static dielectric constant tensor:
#      x y z
#    x 3.466550 0.000000 -0.208890 
#    y 0.000000 2.461610 0.000000 
#    z -0.208890 0.000000 3.655400 
# 
# 
# High freq. dielectric constant tensor:
#      x y z
#    x 1.678040 0.000000 -0.004850 
#    y 0.000000 1.584270 0.000000 
#    z -0.004850 0.000000 1.682430 
# 
# From -- ./inp_files/79525.got.cif
#   From: 2010.06.25/outbox.cif.g09.slc.cpg/sg10_40_cif.got.tgz:79525.got - 2010.06.27 22:07:45.
