data_PCOD8059268
_publ_section_title
;
Structure prediction by ZEFSAII (Michael W. Deem and Ramdas Pophale) SiO2 
 PCOD8059268
Probable space group: P 2/M
;
_chemical_formula_sum "Si O2"
_cell_formula_units_Z 28
_cell_length_a 9.185808
_cell_length_b 13.238234
_cell_length_c 19.924397
_cell_angle_alpha 90.000000
_cell_angle_beta 36.023130
_cell_angle_gamma 90.000000
_cell_volume 1424.926611
_symmetry_space_group_name_H-M "P 2/M"
_symmetry_group_IT_number 10
_symmetry_cell_setting 'monoclinic'
loop_
_space_group_symop_operation_xyz
x,y,z
-x,y,-z
-x,-y,-z
x,-y,z
loop_
_atom_site_type_symbol
_atom_site_label
_atom_site_fract_x
_atom_site_fract_y
_atom_site_fract_z
Si Si1 0.423386 0.384506 0.835253
Si Si2 0.082251 0.704624 0.399567
Si Si3 0.611662 0.615532 0.530752
Si Si4 0.739041 0.716554 0.234227
Si Si5 0.299731 0.283961 0.017433
Si Si6 0.584926 0.885895 0.693855
Si Si7 0.757675 0.110625 0.055108
O O1 0.374409 0.500000 0.837561
O O2 0.709710 0.357006 0.717507
O O3 0.265345 0.318888 0.841802
O O4 0.339055 0.363783 0.942813
O O5 0.166894 0.819013 0.387265
O O6 0.000000 0.650238 0.500000
O O7 0.836051 0.696750 0.446625
O O8 0.500000 0.629613 0.500000
O O9 0.700907 0.500000 0.508690
O O10 0.412278 0.640801 0.662425
O O11 0.607931 0.827897 0.284468
O O12 0.023586 0.713221 0.152012
O O13 0.500000 0.306286 0.000000
O O14 0.335594 0.172655 0.974000
O O15 0.468801 0.895646 0.810202
O O16 0.643506 0.000000 0.644699
O O17 0.834406 0.000000 0.000036
O O18 0.000000 0.160406 0.000000
#
# Coordination Sequence:
#
# PCOD8059268 Si02
#       7
#     4   4   4   4   4   4   4
#     4  11  23  40  63  87 120 161 209 259 303 362
#     4  11  21  39  64  95 117 155 205 258 296 356
#     4  11  25  42  63  90 125 167 205 250 304 361
#     4  11  22  41  64  90 118 163 211 254 300 366
#     4  12  25  39  58  90 130 161 195 253 318 368
#     4  10  20  36  65  94 118 153 204 258 305 356
#     4  10  18  36  63  86 115 158 207 248 292 356
#
# _framework density 19.650136
#
# number of rings (size 3 to 8) (size 9 to 14) (size 15 to 20)
#    0.000    1.143    7.143    1.286    2.000    3.143 
#    0.000    0.000    0.000    1.714    0.000    0.000 
#    0.000    0.000    0.000    0.000    0.000    0.000 
#
# Total GULP energy -347014.784969 kJ/mol
# GULP energy per Si atom -12393.385177 kJ/mol
# Density = 1.960541 g / cm^3
# Si number density = 19.650136 Si / 1000 Ang^3
#
#
#
# Elastic Constant Matrix: (Units=GPa)
#
#
# Indices 1 2 3 4 5 6 
#
# 1 111.0768 39.4293 34.1997 0.0000 -17.0040 0.0000
# 2 39.4293 109.4624 25.5650 0.0000 -12.1382 0.0000
# 3 34.1997 25.5650 79.5671 0.0000 -18.8624 0.0000
# 4 0.0000 0.0000 0.0000 24.3916 0.0000 -1.6468
# 5 -17.0040 -12.1382 -18.8624 0.0000 34.9004 0.0000
# 6 0.0000 0.0000 0.0000 -1.6468 0.0000 10.8727
#
#
#
# Elastic Compliance Matrix: (Units=1/GPa)
#
#
# Indices 1 2 3 4 5 6 
#
# 1 0.011538 -0.003075 -0.003317 0.000000 0.002759 0.000000
# 2 -0.003075 0.010816 -0.001854 0.000000 0.001261 0.000000
# 3 -0.003317 -0.001854 0.016119 0.000000 0.006451 0.000000
# 4 0.000000 0.000000 0.000000 0.041421 0.000000 0.006274
# 5 0.002759 0.001261 0.006451 0.000000 0.033922 0.000000
# 6 0.000000 0.000000 0.000000 0.006274 0.000000 0.092924
#
#
# Mechanical properties :
#
#
# Convention : Reuss Voigt Hill
#
# Bulk Modulus (GPa) = 45.49740 55.38828 50.44284
# Shear Modulus (GPa) = 21.68625 27.42710 24.55668
#
# Velocity S-wave (km/s) = 3.32568 3.74006 3.53894
# Velocity P-wave (km/s) = 6.16043 6.84829 6.51345
#
# Compressibility (1/GPa) = 0.02197928
#
# Stress axis : x y z
#
# Youngs Moduli (GPa) = 86.66877 92.45289 62.03939
#
# Poissons Ratio (x) = 0.28434 0.20579
# Poissons Ratio (y) = 0.26655 0.11505
# Poissons Ratio (z) = 0.28749 0.17145
#
# Static dielectric constant tensor:
#      x y z
#    x 3.434890 0.000000 -0.164960 
#    y 0.000000 3.858680 0.000000 
#    z -0.164960 0.000000 3.703670 
# 
# 
# High freq. dielectric constant tensor:
#      x y z
#    x 1.738050 0.000000 -0.014560 
#    y 0.000000 1.765780 0.000000 
#    z -0.014560 0.000000 1.776580 
# 
# From -- ./inp_files/75277.got.cif
#   From: 2010.06.25/outbox.cif.g09.slc.cpg/sg10_38_cif.got.tgz:75277.got - 2010.06.27 22:07:45.
