data_PCOD8059049
_publ_section_title
;
Structure prediction by ZEFSAII (Michael W. Deem and Ramdas Pophale) SiO2 
 PCOD8059049
Probable space group: P 2/M
;
_chemical_formula_sum "Si O2"
_cell_formula_units_Z 32
_cell_length_a 20.198467
_cell_length_b 9.149650
_cell_length_c 25.231431
_cell_angle_alpha 90.000000
_cell_angle_beta 22.850931
_cell_angle_gamma 90.000000
_cell_volume 1810.802912
_symmetry_space_group_name_H-M "P 2/M"
_symmetry_group_IT_number 10
_symmetry_cell_setting 'monoclinic'
loop_
_space_group_symop_operation_xyz
x,y,z
-x,y,-z
-x,-y,-z
x,-y,z
loop_
_atom_site_type_symbol
_atom_site_label
_atom_site_fract_x
_atom_site_fract_y
_atom_site_fract_z
Si Si1 0.842567 0.329114 0.386321
Si Si2 0.662470 0.827270 0.344993
Si Si3 0.643983 0.332104 0.715262
Si Si4 0.337214 0.327118 0.871959
Si Si5 0.964354 0.328300 0.181789
Si Si6 0.834611 0.164633 0.658609
Si Si7 0.027670 0.667811 0.599535
Si Si8 0.541971 0.674195 0.331603
O O1 0.821582 0.500000 0.412188
O O2 0.949218 0.292956 0.255231
O O3 0.942711 0.265536 0.363427
O O4 0.651585 0.265805 0.522250
O O5 0.500000 0.782808 0.500000
O O6 0.830133 0.766605 0.248995
O O7 0.650838 0.751552 0.296681
O O8 0.677801 0.000000 0.326639
O O9 0.619500 0.500000 0.749773
O O10 0.474884 0.265581 0.812426
O O11 0.679449 0.243895 0.743026
O O12 0.795942 0.314701 0.561547
O O13 0.353678 0.500000 0.860749
O O14 0.378056 0.272182 0.782772
O O15 0.149930 0.275244 0.026655
O O16 0.933163 0.500000 0.193741
O O17 0.000000 0.172238 0.500000
O O18 0.875650 0.243116 0.683891
O O19 0.778874 0.000000 0.711908
O O20 0.968770 0.500000 0.644567
O O21 0.553132 0.500000 0.331038
#
# Coordination Sequence:
#
# PCOD8059049 Si02
#       8
#     4   4   4   4   4   4   4   4
#     4   9  16  28  51  77  98 124 165 207 244 292
#     4  11  23  37  52  74 103 133 167 209 251 295
#     4   9  15  27  47  69  96 129 160 197 246 294
#     4   9  18  32  53  80 105 127 163 211 252 295
#     4  10  20  35  55  78 101 130 166 206 252 300
#     4   9  17  27  40  67 102 130 160 201 244 287
#     4   9  15  26  46  71  96 125 162 203 244 289
#     4  10  18  33  56  78  99 129 167 206 249 298
#
# _framework density 17.671719
#
# number of rings (size 3 to 8) (size 9 to 14) (size 15 to 20)
#    0.000    2.500    2.500    0.750    0.000    2.500 
#    0.000    5.625    0.000    0.750    0.000    5.250 
#    0.000    0.000    0.000    0.000    0.000    0.000 
#
# Total GULP energy -396781.493161 kJ/mol
# GULP energy per Si atom -12399.421661 kJ/mol
# Density = 1.763150 g / cm^3
# Si number density = 17.671719 Si / 1000 Ang^3
#
#
#
# Elastic Constant Matrix: (Units=GPa)
#
#
# Indices 1 2 3 4 5 6 
#
# 1 163.9006 56.5955 52.9249 0.0000 -17.6888 0.0000
# 2 56.5955 63.1655 31.3279 0.0000 -9.4002 0.0000
# 3 52.9249 31.3279 91.2212 0.0000 -2.7228 0.0000
# 4 0.0000 0.0000 0.0000 11.5624 0.0000 0.4876
# 5 -17.6888 -9.4002 -2.7228 0.0000 25.8914 0.0000
# 6 0.0000 0.0000 0.0000 0.4876 0.0000 2.1277
#
#
#
# Elastic Compliance Matrix: (Units=1/GPa)
#
#
# Indices 1 2 3 4 5 6 
#
# 1 0.009899 -0.006609 -0.003354 0.000000 0.004011 0.000000
# 2 -0.006609 0.024562 -0.004483 0.000000 0.003931 0.000000
# 3 -0.003354 -0.004483 0.014376 0.000000 -0.002407 0.000000
# 4 0.000000 0.000000 0.000000 0.087331 0.000000 -0.020015
# 5 0.004011 0.003931 -0.002407 0.000000 0.042537 0.000000
# 6 0.000000 0.000000 0.000000 -0.020015 0.000000 0.474577
#
#
# Mechanical properties :
#
#
# Convention : Reuss Voigt Hill
#
# Bulk Modulus (GPa) = 50.13987 66.66490 58.40238
# Shear Modulus (GPa) = 7.25875 19.74555 13.50215
#
# Velocity S-wave (km/s) = 2.02891 3.34631 2.76715
# Velocity P-wave (km/s) = 5.82436 7.26198 6.58253
#
# Compressibility (1/GPa) = 0.01994421
#
# Stress axis : x y z
#
# Youngs Moduli (GPa) = 101.01640 40.71348 69.56020
#
# Poissons Ratio (x) = 0.26909 0.23330
# Poissons Ratio (y) = 0.66766 0.31186
# Poissons Ratio (z) = 0.33879 0.18253
#
# Static dielectric constant tensor:
#      x y z
#    x 3.514550 0.000000 -0.062480 
#    y 0.000000 3.020210 0.000000 
#    z -0.062480 0.000000 3.142550 
# 
# 
# High freq. dielectric constant tensor:
#      x y z
#    x 1.701330 0.000000 -0.009760 
#    y 0.000000 1.652280 0.000000 
#    z -0.009760 0.000000 1.654790 
# 
# From -- ./inp_files/56391.got.cif
#   From: 2010.06.25/outbox.cif.g09.slc.cpg/sg10_29_cif.got.tgz:56391.got - 2010.06.27 22:07:45.
