data_PCOD8059769
_publ_section_title
;
Structure prediction by ZEFSAII (Michael W. Deem and Ramdas Pophale) SiO2 
 PCOD8059769
Probable space group: P 2/M
;
_chemical_formula_sum "Si O2"
_cell_formula_units_Z 28
_cell_length_a 11.683064
_cell_length_b 9.719124
_cell_length_c 13.808545
_cell_angle_alpha 90.000000
_cell_angle_beta 71.701328
_cell_angle_gamma 90.000000
_cell_volume 1488.661679
_symmetry_space_group_name_H-M "P 2/M"
_symmetry_group_IT_number 10
_symmetry_cell_setting 'monoclinic'
loop_
_space_group_symop_operation_xyz
x,y,z
-x,y,-z
-x,-y,-z
x,-y,z
loop_
_atom_site_type_symbol
_atom_site_label
_atom_site_fract_x
_atom_site_fract_y
_atom_site_fract_z
Si Si1 0.798140 0.837328 0.316370
Si Si2 0.326131 0.660137 0.797678
Si Si3 0.133710 0.349018 0.002329
Si Si4 0.867154 0.163393 0.510741
Si Si5 0.258811 0.846340 0.268418
Si Si6 0.454895 0.339551 0.119406
Si Si7 0.942740 0.849033 0.822121
O O1 0.688117 0.753399 0.295243
O O2 0.815238 0.785089 0.421721
O O3 0.921130 0.797660 0.227805
O O4 0.770755 0.000000 0.318620
O O5 0.316338 0.500000 0.771109
O O6 0.218927 0.707907 0.896292
O O7 0.448324 0.691830 0.822547
O O8 0.180237 0.500000 0.022884
O O9 0.139374 0.249015 0.091209
O O10 0.000000 0.357556 0.000000
O O11 0.765155 0.208895 0.616334
O O12 0.000000 0.226360 0.500000
O O13 0.878928 0.000000 0.506212
O O14 0.338450 0.746146 0.181533
O O15 0.122864 0.855307 0.263448
O O16 0.316946 0.000000 0.252811
O O17 0.421133 0.500000 0.125458
O O18 0.500000 0.293675 0.000000
O O19 0.944913 0.000000 0.870278
#
# Coordination Sequence:
#
# PCOD8059769 Si02
#       7
#     4   4   4   4   4   4   4
#     4  10  19  32  54  82 110 141 176 216 269 329
#     4  10  21  37  54  75 107 145 182 224 275 325
#     4  10  19  31  49  73 102 139 179 217 264 326
#     4   9  16  32  57  83 113 147 180 219 273 332
#     4  10  20  35  58  85 110 140 184 232 273 318
#     4  10  22  41  61  78 105 149 192 227 271 329
#     4  10  19  30  49  80 111 138 170 217 274 324
#
# _framework density 18.808841000000001
#
# number of rings (size 3 to 8) (size 9 to 14) (size 15 to 20)
#    0.000    2.143    2.857    0.857    0.000    3.429 
#    0.000    1.429    0.000    5.143    0.000    0.000 
#    0.000    0.000    0.000    0.000    0.000    0.000 
#
# Total GULP energy -347047.893629 kJ/mol
# GULP energy per Si atom -12394.567630 kJ/mol
# Density = 1.876603 g / cm^3
# Si number density = 18.808841 Si / 1000 Ang^3
#
#
#
# Elastic Constant Matrix: (Units=GPa)
#
#
# Indices 1 2 3 4 5 6 
#
# 1 75.9943 27.9529 32.5846 0.0000 13.2957 0.0000
# 2 27.9529 59.3711 49.2959 0.0000 6.0366 0.0000
# 3 32.5846 49.2959 108.3323 0.0000 13.5123 0.0000
# 4 0.0000 0.0000 0.0000 -144.0954 0.0000 -58.7229
# 5 13.2957 6.0366 13.5123 0.0000 31.9853 0.0000
# 6 0.0000 0.0000 0.0000 -58.7229 0.0000 0.5220
#
#
#
# Elastic Compliance Matrix: (Units=1/GPa)
#
#
# Indices 1 2 3 4 5 6 
#
# 1 0.017038 -0.006070 -0.001712 0.000000 -0.005213 0.000000
# 2 -0.006070 0.029234 -0.011721 0.000000 0.001957 0.000000
# 3 -0.001712 -0.011721 0.015533 0.000000 -0.003638 0.000000
# 4 0.000000 0.000000 0.000000 -0.000148 0.000000 -0.016666
# 5 -0.005213 0.001957 -0.003638 0.000000 0.034599 0.000000
# 6 0.000000 0.000000 0.000000 -0.016666 0.000000 0.040894
#
#
# Mechanical properties :
#
#
# Convention : Reuss Voigt Hill
#
# Bulk Modulus (GPa) = 43.86268 51.48494 47.67381
# Shear Modulus (GPa) = 27.20986 -13.39331 6.90827
#
# Velocity S-wave (km/s) = 3.80762 -2.67137 1.91856
# Velocity P-wave (km/s) = 6.53463 4.23287 5.50539
#
# Compressibility (1/GPa) = 0.02279842
#
# Stress axis : x y z
#
# Youngs Moduli (GPa) = 58.69272 34.20665 64.37753
#
# Poissons Ratio (x) = 0.20763 0.11024
# Poissons Ratio (y) = 0.35625 0.75458
# Poissons Ratio (z) = 0.10051 0.40094
#
# Static dielectric constant tensor:
#      x y z
#    x 3.427150 0.000000 0.145070 
#    y 0.000000 3.346040 0.000000 
#    z 0.145070 0.000000 3.498800 
# 
# 
# High freq. dielectric constant tensor:
#      x y z
#    x 1.724840 0.000000 0.012370 
#    y 0.000000 1.707600 0.000000 
#    z 0.012370 0.000000 1.727880 
# 
# From -- ./inp_files/63353.got.cif
#   From: 2010.06.25/outbox.cif.g09.slc.cpg/sg10_32_cif.got.tgz:63353.got - 2010.06.27 22:07:45.
