data_PCOD8059383
_publ_section_title
;
Structure prediction by ZEFSAII (Michael W. Deem and Ramdas Pophale) SiO2 
 PCOD8059383
Probable space group: P 2/M
;
_chemical_formula_sum "Si O2"
_cell_formula_units_Z 32
_cell_length_a 11.075455
_cell_length_b 9.290074
_cell_length_c 22.592178
_cell_angle_alpha 90.000000
_cell_angle_beta 123.277579
_cell_angle_gamma 90.000000
_cell_volume 1943.375086
_symmetry_space_group_name_H-M "P 2/M"
_symmetry_group_IT_number 10
_symmetry_cell_setting 'monoclinic'
loop_
_space_group_symop_operation_xyz
x,y,z
-x,y,-z
-x,-y,-z
x,-y,z
loop_
_atom_site_type_symbol
_atom_site_label
_atom_site_fract_x
_atom_site_fract_y
_atom_site_fract_z
Si Si1 0.602285 0.837821 0.666447
Si Si2 0.639553 0.330270 0.960091
Si Si3 0.035455 0.663660 0.759696
Si Si4 0.317237 0.669055 0.896176
Si Si5 0.201504 0.664766 0.202690
Si Si6 0.152748 0.831425 0.071113
Si Si7 0.611125 0.828923 0.483608
Si Si8 0.157202 0.161243 0.370631
O O1 0.649353 0.730113 0.731286
O O2 0.444588 0.787745 0.597682
O O3 0.716944 0.834095 0.644213
O O4 0.592818 0.000000 0.689658
O O5 0.671060 0.500000 0.960476
O O6 0.469492 0.296706 0.906212
O O7 0.721136 0.239017 0.933181
O O8 0.687901 0.273260 0.037792
O O9 0.059529 0.500000 0.747062
O O10 0.186479 0.735083 0.822161
O O11 0.922965 0.677073 0.782520
O O12 0.978576 0.743389 0.685766
O O13 0.293584 0.500000 0.895016
O O14 0.229851 0.500000 0.191593
O O15 0.148482 0.756880 0.133358
O O16 0.183803 0.000000 0.086807
O O17 0.000000 0.801214 0.000000
O O18 0.500000 0.757319 0.500000
O O19 0.773450 0.781525 0.547878
O O20 0.604056 0.000000 0.488079
O O21 0.097956 0.000000 0.362223
#
# Coordination Sequence:
#
# PCOD8059383 Si02
#       8
#     4   4   4   4   4   4   4   4
#     4   8  13  23  38  54  77 110 143 176 212 245
#     4   9  17  32  52  68  82 107 143 177 210 251
#     4   9  16  26  40  61  88 114 141 174 212 250
#     4   8  15  29  49  68  85 108 139 174 212 255
#     4  10  19  29  43  63  86 114 147 178 207 248
#     4  11  23  35  46  63  88 114 140 174 214 251
#     4   7  10  18  33  51  73 106 144 174 202 242
#     4   8  13  21  34  54  79 109 145 176 203 244
#
# _framework density 16.466197999999999
#
# number of rings (size 3 to 8) (size 9 to 14) (size 15 to 20)
#    0.000    3.250    0.000    3.750    0.000    2.500 
#    0.000    3.125    0.000    3.750    0.000    0.000 
#    0.000    1.000    0.000   11.500    0.000    6.625 
#
# Total GULP energy -396438.617171 kJ/mol
# GULP energy per Si atom -12388.706787 kJ/mol
# Density = 1.642872 g / cm^3
# Si number density = 16.466198 Si / 1000 Ang^3
#
#
#
# Elastic Constant Matrix: (Units=GPa)
#
#
# Indices 1 2 3 4 5 6 
#
# 1 34.1074 21.9177 29.0584 0.0000 14.7664 0.0000
# 2 21.9177 70.8434 55.5514 0.0000 11.3699 0.0000
# 3 29.0584 55.5514 137.5051 0.0000 39.5552 0.0000
# 4 0.0000 0.0000 0.0000 25.4951 0.0000 2.5034
# 5 14.7664 11.3699 39.5552 0.0000 25.7049 0.0000
# 6 0.0000 0.0000 0.0000 2.5034 0.0000 14.0484
#
#
#
# Elastic Compliance Matrix: (Units=1/GPa)
#
#
# Indices 1 2 3 4 5 6 
#
# 1 0.045646 -0.011908 0.002140 0.000000 -0.024247 0.000000
# 2 -0.011908 0.024421 -0.011142 0.000000 0.013184 0.000000
# 3 0.002140 -0.011142 0.018404 0.000000 -0.024622 0.000000
# 4 0.000000 0.000000 0.000000 0.039922 0.000000 -0.007114
# 5 -0.024247 0.013184 -0.024622 0.000000 0.084889 0.000000
# 6 0.000000 0.000000 0.000000 -0.007114 0.000000 0.072450
#
#
# Mechanical properties :
#
#
# Convention : Reuss Voigt Hill
#
# Bulk Modulus (GPa) = 21.43629 50.61231 36.02430
# Shear Modulus (GPa) = 14.57288 22.11158 18.34223
#
# Velocity S-wave (km/s) = 2.97815 3.66846 3.34118
# Velocity P-wave (km/s) = 4.98723 6.98193 6.06712
#
# Compressibility (1/GPa) = 0.04664987
#
# Stress axis : x y z
#
# Youngs Moduli (GPa) = 21.90768 40.94878 54.33484
#
# Poissons Ratio (x) = 0.48763 -0.11626
# Poissons Ratio (y) = 0.26089 0.60540
# Poissons Ratio (z) = -0.04688 0.45625
#
# Static dielectric constant tensor:
#      x y z
#    x 2.733630 0.000000 0.397990 
#    y 0.000000 2.973640 0.000000 
#    z 0.397990 0.000000 3.602870 
# 
# 
# High freq. dielectric constant tensor:
#      x y z
#    x 1.579320 0.000000 0.028120 
#    y 0.000000 1.611480 0.000000 
#    z 0.028120 0.000000 1.648960 
# 
# From -- ./inp_files/83402.got.cif
#   From: 2010.06.25/outbox.cif.g09.slc.cpg/sg10_42_cif.got.tgz:83402.got - 2010.06.27 22:07:45.
