data_PCOD8059419
_publ_section_title
;
Structure prediction by ZEFSAII (Michael W. Deem and Ramdas Pophale) SiO2 
 PCOD8059419
Probable space group: P 2/M
;
_chemical_formula_sum "Si O2"
_cell_formula_units_Z 32
_cell_length_a 21.547985
_cell_length_b 9.096326
_cell_length_c 30.125204
_cell_angle_alpha 90.000000
_cell_angle_beta 162.525155
_cell_angle_gamma 90.000000
_cell_volume 1773.124723
_symmetry_space_group_name_H-M "P 2/M"
_symmetry_group_IT_number 10
_symmetry_cell_setting 'monoclinic'
loop_
_space_group_symop_operation_xyz
x,y,z
-x,y,-z
-x,-y,-z
x,-y,z
loop_
_atom_site_type_symbol
_atom_site_label
_atom_site_fract_x
_atom_site_fract_y
_atom_site_fract_z
Si Si1 0.687417 0.825537 0.570216
Si Si2 0.912383 0.175007 0.986395
Si Si3 0.292433 0.671482 0.662126
Si Si4 0.771071 0.825115 0.724584
Si Si5 0.547704 0.826382 0.311609
Si Si6 0.115275 0.175280 0.386628
Si Si7 0.264519 0.326478 0.830581
Si Si8 0.179637 0.328221 0.677362
O O1 0.798804 0.772698 0.692079
O O2 0.450273 0.768699 0.407927
O O3 0.807158 0.766256 0.608494
O O4 0.684702 0.000000 0.566665
O O5 0.676950 0.230069 0.827017
O O6 0.923823 0.000000 0.995099
O O7 0.000000 0.237019 0.000000
O O8 0.046089 0.238031 0.119258
O O9 0.342029 0.500000 0.689044
O O10 0.428149 0.765676 0.721483
O O11 0.327298 0.723558 0.737180
O O12 0.055958 0.708449 0.491992
O O13 0.773723 0.000000 0.727781
O O14 0.721988 0.768697 0.464827
O O15 0.556400 0.000000 0.315450
O O16 0.890914 0.245943 0.241766
O O17 0.096433 0.000000 0.374631
O O18 0.218177 0.500000 0.801771
O O19 0.235458 0.255106 0.762064
O O20 0.500000 0.288440 0.000000
O O21 0.214933 0.500000 0.705802
#
# Coordination Sequence:
#
# PCOD8059419 Si02
#       8
#     4   4   4   4   4   4   4   4
#     4   8  14  25  43  66  90 122 159 192 225 268
#     4   9  16  26  41  63  94 128 156 187 230 274
#     4   9  16  30  52  69  86 119 157 190 226 275
#     4   8  13  24  42  63  90 124 162 192 219 267
#     4  10  19  29  44  71 100 122 152 195 237 274
#     4  10  19  31  47  69  98 124 151 191 238 282
#     4  10  20  35  53  70  90 118 157 199 231 273
#     4   8  15  30  51  70  86 113 155 191 224 274
#
# _framework density 18.047235000000001
#
# number of rings (size 3 to 8) (size 9 to 14) (size 15 to 20)
#    0.000    3.000    1.250    2.250    0.000    3.250 
#    2.250    1.875    0.000    0.375    0.000    2.625 
#    0.000    0.000    0.000    0.000    0.000    0.000 
#
# Total GULP energy -396478.325027 kJ/mol
# GULP energy per Si atom -12389.947657 kJ/mol
# Density = 1.800616 g / cm^3
# Si number density = 18.047235 Si / 1000 Ang^3
#
#
#
# Elastic Constant Matrix: (Units=GPa)
#
#
# Indices 1 2 3 4 5 6 
#
# 1 165.9364 20.2229 60.9784 0.0000 15.6870 0.0000
# 2 20.2229 10.9734 20.0263 0.0000 4.4744 0.0000
# 3 60.9784 20.0263 110.9682 0.0000 10.4169 0.0000
# 4 0.0000 0.0000 0.0000 -0.0640 0.0000 -9.1180
# 5 15.6870 4.4744 10.4169 0.0000 31.1947 0.0000
# 6 0.0000 0.0000 0.0000 -9.1180 0.0000 5.9711
#
#
#
# Elastic Compliance Matrix: (Units=1/GPa)
#
#
# Indices 1 2 3 4 5 6 
#
# 1 0.008379 -0.009819 -0.002652 0.000000 -0.001920 0.000000
# 2 -0.009819 0.151631 -0.021051 0.000000 -0.009782 0.000000
# 3 -0.002652 -0.021051 0.014308 0.000000 -0.000425 0.000000
# 4 0.000000 0.000000 0.000000 -0.071493 0.000000 -0.109171
# 5 -0.001920 -0.009782 -0.000425 0.000000 0.034567 0.000000
# 6 0.000000 0.000000 0.000000 -0.109171 0.000000 0.000767
#
#
# Mechanical properties :
#
#
# Convention : Reuss Voigt Hill
#
# Bulk Modulus (GPa) = 9.32190 54.48147 31.90168
# Shear Modulus (GPa) = 20.75022 19.86371 20.30696
#
# Velocity S-wave (km/s) = 3.39451 3.32121 3.35806
# Velocity P-wave (km/s) = 4.53212 6.70530 5.72281
#
# Compressibility (1/GPa) = 0.10727430
#
# Stress axis : x y z
#
# Youngs Moduli (GPa) = 119.34351 6.59494 69.89122
#
# Poissons Ratio (x) = 0.06476 0.18537
# Poissons Ratio (y) = 1.17183 1.47127
# Poissons Ratio (z) = 0.31653 0.13883
#
# Static dielectric constant tensor:
#      x y z
#    x 3.855930 0.000000 -0.127130 
#    y 0.000000 2.726600 0.000000 
#    z -0.127130 0.000000 3.350610 
# 
# 
# High freq. dielectric constant tensor:
#      x y z
#    x 1.721210 0.000000 -0.002230 
#    y 0.000000 1.634220 0.000000 
#    z -0.002230 0.000000 1.689320 
# 
# From -- ./inp_files/93480.got.cif
#   From: 2010.06.25/outbox.cif.g09.slc.cpg/sg10_47_cif.got.tgz:93480.got - 2010.06.27 22:07:45.
