data_PCOD8059883
_publ_section_title
;
Structure prediction by ZEFSAII (Michael W. Deem and Ramdas Pophale) SiO2 
 PCOD8059883
Probable space group: P 2/M
;
_chemical_formula_sum "Si O2"
_cell_formula_units_Z 28
_cell_length_a 15.083044
_cell_length_b 9.226724
_cell_length_c 19.107848
_cell_angle_alpha 90.000000
_cell_angle_beta 36.851124
_cell_angle_gamma 90.000000
_cell_volume 1594.812957
_symmetry_space_group_name_H-M "P 2/M"
_symmetry_group_IT_number 10
_symmetry_cell_setting 'monoclinic'
loop_
_space_group_symop_operation_xyz
x,y,z
-x,y,-z
-x,-y,-z
x,-y,z
loop_
_atom_site_type_symbol
_atom_site_label
_atom_site_fract_x
_atom_site_fract_y
_atom_site_fract_z
Si Si1 0.469009 0.659620 0.235509
Si Si2 0.579581 0.328951 0.020903
Si Si3 0.732123 0.168737 0.240188
Si Si4 0.187162 0.832728 0.659171
Si Si5 0.808962 0.337044 0.061816
Si Si6 0.139583 0.831634 0.106416
Si Si7 0.396551 0.166862 0.408469
O O1 0.398274 0.500000 0.283780
O O2 0.636556 0.656380 0.154869
O O3 0.373971 0.760980 0.346561
O O4 0.471196 0.715780 0.153647
O O5 0.614777 0.500000 0.002257
O O6 0.733704 0.243981 0.928012
O O7 0.500000 0.283267 0.000000
O O8 0.767215 0.233842 0.294599
O O9 0.832037 0.258924 0.122030
O O10 0.559365 0.192313 0.335502
O O11 0.776422 0.000000 0.205604
O O12 0.280520 0.761752 0.536703
O O13 0.013011 0.813263 0.754549
O O14 0.233940 0.000000 0.632989
O O15 0.875246 0.500000 0.022030
O O16 0.885992 0.242576 0.952769
O O17 0.179448 0.000000 0.069264
O O18 0.360862 0.000000 0.418803
#
# Coordination Sequence:
#
# PCOD8059883 Si02
#       7
#     4   4   4   4   4   4   4
#     4   8  15  28  46  68  91 114 143 183 229 271
#     4   9  18  34  55  75  95 117 142 181 232 280
#     4   9  16  28  47  67  87 119 165 205 232 263
#     4   9  18  30  44  65  94 126 157 194 235 268
#     4   9  17  30  45  63  92 124 155 194 236 275
#     4  10  19  31  47  68  95 123 152 186 228 280
#     4   9  16  28  47  67  89 122 162 195 224 263
#
# _framework density 17.556919000000001
#
# number of rings (size 3 to 8) (size 9 to 14) (size 15 to 20)
#    0.000    3.000    0.000    2.143    0.000    6.000 
#    0.000    6.429    0.000    4.286    0.000    6.000 
#    0.000    0.000    0.000    0.000    0.000    0.000 
#
# Total GULP energy -347095.131606 kJ/mol
# GULP energy per Si atom -12396.254700 kJ/mol
# Density = 1.751696 g / cm^3
# Si number density = 17.556919 Si / 1000 Ang^3
#
#
#
# Elastic Constant Matrix: (Units=GPa)
#
#
# Indices 1 2 3 4 5 6 
#
# 1 90.7808 33.0447 44.5872 0.0000 27.1831 0.0000
# 2 33.0447 69.6442 38.7810 0.0000 7.3261 0.0000
# 3 44.5872 38.7810 88.9823 0.0000 19.7015 0.0000
# 4 0.0000 0.0000 0.0000 17.0801 0.0000 7.0823
# 5 27.1831 7.3261 19.7015 0.0000 24.3857 0.0000
# 6 0.0000 0.0000 0.0000 7.0823 0.0000 19.3528
#
#
#
# Elastic Compliance Matrix: (Units=1/GPa)
#
#
# Indices 1 2 3 4 5 6 
#
# 1 0.020256 -0.005655 -0.003729 0.000000 -0.017868 0.000000
# 2 -0.005655 0.020567 -0.007499 0.000000 0.006183 0.000000
# 3 -0.003729 -0.007499 0.018214 0.000000 -0.008305 0.000000
# 4 0.000000 0.000000 0.000000 0.069022 0.000000 -0.025259
# 5 -0.017868 0.006183 -0.008305 0.000000 0.065778 0.000000
# 6 0.000000 0.000000 0.000000 -0.025259 0.000000 0.060916
#
#
# Mechanical properties :
#
#
# Convention : Reuss Voigt Hill
#
# Bulk Modulus (GPa) = 39.57171 53.58147 46.57659
# Shear Modulus (GPa) = 16.83828 21.03001 18.93415
#
# Velocity S-wave (km/s) = 3.10024 3.46471 3.28753
# Velocity P-wave (km/s) = 5.95007 6.82573 6.40289
#
# Compressibility (1/GPa) = 0.02527058
#
# Stress axis : x y z
#
# Youngs Moduli (GPa) = 49.36857 48.62080 54.90249
#
# Poissons Ratio (x) = 0.27494 0.20474
# Poissons Ratio (y) = 0.27917 0.41173
# Poissons Ratio (z) = 0.18410 0.36463
#
# Static dielectric constant tensor:
#      x y z
#    x 3.086120 0.000000 0.311240 
#    y 0.000000 3.263470 0.000000 
#    z 0.311240 0.000000 3.422980 
# 
# 
# High freq. dielectric constant tensor:
#      x y z
#    x 1.651020 0.000000 0.016270 
#    y 0.000000 1.665570 0.000000 
#    z 0.016270 0.000000 1.676750 
# 
# From -- ./inp_files/54666.got.cif
#   From: 2010.06.25/outbox.cif.g09.slc.cpg/sg10_28_cif.got.tgz:54666.got - 2010.06.27 22:07:45.
