data_PCOD8059698
_publ_section_title
;
Structure prediction by ZEFSAII (Michael W. Deem and Ramdas Pophale) SiO2 
 PCOD8059698
Probable space group: P 2/M
;
_chemical_formula_sum "Si O2"
_cell_formula_units_Z 32
_cell_length_a 17.852678
_cell_length_b 24.319578
_cell_length_c 11.502425
_cell_angle_alpha 90.000000
_cell_angle_beta 161.243967
_cell_angle_gamma 90.000000
_cell_volume 1605.767652
_symmetry_space_group_name_H-M "P 2/M"
_symmetry_group_IT_number 10
_symmetry_cell_setting 'monoclinic'
loop_
_space_group_symop_operation_xyz
x,y,z
-x,y,-z
-x,-y,-z
x,-y,z
loop_
_atom_site_type_symbol
_atom_site_label
_atom_site_fract_x
_atom_site_fract_y
_atom_site_fract_z
Si Si1 0.997031 0.059407 0.686668
Si Si2 0.310388 0.632550 0.120786
Si Si3 0.382274 0.059407 0.071925
Si Si4 0.504173 0.174123 0.193984
Si Si5 0.622132 0.438164 0.432359
Si Si6 0.998296 0.561836 0.808516
Si Si7 0.189834 0.755449 0.879662
Si Si8 0.875456 0.174123 0.565261
O O1 0.799736 0.060095 0.299730
O O2 0.962117 0.111767 0.719494
O O3 0.247816 0.065866 0.995624
O O4 0.985043 0.000000 0.735392
O O5 0.500000 0.629982 0.500000
O O6 0.408958 0.602445 0.149912
O O7 0.072918 0.602446 0.813867
O O8 0.253685 0.694414 0.007369
O O9 0.515695 0.000000 0.266061
O O10 0.552668 0.111768 0.310058
O O11 0.743367 0.196148 0.486723
O O12 0.425082 0.213757 0.182735
O O13 0.299330 0.172761 0.799333
O O14 0.523653 0.500000 0.272511
O O15 0.752289 0.419160 0.504592
O O16 0.805621 0.437713 0.805625
O O17 0.974032 0.500000 0.722884
O O18 0.000000 0.755181 0.500000
O O19 0.090249 0.786247 0.847901
#
# Coordination Sequence:
#
# PCOD8059698 Si02
#       8
#     4   4   4   4   4   4   4   4
#     4   8  12  19  33  53  78 106 135 174 224 269
#     4  10  19  30  48  71  91 115 149 184 214 252
#     4   8  12  19  33  53  78 106 135 174 224 269
#     4   9  16  26  40  56  78 113 151 181 215 263
#     4   8  14  26  46  72  97 116 138 175 221 262
#     4   8  14  26  46  72  97 116 138 175 221 262
#     4  10  20  33  44  59  88 122 153 184 214 250
#     4   9  16  26  40  56  78 113 151 181 215 263
#
# _framework density 19.928163000000001
#
# number of rings (size 3 to 8) (size 9 to 14) (size 15 to 20)
#    0.000    3.250    1.250    1.875    0.000    3.000 
#    0.000    2.500    0.000    1.500    0.000    1.750 
#    0.000    2.000    0.000    2.250    0.000    2.500 
#
# Total GULP energy -396430.617144 kJ/mol
# GULP energy per Si atom -12388.456786 kJ/mol
# Density = 1.988281 g / cm^3
# Si number density = 19.928163 Si / 1000 Ang^3
#
#
#
# Elastic Constant Matrix: (Units=GPa)
#
#
# Indices 1 2 3 4 5 6 
#
# 1 112.1892 86.2190 37.3667 0.0000 57.9695 0.0000
# 2 86.2190 175.7188 31.7385 0.0000 47.7054 0.0000
# 3 37.3667 31.7385 19.5925 0.0000 23.1196 0.0000
# 4 0.0000 0.0000 0.0000 27.4893 0.0000 -4.6027
# 5 57.9695 47.7054 23.1196 0.0000 34.8306 0.0000
# 6 0.0000 0.0000 0.0000 -4.6027 0.0000 22.2450
#
#
#
# Elastic Compliance Matrix: (Units=1/GPa)
#
#
# Indices 1 2 3 4 5 6 
#
# 1 0.066695 -0.004133 0.017536 0.000000 -0.116980 0.000000
# 2 -0.004133 0.009316 -0.001242 0.000000 -0.005055 0.000000
# 3 0.017536 -0.001242 0.240111 0.000000 -0.186863 0.000000
# 4 0.000000 0.000000 0.000000 0.037683 0.000000 0.007797
# 5 -0.116980 -0.005055 -0.186863 0.000000 0.354363 0.000000
# 6 0.000000 0.000000 0.000000 0.007797 0.000000 0.046567
#
#
# Mechanical properties :
#
#
# Convention : Reuss Voigt Hill
#
# Bulk Modulus (GPa) = 2.93736 68.68321 35.81029
# Shear Modulus (GPa) = 5.92490 27.05806 16.49148
#
# Velocity S-wave (km/s) = 1.72615 3.68880 2.87983
# Velocity P-wave (km/s) = 2.33451 7.25832 5.39135
#
# Compressibility (1/GPa) = 0.34044152
#
# Stress axis : x y z
#
# Youngs Moduli (GPa) = 14.99370 107.34321 4.16473
#
# Poissons Ratio (x) = 0.44369 -0.07303
# Poissons Ratio (y) = 0.06198 0.00517
# Poissons Ratio (z) = -0.26292 0.13336
#
# Static dielectric constant tensor:
#      x y z
#    x 3.704400 0.000000 0.551100 
#    y 0.000000 4.002150 0.000000 
#    z 0.551100 0.000000 3.075020 
# 
# 
# High freq. dielectric constant tensor:
#      x y z
#    x 1.762350 0.000000 0.043390 
#    y 0.000000 1.781430 0.000000 
#    z 0.043390 0.000000 1.712800 
# 
# From -- ./inp_files/54270.got.cif
#   From: 2010.06.25/outbox.cif.g09.slc.cpg/sg10_28_cif.got.tgz:54270.got - 2010.06.27 22:07:45.
