data_PCOD8059727
_publ_section_title
;
Structure prediction by ZEFSAII (Michael W. Deem and Ramdas Pophale) SiO2 
 PCOD8059727
Probable space group: P 2/M
;
_chemical_formula_sum "Si O2"
_cell_formula_units_Z 30
_cell_length_a 16.691531
_cell_length_b 9.281332
_cell_length_c 10.773826
_cell_angle_alpha 90.000000
_cell_angle_beta 68.138066
_cell_angle_gamma 90.000000
_cell_volume 1549.043650
_symmetry_space_group_name_H-M "P 2/M"
_symmetry_group_IT_number 10
_symmetry_cell_setting 'monoclinic'
loop_
_space_group_symop_operation_xyz
x,y,z
-x,y,-z
-x,-y,-z
x,-y,z
loop_
_atom_site_type_symbol
_atom_site_label
_atom_site_fract_x
_atom_site_fract_y
_atom_site_fract_z
Si Si1 0.992899 0.337057 0.357213
Si Si2 0.668877 0.343871 0.528934
Si Si3 0.838649 0.168333 0.758397
Si Si4 0.426687 0.159709 0.794135
Si Si5 0.173885 0.834025 0.527046
Si Si6 0.428517 0.658240 0.177077
Si Si7 0.311250 0.334559 0.016116
Si Si8 0.500000 0.758203 0.500000
O O1 0.993761 0.500000 0.302863
O O2 0.071774 0.245065 0.256508
O O3 0.000000 0.341638 0.500000
O O4 0.904700 0.257050 0.370346
O O5 0.709124 0.500000 0.473010
O O6 0.738448 0.220793 0.455910
O O7 0.653931 0.333587 0.685118
O O8 0.576365 0.335836 0.514897
O O9 0.818674 0.188850 0.624713
O O10 0.766513 0.243396 0.883256
O O11 0.844405 0.000000 0.788978
O O12 0.507241 0.213856 0.827856
O O13 0.453735 0.149774 0.634055
O O14 0.402873 0.000000 0.853143
O O15 0.343746 0.263084 0.867588
O O16 0.159946 0.000000 0.569475
O O17 0.473375 0.500000 0.166208
O O18 0.394583 0.676525 0.057302
O O19 0.282483 0.500000 0.011617
#
# Coordination Sequence:
#
# PCOD8059727 Si02
#       8
#     4   4   4   4   4   4   4   2
#     4   9  17  29  47  71 104 145 182 214 254 309
#     4  10  19  34  56  77 102 139 182 223 265 315
#     4  10  19  31  48  75 111 144 175 214 261 315
#     4  11  23  37  54  74  99 134 176 222 271 320
#     4  10  19  30  48  76 109 142 177 217 264 314
#     4   9  19  34  51  73 103 136 171 214 263 316
#     4  11  21  34  52  76 106 139 175 214 262 320
#     4  10  24  42  56  76 102 138 178 232 274 312
#
# _framework density 19.366786000000001
#
# number of rings (size 3 to 8) (size 9 to 14) (size 15 to 20)
#    0.000    2.000    1.333    2.800    0.000    9.600 
#    0.000    0.000    0.000    0.000    0.000    0.933 
#    0.000    6.400    0.000    0.000    0.000    0.000 
#
# Total GULP energy -371847.485452 kJ/mol
# GULP energy per Si atom -12394.916182 kJ/mol
# Density = 1.932271 g / cm^3
# Si number density = 19.366786 Si / 1000 Ang^3
#
#
#
# Elastic Constant Matrix: (Units=GPa)
#
#
# Indices 1 2 3 4 5 6 
#
# 1 71.4973 51.1305 28.5755 0.0000 -11.8104 0.0000
# 2 51.1305 173.9000 50.7232 0.0000 -25.4976 0.0000
# 3 28.5755 50.7232 83.3556 0.0000 -17.5307 0.0000
# 4 0.0000 0.0000 0.0000 22.8740 0.0000 -16.4388
# 5 -11.8104 -25.4976 -17.5307 0.0000 19.1140 0.0000
# 6 0.0000 0.0000 0.0000 -16.4388 0.0000 24.8493
#
#
#
# Elastic Compliance Matrix: (Units=1/GPa)
#
#
# Indices 1 2 3 4 5 6 
#
# 1 0.018741 -0.004099 -0.003277 0.000000 0.003106 0.000000
# 2 -0.004099 0.008662 -0.002439 0.000000 0.006785 0.000000
# 3 -0.003277 -0.002439 0.016719 0.000000 0.010056 0.000000
# 4 0.000000 0.000000 0.000000 0.083340 0.000000 0.055133
# 5 0.003106 0.006785 0.010056 0.000000 0.072512 0.000000
# 6 0.000000 0.000000 0.000000 0.055133 0.000000 0.076715
#
#
# Mechanical properties :
#
#
# Convention : Reuss Voigt Hill
#
# Bulk Modulus (GPa) = 40.82891 65.51236 53.17064
# Shear Modulus (GPa) = 16.42135 26.58903 21.50519
#
# Velocity S-wave (km/s) = 2.91505 3.70931 3.33591
# Velocity P-wave (km/s) = 5.69717 7.22813 6.50783
#
# Compressibility (1/GPa) = 0.02449245
#
# Stress axis : x y z
#
# Youngs Moduli (GPa) = 53.35983 115.44985 59.81169
#
# Poissons Ratio (x) = 0.47321 0.19601
# Poissons Ratio (y) = 0.21872 0.14586
# Poissons Ratio (z) = 0.17486 0.28154
#
# Static dielectric constant tensor:
#      x y z
#    x 3.283890 0.000000 -0.213930 
#    y 0.000000 3.608730 0.000000 
#    z -0.213930 0.000000 3.460200 
# 
# 
# High freq. dielectric constant tensor:
#      x y z
#    x 1.724750 0.000000 -0.030250 
#    y 0.000000 1.767360 0.000000 
#    z -0.030250 0.000000 1.729630 
# 
# From -- ./inp_files/53053.got.cif
#   From: 2010.06.25/outbox.cif.g09.slc.cpg/sg10_27_cif.got.tgz:53053.got - 2010.06.27 22:07:45.
