data_PCOD8059451
_publ_section_title
;
Structure prediction by ZEFSAII (Michael W. Deem and Ramdas Pophale) SiO2 
 PCOD8059451
Probable space group: P 2/M
;
_chemical_formula_sum "Si O2"
_cell_formula_units_Z 28
_cell_length_a 11.260360
_cell_length_b 14.836576
_cell_length_c 14.158446
_cell_angle_alpha 90.000000
_cell_angle_beta 136.170107
_cell_angle_gamma 90.000000
_cell_volume 1638.074490
_symmetry_space_group_name_H-M "P 2/M"
_symmetry_group_IT_number 10
_symmetry_cell_setting 'monoclinic'
loop_
_space_group_symop_operation_xyz
x,y,z
-x,y,-z
-x,-y,-z
x,-y,z
loop_
_atom_site_type_symbol
_atom_site_label
_atom_site_fract_x
_atom_site_fract_y
_atom_site_fract_z
Si Si1 0.539258 0.099711 0.862271
Si Si2 0.365325 0.605218 0.004121
Si Si3 0.990027 0.601393 0.293607
Si Si4 0.625632 0.396835 0.487648
Si Si5 0.456364 0.282153 0.743272
Si Si6 0.768157 0.098781 0.165549
Si Si7 0.891041 0.754275 0.355580
O O1 0.525423 0.178110 0.774512
O O2 0.378413 0.100010 0.839529
O O3 0.555183 0.000000 0.823668
O O4 0.702550 0.119686 0.022632
O O5 0.387368 0.500000 0.037104
O O6 0.168077 0.629908 0.864956
O O7 0.500000 0.635976 0.000000
O O8 0.402769 0.657475 0.122508
O O9 0.957101 0.500000 0.309374
O O10 0.180744 0.611665 0.358973
O O11 0.991717 0.663799 0.386345
O O12 0.500000 0.371265 0.500000
O O13 0.594956 0.500000 0.434600
O O14 0.588343 0.325719 0.382846
O O15 0.293987 0.277772 0.718090
O O16 0.897328 0.177653 0.270011
O O17 0.856636 0.000000 0.217263
O O18 0.000000 0.802762 0.500000
#
# Coordination Sequence:
#
# PCOD8059451 Si02
#       7
#     4   4   4   4   4   4   4
#     4   8  15  27  45  69  96 131 166 195 240 298
#     4  10  19  29  46  76 107 129 157 200 251 302
#     4  10  20  33  48  70 103 134 159 202 252 298
#     4  10  22  39  54  68  94 136 179 211 245 292
#     4  11  19  30  52  75 100 133 165 207 245 296
#     4   8  15  27  42  64 102 139 160 187 236 301
#     4  11  19  27  43  74 104 131 164 200 246 303
#
# _framework density 17.093239000000001
#
# number of rings (size 3 to 8) (size 9 to 14) (size 15 to 20)
#    0.000    2.286    2.857    2.143    2.000    1.143 
#    0.000    0.714    0.000    3.857    0.000    0.000 
#    0.000    3.429    0.000    0.000    0.000    0.000 
#
# Total GULP energy -346909.991733 kJ/mol
# GULP energy per Si atom -12389.642562 kJ/mol
# Density = 1.705433 g / cm^3
# Si number density = 17.093239 Si / 1000 Ang^3
#
#
#
# Elastic Constant Matrix: (Units=GPa)
#
#
# Indices 1 2 3 4 5 6 
#
# 1 50.8694 32.4714 29.5367 0.0000 7.6010 0.0000
# 2 32.4714 107.0564 54.6198 0.0000 -1.4892 0.0000
# 3 29.5367 54.6198 99.6604 0.0000 9.8117 0.0000
# 4 0.0000 0.0000 0.0000 25.3187 0.0000 -9.3974
# 5 7.6010 -1.4892 9.8117 0.0000 14.9481 0.0000
# 6 0.0000 0.0000 0.0000 -9.3974 0.0000 9.5366
#
#
#
# Elastic Compliance Matrix: (Units=1/GPa)
#
#
# Indices 1 2 3 4 5 6 
#
# 1 0.027890 -0.007030 -0.003152 0.000000 -0.012813 0.000000
# 2 -0.007030 0.015331 -0.007293 0.000000 0.009889 0.000000
# 3 -0.003152 -0.007293 0.015907 0.000000 -0.009565 0.000000
# 4 0.000000 0.000000 0.000000 0.062273 0.000000 0.061365
# 5 -0.012813 0.009889 -0.009565 0.000000 0.080677 0.000000
# 6 0.000000 0.000000 0.000000 0.061365 0.000000 0.165329
#
#
# Mechanical properties :
#
#
# Convention : Reuss Voigt Hill
#
# Bulk Modulus (GPa) = 41.35648 54.53801 47.94725
# Shear Modulus (GPa) = 12.18280 19.35789 15.77035
#
# Velocity S-wave (km/s) = 2.67259 3.36890 3.04074
# Velocity P-wave (km/s) = 5.81127 6.86353 6.35920
#
# Compressibility (1/GPa) = 0.02418001
#
# Stress axis : x y z
#
# Youngs Moduli (GPa) = 35.85518 65.22641 62.86705
#
# Poissons Ratio (x) = 0.45851 0.19814
# Poissons Ratio (y) = 0.25205 0.45846
# Poissons Ratio (z) = 0.11301 0.47567
#
# Static dielectric constant tensor:
#      x y z
#    x 2.658480 0.000000 0.156400 
#    y 0.000000 3.714670 0.000000 
#    z 0.156400 0.000000 3.330300 
# 
# 
# High freq. dielectric constant tensor:
#      x y z
#    x 1.585860 0.000000 0.011310 
#    y 0.000000 1.675670 0.000000 
#    z 0.011310 0.000000 1.664520 
# 
# From -- ./inp_files/51411.got.cif
#   From: 2010.06.25/outbox.cif.g09.slc.cpg/sg10_26_cif.got.tgz:51411.got - 2010.06.27 22:07:45.
