data_PCOD8059389
_publ_section_title
;
Structure prediction by ZEFSAII (Michael W. Deem and Ramdas Pophale) SiO2 
 PCOD8059389
Probable space group: P 2/M
;
_chemical_formula_sum "Si O2"
_cell_formula_units_Z 28
_cell_length_a 13.377444
_cell_length_b 8.673895
_cell_length_c 14.391681
_cell_angle_alpha 90.000000
_cell_angle_beta 102.051441
_cell_angle_gamma 90.000000
_cell_volume 1633.127749
_symmetry_space_group_name_H-M "P 2/M"
_symmetry_group_IT_number 10
_symmetry_cell_setting 'monoclinic'
loop_
_space_group_symop_operation_xyz
x,y,z
-x,y,-z
-x,-y,-z
x,-y,z
loop_
_atom_site_type_symbol
_atom_site_label
_atom_site_fract_x
_atom_site_fract_y
_atom_site_fract_z
Si Si1 0.128817 0.323857 0.228905
Si Si2 0.748032 0.175304 0.218895
Si Si3 0.067452 0.825304 0.887329
Si Si4 0.387528 0.318195 0.954741
Si Si5 0.873771 0.319041 0.395095
Si Si6 0.208184 0.678661 0.053497
Si Si7 0.090971 0.819736 0.407551
O O1 0.130349 0.500000 0.262674
O O2 0.214732 0.293005 0.166119
O O3 0.149396 0.217873 0.322782
O O4 0.020053 0.290184 0.161266
O O5 0.841849 0.191304 0.167863
O O6 0.774177 0.271598 0.316823
O O7 0.726292 0.000000 0.243409
O O8 0.648104 0.243453 0.149216
O O9 0.025773 0.000000 0.883670
O O10 0.112132 0.776605 0.996221
O O11 0.388338 0.500000 0.940552
O O12 0.313853 0.268930 0.025914
O O13 0.500000 0.254949 0.000000
O O14 0.893947 0.500000 0.392062
O O15 0.854793 0.271440 0.498212
O O16 0.972817 0.230099 0.374695
O O17 0.186328 0.500000 0.027165
O O18 0.096597 0.000000 0.429351
#
# Coordination Sequence:
#
# PCOD8059389 Si02
#       7
#     4   4   4   4   4   4   4
#     4  11  20  30  44  64  93 130 165 197 234 280
#     4  10  19  31  48  71  99 129 160 199 242 285
#     4  10  19  29  43  64  93 127 162 197 233 279
#     4   9  18  34  54  74  96 124 160 202 246 292
#     4  11  20  32  49  69  94 128 166 200 236 281
#     4   9  19  32  46  66  93 124 160 199 239 286
#     4  11  21  32  46  66  96 130 165 203 237 275
#
# _framework density 17.145015000000001
#
# number of rings (size 3 to 8) (size 9 to 14) (size 15 to 20)
#    0.000    1.857    1.429    5.143    0.000    4.286 
#    0.000    0.000    0.000    0.000    0.000    1.000 
#    0.000    8.000    0.000    0.000    0.000    0.000 
#
# Total GULP energy -347223.263342 kJ/mol
# GULP energy per Si atom -12400.830834 kJ/mol
# Density = 1.710599 g / cm^3
# Si number density = 17.145015 Si / 1000 Ang^3
#
#
#
# Elastic Constant Matrix: (Units=GPa)
#
#
# Indices 1 2 3 4 5 6 
#
# 1 47.1906 15.4555 37.7755 0.0000 4.4578 0.0000
# 2 15.4555 68.3842 26.9555 0.0000 2.1513 0.0000
# 3 37.7755 26.9555 120.2854 0.0000 -1.2231 0.0000
# 4 0.0000 0.0000 0.0000 28.5743 0.0000 -1.5699
# 5 4.4578 2.1513 -1.2231 0.0000 24.4330 0.0000
# 6 0.0000 0.0000 0.0000 -1.5699 0.0000 13.3834
#
#
#
# Elastic Compliance Matrix: (Units=1/GPa)
#
#
# Indices 1 2 3 4 5 6 
#
# 1 0.029687 -0.003112 -0.008683 0.000000 -0.005577 0.000000
# 2 -0.003112 0.016428 -0.002715 0.000000 -0.001015 0.000000
# 3 -0.008683 -0.002715 0.011673 0.000000 0.002408 0.000000
# 4 0.000000 0.000000 0.000000 0.035223 0.000000 0.004132
# 5 -0.005577 -0.001015 0.002408 0.000000 0.042156 0.000000
# 6 0.000000 0.000000 0.000000 0.004132 0.000000 0.075204
#
#
# Mechanical properties :
#
#
# Convention : Reuss Voigt Hill
#
# Bulk Modulus (GPa) = 34.75746 44.02593 39.39169
# Shear Modulus (GPa) = 20.08198 23.65640 21.86919
#
# Velocity S-wave (km/s) = 3.42614 3.71857 3.57535
# Velocity P-wave (km/s) = 5.99732 6.64615 6.33006
#
# Compressibility (1/GPa) = 0.02877080
#
# Stress axis : x y z
#
# Youngs Moduli (GPa) = 33.68498 60.86983 85.66691
#
# Poissons Ratio (x) = 0.18940 0.74380
# Poissons Ratio (y) = 0.10482 0.23256
# Poissons Ratio (z) = 0.29247 0.16524
#
# Static dielectric constant tensor:
#      x y z
#    x 2.975030 0.000000 -0.152000 
#    y 0.000000 3.271580 0.000000 
#    z -0.152000 0.000000 3.362050 
# 
# 
# High freq. dielectric constant tensor:
#      x y z
#    x 1.609360 0.000000 -0.017740 
#    y 0.000000 1.673020 0.000000 
#    z -0.017740 0.000000 1.664540 
# 
# From -- ./inp_files/65714.got.cif
#   From: 2010.06.25/outbox.cif.g09.slc.cpg/sg10_33_cif.got.tgz:65714.got - 2010.06.27 22:07:45.
