data_PCOD8059129
_publ_section_title
;
Structure prediction by ZEFSAII (Michael W. Deem and Ramdas Pophale) SiO2 
 PCOD8059129
Probable space group: P 2/M
;
_chemical_formula_sum "Si O2"
_cell_formula_units_Z 32
_cell_length_a 14.617538
_cell_length_b 17.908208
_cell_length_c 11.513949
_cell_angle_alpha 90.000000
_cell_angle_beta 30.117272
_cell_angle_gamma 90.000000
_cell_volume 1512.365174
_symmetry_space_group_name_H-M "P 2/M"
_symmetry_group_IT_number 10
_symmetry_cell_setting 'monoclinic'
loop_
_space_group_symop_operation_xyz
x,y,z
-x,y,-z
-x,-y,-z
x,-y,z
loop_
_atom_site_type_symbol
_atom_site_label
_atom_site_fract_x
_atom_site_fract_y
_atom_site_fract_z
Si Si1 0.067999 0.695587 0.608880
Si Si2 0.100680 0.207101 0.009441
Si Si3 0.208817 0.644247 0.813236
Si Si4 0.240561 0.583806 0.021200
Si Si5 0.601101 0.660337 0.628228
Si Si6 0.613297 0.914411 0.260173
Si Si7 0.472904 0.826462 0.212860
Si Si8 0.805833 0.820083 0.678577
O O1 0.225306 0.640803 0.483408
O O2 0.134849 0.735428 0.418188
O O3 0.033892 0.761447 0.742588
O O4 0.898920 0.642207 0.769045
O O5 0.245257 0.273522 0.827104
O O6 0.202945 0.134217 0.943521
O O7 0.000000 0.186032 0.000000
O O8 0.236798 0.584462 0.884487
O O9 0.355208 0.634280 0.551121
O O10 0.000000 0.640185 0.000000
O O11 0.199578 0.500000 0.108917
O O12 0.436442 0.609657 0.853198
O O13 0.563454 0.748626 0.682309
O O14 0.500000 0.899835 0.500000
O O15 0.483716 0.892028 0.295180
O O16 0.672741 0.000000 0.181981
O O17 0.310726 0.851764 0.302980
O O18 0.671383 0.818705 0.935172
O O19 0.000000 0.861852 0.500000
#
# Coordination Sequence:
#
# PCOD8059129 Si02
#       8
#     4   4   4   4   4   4   4   4
#     4  10  21  38  61  90 119 152 209 268 315 360
#     4  10  18  34  60  86 114 161 216 261 300 357
#     4  10  18  34  52  81 113 158 209 254 304 352
#     4  11  23  34  51  84 126 169 204 241 308 385
#     4  11  19  35  57  81 112 153 205 257 304 358
#     4  11  24  39  59  92 136 177 202 241 312 383
#     4  10  22  39  65  95 120 158 211 267 314 370
#     4  10  20  38  68  96 116 148 206 274 323 357
#
# _framework density 21.158911
#
# number of rings (size 3 to 8) (size 9 to 14) (size 15 to 20)
#    0.000    1.625    3.750    4.125    1.750    2.000 
#    0.000    1.250    0.000    7.125    0.000    8.750 
#    0.000    0.000    0.000    0.000    0.000    0.000 
#
# Total GULP energy -396580.402897 kJ/mol
# GULP energy per Si atom -12393.137591 kJ/mol
# Density = 2.111075 g / cm^3
# Si number density = 21.158911 Si / 1000 Ang^3
#
#
#
# Elastic Constant Matrix: (Units=GPa)
#
#
# Indices 1 2 3 4 5 6 
#
# 1 93.6507 34.1265 36.9551 0.0000 -14.8247 0.0000
# 2 34.1265 91.5860 32.8927 0.0000 -8.5559 0.0000
# 3 36.9551 32.8927 109.9516 0.0000 -16.4069 0.0000
# 4 0.0000 0.0000 0.0000 12.1895 0.0000 -2.9412
# 5 -14.8247 -8.5559 -16.4069 0.0000 34.9068 0.0000
# 6 0.0000 0.0000 0.0000 -2.9412 0.0000 4.6580
#
#
#
# Elastic Compliance Matrix: (Units=1/GPa)
#
#
# Indices 1 2 3 4 5 6 
#
# 1 0.013775 -0.003730 -0.002987 0.000000 0.003532 0.000000
# 2 -0.003730 0.013305 -0.002663 0.000000 0.000425 0.000000
# 3 -0.002987 -0.002663 0.011409 0.000000 0.003441 0.000000
# 4 0.000000 0.000000 0.000000 0.096784 0.000000 0.061113
# 5 0.003532 0.000425 0.003441 0.000000 0.031869 0.000000
# 6 0.000000 0.000000 0.000000 0.061113 0.000000 0.253273
#
#
# Mechanical properties :
#
#
# Convention : Reuss Voigt Hill
#
# Bulk Modulus (GPa) = 50.68778 55.90409 53.29594
# Shear Modulus (GPa) = 11.21702 23.09845 17.15773
#
# Velocity S-wave (km/s) = 2.30496 3.30762 2.85072
# Velocity P-wave (km/s) = 5.57598 6.40824 6.00654
#
# Compressibility (1/GPa) = 0.01972862
#
# Stress axis : x y z
#
# Youngs Moduli (GPa) = 72.59542 75.16113 87.65028
#
# Poissons Ratio (x) = 0.28036 0.26180
# Poissons Ratio (y) = 0.27079 0.23342
# Poissons Ratio (z) = 0.21683 0.20016
#
# Static dielectric constant tensor:
#      x y z
#    x 4.093350 0.000000 -0.124190 
#    y 0.000000 3.378410 0.000000 
#    z -0.124190 0.000000 3.948700 
# 
# 
# High freq. dielectric constant tensor:
#      x y z
#    x 1.841230 0.000000 -0.009960 
#    y 0.000000 1.778170 0.000000 
#    z -0.009960 0.000000 1.838320 
# 
# From -- ./inp_files/51932.got.cif
#   From: 2010.06.25/outbox.cif.g09.slc.cpg/sg10_26_cif.got.tgz:51932.got - 2010.06.27 22:07:45.
