data_PCOD8059010
_publ_section_title
;
Structure prediction by ZEFSAII (Michael W. Deem and Ramdas Pophale) SiO2 
 PCOD8059010
Probable space group: P 2/M
;
_chemical_formula_sum "Si O2"
_cell_formula_units_Z 28
_cell_length_a 9.668634
_cell_length_b 8.818084
_cell_length_c 28.456741
_cell_angle_alpha 90.000000
_cell_angle_beta 141.304788
_cell_angle_gamma 90.000000
_cell_volume 1516.798214
_symmetry_space_group_name_H-M "P 2/M"
_symmetry_group_IT_number 10
_symmetry_cell_setting 'monoclinic'
loop_
_space_group_symop_operation_xyz
x,y,z
-x,y,-z
-x,-y,-z
x,-y,z
loop_
_atom_site_type_symbol
_atom_site_label
_atom_site_fract_x
_atom_site_fract_y
_atom_site_fract_z
Si Si1 0.171161 0.175615 0.941494
Si Si2 0.276155 0.820857 0.705048
Si Si3 0.270197 0.321080 0.184847
Si Si4 0.629401 0.823488 0.105430
Si Si5 0.315037 0.322919 0.301896
Si Si6 0.919375 0.320770 0.258699
Si Si7 0.800346 0.321871 0.414609
O O1 0.246338 0.224098 0.909309
O O2 0.956612 0.271266 0.900616
O O3 0.107671 0.000000 0.925435
O O4 0.368135 0.209327 0.030283
O O5 0.516912 0.755108 0.782760
O O6 0.102244 0.762365 0.697372
O O7 0.190782 0.765415 0.632010
O O8 0.286927 0.000000 0.708436
O O9 0.302823 0.500000 0.190569
O O10 0.259138 0.258724 0.235430
O O11 0.715883 0.720721 0.170699
O O12 0.669960 0.000000 0.127525
O O13 0.270804 0.500000 0.288604
O O14 0.571312 0.285757 0.381547
O O15 0.147986 0.255912 0.296466
O O16 0.923908 0.500000 0.268211
O O17 0.818611 0.500000 0.408324
O O18 0.000000 0.264312 0.500000
#
# Coordination Sequence:
#
# PCOD8059010 Si02
#       7
#     4   4   4   4   4   4   4
#     4   9  17  30  49  75 107 142 179 222 270 319
#     4  11  23  37  54  78 109 144 177 216 269 324
#     4  10  18  33  54  78 104 136 183 230 267 316
#     4   9  18  31  48  74 109 144 179 219 268 321
#     4   8  16  30  52  81 106 133 173 216 260 308
#     4  11  20  34  53  77 108 142 181 225 268 314
#     4   9  18  37  63  87 110 137 172 215 260 312
#
# _framework density 18.459938999999999
#
# number of rings (size 3 to 8) (size 9 to 14) (size 15 to 20)
#    0.000    2.429    1.429    3.857    0.000    0.857 
#    0.000    3.571    0.000    8.571    0.000    0.000 
#    0.000    0.000    0.000    0.000    0.000    0.000 
#
# Total GULP energy -347157.708243 kJ/mol
# GULP energy per Si atom -12398.489580 kJ/mol
# Density = 1.841792 g / cm^3
# Si number density = 18.459939 Si / 1000 Ang^3
#
#
#
# Elastic Constant Matrix: (Units=GPa)
#
#
# Indices 1 2 3 4 5 6 
#
# 1 111.4777 38.2766 41.9331 0.0000 7.5532 0.0000
# 2 38.2766 79.5567 35.4923 0.0000 0.6446 0.0000
# 3 41.9331 35.4923 100.4322 0.0000 15.4686 0.0000
# 4 0.0000 0.0000 0.0000 25.0043 0.0000 -1.3688
# 5 7.5532 0.6446 15.4686 0.0000 23.6835 0.0000
# 6 0.0000 0.0000 0.0000 -1.3688 0.0000 24.5935
#
#
#
# Elastic Compliance Matrix: (Units=1/GPa)
#
#
# Indices 1 2 3 4 5 6 
#
# 1 0.011711 -0.004211 -0.003162 0.000000 -0.001555 0.000000
# 2 -0.004211 0.016684 -0.004753 0.000000 0.003993 0.000000
# 3 -0.003162 -0.004753 0.014211 0.000000 -0.008144 0.000000
# 4 0.000000 0.000000 0.000000 0.040115 0.000000 0.002233
# 5 -0.001555 0.003993 -0.008144 0.000000 0.047930 0.000000
# 6 0.000000 0.000000 0.000000 0.002233 0.000000 0.040785
#
#
# Mechanical properties :
#
#
# Convention : Reuss Voigt Hill
#
# Bulk Modulus (GPa) = 54.48350 58.09675 56.29013
# Shear Modulus (GPa) = 24.77622 26.37391 25.57506
#
# Velocity S-wave (km/s) = 3.66753 3.78393 3.72618
# Velocity P-wave (km/s) = 6.89296 7.11554 7.00513
#
# Compressibility (1/GPa) = 0.01835418
#
# Stress axis : x y z
#
# Youngs Moduli (GPa) = 85.38890 59.93869 70.36768
#
# Poissons Ratio (x) = 0.25242 0.22250
# Poissons Ratio (y) = 0.35960 0.33443
# Poissons Ratio (z) = 0.26999 0.28487
#
# Static dielectric constant tensor:
#      x y z
#    x 3.471230 0.000000 0.209840 
#    y 0.000000 3.183080 0.000000 
#    z 0.209840 0.000000 3.342360 
# 
# 
# High freq. dielectric constant tensor:
#      x y z
#    x 1.707930 0.000000 0.016560 
#    y 0.000000 1.703920 0.000000 
#    z 0.016560 0.000000 1.703490 
# 
# From -- ./inp_files/36986.got.cif
#   From: 2010.06.25/outbox.cif.g09.slc.cpg/sg10_19_cif.got.tgz:36986.got - 2010.06.27 22:07:45.
