data_PCOD8059399
_publ_section_title
;
Structure prediction by ZEFSAII (Michael W. Deem and Ramdas Pophale) SiO2 
 PCOD8059399
Probable space group: P 2/M
;
_chemical_formula_sum "Si O2"
_cell_formula_units_Z 32
_cell_length_a 21.302071
_cell_length_b 9.185404
_cell_length_c 11.618217
_cell_angle_alpha 90.000000
_cell_angle_beta 58.417315
_cell_angle_gamma 90.000000
_cell_volume 1936.603314
_symmetry_space_group_name_H-M "P 2/M"
_symmetry_group_IT_number 10
_symmetry_cell_setting 'monoclinic'
loop_
_space_group_symop_operation_xyz
x,y,z
-x,y,-z
-x,-y,-z
x,-y,z
loop_
_atom_site_type_symbol
_atom_site_label
_atom_site_fract_x
_atom_site_fract_y
_atom_site_fract_z
Si Si1 0.862152 0.666101 0.876621
Si Si2 0.873787 0.171910 0.393805
Si Si3 0.423926 0.835331 0.719589
Si Si4 0.581103 0.837981 0.548965
Si Si5 0.282157 0.668120 0.849837
Si Si6 0.915263 0.670688 0.576893
Si Si7 0.737714 0.825579 0.368010
Si Si8 0.013961 0.172088 0.114504
O O1 0.888237 0.500000 0.866761
O O2 0.874406 0.715265 0.733615
O O3 0.909774 0.763698 0.915667
O O4 0.776954 0.686077 0.991467
O O5 0.870654 0.247514 0.520264
O O6 0.804242 0.223606 0.385382
O O7 0.947355 0.224880 0.258905
O O8 0.872700 0.000000 0.412431
O O9 0.505444 0.765088 0.671382
O O10 0.419088 0.840933 0.587841
O O11 0.358141 0.733859 0.828740
O O12 0.415362 0.000000 0.776945
O O13 0.661202 0.769880 0.503758
O O14 0.577874 0.000000 0.601831
O O15 0.294869 0.500000 0.805133
O O16 0.252812 0.751715 0.765384
O O17 0.911553 0.500000 0.555320
O O18 0.000000 0.724191 0.500000
O O19 0.736010 0.000000 0.350924
O O20 0.021242 0.000000 0.107625
O O21 0.000000 0.231140 0.000000
#
# Coordination Sequence:
#
# PCOD8059399 Si02
#       8
#     4   4   4   4   4   4   4   4
#     4  10  21  35  48  65  88 120 157 190 226 269
#     4  10  20  32  49  72  93 115 148 192 233 266
#     4   8  13  24  42  63  89 122 156 181 215 266
#     4   7  11  22  42  64  87 121 156 180 207 263
#     4  10  19  29  43  67  97 122 151 190 228 265
#     4  10  20  36  54  66  83 117 158 195 232 274
#     4   9  17  31  48  67  96 127 152 179 223 277
#     4  10  20  32  47  69  95 120 146 179 224 274
#
# _framework density 16.523775000000001
#
# number of rings (size 3 to 8) (size 9 to 14) (size 15 to 20)
#    0.000    2.750    1.250    2.625    0.000    3.500 
#    0.000    5.000    0.000    0.000    0.000    0.875 
#    0.000    7.000    0.000    0.000    0.000    0.000 
#
# Total GULP energy -396536.601718 kJ/mol
# GULP energy per Si atom -12391.768804 kJ/mol
# Density = 1.648617 g / cm^3
# Si number density = 16.523775 Si / 1000 Ang^3
#
#
#
# Elastic Constant Matrix: (Units=GPa)
#
#
# Indices 1 2 3 4 5 6 
#
# 1 60.9909 25.6402 51.6565 0.0000 -21.1239 0.0000
# 2 25.6402 37.5550 31.9626 0.0000 -4.6545 0.0000
# 3 51.6565 31.9626 98.0092 0.0000 -8.9312 0.0000
# 4 0.0000 0.0000 0.0000 21.1199 0.0000 -3.9801
# 5 -21.1239 -4.6545 -8.9312 0.0000 28.7491 0.0000
# 6 0.0000 0.0000 0.0000 -3.9801 0.0000 9.3712
#
#
#
# Elastic Compliance Matrix: (Units=1/GPa)
#
#
# Indices 1 2 3 4 5 6 
#
# 1 0.045697 -0.013140 -0.017427 0.000000 0.026036 0.000000
# 2 -0.013140 0.040784 -0.006847 0.000000 -0.005179 0.000000
# 3 -0.017427 -0.006847 0.020946 0.000000 -0.007406 0.000000
# 4 0.000000 0.000000 0.000000 0.051468 0.000000 0.021859
# 5 0.026036 -0.005179 -0.007406 0.000000 0.050774 0.000000
# 6 0.000000 0.000000 0.000000 0.021859 0.000000 0.115994
#
#
# Mechanical properties :
#
#
# Convention : Reuss Voigt Hill
#
# Bulk Modulus (GPa) = 30.67566 46.11929 38.39748
# Shear Modulus (GPa) = 12.15479 17.66775 14.91127
#
# Velocity S-wave (km/s) = 2.71513 3.27346 3.00728
# Velocity P-wave (km/s) = 5.33236 6.50068 5.94529
#
# Compressibility (1/GPa) = 0.03259913
#
# Stress axis : x y z
#
# Youngs Moduli (GPa) = 21.88305 24.51918 47.74121
#
# Poissons Ratio (x) = 0.32219 0.83200
# Poissons Ratio (y) = 0.28755 0.32687
# Poissons Ratio (z) = 0.38136 0.16788
#
# Static dielectric constant tensor:
#      x y z
#    x 3.378250 0.000000 -0.402600 
#    y 0.000000 2.963740 0.000000 
#    z -0.402600 0.000000 3.103110 
# 
# 
# High freq. dielectric constant tensor:
#      x y z
#    x 1.631480 0.000000 -0.028710 
#    y 0.000000 1.619000 0.000000 
#    z -0.028710 0.000000 1.616920 
# 
# From -- ./inp_files/54788.got.cif
#   From: 2010.06.25/outbox.cif.g09.slc.cpg/sg10_28_cif.got.tgz:54788.got - 2010.06.27 22:07:45.
