data_PCOD8059455
_publ_section_title
;
Structure prediction by ZEFSAII (Michael W. Deem and Ramdas Pophale) SiO2 
 PCOD8059455
Probable space group: P 2/M
;
_chemical_formula_sum "Si O2"
_cell_formula_units_Z 24
_cell_length_a 9.496168
_cell_length_b 11.333472
_cell_length_c 26.477142
_cell_angle_alpha 90.000000
_cell_angle_beta 151.257513
_cell_angle_gamma 90.000000
_cell_volume 1370.293469
_symmetry_space_group_name_H-M "P 2/M"
_symmetry_group_IT_number 10
_symmetry_cell_setting 'monoclinic'
loop_
_space_group_symop_operation_xyz
x,y,z
-x,y,-z
-x,-y,-z
x,-y,z
loop_
_atom_site_type_symbol
_atom_site_label
_atom_site_fract_x
_atom_site_fract_y
_atom_site_fract_z
Si Si1 0.910844 0.250627 0.574446
Si Si2 0.088055 0.637660 0.732118
Si Si3 0.447416 0.362239 0.699925
Si Si4 0.337748 0.246539 0.329998
Si Si5 0.049662 0.000000 0.596451
Si Si6 0.516035 0.000000 0.352181
Si Si7 0.705334 0.638227 0.884644
O O1 0.585781 0.258448 0.450524
O O2 0.925767 0.329098 0.629093
O O3 0.132069 0.298235 0.600963
O O4 0.004679 0.115664 0.616898
O O5 0.029309 0.500000 0.724315
O O6 0.433229 0.665438 0.836142
O O7 0.967122 0.716503 0.740048
O O8 0.389537 0.500000 0.688190
O O9 0.609996 0.337003 0.699063
O O10 0.637524 0.313017 0.807122
O O11 0.318521 0.114565 0.301604
O O12 0.369459 0.000000 0.669866
O O13 0.801735 0.000000 0.476134
O O14 0.757318 0.500000 0.896243
O O15 0.000000 0.698137 0.000000
#
# Coordination Sequence:
#
# PCOD8059455 Si02
#       7
#     4   4   4   4   2   2   4
#     4  10  19  31  48  68 100 139 170 197 232 278
#     4  10  21  33  47  74 105 130 160 197 248 303
#     4  10  19  29  47  75  98 127 168 196 238 302
#     4  11  20  31  47  71 104 135 162 201 239 281
#     4   9  16  31  49  67  90 131 184 214 222 258
#     4   9  18  31  47  67  96 132 174 210 234 261
#     4   8  16  34  54  69  92 124 160 205 246 288
#
# _framework density 17.514496000000001
#
# number of rings (size 3 to 8) (size 9 to 14) (size 15 to 20)
#    0.000    2.333    1.667    3.000    0.000    4.667 
#    0.000    3.333    0.000    4.000    0.000   22.167 
#    0.000    0.000    0.000    0.000    0.000    0.000 
#
# Total GULP energy -297556.098620 kJ/mol
# GULP energy per Si atom -12398.170776 kJ/mol
# Density = 1.747463 g / cm^3
# Si number density = 17.514496 Si / 1000 Ang^3
#
#
#
# Elastic Constant Matrix: (Units=GPa)
#
#
# Indices 1 2 3 4 5 6 
#
# 1 87.3769 23.1282 18.8892 0.0000 20.5361 0.0000
# 2 23.1282 81.0322 27.1413 0.0000 8.5345 0.0000
# 3 18.8892 27.1413 59.0890 0.0000 15.6002 0.0000
# 4 0.0000 0.0000 0.0000 6.2240 0.0000 8.0181
# 5 20.5361 8.5345 15.6002 0.0000 13.5024 0.0000
# 6 0.0000 0.0000 0.0000 8.0181 0.0000 23.8158
#
#
#
# Elastic Compliance Matrix: (Units=1/GPa)
#
#
# Indices 1 2 3 4 5 6 
#
# 1 0.018726 -0.003337 0.003610 0.000000 -0.030543 0.000000
# 2 -0.003337 0.015222 -0.006799 0.000000 0.003309 0.000000
# 3 0.003610 -0.006799 0.027638 0.000000 -0.033126 0.000000
# 4 0.000000 0.000000 0.000000 0.283729 0.000000 -0.095524
# 5 -0.030543 0.003309 -0.033126 0.000000 0.156694 0.000000
# 6 0.000000 0.000000 0.000000 -0.095524 0.000000 0.074149
#
#
# Mechanical properties :
#
#
# Convention : Reuss Voigt Hill
#
# Bulk Modulus (GPa) = 20.60391 40.64616 30.62503
# Shear Modulus (GPa) = 8.25917 19.26440 13.76178
#
# Velocity S-wave (km/s) = 2.17390 3.32009 2.80614
# Velocity P-wave (km/s) = 4.25330 6.16075 5.29365
#
# Compressibility (1/GPa) = 0.04853448
#
# Stress axis : x y z
#
# Youngs Moduli (GPa) = 53.40200 65.69466 36.18218
#
# Poissons Ratio (x) = 0.21923 -0.13063
# Poissons Ratio (y) = 0.17821 0.24599
# Poissons Ratio (z) = -0.19279 0.44664
#
# Static dielectric constant tensor:
#      x y z
#    x 3.228600 0.000000 0.059500 
#    y 0.000000 3.326000 0.000000 
#    z 0.059500 0.000000 3.163330 
# 
# 
# High freq. dielectric constant tensor:
#      x y z
#    x 1.678220 0.000000 0.008050 
#    y 0.000000 1.671900 0.000000 
#    z 0.008050 0.000000 1.636770 
# 
# From -- ./inp_files/27798.got.cif
#   From: 2010.06.25/outbox.cif.g09.slc.cpg/sg10_14_cif.got.tgz:27798.got - 2010.06.27 22:07:45.
