data_PCOD8059012
_publ_section_title
;
Structure prediction by ZEFSAII (Michael W. Deem and Ramdas Pophale) SiO2 
 PCOD8059012
Probable space group: P 2/M
;
_chemical_formula_sum "Si O2"
_cell_formula_units_Z 32
_cell_length_a 13.125394
_cell_length_b 8.638920
_cell_length_c 18.861796
_cell_angle_alpha 90.000000
_cell_angle_beta 49.004005
_cell_angle_gamma 90.000000
_cell_volume 1614.213946
_symmetry_space_group_name_H-M "P 2/M"
_symmetry_group_IT_number 10
_symmetry_cell_setting 'monoclinic'
loop_
_space_group_symop_operation_xyz
x,y,z
-x,y,-z
-x,-y,-z
x,-y,z
loop_
_atom_site_type_symbol
_atom_site_label
_atom_site_fract_x
_atom_site_fract_y
_atom_site_fract_z
Si Si1 0.177998 0.684457 0.228352
Si Si2 0.196071 0.316207 0.795065
Si Si3 0.674323 0.320230 0.602907
Si Si4 0.968791 0.320464 0.437852
Si Si5 0.902064 0.315787 0.889962
Si Si6 0.453239 0.316121 0.596231
Si Si7 0.599441 0.181847 0.780587
Si Si8 0.695929 0.316065 0.103587
O O1 0.183551 0.500000 0.225959
O O2 0.145614 0.747151 0.164540
O O3 0.322388 0.749629 0.187128
O O4 0.059416 0.751338 0.333769
O O5 0.188138 0.500000 0.803270
O O6 0.301357 0.265308 0.685474
O O7 0.247195 0.252530 0.847538
O O8 0.049865 0.247478 0.841847
O O9 0.653182 0.500000 0.632033
O O10 0.810164 0.296438 0.494695
O O11 0.551810 0.253595 0.612534
O O12 0.682856 0.227665 0.672321
O O13 0.008129 0.500000 0.424152
O O14 0.000000 0.243069 0.500000
O O15 0.909688 0.500000 0.885747
O O16 0.796971 0.257156 0.996652
O O17 0.500000 0.243363 0.500000
O O18 0.466863 0.500000 0.586556
O O19 0.450250 0.249661 0.845827
O O20 0.591173 0.000000 0.792106
O O21 0.684868 0.500000 0.110112
#
# Coordination Sequence:
#
# PCOD8059012 Si02
#       8
#     4   4   4   4   4   4   4   4
#     4  10  20  36  55  81 114 145 179 224 275 326
#     4   9  16  29  52  85 117 141 171 219 270 321
#     4  10  18  33  54  80 111 147 181 218 268 323
#     4   9  16  27  50  78 103 133 173 213 256 313
#     4   9  19  32  54  85 112 140 179 227 274 325
#     4   9  17  26  45  83 120 143 167 210 268 321
#     4  12  24  37  55  79 107 144 190 236 273 321
#     4  10  19  36  59  82 108 142 181 225 279 330
#
# _framework density 19.823891
#
# number of rings (size 3 to 8) (size 9 to 14) (size 15 to 20)
#    0.000    2.250    2.500    1.500    1.750    2.000 
#    0.000    4.375    0.000    2.625    0.000    0.000 
#    0.000    0.000    0.000    0.000    0.000    0.000 
#
# Total GULP energy -396739.919789 kJ/mol
# GULP energy per Si atom -12398.122493 kJ/mol
# Density = 1.977877 g / cm^3
# Si number density = 19.823891 Si / 1000 Ang^3
#
#
#
# Elastic Constant Matrix: (Units=GPa)
#
#
# Indices 1 2 3 4 5 6 
#
# 1 168.1522 20.3697 85.4076 0.0000 -3.4440 0.0000
# 2 20.3697 22.8787 17.4384 0.0000 -0.5094 0.0000
# 3 85.4076 17.4384 157.5314 0.0000 6.6590 0.0000
# 4 0.0000 0.0000 0.0000 2.3136 0.0000 -0.0189
# 5 -3.4440 -0.5094 6.6590 0.0000 36.8071 0.0000
# 6 0.0000 0.0000 0.0000 -0.0189 0.0000 1.1145
#
#
#
# Elastic Compliance Matrix: (Units=1/GPa)
#
#
# Indices 1 2 3 4 5 6 
#
# 1 0.008693 -0.004439 -0.004286 0.000000 0.001527 0.000000
# 2 -0.004439 0.050100 -0.003176 0.000000 0.000853 0.000000
# 3 -0.004286 -0.003176 0.009112 0.000000 -0.002093 0.000000
# 4 0.000000 0.000000 0.000000 0.432292 0.000000 0.007342
# 5 0.001527 0.000853 -0.002093 0.000000 0.027702 0.000000
# 6 0.000000 0.000000 0.000000 0.007342 0.000000 0.897407
#
#
# Mechanical properties :
#
#
# Convention : Reuss Voigt Hill
#
# Bulk Modulus (GPa) = 22.67369 66.11041 44.39205
# Shear Modulus (GPa) = 3.41575 23.07013 13.24294
#
# Velocity S-wave (km/s) = 1.31407 3.41508 2.58743
# Velocity P-wave (km/s) = 3.71009 6.99798 5.60073
#
# Compressibility (1/GPa) = 0.04410399
#
# Stress axis : x y z
#
# Youngs Moduli (GPa) = 115.03459 19.96005 109.74779
#
# Poissons Ratio (x) = 0.08860 0.47041
# Poissons Ratio (y) = 0.51060 0.34851
# Poissons Ratio (z) = 0.49307 0.06338
#
# Static dielectric constant tensor:
#      x y z
#    x 3.839310 0.000000 0.016640 
#    y 0.000000 2.914970 0.000000 
#    z 0.016640 0.000000 3.833610 
# 
# 
# High freq. dielectric constant tensor:
#      x y z
#    x 1.785330 0.000000 -0.006610 
#    y 0.000000 1.698690 0.000000 
#    z -0.006610 0.000000 1.784710 
# 
# From -- ./inp_files/83532.got.cif
#   From: 2010.06.25/outbox.cif.g09.slc.cpg/sg10_42_cif.got.tgz:83532.got - 2010.06.27 22:07:45.
