data_PCOD8059773
_publ_section_title
;
Structure prediction by ZEFSAII (Michael W. Deem and Ramdas Pophale) SiO2 
 PCOD8059773
Probable space group: P 2/M
;
_chemical_formula_sum "Si O2"
_cell_formula_units_Z 28
_cell_length_a 26.066511
_cell_length_b 11.090870
_cell_length_c 5.097801
_cell_angle_alpha 90.000000
_cell_angle_beta 89.520750
_cell_angle_gamma 90.000000
_cell_volume 1473.724165
_symmetry_space_group_name_H-M "P 2/M"
_symmetry_group_IT_number 10
_symmetry_cell_setting 'monoclinic'
loop_
_space_group_symop_operation_xyz
x,y,z
-x,y,-z
-x,-y,-z
x,-y,z
loop_
_atom_site_type_symbol
_atom_site_label
_atom_site_fract_x
_atom_site_fract_y
_atom_site_fract_z
Si Si1 0.557730 0.358601 0.048107
Si Si2 0.706199 0.000000 0.974901
Si Si3 0.390339 0.259254 0.453942
Si Si4 0.722255 0.641386 0.499791
Si Si5 0.769052 0.757438 0.002038
Si Si6 0.120065 0.858197 0.963533
Si Si7 0.638842 0.000000 0.475629
Si Si8 0.943289 0.858798 0.524137
O O1 0.563043 0.500000 0.004711
O O2 0.572376 0.326021 0.344401
O O3 0.500000 0.314252 0.000000
O O4 0.596007 0.295058 0.843276
O O5 0.739950 0.883272 0.024204
O O6 0.659056 0.000000 0.177751
O O7 0.686114 0.000000 0.677859
O O8 0.331852 0.291394 0.516705
O O9 0.397162 0.115868 0.480511
O O10 0.711528 0.500000 0.511538
O O11 0.756231 0.674377 0.249017
O O12 0.753524 0.683006 0.749320
O O13 0.829260 0.781799 0.986777
O O14 0.079583 0.829343 0.192494
O O15 0.133827 0.000000 0.952222
O O16 0.094796 0.808860 0.697358
O O17 0.000000 0.799818 0.500000
O O18 0.948460 0.000000 0.472069
#
# Coordination Sequence:
#
# PCOD8059773 Si02
#       8
#     4   2   4   4   4   4   2   4
#     4  11  24  43  66  90 117 151 196 246 291 336
#     4  12  20  40  58  84 118 160 188 240 272 332
#     4  12  23  42  64  90 118 154 192 236 287 349
#     4  12  25  40  60  86 120 154 192 239 284 340
#     4  12  22  38  58  86 119 152 200 232 284 345
#     4  10  19  30  50  77 110 151 189 231 280 341
#     4  12  24  40  61  90 120 154 197 228 286 338
#     4   9  17  29  45  71 110 152 189 228 281 342
#
# _framework density 18.999486999999998
#
# number of rings (size 3 to 8) (size 9 to 14) (size 15 to 20)
#    0.000    0.857    3.571    5.143    0.000    2.857 
#    0.000    2.143    0.000    0.000    0.000    0.000 
#    0.000   40.000    0.000    0.000    0.000    0.000 
#
# Total GULP energy -347368.848082 kJ/mol
# GULP energy per Si atom -12406.030289 kJ/mol
# Density = 1.895624 g / cm^3
# Si number density = 18.999487 Si / 1000 Ang^3
#
#
#
# Elastic Constant Matrix: (Units=GPa)
#
#
# Indices 1 2 3 4 5 6 
#
# 1 89.4840 25.3052 13.4203 0.0000 12.6339 0.0000
# 2 25.3052 65.3856 18.9720 0.0000 -13.2026 0.0000
# 3 13.4203 18.9720 99.6419 0.0000 8.5881 0.0000
# 4 0.0000 0.0000 0.0000 48.4690 0.0000 5.8899
# 5 12.6339 -13.2026 8.5881 0.0000 32.3348 0.0000
# 6 0.0000 0.0000 0.0000 5.8899 0.0000 9.5871
#
#
#
# Elastic Compliance Matrix: (Units=1/GPa)
#
#
# Indices 1 2 3 4 5 6 
#
# 1 0.014480 -0.007435 0.000220 0.000000 -0.008752 0.000000
# 2 -0.007435 0.022064 -0.004326 0.000000 0.013063 0.000000
# 3 0.000220 -0.004326 0.011247 0.000000 -0.004839 0.000000
# 4 0.000000 0.000000 0.000000 0.022296 0.000000 -0.013698
# 5 -0.008752 0.013063 -0.004839 0.000000 0.040965 0.000000
# 6 0.000000 0.000000 0.000000 -0.013698 0.000000 0.112722
#
#
# Mechanical properties :
#
#
# Convention : Reuss Voigt Hill
#
# Bulk Modulus (GPa) = 40.46992 41.10072 40.78532
# Shear Modulus (GPa) = 19.60069 31.19914 25.39992
#
# Velocity S-wave (km/s) = 3.21540 4.05669 3.66030
# Velocity P-wave (km/s) = 5.92721 6.60468 6.27510
#
# Compressibility (1/GPa) = 0.02470971
#
# Stress axis : x y z
#
# Youngs Moduli (GPa) = 69.05855 45.32247 88.91245
#
# Poissons Ratio (x) = 0.33698 -0.01953
# Poissons Ratio (y) = 0.51346 0.38459
# Poissons Ratio (z) = -0.01517 0.19604
#
# Static dielectric constant tensor:
#      x y z
#    x 3.518830 0.000000 0.055930 
#    y 0.000000 3.375590 0.000000 
#    z 0.055930 0.000000 3.632340 
# 
# 
# High freq. dielectric constant tensor:
#      x y z
#    x 1.739350 0.000000 0.002230 
#    y 0.000000 1.714330 0.000000 
#    z 0.002230 0.000000 1.760450 
# 
# From -- ./inp_files/12282.got.cif
#   From: 2010.06.25/outbox.cif.g09.slc.cpg/sg10_7_cif.got.tgz:12282.got - 2010.06.27 22:07:45.
