data_PCOD8059680
_publ_section_title
;
Structure prediction by ZEFSAII (Michael W. Deem and Ramdas Pophale) SiO2 
 PCOD8059680
Probable space group: P 2/M
;
_chemical_formula_sum "Si O2"
_cell_formula_units_Z 32
_cell_length_a 9.742850
_cell_length_b 9.327475
_cell_length_c 24.727050
_cell_angle_alpha 90.000000
_cell_angle_beta 60.316166
_cell_angle_gamma 90.000000
_cell_volume 1952.216006
_symmetry_space_group_name_H-M "P 2/M"
_symmetry_group_IT_number 10
_symmetry_cell_setting 'monoclinic'
loop_
_space_group_symop_operation_xyz
x,y,z
-x,y,-z
-x,-y,-z
x,-y,z
loop_
_atom_site_type_symbol
_atom_site_label
_atom_site_fract_x
_atom_site_fract_y
_atom_site_fract_z
Si Si1 0.995359 0.666339 0.904460
Si Si2 0.229058 0.837310 0.920608
Si Si3 0.634753 0.831713 0.432486
Si Si4 0.125307 0.334387 0.550717
Si Si5 0.474962 0.831063 0.664370
Si Si6 0.648932 0.334352 0.006119
Si Si7 0.232133 0.838254 0.801198
Si Si8 0.778388 0.334278 0.587005
O O1 0.042315 0.500000 0.898513
O O2 0.807056 0.687947 0.939695
O O3 0.064902 0.748115 0.944148
O O4 0.074479 0.737946 0.835230
O O5 0.314833 0.838156 0.844733
O O6 0.192027 0.000000 0.946834
O O7 0.343002 0.760362 0.941297
O O8 0.500000 0.778710 0.500000
O O9 0.798482 0.756322 0.415986
O O10 0.590543 0.783432 0.380959
O O11 0.660776 0.000000 0.431673
O O12 0.166322 0.500000 0.551257
O O13 0.194652 0.281745 0.479710
O O14 0.937907 0.309174 0.589693
O O15 0.353203 0.775947 0.733597
O O16 0.642587 0.757084 0.642148
O O17 0.500739 0.000000 0.663240
O O18 0.628968 0.500000 0.027020
O O19 0.500000 0.281871 0.000000
O O20 0.180469 0.000000 0.795299
O O21 0.729813 0.500000 0.597019
#
# Coordination Sequence:
#
# PCOD8059680 Si02
#       8
#     4   4   4   4   4   4   4   4
#     4   9  17  31  52  74  97 127 162 198 238 282
#     4   9  18  32  51  73  98 129 165 201 236 281
#     4  10  19  30  47  73  98 121 158 205 249 296
#     4   9  18  32  47  67  98 127 151 193 249 297
#     4  10  19  33  51  71  96 125 160 204 247 289
#     4  10  20  32  49  77 108 132 157 196 244 286
#     4   8  18  33  50  70  96 127 164 204 240 280
#     4   9  18  31  48  70  94 123 160 197 239 293
#
# _framework density 16.391628999999998
#
# number of rings (size 3 to 8) (size 9 to 14) (size 15 to 20)
#    0.750    2.000    1.250    1.500    0.000    4.500 
#    0.000    1.250    2.750    0.000    0.000    0.000 
#    0.000    0.000    0.000    0.000    0.000    0.000 
#
# Total GULP energy -396614.650441 kJ/mol
# GULP energy per Si atom -12394.207826 kJ/mol
# Density = 1.635432 g / cm^3
# Si number density = 16.391629 Si / 1000 Ang^3
#
#
#
# Elastic Constant Matrix: (Units=GPa)
#
#
# Indices 1 2 3 4 5 6 
#
# 1 108.7852 48.8835 43.5700 0.0000 -4.4140 0.0000
# 2 48.8835 69.6254 38.1629 0.0000 -5.6364 0.0000
# 3 43.5700 38.1629 97.1794 0.0000 -13.6454 0.0000
# 4 0.0000 0.0000 0.0000 22.9706 0.0000 0.4989
# 5 -4.4140 -5.6364 -13.6454 0.0000 11.9436 0.0000
# 6 0.0000 0.0000 0.0000 0.4989 0.0000 20.1864
#
#
#
# Elastic Compliance Matrix: (Units=1/GPa)
#
#
# Indices 1 2 3 4 5 6 
#
# 1 0.014199 -0.008270 -0.003489 0.000000 -0.002642 0.000000
# 2 -0.008270 0.023122 -0.005085 0.000000 0.002046 0.000000
# 3 -0.003489 -0.005085 0.015881 0.000000 0.014455 0.000000
# 4 0.000000 0.000000 0.000000 0.043557 0.000000 -0.001077
# 5 -0.002642 0.002046 0.014455 0.000000 0.100231 0.000000
# 6 0.000000 0.000000 0.000000 -0.001077 0.000000 0.049565
#
#
# Mechanical properties :
#
#
# Convention : Reuss Voigt Hill
#
# Bulk Modulus (GPa) = 51.24741 59.64698 55.44719
# Shear Modulus (GPa) = 17.43687 20.68502 19.06094
#
# Velocity S-wave (km/s) = 3.26508 3.55621 3.41375
# Velocity P-wave (km/s) = 6.74882 7.30273 7.03123
#
# Compressibility (1/GPa) = 0.01951318
#
# Stress axis : x y z
#
# Youngs Moduli (GPa) = 70.42694 43.24906 62.96767
#
# Poissons Ratio (x) = 0.35769 0.21971
# Poissons Ratio (y) = 0.58246 0.32018
# Poissons Ratio (z) = 0.24574 0.21991
#
# Static dielectric constant tensor:
#      x y z
#    x 2.919080 0.000000 -0.021180 
#    y 0.000000 3.051320 0.000000 
#    z -0.021180 0.000000 2.961760 
# 
# 
# High freq. dielectric constant tensor:
#      x y z
#    x 1.612930 0.000000 -0.004480 
#    y 0.000000 1.634490 0.000000 
#    z -0.004480 0.000000 1.612250 
# 
# From -- ./inp_files/91736.got.cif
#   From: 2010.06.25/outbox.cif.g09.slc.cpg/sg10_46_cif.got.tgz:91736.got - 2010.06.27 22:07:45.
