data_PCOD8059211
_publ_section_title
;
Structure prediction by ZEFSAII (Michael W. Deem and Ramdas Pophale) SiO2 
 PCOD8059211
Probable space group: P 2/M
;
_chemical_formula_sum "Si O2"
_cell_formula_units_Z 28
_cell_length_a 16.544034
_cell_length_b 14.942951
_cell_length_c 8.723338
_cell_angle_alpha 90.000000
_cell_angle_beta 140.757384
_cell_angle_gamma 90.000000
_cell_volume 1364.248441
_symmetry_space_group_name_H-M "P 2/M"
_symmetry_group_IT_number 10
_symmetry_cell_setting 'monoclinic'
loop_
_space_group_symop_operation_xyz
x,y,z
-x,y,-z
-x,-y,-z
x,-y,z
loop_
_atom_site_type_symbol
_atom_site_label
_atom_site_fract_x
_atom_site_fract_y
_atom_site_fract_z
Si Si1 0.649577 0.100230 0.042641
Si Si2 0.871180 0.773442 0.744026
Si Si3 0.732614 0.604157 0.031349
Si Si4 0.778035 0.597687 0.746021
Si Si5 0.134767 0.236094 0.628754
Si Si6 0.531727 0.363246 0.208848
Si Si7 0.612365 0.836628 0.324522
O O1 0.757450 0.169360 0.143472
O O2 0.634731 0.106873 0.203865
O O3 0.691147 0.000000 0.057940
O O4 0.508731 0.121587 0.761240
O O5 0.867262 0.672144 0.801060
O O6 0.872751 0.771606 0.563964
O O7 0.746753 0.831627 0.616690
O O8 0.000000 0.818736 0.000000
O O9 0.753968 0.500000 0.102679
O O10 0.832738 0.662011 0.277578
O O11 0.754039 0.625594 0.885500
O O12 0.590387 0.635821 0.861238
O O13 0.845408 0.500000 0.836751
O O14 0.643710 0.586643 0.461825
O O15 0.000000 0.206507 0.500000
O O16 0.578025 0.264596 0.230860
O O17 0.500000 0.411708 0.000000
#
# Coordination Sequence:
#
# PCOD8059211 Si02
#       7
#     4   4   4   4   4   4   4
#     4  10  18  34  62  93 120 149 193 248 300 354
#     4  10  21  37  58  83 115 159 199 240 302 356
#     4  11  22  37  55  81 120 162 205 249 297 349
#     4  10  22  35  52  81 115 158 207 253 297 346
#     4  11  23  39  61  87 123 156 200 248 298 364
#     4  11  18  32  54  83 123 156 198 242 295 351
#     4   9  16  32  56  87 119 144 192 238 285 349
#
# _framework density 20.524121999999998
#
# number of rings (size 3 to 8) (size 9 to 14) (size 15 to 20)
#    0.000    1.714    2.857    4.286    0.000    4.857 
#    0.000    0.000    0.000   10.714    0.000   28.000 
#    0.000    0.000    0.000    0.000    0.000    0.000 
#
# Total GULP energy -347035.451221 kJ/mol
# GULP energy per Si atom -12394.123258 kJ/mol
# Density = 2.047741 g / cm^3
# Si number density = 20.524122 Si / 1000 Ang^3
#
#
#
# Elastic Constant Matrix: (Units=GPa)
#
#
# Indices 1 2 3 4 5 6 
#
# 1 85.9080 28.5107 36.6606 0.0000 22.1842 0.0000
# 2 28.5107 92.5273 36.7589 0.0000 11.4898 0.0000
# 3 36.6606 36.7589 128.8089 0.0000 24.4513 0.0000
# 4 0.0000 0.0000 0.0000 19.8032 0.0000 17.3364
# 5 22.1842 11.4898 24.4513 0.0000 43.8463 0.0000
# 6 0.0000 0.0000 0.0000 17.3364 0.0000 49.0779
#
#
#
# Elastic Compliance Matrix: (Units=1/GPa)
#
#
# Indices 1 2 3 4 5 6 
#
# 1 0.015082 -0.003015 -0.002386 0.000000 -0.005510 0.000000
# 2 -0.003015 0.012870 -0.002756 0.000000 -0.000310 0.000000
# 3 -0.002386 -0.002756 0.009912 0.000000 -0.003598 0.000000
# 4 0.000000 0.000000 0.000000 0.073103 0.000000 -0.025823
# 5 -0.005510 -0.000310 -0.003598 0.000000 0.027683 0.000000
# 6 0.000000 0.000000 0.000000 -0.025823 0.000000 0.029498
#
#
# Mechanical properties :
#
#
# Convention : Reuss Voigt Hill
#
# Bulk Modulus (GPa) = 46.40345 56.78938 51.59641
# Shear Modulus (GPa) = 26.08989 36.23309 31.16149
#
# Velocity S-wave (km/s) = 3.56923 4.20621 3.90075
# Velocity P-wave (km/s) = 6.29636 7.16375 6.74401
#
# Compressibility (1/GPa) = 0.02155012
#
# Stress axis : x y z
#
# Youngs Moduli (GPa) = 66.30345 77.70011 100.88773
#
# Poissons Ratio (x) = 0.23427 0.24073
# Poissons Ratio (y) = 0.19991 0.27802
# Poissons Ratio (z) = 0.15821 0.21412
#
# Static dielectric constant tensor:
#      x y z
#    x 3.687210 0.000000 0.349800 
#    y 0.000000 3.578050 0.000000 
#    z 0.349800 0.000000 3.927920 
# 
# 
# High freq. dielectric constant tensor:
#      x y z
#    x 1.789800 0.000000 0.020660 
#    y 0.000000 1.787380 0.000000 
#    z 0.020660 0.000000 1.796690 
# 
# From -- ./inp_files/32834.got.cif
#   From: 2010.06.25/outbox.cif.g09.slc.cpg/sg10_17_cif.got.tgz:32834.got - 2010.06.27 22:07:45.
