data_PCOD8059276
_publ_section_title
;
Structure prediction by ZEFSAII (Michael W. Deem and Ramdas Pophale) SiO2 
 PCOD8059276
Probable space group: P 2/M
;
_chemical_formula_sum "Si O2"
_cell_formula_units_Z 32
_cell_length_a 18.681827
_cell_length_b 15.069613
_cell_length_c 11.805665
_cell_angle_alpha 90.000000
_cell_angle_beta 28.390489
_cell_angle_gamma 90.000000
_cell_volume 1580.310751
_symmetry_space_group_name_H-M "P 2/M"
_symmetry_group_IT_number 10
_symmetry_cell_setting 'monoclinic'
loop_
_space_group_symop_operation_xyz
x,y,z
-x,y,-z
-x,-y,-z
x,-y,z
loop_
_atom_site_type_symbol
_atom_site_label
_atom_site_fract_x
_atom_site_fract_y
_atom_site_fract_z
Si Si1 0.366140 0.402974 0.768052
Si Si2 0.387563 0.899860 0.821789
Si Si3 0.262066 0.599048 0.352415
Si Si4 0.775847 0.765513 0.108798
Si Si5 0.155208 0.898221 0.343066
Si Si6 0.344981 0.203479 0.483622
Si Si7 0.880004 0.778841 0.397798
Si Si8 0.475288 0.363150 0.855535
O O1 0.500000 0.370867 0.500000
O O2 0.305371 0.500000 0.814600
O O3 0.236008 0.329208 0.939100
O O4 0.426017 0.413948 0.811803
O O5 0.336223 0.835868 0.792146
O O6 0.563463 0.884428 0.607415
O O7 0.368197 0.000000 0.805120
O O8 0.289232 0.882261 0.069608
O O9 0.191221 0.500000 0.432177
O O10 0.139493 0.672145 0.561134
O O11 0.386361 0.586991 0.277349
O O12 0.334233 0.637321 0.136927
O O13 0.731155 0.751082 0.301390
O O14 0.945476 0.800623 0.863643
O O15 0.183754 0.832654 0.407211
O O16 0.000000 0.871253 0.500000
O O17 0.149754 0.000000 0.393598
O O18 0.212354 0.183303 0.580306
O O19 0.473210 0.264463 0.248247
#
# Coordination Sequence:
#
# PCOD8059276 Si02
#       8
#     4   4   4   4   4   4   4   4
#     4  11  21  35  60  89 119 161 212 262 303 350
#     4  11  23  41  70  95 120 157 201 254 310 367
#     4  10  21  36  59  88 125 162 203 256 311 368
#     4  12  23  42  60  87 130 167 206 252 305 369
#     4  10  21  42  67  94 123 157 201 249 309 377
#     4  11  23  41  61  92 125 160 211 256 299 363
#     4  11  25  39  64  89 126 170 203 248 315 365
#     4  10  18  37  60  87 119 157 202 260 313 353
#
# _framework density 20.249181
#
# number of rings (size 3 to 8) (size 9 to 14) (size 15 to 20)
#    0.000    1.250    3.750    3.000    0.000    3.500 
#    0.000    1.250    0.000    6.375    0.000    0.000 
#    0.000    0.000    0.000    0.000    0.000    0.000 
#
# Total GULP energy -396820.686844 kJ/mol
# GULP energy per Si atom -12400.646464 kJ/mol
# Density = 2.020309 g / cm^3
# Si number density = 20.249181 Si / 1000 Ang^3
#
#
#
# Elastic Constant Matrix: (Units=GPa)
#
#
# Indices 1 2 3 4 5 6 
#
# 1 128.3287 44.8746 36.4175 0.0000 7.3244 0.0000
# 2 44.8746 97.8624 15.5331 0.0000 -0.8635 0.0000
# 3 36.4175 15.5331 61.4755 0.0000 -0.9373 0.0000
# 4 0.0000 0.0000 0.0000 13.2016 0.0000 -9.2507
# 5 7.3244 -0.8635 -0.9373 0.0000 31.7656 0.0000
# 6 0.0000 0.0000 0.0000 -9.2507 0.0000 -2.1599
#
#
#
# Elastic Compliance Matrix: (Units=1/GPa)
#
#
# Indices 1 2 3 4 5 6 
#
# 1 0.010973 -0.004186 -0.005485 0.000000 -0.002806 0.000000
# 2 -0.004186 0.012243 -0.000594 0.000000 0.001280 0.000000
# 3 -0.005485 -0.000594 0.019694 0.000000 0.001830 0.000000
# 4 0.000000 0.000000 0.000000 0.018932 0.000000 -0.081083
# 5 -0.002806 0.001280 0.001830 0.000000 0.032216 0.000000
# 6 0.000000 0.000000 0.000000 -0.081083 0.000000 -0.115713
#
#
# Mechanical properties :
#
#
# Convention : Reuss Voigt Hill
#
# Bulk Modulus (GPa) = 44.68390 53.47967 49.08179
# Shear Modulus (GPa) = 789.02030 21.28421 405.15225
#
# Velocity S-wave (km/s) = 19.76111 3.24561 14.16043
# Velocity P-wave (km/s) = 23.29771 6.36501 17.07772
#
# Compressibility (1/GPa) = 0.02237942
#
# Stress axis : x y z
#
# Youngs Moduli (GPa) = 91.13273 81.67637 50.77610
#
# Poissons Ratio (x) = 0.34188 0.27853
# Poissons Ratio (y) = 0.38146 0.03018
# Poissons Ratio (z) = 0.49991 0.04855
#
# Static dielectric constant tensor:
#      x y z
#    x 3.726230 0.000000 0.121320 
#    y 0.000000 3.619990 0.000000 
#    z 0.121320 0.000000 3.523730 
# 
# 
# High freq. dielectric constant tensor:
#      x y z
#    x 1.792750 0.000000 0.013290 
#    y 0.000000 1.791960 0.000000 
#    z 0.013290 0.000000 1.779490 
# 
# From -- ./inp_files/54023.got.cif
#   From: 2010.06.25/outbox.cif.g09.slc.cpg/sg10_28_cif.got.tgz:54023.got - 2010.06.27 22:07:45.
