data_PCOD8059820
_publ_section_title
;
Structure prediction by ZEFSAII (Michael W. Deem and Ramdas Pophale) SiO2 
 PCOD8059820
Probable space group: P 2/M
;
_chemical_formula_sum "Si O2"
_cell_formula_units_Z 32
_cell_length_a 7.368067
_cell_length_b 13.388786
_cell_length_c 21.449815
_cell_angle_alpha 90.000000
_cell_angle_beta 110.090408
_cell_angle_gamma 90.000000
_cell_volume 1987.257293
_symmetry_space_group_name_H-M "P 2/M"
_symmetry_group_IT_number 10
_symmetry_cell_setting 'monoclinic'
loop_
_space_group_symop_operation_xyz
x,y,z
-x,y,-z
-x,-y,-z
x,-y,z
loop_
_atom_site_type_symbol
_atom_site_label
_atom_site_fract_x
_atom_site_fract_y
_atom_site_fract_z
Si Si1 0.048235 0.111892 0.841265
Si Si2 0.365704 0.888108 0.158735
Si Si3 0.249313 0.196138 0.749313
Si Si4 0.134276 0.700481 0.924325
Si Si5 0.704070 0.882345 0.500000
Si Si6 0.332320 0.387877 0.832320
Si Si7 0.894593 0.118295 0.394593
Si Si8 0.285627 0.299519 0.075675
O O1 0.100163 0.141382 0.777351
O O2 0.151534 0.185104 0.902800
O O3 0.817977 0.120702 0.817977
O O4 0.119608 0.000000 0.865061
O O5 0.545460 0.858618 0.222649
O O6 0.345933 0.814896 0.097200
O O7 0.389486 0.000000 0.134939
O O8 0.269869 0.312812 0.769869
O O9 0.170635 0.186033 0.670635
O O10 0.200752 0.626589 0.877923
O O11 0.915955 0.672168 0.915954
O O12 0.273801 0.688666 0.000000
O O13 0.500000 0.834405 0.500000
O O14 0.753860 0.850922 0.435052
O O15 0.883757 0.850922 0.564948
O O16 0.685139 0.000000 0.500000
O O17 0.303905 0.500000 0.803905
O O18 0.555094 0.373411 0.877923
O O19 0.878246 0.000000 0.378247
#
# Coordination Sequence:
#
# PCOD8059820 Si02
#       8
#     4   4   4   4   4   4   4   4
#     4   9  17  28  42  62  89 119 147 176 215 263
#     4   9  17  28  42  62  89 119 147 176 215 263
#     4  10  19  31  45  63  89 117 150 187 217 254
#     4   9  18  31  46  65  86 109 143 185 227 274
#     4   8  15  27  42  65  97 125 146 167 191 229
#     4  10  21  35  48  62  83 111 145 190 238 274
#     4   9  16  26  43  67  93 121 147 168 198 241
#     4   9  18  31  46  65  86 109 143 185 227 274
#
# _framework density 16.102595999999998
#
# number of rings (size 3 to 8) (size 9 to 14) (size 15 to 20)
#    0.000    2.875    0.000    2.250    0.000    3.000 
#    0.000    6.250    0.000    4.500    0.000    1.750 
#    0.000    1.000    0.000    0.000    0.000    0.000 
#
# Total GULP energy -396706.508098 kJ/mol
# GULP energy per Si atom -12397.078378 kJ/mol
# Density = 1.606595 g / cm^3
# Si number density = 16.102596 Si / 1000 Ang^3
#
#
#
# Elastic Constant Matrix: (Units=GPa)
#
#
# Indices 1 2 3 4 5 6 
#
# 1 95.1938 29.1949 42.6078 0.0000 1.3904 0.0000
# 2 29.1949 90.4485 32.4547 0.0000 -0.2162 0.0000
# 3 42.6078 32.4547 110.3738 0.0000 -2.3978 0.0000
# 4 0.0000 0.0000 0.0000 13.9916 0.0000 0.0783
# 5 1.3904 -0.2162 -2.3978 0.0000 16.0725 0.0000
# 6 0.0000 0.0000 0.0000 0.0783 0.0000 15.1713
#
#
#
# Elastic Compliance Matrix: (Units=1/GPa)
#
#
# Indices 1 2 3 4 5 6 
#
# 1 0.013332 -0.002735 -0.004382 0.000000 -0.001844 0.000000
# 2 -0.002735 0.012924 -0.002744 0.000000 0.000001 0.000000
# 3 -0.004382 -0.002744 0.011604 0.000000 0.002073 0.000000
# 4 0.000000 0.000000 0.000000 0.071474 0.000000 -0.000369
# 5 -0.001844 0.000001 0.002073 0.000000 0.062687 0.000000
# 6 0.000000 0.000000 0.000000 -0.000369 0.000000 0.065916
#
#
# Mechanical properties :
#
#
# Convention : Reuss Voigt Hill
#
# Bulk Modulus (GPa) = 55.13934 56.05901 55.59917
# Shear Modulus (GPa) = 18.96055 21.83097 20.39576
#
# Velocity S-wave (km/s) = 3.43517 3.68603 3.56281
# Velocity P-wave (km/s) = 7.07465 7.28046 7.17829
#
# Compressibility (1/GPa) = 0.01813587
#
# Stress axis : x y z
#
# Youngs Moduli (GPa) = 75.00616 77.37803 86.17843
#
# Poissons Ratio (x) = 0.21165 0.37767
# Poissons Ratio (y) = 0.20516 0.23649
# Poissons Ratio (z) = 0.32871 0.21234
#
# Static dielectric constant tensor:
#      x y z
#    x 3.406860 0.000000 0.039050 
#    y 0.000000 2.824890 0.000000 
#    z 0.039050 0.000000 2.818590 
# 
# 
# High freq. dielectric constant tensor:
#      x y z
#    x 1.638900 0.000000 0.002870 
#    y 0.000000 1.587770 0.000000 
#    z 0.002870 0.000000 1.595690 
# 
# From -- ./inp_files/87955.got.cif
#   From: 2010.06.25/outbox.cif.g09.slc.cpg/sg10_44_cif.got.tgz:87955.got - 2010.06.27 22:07:45.
