data_PCOD8059927
_publ_section_title
;
Structure prediction by ZEFSAII (Michael W. Deem and Ramdas Pophale) SiO2 
 PCOD8059927
Probable space group: P 2/M
;
_chemical_formula_sum "Si O2"
_cell_formula_units_Z 32
_cell_length_a 19.062649
_cell_length_b 9.139623
_cell_length_c 17.813107
_cell_angle_alpha 90.000000
_cell_angle_beta 35.873224
_cell_angle_gamma 90.000000
_cell_volume 1818.629300
_symmetry_space_group_name_H-M "P 2/M"
_symmetry_group_IT_number 10
_symmetry_cell_setting 'monoclinic'
loop_
_space_group_symop_operation_xyz
x,y,z
-x,y,-z
-x,-y,-z
x,-y,z
loop_
_atom_site_type_symbol
_atom_site_label
_atom_site_fract_x
_atom_site_fract_y
_atom_site_fract_z
Si Si1 0.044572 0.671347 0.882318
Si Si2 0.769141 0.161366 0.361207
Si Si3 0.585368 0.166582 0.630940
Si Si4 0.363063 0.168161 0.912501
Si Si5 0.071550 0.834636 0.628312
Si Si6 0.520490 0.669293 0.896793
Si Si7 0.115448 0.327213 0.119819
Si Si8 0.738093 0.667550 0.614189
O O1 0.057856 0.500000 0.877689
O O2 0.177442 0.729908 0.747142
O O3 0.950876 0.717913 0.899604
O O4 0.000000 0.738294 0.000000
O O5 0.630139 0.194232 0.505626
O O6 0.841072 0.174965 0.376610
O O7 0.782034 0.000000 0.315455
O O8 0.442593 0.180396 0.766936
O O9 0.645758 0.289465 0.629312
O O10 0.625842 0.000000 0.619038
O O11 0.438457 0.225557 0.917848
O O12 0.326194 0.000000 0.959423
O O13 0.248357 0.267091 0.999045
O O14 0.140688 0.764086 0.496652
O O15 0.951327 0.744378 0.750973
O O16 0.035427 0.000000 0.639587
O O17 0.484740 0.500000 0.912865
O O18 0.662845 0.692155 0.756242
O O19 0.500000 0.714825 0.000000
O O20 0.117649 0.500000 0.129471
O O21 0.776816 0.500000 0.570028
#
# Coordination Sequence:
#
# PCOD8059927 Si02
#       8
#     4   4   4   4   4   4   4   4
#     4   9  18  31  46  66  92 120 150 187 230 274
#     4   8  14  25  42  64  87 112 146 186 224 263
#     4   8  15  27  42  62  89 118 148 186 227 266
#     4  10  19  31  48  70  96 124 154 189 231 276
#     4   9  16  27  43  64  91 119 149 188 231 271
#     4   9  18  32  49  70  97 127 157 189 226 270
#     4  10  19  31  48  69  93 121 154 191 231 276
#     4   9  15  24  42  67  91 116 150 189 226 264
#
# _framework density 17.595670999999999
#
# number of rings (size 3 to 8) (size 9 to 14) (size 15 to 20)
#    0.000    3.000    0.000    2.250    0.000    5.000 
#    0.000    0.000    0.000    1.500    0.000   10.500 
#    0.000    0.000    0.000    0.000    0.000    0.000 
#
# Total GULP energy -396510.505190 kJ/mol
# GULP energy per Si atom -12390.953287 kJ/mol
# Density = 1.755562 g / cm^3
# Si number density = 17.595671 Si / 1000 Ang^3
#
#
#
# Elastic Constant Matrix: (Units=GPa)
#
#
# Indices 1 2 3 4 5 6 
#
# 1 30.4026 25.3137 40.5545 0.0000 7.2961 0.0000
# 2 25.3137 77.9035 58.7918 0.0000 3.6889 0.0000
# 3 40.5545 58.7918 167.6428 0.0000 13.8255 0.0000
# 4 0.0000 0.0000 0.0000 35.2711 0.0000 -0.9796
# 5 7.2961 3.6889 13.8255 0.0000 24.3355 0.0000
# 6 0.0000 0.0000 0.0000 -0.9796 0.0000 14.0399
#
#
#
# Elastic Compliance Matrix: (Units=1/GPa)
#
#
# Indices 1 2 3 4 5 6 
#
# 1 0.056523 -0.011150 -0.008923 0.000000 -0.010187 0.000000
# 2 -0.011150 0.019674 -0.004440 0.000000 0.002883 0.000000
# 3 -0.008923 -0.004440 0.009867 0.000000 -0.002257 0.000000
# 4 0.000000 0.000000 0.000000 0.028407 0.000000 0.001982
# 5 -0.010187 0.002883 -0.002257 0.000000 0.044992 0.000000
# 6 0.000000 0.000000 0.000000 0.001982 0.000000 0.071364
#
#
# Mechanical properties :
#
#
# Convention : Reuss Voigt Hill
#
# Bulk Modulus (GPa) = 26.99979 58.36321 42.68150
# Shear Modulus (GPa) = 17.11171 24.81522 20.96347
#
# Velocity S-wave (km/s) = 3.12187 3.75947 3.45541
# Velocity P-wave (km/s) = 5.32660 7.21706 6.34266
#
# Compressibility (1/GPa) = 0.03703733
#
# Stress axis : x y z
#
# Youngs Moduli (GPa) = 17.69200 50.82954 101.34905
#
# Poissons Ratio (x) = 0.56674 0.90435
# Poissons Ratio (y) = 0.19726 0.44999
# Poissons Ratio (z) = 0.15787 0.22568
#
# Static dielectric constant tensor:
#      x y z
#    x 2.689130 0.000000 0.186920 
#    y 0.000000 3.335660 0.000000 
#    z 0.186920 0.000000 3.835000 
# 
# 
# High freq. dielectric constant tensor:
#      x y z
#    x 1.601470 0.000000 0.011900 
#    y 0.000000 1.689590 0.000000 
#    z 0.011900 0.000000 1.707810 
# 
# From -- ./inp_files/56428.got.cif
#   From: 2010.06.25/outbox.cif.g09.slc.cpg/sg10_29_cif.got.tgz:56428.got - 2010.06.27 22:07:45.
