data_PCOD8059880
_publ_section_title
;
Structure prediction by ZEFSAII (Michael W. Deem and Ramdas Pophale) SiO2 
 PCOD8059880
Probable space group: P 2/M
;
_chemical_formula_sum "Si O2"
_cell_formula_units_Z 28
_cell_length_a 18.902109
_cell_length_b 9.114394
_cell_length_c 14.379238
_cell_angle_alpha 90.000000
_cell_angle_beta 40.181856
_cell_angle_gamma 90.000000
_cell_volume 1598.375874
_symmetry_space_group_name_H-M "P 2/M"
_symmetry_group_IT_number 10
_symmetry_cell_setting 'monoclinic'
loop_
_space_group_symop_operation_xyz
x,y,z
-x,y,-z
-x,-y,-z
x,-y,z
loop_
_atom_site_type_symbol
_atom_site_label
_atom_site_fract_x
_atom_site_fract_y
_atom_site_fract_z
Si Si1 0.117712 0.667642 0.205221
Si Si2 0.494383 0.827655 0.899586
Si Si3 0.485803 0.671737 0.408841
Si Si4 0.871189 0.326953 0.441466
Si Si5 0.128613 0.837996 0.373905
Si Si6 0.344601 0.333215 0.912589
Si Si7 0.671011 0.172810 0.569886
O O1 0.106883 0.500000 0.250711
O O2 0.164865 0.763737 0.242112
O O3 0.997500 0.717069 0.289724
O O4 0.212548 0.686378 0.032044
O O5 0.389163 0.761294 0.953752
O O6 0.603838 0.785879 0.731352
O O7 0.476685 0.000000 0.918927
O O8 0.500000 0.766891 0.000000
O O9 0.500000 0.724598 0.500000
O O10 0.456357 0.500000 0.433084
O O11 0.598850 0.709562 0.241526
O O12 0.388460 0.764118 0.461079
O O13 0.852288 0.500000 0.456373
O O14 0.837145 0.267437 0.576772
O O15 0.790900 0.247177 0.449954
O O16 0.000000 0.857688 0.500000
O O17 0.183960 0.000000 0.329596
O O18 0.373253 0.500000 0.909471
O O19 0.684754 0.000000 0.545010
#
# Coordination Sequence:
#
# PCOD8059880 Si02
#       7
#     4   4   4   4   4   4   4
#     4   9  18  31  46  68  98 132 166 203 242 283
#     4   9  19  33  46  65  96 131 162 198 243 287
#     4   9  18  35  58  79  98 122 156 202 254 304
#     4  10  19  31  47  67  98 134 168 203 240 283
#     4   9  17  28  42  62  90 129 173 206 233 271
#     4   9  18  32  50  74  98 123 162 202 242 294
#     4  10  20  33  50  74 101 128 164 204 245 293
#
# _framework density 17.517783000000001
#
# number of rings (size 3 to 8) (size 9 to 14) (size 15 to 20)
#    0.000    2.714    0.000    1.286    2.000    4.000 
#    0.000    0.000    0.000    0.857    0.000    6.000 
#    0.000    0.000    0.000    0.000    0.000    0.000 
#
# Total GULP energy -347063.343006 kJ/mol
# GULP energy per Si atom -12395.119393 kJ/mol
# Density = 1.747791 g / cm^3
# Si number density = 17.517783 Si / 1000 Ang^3
#
#
#
# Elastic Constant Matrix: (Units=GPa)
#
#
# Indices 1 2 3 4 5 6 
#
# 1 119.3862 49.4327 71.2562 0.0000 -1.4943 0.0000
# 2 49.4327 67.9072 35.5298 0.0000 -5.9334 0.0000
# 3 71.2562 35.5298 95.4328 0.0000 -8.8497 0.0000
# 4 0.0000 0.0000 0.0000 16.5096 0.0000 -0.3205
# 5 -1.4943 -5.9334 -8.8497 0.0000 29.7027 0.0000
# 6 0.0000 0.0000 0.0000 -0.3205 0.0000 22.5444
#
#
#
# Elastic Compliance Matrix: (Units=1/GPa)
#
#
# Indices 1 2 3 4 5 6 
#
# 1 0.018102 -0.007771 -0.010986 0.000000 -0.003915 0.000000
# 2 -0.007771 0.021706 -0.001967 0.000000 0.003359 0.000000
# 3 -0.010986 -0.001967 0.019875 0.000000 0.004976 0.000000
# 4 0.000000 0.000000 0.000000 0.060588 0.000000 0.000861
# 5 -0.003915 0.003359 0.004976 0.000000 0.035624 0.000000
# 6 0.000000 0.000000 0.000000 0.000861 0.000000 0.044369
#
#
# Mechanical properties :
#
#
# Convention : Reuss Voigt Hill
#
# Bulk Modulus (GPa) = 54.84153 66.12929 60.48541
# Shear Modulus (GPa) = 20.17845 22.18518 21.18181
#
# Velocity S-wave (km/s) = 3.39762 3.56256 3.48107
# Velocity P-wave (km/s) = 6.83856 7.39961 7.12461
#
# Compressibility (1/GPa) = 0.01823436
#
# Stress axis : x y z
#
# Youngs Moduli (GPa) = 55.24302 46.07074 50.31450
#
# Poissons Ratio (x) = 0.35803 0.55274
# Poissons Ratio (y) = 0.42931 0.09897
# Poissons Ratio (z) = 0.60688 0.09062
#
# Static dielectric constant tensor:
#      x y z
#    x 3.088290 0.000000 -0.125620 
#    y 0.000000 3.338090 0.000000 
#    z -0.125620 0.000000 3.297520 
# 
# 
# High freq. dielectric constant tensor:
#      x y z
#    x 1.651630 0.000000 -0.020540 
#    y 0.000000 1.681980 0.000000 
#    z -0.020540 0.000000 1.666170 
# 
# From -- ./inp_files/54992.got.cif
#   From: 2010.06.25/outbox.cif.g09.slc.cpg/sg10_28_cif.got.tgz:54992.got - 2010.06.27 22:07:45.
