data_PCOD8059235
_publ_section_title
;
Structure prediction by ZEFSAII (Michael W. Deem and Ramdas Pophale) SiO2 
 PCOD8059235
Probable space group: P 2/M
;
_chemical_formula_sum "Si O2"
_cell_formula_units_Z 28
_cell_length_a 10.031502
_cell_length_b 9.202987
_cell_length_c 29.558395
_cell_angle_alpha 90.000000
_cell_angle_beta 146.020913
_cell_angle_gamma 90.000000
_cell_volume 1525.113508
_symmetry_space_group_name_H-M "P 2/M"
_symmetry_group_IT_number 10
_symmetry_cell_setting 'monoclinic'
loop_
_space_group_symop_operation_xyz
x,y,z
-x,y,-z
-x,-y,-z
x,-y,z
loop_
_atom_site_type_symbol
_atom_site_label
_atom_site_fract_x
_atom_site_fract_y
_atom_site_fract_z
Si Si1 0.616815 0.329963 0.762782
Si Si2 0.921155 0.168254 0.253481
Si Si3 0.357971 0.334851 0.334732
Si Si4 0.144855 0.328260 0.919395
Si Si5 0.881079 0.332928 0.512770
Si Si6 0.164716 0.831331 0.667374
Si Si7 0.597180 0.328060 0.098095
O O1 0.582955 0.500000 0.763210
O O2 0.583784 0.295936 0.700597
O O3 0.422713 0.241871 0.736087
O O4 0.876442 0.273260 0.852638
O O5 0.933797 0.195391 0.310319
O O6 0.685836 0.247634 0.167956
O O7 0.160420 0.229255 0.298729
O O8 0.901623 0.000000 0.235867
O O9 0.261652 0.500000 0.310552
O O10 0.597032 0.315279 0.431047
O O11 0.147443 0.500000 0.916873
O O12 0.236301 0.273397 0.896361
O O13 0.324277 0.279815 0.010023
O O14 0.957382 0.500000 0.542229
O O15 0.000000 0.275999 0.500000
O O16 0.972984 0.238079 0.579964
O O17 0.191198 0.000000 0.663309
O O18 0.614317 0.500000 0.110530
#
# Coordination Sequence:
#
# PCOD8059235 Si02
#       7
#     4   4   4   4   4   4   4
#     4  10  18  35  60  86 111 140 183 234 279 324
#     4  11  24  39  53  78 118 155 187 223 269 328
#     4  10  20  36  62  87 108 139 183 232 280 327
#     4   8  15  29  56  88 111 135 177 234 282 321
#     4  10  20  38  61  86 111 137 180 235 281 324
#     4  11  25  40  54  78 115 156 188 220 272 332
#     4   9  16  32  57  83 111 143 181 228 278 326
#
# _framework density 18.359287999999999
#
# number of rings (size 3 to 8) (size 9 to 14) (size 15 to 20)
#    0.000    2.143    2.857    1.714    0.000    4.286 
#    0.000    5.714    0.000    4.286    0.000    0.000 
#    0.000    0.000    0.000    0.000    0.000    0.000 
#
# Total GULP energy -347208.588192 kJ/mol
# GULP energy per Si atom -12400.306721 kJ/mol
# Density = 1.831750 g / cm^3
# Si number density = 18.359288 Si / 1000 Ang^3
#
#
#
# Elastic Constant Matrix: (Units=GPa)
#
#
# Indices 1 2 3 4 5 6 
#
# 1 44.6398 36.0423 23.7862 0.0000 -0.2299 0.0000
# 2 36.0423 76.4199 43.7276 0.0000 -6.9964 0.0000
# 3 23.7862 43.7276 112.9232 0.0000 1.5591 0.0000
# 4 0.0000 0.0000 0.0000 -0.5749 0.0000 -3.8855
# 5 -0.2299 -6.9964 1.5591 0.0000 27.5852 0.0000
# 6 0.0000 0.0000 0.0000 -3.8855 0.0000 26.7898
#
#
#
# Elastic Compliance Matrix: (Units=1/GPa)
#
#
# Indices 1 2 3 4 5 6 
#
# 1 0.036741 -0.017078 -0.001071 0.000000 -0.003965 0.000000
# 2 -0.017078 0.025363 -0.006316 0.000000 0.006647 0.000000
# 3 -0.001071 -0.006316 0.011558 0.000000 -0.002264 0.000000
# 4 0.000000 0.000000 0.000000 -0.878388 0.000000 -0.127398
# 5 -0.003965 0.006647 -0.002264 0.000000 0.038032 0.000000
# 6 0.000000 0.000000 0.000000 -0.127398 0.000000 0.018850
#
#
# Mechanical properties :
#
#
# Convention : Reuss Voigt Hill
#
# Bulk Modulus (GPa) = 40.43427 49.01058 44.72242
# Shear Modulus (GPa) = -7.23935 19.45513 6.10789
#
# Velocity S-wave (km/s) = -1.98789 3.25882 1.82595
# Velocity P-wave (km/s) = 4.09911 6.39633 5.37195
#
# Compressibility (1/GPa) = 0.02473150
#
# Stress axis : x y z
#
# Youngs Moduli (GPa) = 27.21752 39.42777 86.51945
#
# Poissons Ratio (x) = 0.67337 0.09267
# Poissons Ratio (y) = 0.46483 0.54643
# Poissons Ratio (z) = 0.02915 0.24901
#
# Static dielectric constant tensor:
#      x y z
#    x 3.212550 0.000000 0.148320 
#    y 0.000000 3.185480 0.000000 
#    z 0.148320 0.000000 3.742580 
# 
# 
# High freq. dielectric constant tensor:
#      x y z
#    x 1.693140 0.000000 0.008550 
#    y 0.000000 1.691010 0.000000 
#    z 0.008550 0.000000 1.730860 
# 
# From -- ./inp_files/37267.got.cif
#   From: 2010.06.25/outbox.cif.g09.slc.cpg/sg10_19_cif.got.tgz:37267.got - 2010.06.27 22:07:45.
