data_PCOD8059784
_publ_section_title
;
Structure prediction by ZEFSAII (Michael W. Deem and Ramdas Pophale) SiO2 
 PCOD8059784
Probable space group: P 2/M
;
_chemical_formula_sum "Si O2"
_cell_formula_units_Z 24
_cell_length_a 11.365319
_cell_length_b 12.180367
_cell_length_c 25.594547
_cell_angle_alpha 90.000000
_cell_angle_beta 157.920727
_cell_angle_gamma 90.000000
_cell_volume 1331.831065
_symmetry_space_group_name_H-M "P 2/M"
_symmetry_group_IT_number 10
_symmetry_cell_setting 'monoclinic'
loop_
_space_group_symop_operation_xyz
x,y,z
-x,y,-z
-x,-y,-z
x,-y,z
loop_
_atom_site_type_symbol
_atom_site_label
_atom_site_fract_x
_atom_site_fract_y
_atom_site_fract_z
Si Si1 0.285862 0.731375 0.251002
Si Si2 0.576763 0.877260 0.193685
Si Si3 0.537228 0.500000 0.360999
Si Si4 0.323987 0.312706 0.146793
Si Si5 0.320499 0.874555 0.978777
Si Si6 0.863062 0.872942 0.499626
Si Si7 0.239713 0.500000 0.666928
O O1 0.327278 0.606296 0.289412
O O2 0.344447 0.728537 0.213850
O O3 0.553494 0.806151 0.386660
O O4 0.953082 0.784593 0.127914
O O5 0.316001 0.795447 0.107841
O O6 0.576845 0.864328 0.130886
O O7 0.905476 0.848797 0.356756
O O8 0.477409 0.000000 0.168954
O O9 0.642315 0.500000 0.344176
O O10 0.871613 0.500000 0.528348
O O11 0.612086 0.389917 0.247685
O O12 0.000000 0.375638 0.000000
O O13 0.186374 0.000000 0.922380
O O14 0.500000 0.845481 0.000000
O O15 0.000000 0.832113 0.500000
O O16 0.773705 0.000000 0.458598
#
# Coordination Sequence:
#
# PCOD8059784 Si02
#       7
#     4   4   2   4   4   4   2
#     4  11  20  34  55  79 112 142 182 219 267 325
#     4  10  20  33  51  79 113 140 173 220 271 325
#     4   9  20  32  51  77 107 148 178 215 265 322
#     4  11  19  30  49  81 112 144 177 214 267 324
#     4  10  22  40  58  76 104 145 188 229 271 313
#     4  10  19  30  50  82 114 142 172 212 269 331
#     4   9  19  32  48  73 117 149 171 207 264 330
#
# _framework density 18.020303999999999
#
# number of rings (size 3 to 8) (size 9 to 14) (size 15 to 20)
#    0.000    1.833    3.333    1.750    2.333    1.000 
#    0.000    1.250    0.000    4.000    0.000    2.333 
#    0.000    0.000    0.000    0.000    0.000    0.000 
#
# Total GULP energy -297442.222118 kJ/mol
# GULP energy per Si atom -12393.425922 kJ/mol
# Density = 1.797929 g / cm^3
# Si number density = 18.020304 Si / 1000 Ang^3
#
#
#
# Elastic Constant Matrix: (Units=GPa)
#
#
# Indices 1 2 3 4 5 6 
#
# 1 71.8577 44.4165 40.1073 0.0000 -6.2794 0.0000
# 2 44.4165 115.6612 59.5440 0.0000 3.8903 0.0000
# 3 40.1073 59.5440 120.5564 0.0000 -10.2082 0.0000
# 4 0.0000 0.0000 0.0000 32.4352 0.0000 9.8867
# 5 -6.2794 3.8903 -10.2082 0.0000 16.8438 0.0000
# 6 0.0000 0.0000 0.0000 9.8867 0.0000 12.7016
#
#
#
# Elastic Compliance Matrix: (Units=1/GPa)
#
#
# Indices 1 2 3 4 5 6 
#
# 1 0.020188 -0.006514 -0.002882 0.000000 0.007284 0.000000
# 2 -0.006514 0.014408 -0.005731 0.000000 -0.009229 0.000000
# 3 -0.002882 -0.005731 0.012760 0.000000 0.007982 0.000000
# 4 0.000000 0.000000 0.000000 0.040421 0.000000 -0.031463
# 5 0.007284 -0.009229 0.007982 0.000000 0.069054 0.000000
# 6 0.000000 0.000000 0.000000 -0.031463 0.000000 0.103221
#
#
# Mechanical properties :
#
#
# Convention : Reuss Voigt Hill
#
# Bulk Modulus (GPa) = 58.47066 66.24565 62.35815
# Shear Modulus (GPa) = 16.89155 23.32994 20.11075
#
# Velocity S-wave (km/s) = 3.06496 3.60202 3.34429
# Velocity P-wave (km/s) = 6.71140 7.35805 7.04215
#
# Compressibility (1/GPa) = 0.01710259
#
# Stress axis : x y z
#
# Youngs Moduli (GPa) = 49.53464 69.40559 78.36902
#
# Poissons Ratio (x) = 0.45209 0.22588
# Poissons Ratio (y) = 0.32266 0.44911
# Poissons Ratio (z) = 0.14277 0.39775
#
# Static dielectric constant tensor:
#      x y z
#    x 2.880430 0.000000 -0.211840 
#    y 0.000000 3.582790 0.000000 
#    z -0.211840 0.000000 3.508340 
# 
# 
# High freq. dielectric constant tensor:
#      x y z
#    x 1.635700 0.000000 -0.016900 
#    y 0.000000 1.713110 0.000000 
#    z -0.016900 0.000000 1.710620 
# 
# From -- ./inp_files/88044.got.cif
#   From: 2010.06.25/outbox.cif.g09.slc.cpg/sg10_45_cif.got.tgz:88044.got - 2010.06.27 22:07:45.
