data_PCOD8059495
_publ_section_title
;
Structure prediction by ZEFSAII (Michael W. Deem and Ramdas Pophale) SiO2 
 PCOD8059495
Probable space group: P 2/M
;
_chemical_formula_sum "Si O2"
_cell_formula_units_Z 32
_cell_length_a 23.859551
_cell_length_b 8.864684
_cell_length_c 34.912896
_cell_angle_alpha 90.000000
_cell_angle_beta 164.086658
_cell_angle_gamma 90.000000
_cell_volume 2024.660379
_symmetry_space_group_name_H-M "P 2/M"
_symmetry_group_IT_number 10
_symmetry_cell_setting 'monoclinic'
loop_
_space_group_symop_operation_xyz
x,y,z
-x,y,-z
-x,-y,-z
x,-y,z
loop_
_atom_site_type_symbol
_atom_site_label
_atom_site_fract_x
_atom_site_fract_y
_atom_site_fract_z
Si Si1 0.465556 0.325373 0.302940
Si Si2 0.641441 0.825909 0.207161
Si Si3 0.266204 0.177461 0.099239
Si Si4 0.901582 0.332310 0.893541
Si Si5 0.520772 0.322578 0.201335
Si Si6 0.898290 0.671396 0.566577
Si Si7 0.351847 0.325092 0.869885
Si Si8 0.890125 0.172245 0.483031
O O1 0.412210 0.500000 0.259065
O O2 0.406537 0.232826 0.226360
O O3 0.333071 0.275002 0.253322
O O4 0.708115 0.303896 0.470898
O O5 0.497797 0.738478 0.142860
O O6 0.606074 0.760877 0.141772
O O7 0.875173 0.804693 0.374951
O O8 0.579304 0.000000 0.165642
O O9 0.345225 0.248871 0.111837
O O10 0.283200 0.000000 0.107329
O O11 0.028118 0.222842 0.948792
O O12 0.904670 0.500000 0.877567
O O13 0.000000 0.332140 0.000000
O O14 0.490400 0.500000 0.181778
O O15 0.746385 0.281702 0.364488
O O16 0.891933 0.500000 0.545941
O O17 0.867680 0.790024 0.512778
O O18 0.117892 0.699820 0.730708
O O19 0.399336 0.500000 0.893748
O O20 0.500000 0.258984 0.000000
O O21 0.819483 0.000000 0.429885
#
# Coordination Sequence:
#
# PCOD8059495 Si02
#       8
#     4   4   4   4   4   4   4   4
#     4   9  16  27  42  60  84 116 153 188 219 258
#     4  10  21  34  47  65  88 113 147 186 225 265
#     4  11  20  28  40  59  85 117 152 186 222 258
#     4   8  15  27  40  55  80 114 151 186 219 256
#     4  12  22  31  44  61  86 119 153 184 218 262
#     4   9  16  27  45  66  88 119 153 183 220 262
#     4   9  18  33  51  70  92 117 148 185 223 265
#     4  10  19  30  43  62  88 116 146 185 223 256
#
# _framework density 15.805120000000001
#
# number of rings (size 3 to 8) (size 9 to 14) (size 15 to 20)
#    0.000    2.250    1.250    4.125    0.000    5.500 
#    0.000    0.000    0.000    0.000    0.000    0.000 
#    0.000    1.000    0.000   11.750    0.000    2.250 
#
# Total GULP energy -396630.295172 kJ/mol
# GULP energy per Si atom -12394.696724 kJ/mol
# Density = 1.576915 g / cm^3
# Si number density = 15.805120 Si / 1000 Ang^3
#
#
#
# Elastic Constant Matrix: (Units=GPa)
#
#
# Indices 1 2 3 4 5 6 
#
# 1 102.1650 52.8465 57.6750 0.0000 24.6881 0.0000
# 2 52.8465 96.9175 32.3700 0.0000 11.8903 0.0000
# 3 57.6750 32.3700 75.4450 0.0000 15.0927 0.0000
# 4 0.0000 0.0000 0.0000 13.2638 0.0000 3.0733
# 5 24.6881 11.8903 15.0927 0.0000 22.3297 0.0000
# 6 0.0000 0.0000 0.0000 3.0733 0.0000 14.7323
#
#
#
# Elastic Compliance Matrix: (Units=1/GPa)
#
#
# Indices 1 2 3 4 5 6 
#
# 1 0.023919 -0.007164 -0.012355 0.000000 -0.014280 0.000000
# 2 -0.007164 0.014414 -0.000875 0.000000 0.000837 0.000000
# 3 -0.012355 -0.000875 0.023415 0.000000 -0.001701 0.000000
# 4 0.000000 0.000000 0.000000 0.079223 0.000000 -0.016527
# 5 -0.014280 0.000837 -0.001701 0.000000 0.061275 0.000000
# 6 0.000000 0.000000 0.000000 -0.016527 0.000000 0.071326
#
#
# Mechanical properties :
#
#
# Convention : Reuss Voigt Hill
#
# Bulk Modulus (GPa) = 47.70935 62.25672 54.98303
# Shear Modulus (GPa) = 15.55946 18.84089 17.20018
#
# Velocity S-wave (km/s) = 3.14101 3.45639 3.30247
# Velocity P-wave (km/s) = 6.58833 7.44342 7.02889
#
# Compressibility (1/GPa) = 0.02096025
#
# Stress axis : x y z
#
# Youngs Moduli (GPa) = 41.80721 69.37668 42.70710
#
# Poissons Ratio (x) = 0.49702 0.52764
# Poissons Ratio (y) = 0.29951 0.03737
# Poissons Ratio (z) = 0.51653 0.06071
#
# Static dielectric constant tensor:
#      x y z
#    x 3.064580 0.000000 0.431960 
#    y 0.000000 3.034850 0.000000 
#    z 0.431960 0.000000 3.002320 
# 
# 
# High freq. dielectric constant tensor:
#      x y z
#    x 1.590940 0.000000 0.038540 
#    y 0.000000 1.613920 0.000000 
#    z 0.038540 0.000000 1.568070 
# 
# From -- ./inp_files/95669.got.cif
#   From: 2010.06.25/outbox.cif.g09.slc.cpg/sg10_48_cif.got.tgz:95669.got - 2010.06.27 22:07:45.
