data_PCOD8059928
_publ_section_title
;
Structure prediction by ZEFSAII (Michael W. Deem and Ramdas Pophale) SiO2 
 PCOD8059928
Probable space group: P 2/M
;
_chemical_formula_sum "Si O2"
_cell_formula_units_Z 32
_cell_length_a 27.532839
_cell_length_b 9.207964
_cell_length_c 22.329523
_cell_angle_alpha 90.000000
_cell_angle_beta 18.601093
_cell_angle_gamma 90.000000
_cell_volume 1805.734738
_symmetry_space_group_name_H-M "P 2/M"
_symmetry_group_IT_number 10
_symmetry_cell_setting 'monoclinic'
loop_
_space_group_symop_operation_xyz
x,y,z
-x,y,-z
-x,-y,-z
x,-y,z
loop_
_atom_site_type_symbol
_atom_site_label
_atom_site_fract_x
_atom_site_fract_y
_atom_site_fract_z
Si Si1 0.654357 0.836873 0.357490
Si Si2 0.803297 0.660387 0.088086
Si Si3 0.499042 0.336820 0.366558
Si Si4 0.677157 0.160019 0.807669
Si Si5 0.731282 0.330777 0.631871
Si Si6 0.672458 0.829309 0.067031
Si Si7 0.949512 0.330945 0.798908
Si Si8 0.434975 0.830708 0.938857
O O1 0.500000 0.835161 0.500000
O O2 0.791822 0.770776 0.157018
O O3 0.635934 0.743154 0.439495
O O4 0.699654 0.000000 0.322406
O O5 0.838019 0.500000 0.073288
O O6 0.646022 0.657346 0.236189
O O7 0.932714 0.708926 0.889209
O O8 0.446038 0.500000 0.411610
O O9 0.537189 0.247090 0.262179
O O10 0.759678 0.269792 0.665868
O O11 0.751070 0.000000 0.713577
O O12 0.500000 0.153393 0.000000
O O13 0.685164 0.211994 0.867807
O O14 0.698168 0.500000 0.676398
O O15 0.591049 0.257573 0.761890
O O16 0.879167 0.296510 0.419758
O O17 0.645778 0.794388 0.028836
O O18 0.669435 0.000000 0.084855
O O19 0.837083 0.766003 0.890669
O O20 0.906101 0.500000 0.839702
O O21 0.477887 0.000000 0.894488
#
# Coordination Sequence:
#
# PCOD8059928 Si02
#       8
#     4   4   4   4   4   4   4   4
#     4   9  15  22  35  58  85 112 149 192 224 260
#     4   8  14  25  39  55  82 119 150 180 224 272
#     4   9  16  26  40  59  87 121 151 183 229 277
#     4   8  15  30  49  67  91 121 152 190 233 273
#     4  10  19  31  50  74  95 119 155 194 230 273
#     4  10  19  31  48  69  93 123 158 193 230 274
#     4   9  19  33  46  66  98 128 153 187 233 281
#     4   9  19  34  50  70  95 122 154 192 233 277
#
# _framework density 17.721316999999999
#
# number of rings (size 3 to 8) (size 9 to 14) (size 15 to 20)
#    0.000    3.000    0.000    3.000    0.000    8.750 
#    0.000    0.625    0.000    3.750    0.000    0.875 
#    0.000    7.000    0.000    0.000    0.000    0.000 
#
# Total GULP energy -396656.758969 kJ/mol
# GULP energy per Si atom -12395.523718 kJ/mol
# Density = 1.768098 g / cm^3
# Si number density = 17.721317 Si / 1000 Ang^3
#
#
#
# Elastic Constant Matrix: (Units=GPa)
#
#
# Indices 1 2 3 4 5 6 
#
# 1 8.0164 12.6405 5.9055 0.0000 2.4645 0.0000
# 2 12.6405 98.6476 39.5246 0.0000 7.4354 0.0000
# 3 5.9055 39.5246 78.9219 0.0000 20.0996 0.0000
# 4 0.0000 0.0000 0.0000 22.5919 0.0000 12.2111
# 5 2.4645 7.4354 20.0996 0.0000 17.9002 0.0000
# 6 0.0000 0.0000 0.0000 12.2111 0.0000 19.5276
#
#
#
# Elastic Compliance Matrix: (Units=1/GPa)
#
#
# Indices 1 2 3 4 5 6 
#
# 1 0.159855 -0.020169 0.002256 0.000000 -0.016164 0.000000
# 2 -0.020169 0.015314 -0.007349 0.000000 0.004668 0.000000
# 3 0.002256 -0.007349 0.021685 0.000000 -0.021608 0.000000
# 4 0.000000 0.000000 0.000000 0.066863 0.000000 -0.041811
# 5 -0.016164 0.004668 -0.021608 0.000000 0.080415 0.000000
# 6 0.000000 0.000000 0.000000 -0.041811 0.000000 0.077355
#
#
# Mechanical properties :
#
#
# Convention : Reuss Voigt Hill
#
# Bulk Modulus (GPa) = 6.83383 33.52522 20.17953
# Shear Modulus (GPa) = 9.60083 20.50496 15.05289
#
# Velocity S-wave (km/s) = 2.33011 3.40528 2.91765
# Velocity P-wave (km/s) = 3.33225 5.86688 4.77096
#
# Compressibility (1/GPa) = 0.14633078
#
# Stress axis : x y z
#
# Youngs Moduli (GPa) = 6.25565 65.29906 46.11401
#
# Poissons Ratio (x) = 1.31702 -0.10403
# Poissons Ratio (y) = 0.12617 0.33889
# Poissons Ratio (z) = -0.01411 0.47988
#
# Static dielectric constant tensor:
#      x y z
#    x 3.268350 0.000000 0.585900 
#    y 0.000000 3.443530 0.000000 
#    z 0.585900 0.000000 3.246270 
# 
# 
# High freq. dielectric constant tensor:
#      x y z
#    x 1.657370 0.000000 0.044260 
#    y 0.000000 1.694090 0.000000 
#    z 0.044260 0.000000 1.663240 
# 
# From -- ./inp_files/54942.got.cif
#   From: 2010.06.25/outbox.cif.g09.slc.cpg/sg10_28_cif.got.tgz:54942.got - 2010.06.27 22:07:45.
