data_PCOD8059777
_publ_section_title
;
Structure prediction by ZEFSAII (Michael W. Deem and Ramdas Pophale) SiO2 
 PCOD8059777
Probable space group: P 2/M
;
_chemical_formula_sum "Si O2"
_cell_formula_units_Z 32
_cell_length_a 10.026810
_cell_length_b 18.792686
_cell_length_c 16.276597
_cell_angle_alpha 90.000000
_cell_angle_beta 35.311094
_cell_angle_gamma 90.000000
_cell_volume 1772.779998
_symmetry_space_group_name_H-M "P 2/M"
_symmetry_group_IT_number 10
_symmetry_cell_setting 'monoclinic'
loop_
_space_group_symop_operation_xyz
x,y,z
-x,y,-z
-x,-y,-z
x,-y,z
loop_
_atom_site_type_symbol
_atom_site_label
_atom_site_fract_x
_atom_site_fract_y
_atom_site_fract_z
Si Si1 0.040017 0.832603 0.802572
Si Si2 0.722352 0.081561 0.446318
Si Si3 0.238917 0.416779 0.618860
Si Si4 0.221309 0.416938 0.439791
Si Si5 0.376836 0.314496 0.809770
Si Si6 0.781841 0.077829 0.050017
Si Si7 0.014732 0.679816 0.129681
Si Si8 0.522629 0.836854 0.299231
O O1 0.072421 0.878991 0.704580
O O2 0.260870 0.834674 0.749579
O O3 0.984913 0.750142 0.813177
O O4 0.821524 0.866795 0.957312
O O5 0.500000 0.079723 0.500000
O O6 0.691397 0.132504 0.541229
O O7 0.788024 0.000000 0.437124
O O8 0.500000 0.386519 0.500000
O O9 0.236575 0.500000 0.639267
O O10 0.169119 0.398702 0.560840
O O11 0.047876 0.383762 0.776350
O O12 0.272748 0.500000 0.402600
O O13 0.444993 0.377915 0.292446
O O14 0.000000 0.391983 0.500000
O O15 0.512693 0.239666 0.727171
O O16 0.178359 0.318322 0.842500
O O17 0.262492 0.324671 0.958164
O O18 0.559477 0.104185 0.210867
O O19 0.732990 0.000000 0.037828
O O20 0.000000 0.075463 0.000000
#
# Coordination Sequence:
#
# PCOD8059777 Si02
#       8
#     4   4   4   4   4   4   4   4
#     4   9  16  24  35  58  93 131 167 207 257 308
#     4   9  16  23  33  54  88 132 176 211 250 305
#     4  10  20  35  55  82 108 136 176 215 258 317
#     4  10  22  40  59  79 107 142 177 216 267 322
#     4  10  19  32  50  76 107 141 176 218 269 319
#     4   9  14  22  35  51  84 133 171 199 244 307
#     4  10  19  30  50  78 109 138 174 221 268 316
#     4   9  16  25  37  59  89 128 173 212 250 305
#
# _framework density 18.050744999999999
#
# number of rings (size 3 to 8) (size 9 to 14) (size 15 to 20)
#    0.000    2.500    2.500    0.750    1.750    4.000 
#    0.000    1.875    0.000    2.250    0.000    0.000 
#    0.000    2.000    0.000    2.250    0.000    1.750 
#
# Total GULP energy -396519.871273 kJ/mol
# GULP energy per Si atom -12391.245977 kJ/mol
# Density = 1.800966 g / cm^3
# Si number density = 18.050745 Si / 1000 Ang^3
#
#
#
# Elastic Constant Matrix: (Units=GPa)
#
#
# Indices 1 2 3 4 5 6 
#
# 1 36.2719 20.9529 23.9648 0.0000 10.4307 0.0000
# 2 20.9529 102.2138 62.9386 0.0000 13.6683 0.0000
# 3 23.9648 62.9386 127.7041 0.0000 31.6976 0.0000
# 4 0.0000 0.0000 0.0000 31.8835 0.0000 12.5845
# 5 10.4307 13.6683 31.6976 0.0000 17.2194 0.0000
# 6 0.0000 0.0000 0.0000 12.5845 0.0000 9.3933
#
#
#
# Elastic Compliance Matrix: (Units=1/GPa)
#
#
# Indices 1 2 3 4 5 6 
#
# 1 0.035472 -0.005050 0.000314 0.000000 -0.018057 0.000000
# 2 -0.005050 0.014846 -0.007740 0.000000 0.005522 0.000000
# 3 0.000314 -0.007740 0.018613 0.000000 -0.028310 0.000000
# 4 0.000000 0.000000 0.000000 0.066562 0.000000 -0.089174
# 5 -0.018057 0.005522 -0.028310 0.000000 0.116742 0.000000
# 6 0.000000 0.000000 0.000000 -0.089174 0.000000 0.225928
#
#
# Mechanical properties :
#
#
# Convention : Reuss Voigt Hill
#
# Bulk Modulus (GPa) = 22.73793 53.54470 38.14132
# Shear Modulus (GPa) = 9.65674 22.25481 15.95578
#
# Velocity S-wave (km/s) = 2.31547 3.51508 2.97634
# Velocity P-wave (km/s) = 4.44663 6.79722 5.74346
#
# Compressibility (1/GPa) = 0.04397937
#
# Stress axis : x y z
#
# Youngs Moduli (GPa) = 28.19136 67.35800 53.72612
#
# Poissons Ratio (x) = 0.34019 -0.01689
# Poissons Ratio (y) = 0.14238 0.41583
# Poissons Ratio (z) = -0.00887 0.52134
#
# Static dielectric constant tensor:
#      x y z
#    x 2.812760 0.000000 0.275100 
#    y 0.000000 3.506830 0.000000 
#    z 0.275100 0.000000 3.537010 
# 
# 
# High freq. dielectric constant tensor:
#      x y z
#    x 1.624640 0.000000 0.032410 
#    y 0.000000 1.712260 0.000000 
#    z 0.032410 0.000000 1.703720 
# 
# From -- ./inp_files/77111.got.cif
#   From: 2010.06.25/outbox.cif.g09.slc.cpg/sg10_39_cif.got.tgz:77111.got - 2010.06.27 22:07:45.
