data_PCOD8059894
_publ_section_title
;
Structure prediction by ZEFSAII (Michael W. Deem and Ramdas Pophale) SiO2 
 PCOD8059894
Probable space group: P 2/M
;
_chemical_formula_sum "Si O2"
_cell_formula_units_Z 32
_cell_length_a 13.714157
_cell_length_b 13.638506
_cell_length_c 16.137769
_cell_angle_alpha 90.000000
_cell_angle_beta 34.714274
_cell_angle_gamma 90.000000
_cell_volume 1718.941851
_symmetry_space_group_name_H-M "P 2/M"
_symmetry_group_IT_number 10
_symmetry_cell_setting 'monoclinic'
loop_
_space_group_symop_operation_xyz
x,y,z
-x,y,-z
-x,-y,-z
x,-y,z
loop_
_atom_site_type_symbol
_atom_site_label
_atom_site_fract_x
_atom_site_fract_y
_atom_site_fract_z
Si Si1 0.328149 0.260699 0.390429
Si Si2 0.678856 0.114661 0.914343
Si Si3 0.825922 0.610594 0.075106
Si Si4 0.811728 0.615430 0.656172
Si Si5 0.672739 0.396434 0.920841
Si Si6 0.023662 0.113578 0.579849
Si Si7 0.483493 0.612008 0.417538
Si Si8 0.663786 0.247119 0.069787
O O1 0.307657 0.334797 0.328275
O O2 0.180093 0.179651 0.504949
O O3 0.346566 0.320938 0.463485
O O4 0.510986 0.213113 0.237937
O O5 0.842453 0.144662 0.745413
O O6 0.657491 0.000000 0.934943
O O7 0.500000 0.158027 0.000000
O O8 0.718470 0.150969 0.980372
O O9 0.827488 0.500000 0.035439
O O10 0.669399 0.619573 0.247430
O O11 0.813330 0.697136 0.015836
O O12 0.000000 0.632279 0.000000
O O13 0.776649 0.500000 0.676769
O O14 0.788834 0.653469 0.767148
O O15 0.000000 0.646667 0.500000
O O16 0.757288 0.500000 0.893740
O O17 0.500000 0.429196 0.000000
O O18 0.617305 0.324658 0.031489
O O19 0.000000 0.132840 0.500000
O O20 0.068451 0.000000 0.567526
O O21 0.500000 0.650674 0.500000
O O22 0.415341 0.500000 0.464026
#
# Coordination Sequence:
#
# PCOD8059894 Si02
#       8
#     4   4   4   4   4   4   4   4
#     4  11  21  33  55  78 105 141 179 221 266 319
#     4  10  22  38  56  79 109 142 179 223 267 319
#     4   9  19  36  55  78 110 143 179 224 269 317
#     4  10  21  33  44  69 109 143 173 210 254 310
#     4  10  19  31  47  70 105 142 173 208 254 313
#     4  10  22  38  55  78 109 144 179 221 271 320
#     4   9  19  36  56  79 108 143 182 223 268 316
#     4  11  21  32  54  80 103 139 182 219 267 319
#
# _framework density 18.616102999999999
#
# number of rings (size 3 to 8) (size 9 to 14) (size 15 to 20)
#    0.000    2.000    1.250    2.250    3.500    3.500 
#    0.000    0.000    0.000    0.750    0.000    0.000 
#    0.000    0.000    0.000    0.000    0.000    0.000 
#
# Total GULP energy -396447.592986 kJ/mol
# GULP energy per Si atom -12388.987281 kJ/mol
# Density = 1.857373 g / cm^3
# Si number density = 18.616103 Si / 1000 Ang^3
#
#
#
# Elastic Constant Matrix: (Units=GPa)
#
#
# Indices 1 2 3 4 5 6 
#
# 1 91.2528 40.7009 44.3552 0.0000 -2.2720 0.0000
# 2 40.7009 61.8391 39.5109 0.0000 -6.9090 0.0000
# 3 44.3552 39.5109 105.3111 0.0000 -2.2627 0.0000
# 4 0.0000 0.0000 0.0000 29.8479 0.0000 -2.2622
# 5 -2.2720 -6.9090 -2.2627 0.0000 30.5920 0.0000
# 6 0.0000 0.0000 0.0000 -2.2622 0.0000 33.7508
#
#
#
# Elastic Compliance Matrix: (Units=1/GPa)
#
#
# Indices 1 2 3 4 5 6 
#
# 1 0.016625 -0.008636 -0.003783 0.000000 -0.000996 0.000000
# 2 -0.008636 0.026314 -0.006131 0.000000 0.004848 0.000000
# 3 -0.003783 -0.006131 0.013375 0.000000 -0.000676 0.000000
# 4 0.000000 0.000000 0.000000 0.033674 0.000000 0.002257
# 5 -0.000996 0.004848 -0.000676 0.000000 0.033659 0.000000
# 6 0.000000 0.000000 0.000000 0.002257 0.000000 0.029780
#
#
# Mechanical properties :
#
#
# Convention : Reuss Voigt Hill
#
# Bulk Modulus (GPa) = 52.04857 56.39300 54.22079
# Shear Modulus (GPa) = 25.38954 27.76054 26.57504
#
# Velocity S-wave (km/s) = 3.69704 3.86581 3.78237
# Velocity P-wave (km/s) = 6.80027 7.09114 6.94723
#
# Compressibility (1/GPa) = 0.01921282
#
# Stress axis : x y z
#
# Youngs Moduli (GPa) = 60.15216 38.00289 74.76685
#
# Poissons Ratio (x) = 0.32818 0.28287
# Poissons Ratio (y) = 0.51946 0.45840
# Poissons Ratio (z) = 0.22758 0.23300
#
# Static dielectric constant tensor:
#      x y z
#    x 3.426550 0.000000 -0.076130 
#    y 0.000000 3.456160 0.000000 
#    z -0.076130 0.000000 3.003570 
# 
# 
# High freq. dielectric constant tensor:
#      x y z
#    x 1.693030 0.000000 0.004360 
#    y 0.000000 1.717830 0.000000 
#    z 0.004360 0.000000 1.733510 
# 
# From -- ./inp_files/65066.got.cif
#   From: 2010.06.25/outbox.cif.g09.slc.cpg/sg10_33_cif.got.tgz:65066.got - 2010.06.27 22:07:45.
