data_PCOD8059610
_publ_section_title
;
Structure prediction by ZEFSAII (Michael W. Deem and Ramdas Pophale) SiO2 
 PCOD8059610
Probable space group: P 2/M
;
_chemical_formula_sum "Si O2"
_cell_formula_units_Z 28
_cell_length_a 11.452161
_cell_length_b 7.935412
_cell_length_c 15.555781
_cell_angle_alpha 90.000000
_cell_angle_beta 81.654941
_cell_angle_gamma 90.000000
_cell_volume 1398.704267
_symmetry_space_group_name_H-M "P 2/M"
_symmetry_group_IT_number 10
_symmetry_cell_setting 'monoclinic'
loop_
_space_group_symop_operation_xyz
x,y,z
-x,y,-z
-x,-y,-z
x,-y,z
loop_
_atom_site_type_symbol
_atom_site_label
_atom_site_fract_x
_atom_site_fract_y
_atom_site_fract_z
Si Si1 0.054492 0.310188 0.263374
Si Si2 0.038814 0.000000 0.632555
Si Si3 0.283901 0.193840 0.891925
Si Si4 0.481674 0.688670 0.205993
Si Si5 0.190031 0.000000 0.459812
Si Si6 0.625865 0.183410 0.945804
Si Si7 0.718939 0.694486 0.648042
Si Si8 0.972749 0.801300 0.099380
O O1 0.011984 0.500000 0.291687
O O2 0.184316 0.278483 0.287518
O O3 0.058702 0.288434 0.159299
O O4 0.963469 0.170386 0.310160
O O5 0.159640 0.000000 0.564369
O O6 0.929062 0.000000 0.581007
O O7 0.396787 0.208601 0.816898
O O8 0.161905 0.257685 0.863018
O O9 0.267010 0.000000 0.916256
O O10 0.300680 0.277360 0.985575
O O11 0.526395 0.500000 0.206755
O O12 0.388846 0.704240 0.137323
O O13 0.409862 0.738269 0.299308
O O14 0.261323 0.827817 0.430943
O O15 0.679526 0.000000 0.913203
O O16 0.500000 0.148594 0.000000
O O17 0.723764 0.500000 0.613849
O O18 0.991769 0.000000 0.105790
O O19 0.000000 0.739323 0.000000
#
# Coordination Sequence:
#
# PCOD8059610 Si02
#       8
#     4   2   4   4   2   4   4   4
#     4  10  20  36  55  78 109 144 178 218 264 309
#     4   9  18  36  55  83 108 135 182 208 255 328
#     4   9  19  33  46  69  96 132 182 223 261 303
#     4  10  19  30  46  69 101 136 170 214 264 314
#     4   9  18  32  58  81 107 146 164 205 271 325
#     4   8  15  27  42  62  88 124 170 211 253 299
#     4   9  20  33  49  83 115 136 172 215 262 322
#     4  10  21  36  53  74 104 141 187 233 262 298
#
# _framework density 20.018526999999999
#
# number of rings (size 3 to 8) (size 9 to 14) (size 15 to 20)
#    0.000    2.714    0.714    1.286    4.000    4.000 
#    0.000    2.857    0.000    0.000    0.000    2.000 
#    0.000    3.429    0.000    0.000    0.000    0.000 
#
# Total GULP energy -346868.623951 kJ/mol
# GULP energy per Si atom -12388.165141 kJ/mol
# Density = 1.997296 g / cm^3
# Si number density = 20.018527 Si / 1000 Ang^3
#
#
#
# Elastic Constant Matrix: (Units=GPa)
#
#
# Indices 1 2 3 4 5 6 
#
# 1 49.3429 18.0493 11.5255 0.0000 -11.2860 0.0000
# 2 18.0493 85.9514 38.7068 0.0000 -14.1331 0.0000
# 3 11.5255 38.7068 80.5387 0.0000 -18.8589 0.0000
# 4 0.0000 0.0000 0.0000 9.8835 0.0000 -9.4605
# 5 -11.2860 -14.1331 -18.8589 0.0000 23.5070 0.0000
# 6 0.0000 0.0000 0.0000 -9.4605 0.0000 -0.4061
#
#
#
# Elastic Compliance Matrix: (Units=1/GPa)
#
#
# Indices 1 2 3 4 5 6 
#
# 1 0.023671 -0.003669 0.000641 0.000000 0.009673 0.000000
# 2 -0.003669 0.015719 -0.006439 0.000000 0.002524 0.000000
# 3 0.000641 -0.006439 0.017958 0.000000 0.010844 0.000000
# 4 0.000000 0.000000 0.000000 0.004342 0.000000 -0.101166
# 5 0.009673 0.002524 0.010844 0.000000 0.057402 0.000000
# 6 0.000000 0.000000 0.000000 -0.101166 0.000000 -0.105689
#
#
# Mechanical properties :
#
#
# Convention : Reuss Voigt Hill
#
# Bulk Modulus (GPa) = 26.03106 39.15512 32.59309
# Shear Modulus (GPa) = 110.75987 16.43365 63.59676
#
# Velocity S-wave (km/s) = 7.44639 2.86828 5.64251
# Velocity P-wave (km/s) = 9.32542 5.52913 7.66599
#
# Compressibility (1/GPa) = 0.03841564
#
# Stress axis : x y z
#
# Youngs Moduli (GPa) = 42.24543 63.61528 55.68436
#
# Poissons Ratio (x) = 0.23339 -0.03568
# Poissons Ratio (y) = 0.15499 0.35854
# Poissons Ratio (z) = -0.02707 0.40960
#
# Static dielectric constant tensor:
#      x y z
#    x 3.623190 0.000000 -0.053030 
#    y 0.000000 3.576830 0.000000 
#    z -0.053030 0.000000 3.532100 
# 
# 
# High freq. dielectric constant tensor:
#      x y z
#    x 1.755760 0.000000 -0.015630 
#    y 0.000000 1.775490 0.000000 
#    z -0.015630 0.000000 1.749250 
# 
# From -- ./inp_files/63418.got.cif
#   From: 2010.06.25/outbox.cif.g09.slc.cpg/sg10_32_cif.got.tgz:63418.got - 2010.06.27 22:07:45.
