data_PCOD8059542
_publ_section_title
;
Structure prediction by ZEFSAII (Michael W. Deem and Ramdas Pophale) SiO2 
 PCOD8059542
Probable space group: P 2/M
;
_chemical_formula_sum "Si O2"
_cell_formula_units_Z 28
_cell_length_a 15.561378
_cell_length_b 14.062759
_cell_length_c 15.561362
_cell_angle_alpha 90.000000
_cell_angle_beta 29.845414
_cell_angle_gamma 90.000000
_cell_volume 1694.729300
_symmetry_space_group_name_H-M "P 2/M"
_symmetry_group_IT_number 10
_symmetry_cell_setting 'monoclinic'
loop_
_space_group_symop_operation_xyz
x,y,z
-x,y,-z
-x,-y,-z
x,-y,z
loop_
_atom_site_type_symbol
_atom_site_label
_atom_site_fract_x
_atom_site_fract_y
_atom_site_fract_z
Si Si1 0.481587 0.387460 0.610794
Si Si2 0.110794 0.387460 0.981588
Si Si3 0.300526 0.608588 0.420206
Si Si4 0.261385 0.770111 0.135579
Si Si5 0.947243 0.106262 0.447242
Si Si6 0.635579 0.770111 0.761384
Si Si7 0.920206 0.608588 0.800526
O O1 0.500000 0.341338 0.500000
O O2 0.480065 0.500000 0.601846
O O3 0.305104 0.349618 0.805104
O O4 0.634792 0.356437 0.541982
O O5 0.101841 0.500000 0.980071
O O6 0.041983 0.356435 0.134792
O O7 0.000000 0.341338 0.000000
O O8 0.360285 0.500000 0.352458
O O9 0.381826 0.671802 0.274828
O O10 0.094795 0.617935 0.594794
O O11 0.280847 0.746823 0.219153
O O12 0.225172 0.671801 0.118175
O O13 0.100022 0.841671 0.261218
O O14 0.441783 0.813328 0.941783
O O15 0.761218 0.158328 0.600022
O O16 0.000000 0.101258 0.500000
O O17 0.927077 0.000000 0.427076
O O18 0.852458 0.500000 0.860285
#
# Coordination Sequence:
#
# PCOD8059542 Si02
#       7
#     4   4   4   4   4   4   4
#     4   9  16  26  40  59  85 119 158 196 234 272
#     4   9  16  26  40  59  85 119 158 196 234 272
#     4  10  19  30  45  65  93 131 166 196 232 273
#     4  10  20  33  49  70  96 126 159 196 236 280
#     4   9  18  34  53  71  93 119 150 194 247 293
#     4  10  20  33  49  70  96 126 159 196 236 280
#     4  10  19  30  45  65  93 131 166 196 232 273
#
# _framework density 16.521812000000001
#
# number of rings (size 3 to 8) (size 9 to 14) (size 15 to 20)
#    0.000    2.429    1.429    1.714    0.000    6.286 
#    0.000    5.714    0.000    0.000    0.000    0.000 
#    0.000    1.143    0.571    0.000    0.000    0.000 
#
# Total GULP energy -347072.886512 kJ/mol
# GULP energy per Si atom -12395.460233 kJ/mol
# Density = 1.648421 g / cm^3
# Si number density = 16.521812 Si / 1000 Ang^3
#
#
#
# Elastic Constant Matrix: (Units=GPa)
#
#
# Indices 1 2 3 4 5 6 
#
# 1 65.9353 35.8953 29.9319 0.0000 -4.3879 0.0000
# 2 35.8953 71.0818 39.8471 0.0000 -1.1409 0.0000
# 3 29.9319 39.8471 106.4988 0.0000 -7.3208 0.0000
# 4 0.0000 0.0000 0.0000 14.2657 0.0000 -3.4240
# 5 -4.3879 -1.1409 -7.3208 0.0000 26.4501 0.0000
# 6 0.0000 0.0000 0.0000 -3.4240 0.0000 2.4005
#
#
#
# Elastic Compliance Matrix: (Units=1/GPa)
#
#
# Indices 1 2 3 4 5 6 
#
# 1 0.021594 -0.009565 -0.002316 0.000000 0.002529 0.000000
# 2 -0.009565 0.022071 -0.005722 0.000000 -0.002219 0.000000
# 3 -0.002316 -0.005722 0.012374 0.000000 0.002794 0.000000
# 4 0.000000 0.000000 0.000000 0.106589 0.000000 0.152038
# 5 0.002529 -0.002219 0.002794 0.000000 0.038904 0.000000
# 6 0.000000 0.000000 0.000000 0.152038 0.000000 0.633453
#
#
# Mechanical properties :
#
#
# Convention : Reuss Voigt Hill
#
# Bulk Modulus (GPa) = 48.00586 50.54048 49.27317
# Shear Modulus (GPa) = 5.70038 17.81270 11.75654
#
# Velocity S-wave (km/s) = 1.85949 3.28705 2.67043
# Velocity P-wave (km/s) = 5.80770 6.71289 6.27663
#
# Compressibility (1/GPa) = 0.02083079
#
# Stress axis : x y z
#
# Youngs Moduli (GPa) = 46.31015 45.30882 80.81656
#
# Poissons Ratio (x) = 0.43340 0.18718
# Poissons Ratio (y) = 0.44298 0.46243
# Poissons Ratio (z) = 0.10726 0.25926
#
# Static dielectric constant tensor:
#      x y z
#    x 3.098980 0.000000 -0.056400 
#    y 0.000000 2.789330 0.000000 
#    z -0.056400 0.000000 3.294300 
# 
# 
# High freq. dielectric constant tensor:
#      x y z
#    x 1.626660 0.000000 -0.007800 
#    y 0.000000 1.576480 0.000000 
#    z -0.007800 0.000000 1.653680 
# 
# From -- ./inp_files/28331.got.cif
#   From: 2010.06.25/outbox.cif.g09.slc.cpg/sg10_15_cif.got.tgz:28331.got - 2010.06.27 22:07:45.
