data_PCOD8059111
_publ_section_title
;
Structure prediction by ZEFSAII (Michael W. Deem and Ramdas Pophale) SiO2 
 PCOD8059111
Probable space group: P 2/M
;
_chemical_formula_sum "Si O2"
_cell_formula_units_Z 32
_cell_length_a 9.007826
_cell_length_b 13.447490
_cell_length_c 28.648068
_cell_angle_alpha 90.000000
_cell_angle_beta 27.250759
_cell_angle_gamma 90.000000
_cell_volume 1588.962436
_symmetry_space_group_name_H-M "P 2/M"
_symmetry_group_IT_number 10
_symmetry_cell_setting 'monoclinic'
loop_
_space_group_symop_operation_xyz
x,y,z
-x,y,-z
-x,-y,-z
x,-y,z
loop_
_atom_site_type_symbol
_atom_site_label
_atom_site_fract_x
_atom_site_fract_y
_atom_site_fract_z
Si Si1 0.077101 0.107296 0.793787
Si Si2 0.383024 0.223008 0.630935
Si Si3 0.573924 0.888888 0.079635
Si Si4 0.763346 0.783846 0.742469
Si Si5 0.353285 0.612471 0.382858
Si Si6 0.837793 0.747867 0.932583
Si Si7 0.809516 0.110591 0.446692
Si Si8 0.585693 0.615362 0.214873
O O1 0.312789 0.132230 0.685332
O O2 0.716621 0.101321 0.875074
O O3 0.086436 0.187655 0.832030
O O4 0.178971 0.000000 0.785678
O O5 0.400245 0.322428 0.656240
O O6 0.717230 0.190756 0.512381
O O7 0.092009 0.245537 0.676990
O O8 0.472175 0.848162 0.158696
O O9 0.729178 0.000000 0.042186
O O10 0.807602 0.807964 0.989825
O O11 0.586511 0.682874 0.776155
O O12 0.865881 0.851707 0.669769
O O13 0.442911 0.500000 0.369980
O O14 0.389841 0.631786 0.317668
O O15 0.000000 0.640580 0.500000
O O16 0.033640 0.645771 0.886998
O O17 0.500000 0.724599 0.000000
O O18 0.500000 0.102986 0.500000
O O19 0.881659 0.000000 0.446615
O O20 0.572465 0.500000 0.203106
#
# Coordination Sequence:
#
# PCOD8059111 Si02
#       8
#     4   4   4   4   4   4   4   4
#     4   9  16  30  55  87 116 146 185 232 286 342
#     4  10  18  33  59  87 115 152 194 235 282 345
#     4   9  18  34  58  84 114 152 191 231 281 344
#     4  10  21  36  57  84 118 157 193 236 285 346
#     4  10  21  38  61  84 111 152 196 242 292 340
#     4  10  20  37  61  85 113 150 195 243 293 351
#     4   9  17  31  54  85 121 158 190 225 279 345
#     4  11  24  42  60  82 117 153 191 250 306 343
#
# _framework density 20.138928
#
# number of rings (size 3 to 8) (size 9 to 14) (size 15 to 20)
#    0.000    2.250    1.250    1.875    0.000    5.750 
#    0.000    4.375    0.000    6.000    0.000    0.000 
#    0.000    0.000    0.000    0.000    0.000    0.000 
#
# Total GULP energy -396635.143130 kJ/mol
# GULP energy per Si atom -12394.848223 kJ/mol
# Density = 2.009309 g / cm^3
# Si number density = 20.138928 Si / 1000 Ang^3
#
#
#
# Elastic Constant Matrix: (Units=GPa)
#
#
# Indices 1 2 3 4 5 6 
#
# 1 49.5993 43.1765 28.5843 0.0000 8.2384 0.0000
# 2 43.1765 127.7136 34.3944 0.0000 -2.5205 0.0000
# 3 28.5843 34.3944 86.6500 0.0000 16.3464 0.0000
# 4 0.0000 0.0000 0.0000 127.9745 0.0000 52.0164
# 5 8.2384 -2.5205 16.3464 0.0000 24.4969 0.0000
# 6 0.0000 0.0000 0.0000 52.0164 0.0000 51.1373
#
#
#
# Elastic Compliance Matrix: (Units=1/GPa)
#
#
# Indices 1 2 3 4 5 6 
#
# 1 0.033446 -0.010017 -0.005423 0.000000 -0.008660 0.000000
# 2 -0.010017 0.012069 -0.002695 0.000000 0.006409 0.000000
# 3 -0.005423 -0.002695 0.016139 0.000000 -0.009223 0.000000
# 4 0.000000 0.000000 0.000000 0.013322 0.000000 -0.013551
# 5 -0.008660 0.006409 -0.009223 0.000000 0.050548 0.000000
# 6 0.000000 0.000000 0.000000 -0.013551 0.000000 0.033339
#
#
# Mechanical properties :
#
#
# Convention : Reuss Voigt Hill
#
# Bulk Modulus (GPa) = 39.39724 52.91926 46.15825
# Shear Modulus (GPa) = 24.55858 51.24225 37.90042
#
# Velocity S-wave (km/s) = 3.49586 5.04971 4.34285
# Velocity P-wave (km/s) = 5.99166 7.76747 6.93663
#
# Compressibility (1/GPa) = 0.02538249
#
# Stress axis : x y z
#
# Youngs Moduli (GPa) = 29.89934 82.85742 61.96026
#
# Poissons Ratio (x) = 0.83002 0.33602
# Poissons Ratio (y) = 0.29951 0.16699
# Poissons Ratio (z) = 0.16215 0.22331
#
# Static dielectric constant tensor:
#      x y z
#    x 3.415500 0.000000 0.217120 
#    y 0.000000 3.707060 0.000000 
#    z 0.217120 0.000000 3.772780 
# 
# 
# High freq. dielectric constant tensor:
#      x y z
#    x 1.767450 0.000000 0.016810 
#    y 0.000000 1.783760 0.000000 
#    z 0.016810 0.000000 1.789300 
# 
# From -- ./inp_files/94655.got.cif
#   From: 2010.06.25/outbox.cif.g09.slc.cpg/sg10_48_cif.got.tgz:94655.got - 2010.06.27 22:07:45.
