data_PCOD8059283
_publ_section_title
;
Structure prediction by ZEFSAII (Michael W. Deem and Ramdas Pophale) SiO2 
 PCOD8059283
Probable space group: P 2/M
;
_chemical_formula_sum "Si O2"
_cell_formula_units_Z 16
_cell_length_a 9.508916
_cell_length_b 10.263358
_cell_length_c 10.334194
_cell_angle_alpha 90.000000
_cell_angle_beta 129.362744
_cell_angle_gamma 90.000000
_cell_volume 779.755936
_symmetry_space_group_name_H-M "P 2/M"
_symmetry_group_IT_number 10
_symmetry_cell_setting 'monoclinic'
loop_
_space_group_symop_operation_xyz
x,y,z
-x,y,-z
-x,-y,-z
x,-y,z
loop_
_atom_site_type_symbol
_atom_site_label
_atom_site_fract_x
_atom_site_fract_y
_atom_site_fract_z
Si Si1 0.868467 0.500000 0.799283
Si Si2 0.292515 0.754236 0.892843
Si Si3 0.957208 0.000000 0.322457
Si Si4 0.791103 0.249752 0.867824
Si Si5 0.881254 0.500000 0.302445
Si Si6 0.302028 0.000000 0.331156
O O1 0.750019 0.368357 0.743283
O O2 0.975666 0.500000 0.729625
O O3 0.000000 0.500000 0.000000
O O4 0.244587 0.629250 0.775564
O O5 0.157781 0.872273 0.780075
O O6 0.500000 0.800114 0.000000
O O7 0.276022 0.708654 0.030624
O O8 0.000000 0.000000 0.500000
O O9 0.144176 0.000000 0.348356
O O10 0.693920 0.123441 0.759221
O O11 0.000000 0.212509 0.000000
O O12 0.000000 0.500000 0.500000
O O13 0.500000 0.000000 0.500000
#
# Coordination Sequence:
#
# PCOD8059283 Si02
#       6
#     2   4   2   4   2   2
#     4  10  18  40  72  92 120 174 218 262 323 393
#     4  12  25  42  69  97 130 177 226 266 324 409
#     4  12  26  44  62  94 139 172 207 281 346 381
#     4  11  20  43  71  89 124 172 228 266 321 391
#     4  12  23  42  68 100 138 170 217 282 341 381
#     4  12  26  41  66  98 129 169 224 278 328 387
#
# _framework density 20.519238999999999
#
# number of rings (size 3 to 8) (size 9 to 14) (size 15 to 20)
#    0.000    0.500    7.500    2.625    3.500    0.000 
#    0.000    0.625    0.000    0.000    0.000    0.000 
#    0.000    0.000    0.000    0.000    0.000    0.000 
#
# Total GULP energy -198357.256584 kJ/mol
# GULP energy per Si atom -12397.328537 kJ/mol
# Density = 2.047254 g / cm^3
# Si number density = 20.519239 Si / 1000 Ang^3
#
#
#
# Elastic Constant Matrix: (Units=GPa)
#
#
# Indices 1 2 3 4 5 6 
#
# 1 101.8333 12.7026 53.3771 0.0000 8.1775 0.0000
# 2 12.7026 168.2677 53.5435 0.0000 17.0656 0.0000
# 3 53.3771 53.5435 110.0837 0.0000 1.7087 0.0000
# 4 0.0000 0.0000 0.0000 -29.4488 0.0000 -27.8497
# 5 8.1775 17.0656 1.7087 0.0000 39.7920 0.0000
# 6 0.0000 0.0000 0.0000 -27.8497 0.0000 17.4525
#
#
#
# Elastic Compliance Matrix: (Units=1/GPa)
#
#
# Indices 1 2 3 4 5 6 
#
# 1 0.013766 0.001651 -0.007428 0.000000 -0.003218 0.000000
# 2 0.001651 0.007573 -0.004431 0.000000 -0.003397 0.000000
# 3 -0.007428 -0.004431 0.014797 0.000000 0.002791 0.000000
# 4 0.000000 0.000000 0.000000 -0.013534 0.000000 -0.021596
# 5 -0.003218 -0.003397 0.002791 0.000000 0.027129 0.000000
# 6 0.000000 0.000000 0.000000 -0.021596 0.000000 0.022836
#
#
# Mechanical properties :
#
#
# Convention : Reuss Voigt Hill
#
# Bulk Modulus (GPa) = 63.61313 68.82566 66.21939
# Shear Modulus (GPa) = 50.90451 22.92989 36.91720
#
# Velocity S-wave (km/s) = 4.98619 3.34650 4.24624
# Velocity P-wave (km/s) = 8.01364 6.96756 7.50884
#
# Compressibility (1/GPa) = 0.01572003
#
# Stress axis : x y z
#
# Youngs Moduli (GPa) = 72.64407 132.05270 67.57986
#
# Poissons Ratio (x) = -0.21798 0.50196
# Poissons Ratio (y) = -0.11991 0.29944
# Poissons Ratio (z) = 0.53957 0.58512
#
# Static dielectric constant tensor:
#      x y z
#    x 3.494750 0.000000 -0.248410 
#    y 0.000000 4.467830 0.000000 
#    z -0.248410 0.000000 3.813220 
# 
# 
# High freq. dielectric constant tensor:
#      x y z
#    x 1.802080 0.000000 -0.012110 
#    y 0.000000 1.829840 0.000000 
#    z -0.012110 0.000000 1.789960 
# 
# From -- ./inp_files/18132.got.cif
#   From: 2010.06.25/outbox.cif.g09.slc.cpg/sg10_10_cif.got.tgz:18132.got - 2010.06.27 22:07:45.
