data_PCOD8059790
_publ_section_title
;
Structure prediction by ZEFSAII (Michael W. Deem and Ramdas Pophale) SiO2 
 PCOD8059790
Probable space group: P 2/M
;
_chemical_formula_sum "Si O2"
_cell_formula_units_Z 28
_cell_length_a 15.294705
_cell_length_b 8.878937
_cell_length_c 19.638856
_cell_angle_alpha 90.000000
_cell_angle_beta 143.699347
_cell_angle_gamma 90.000000
_cell_volume 1578.906373
_symmetry_space_group_name_H-M "P 2/M"
_symmetry_group_IT_number 10
_symmetry_cell_setting 'monoclinic'
loop_
_space_group_symop_operation_xyz
x,y,z
-x,y,-z
-x,-y,-z
x,-y,z
loop_
_atom_site_type_symbol
_atom_site_label
_atom_site_fract_x
_atom_site_fract_y
_atom_site_fract_z
Si Si1 0.651286 0.675681 0.132187
Si Si2 0.606506 0.174541 0.246548
Si Si3 0.154778 0.665761 0.134871
Si Si4 0.022169 0.678439 0.851085
Si Si5 0.944160 0.821356 0.268335
Si Si6 0.715404 0.175395 0.903759
Si Si7 0.095777 0.824192 0.498624
O O1 0.689368 0.500000 0.151092
O O2 0.640132 0.722436 0.203366
O O3 0.776021 0.769657 0.171813
O O4 0.500000 0.716124 0.000000
O O5 0.450944 0.218544 0.181472
O O6 0.731158 0.208160 0.381592
O O7 0.611878 0.000000 0.227189
O O8 0.229090 0.500000 0.183667
O O9 0.261259 0.778534 0.160723
O O10 0.116243 0.723587 0.186919
O O11 0.000000 0.653610 0.000000
O O12 0.036449 0.500000 0.854001
O O13 0.987485 0.750538 0.756709
O O14 0.177139 0.737326 0.977908
O O15 0.042414 0.757979 0.392793
O O16 0.948934 0.000000 0.264770
O O17 0.747493 0.000000 0.931884
O O18 0.000000 0.751213 0.500000
O O19 0.059975 0.000000 0.474309
#
# Coordination Sequence:
#
# PCOD8059790 Si02
#       7
#     4   4   4   4   4   4   4
#     4  11  23  35  48  71 104 137 164 199 250 303
#     4  10  20  35  53  74 100 131 169 209 251 298
#     4   8  16  31  50  71 101 140 169 198 248 304
#     4  10  20  34  51  74 107 139 167 203 251 305
#     4  11  21  34  55  76  97 130 171 213 253 296
#     4  10  19  30  51  81 107 131 166 211 250 297
#     4   9  17  34  56  73  94 130 171 211 255 297
#
# _framework density 17.733794
#
# number of rings (size 3 to 8) (size 9 to 14) (size 15 to 20)
#    0.000    2.143    1.429    3.429    0.000    7.714 
#    0.000    2.143    0.000    0.857    0.000    6.000 
#    0.000    0.000    0.000    0.000    0.000    0.000 
#
# Total GULP energy -347174.546457 kJ/mol
# GULP energy per Si atom -12399.090945 kJ/mol
# Density = 1.769343 g / cm^3
# Si number density = 17.733794 Si / 1000 Ang^3
#
#
#
# Elastic Constant Matrix: (Units=GPa)
#
#
# Indices 1 2 3 4 5 6 
#
# 1 99.3118 26.3723 29.3145 0.0000 -31.6898 0.0000
# 2 26.3723 54.0732 19.2938 0.0000 -12.5010 0.0000
# 3 29.3145 19.2938 79.1509 0.0000 -24.4589 0.0000
# 4 0.0000 0.0000 0.0000 9.1490 0.0000 -7.5644
# 5 -31.6898 -12.5010 -24.4589 0.0000 26.9662 0.0000
# 6 0.0000 0.0000 0.0000 -7.5644 0.0000 29.1796
#
#
#
# Elastic Compliance Matrix: (Units=1/GPa)
#
#
# Indices 1 2 3 4 5 6 
#
# 1 0.016889 -0.004154 0.000411 0.000000 0.018294 0.000000
# 2 -0.004154 0.022223 -0.003062 0.000000 0.002643 0.000000
# 3 0.000411 -0.003062 0.017978 0.000000 0.015370 0.000000
# 4 0.000000 0.000000 0.000000 0.139119 0.000000 0.036065
# 5 0.018294 0.002643 0.015370 0.000000 0.073748 0.000000
# 6 0.000000 0.000000 0.000000 0.036065 0.000000 0.043620
#
#
# Mechanical properties :
#
#
# Convention : Reuss Voigt Hill
#
# Bulk Modulus (GPa) = 22.99944 42.49968 32.74956
# Shear Modulus (GPa) = 14.63360 23.56265 19.09812
#
# Velocity S-wave (km/s) = 2.87571 3.64907 3.28523
# Velocity P-wave (km/s) = 4.90140 6.46310 5.73565
#
# Compressibility (1/GPa) = 0.04347931
#
# Stress axis : x y z
#
# Youngs Moduli (GPa) = 59.21144 44.99834 55.62441
#
# Poissons Ratio (x) = 0.18693 -0.02285
# Poissons Ratio (y) = 0.24597 0.17031
# Poissons Ratio (z) = -0.02432 0.13777
#
# Static dielectric constant tensor:
#      x y z
#    x 3.685770 0.000000 -0.183520 
#    y 0.000000 3.226760 0.000000 
#    z -0.183520 0.000000 3.241910 
# 
# 
# High freq. dielectric constant tensor:
#      x y z
#    x 1.691870 0.000000 -0.010770 
#    y 0.000000 1.680490 0.000000 
#    z -0.010770 0.000000 1.664140 
# 
# From -- ./inp_files/54722.got.cif
#   From: 2010.06.25/outbox.cif.g09.slc.cpg/sg10_28_cif.got.tgz:54722.got - 2010.06.27 22:07:45.
