data_PCOD8059457
_publ_section_title
;
Structure prediction by ZEFSAII (Michael W. Deem and Ramdas Pophale) SiO2 
 PCOD8059457
Probable space group: P 2/M
;
_chemical_formula_sum "Si O2"
_cell_formula_units_Z 28
_cell_length_a 18.077161
_cell_length_b 11.060887
_cell_length_c 19.742585
_cell_angle_alpha 90.000000
_cell_angle_beta 157.615616
_cell_angle_gamma 90.000000
_cell_volume 1503.287670
_symmetry_space_group_name_H-M "P 2/M"
_symmetry_group_IT_number 10
_symmetry_cell_setting 'monoclinic'
loop_
_space_group_symop_operation_xyz
x,y,z
-x,y,-z
-x,-y,-z
x,-y,z
loop_
_atom_site_type_symbol
_atom_site_label
_atom_site_fract_x
_atom_site_fract_y
_atom_site_fract_z
Si Si1 0.908262 0.000000 0.539041
Si Si2 0.092474 0.360738 0.490660
Si Si3 0.687416 0.268012 0.196238
Si Si4 0.723925 0.000000 0.241358
Si Si5 0.038668 0.139771 0.194132
Si Si6 0.632976 0.860242 0.795729
Si Si7 0.305712 0.143052 0.301442
Si Si8 0.780113 0.778419 0.519502
O O1 0.766716 0.000000 0.356434
O O2 0.875197 0.115461 0.556999
O O3 0.116895 0.000000 0.682273
O O4 0.044032 0.500000 0.462893
O O5 0.264125 0.318632 0.687510
O O6 0.170356 0.343333 0.479986
O O7 0.891215 0.285733 0.328755
O O8 0.617053 0.127788 0.140773
O O9 0.500000 0.332068 0.000000
O O10 0.123855 0.183336 0.193680
O O11 0.124692 0.223940 0.325625
O O12 0.098700 0.000000 0.258655
O O13 0.807053 0.154515 0.996573
O O14 0.704865 0.807344 0.784155
O O15 0.451435 0.786520 0.670049
O O16 0.569618 0.000000 0.734865
O O17 0.500000 0.194415 0.500000
O O18 0.308992 0.000000 0.299942
#
# Coordination Sequence:
#
# PCOD8059457 Si02
#       8
#     2   4   4   2   4   4   4   4
#     4  11  18  34  58  73 112 152 170 223 270 332
#     4  11  25  42  58  78 107 146 191 235 272 313
#     4  11  22  39  64  88 110 139 178 223 274 332
#     4  11  19  38  58  89 115 144 175 207 274 339
#     4  10  19  29  47  76 109 144 177 211 263 330
#     4  10  19  29  47  76 109 144 177 211 263 330
#     4   9  15  27  45  68 107 150 178 206 252 319
#     4  12  20  35  52  75 108 140 179 221 277 320
#
# _framework density 18.625841999999999
#
# number of rings (size 3 to 8) (size 9 to 14) (size 15 to 20)
#    0.000    1.429    5.714    2.357    0.000    4.000 
#    0.000    0.000    0.000    0.000    0.000    2.000 
#    0.000    2.286    0.000    0.000    0.000    0.000 
#
# Total GULP energy -346891.950242 kJ/mol
# GULP energy per Si atom -12388.998223 kJ/mol
# Density = 1.858345 g / cm^3
# Si number density = 18.625842 Si / 1000 Ang^3
#
#
#
# Elastic Constant Matrix: (Units=GPa)
#
#
# Indices 1 2 3 4 5 6 
#
# 1 90.1194 10.4164 15.5908 0.0000 7.6774 0.0000
# 2 10.4164 57.5238 3.9023 0.0000 -4.8564 0.0000
# 3 15.5908 3.9023 91.9837 0.0000 -11.5267 0.0000
# 4 0.0000 0.0000 0.0000 5.1495 0.0000 2.3593
# 5 7.6774 -4.8564 -11.5267 0.0000 14.3073 0.0000
# 6 0.0000 0.0000 0.0000 2.3593 0.0000 6.9915
#
#
#
# Elastic Compliance Matrix: (Units=1/GPa)
#
#
# Indices 1 2 3 4 5 6 
#
# 1 0.012948 -0.003018 -0.003410 0.000000 -0.010720 0.000000
# 2 -0.003018 0.018601 0.000797 0.000000 0.008576 0.000000
# 3 -0.003410 0.000797 0.012990 0.000000 0.012566 0.000000
# 4 0.000000 0.000000 0.000000 0.229708 0.000000 -0.077517
# 5 -0.010720 0.008576 0.012566 0.000000 0.088682 0.000000
# 6 0.000000 0.000000 0.000000 -0.077517 0.000000 0.169190
#
#
# Mechanical properties :
#
#
# Convention : Reuss Voigt Hill
#
# Bulk Modulus (GPa) = 30.05093 33.27175 31.66134
# Shear Modulus (GPa) = 9.01757 19.27082 14.14419
#
# Velocity S-wave (km/s) = 2.20271 3.22005 2.75868
# Velocity P-wave (km/s) = 4.75797 5.63267 5.21370
#
# Compressibility (1/GPa) = 0.03327684
#
# Stress axis : x y z
#
# Youngs Moduli (GPa) = 77.22915 53.76165 76.98029
#
# Poissons Ratio (x) = 0.16228 0.26250
# Poissons Ratio (y) = 0.23311 -0.06136
# Poissons Ratio (z) = 0.26335 -0.04286
#
# Static dielectric constant tensor:
#      x y z
#    x 3.670210 0.000000 -0.054200 
#    y 0.000000 2.933290 0.000000 
#    z -0.054200 0.000000 3.365270 
# 
# 
# High freq. dielectric constant tensor:
#      x y z
#    x 1.735370 0.000000 -0.004070 
#    y 0.000000 1.657260 0.000000 
#    z -0.004070 0.000000 1.726890 
# 
# From -- ./inp_files/85862.got.cif
#   From: 2010.06.25/outbox.cif.g09.slc.cpg/sg10_43_cif.got.tgz:85862.got - 2010.06.27 22:07:45.
