data_PCOD8059328
_publ_section_title
;
Structure prediction by ZEFSAII (Michael W. Deem and Ramdas Pophale) SiO2 
 PCOD8059328
Probable space group: P 2/M
;
_chemical_formula_sum "Si O2"
_cell_formula_units_Z 32
_cell_length_a 12.369023
_cell_length_b 9.126564
_cell_length_c 20.142101
_cell_angle_alpha 90.000000
_cell_angle_beta 49.740355
_cell_angle_gamma 90.000000
_cell_volume 1735.171505
_symmetry_space_group_name_H-M "P 2/M"
_symmetry_group_IT_number 10
_symmetry_cell_setting 'monoclinic'
loop_
_space_group_symop_operation_xyz
x,y,z
-x,y,-z
-x,-y,-z
x,-y,z
loop_
_atom_site_type_symbol
_atom_site_label
_atom_site_fract_x
_atom_site_fract_y
_atom_site_fract_z
Si Si1 0.167009 0.325515 0.138916
Si Si2 0.341476 0.326033 0.945512
Si Si3 0.343079 0.326099 0.192983
Si Si4 0.143048 0.325995 0.909477
Si Si5 0.336650 0.325909 0.563957
Si Si6 0.850936 0.170454 0.471911
Si Si7 0.169745 0.170284 0.366731
Si Si8 0.146377 0.325862 0.759891
O O1 0.170966 0.500000 0.134412
O O2 0.241375 0.266924 0.175543
O O3 0.006405 0.267812 0.203634
O O4 0.250215 0.260519 0.042406
O O5 0.340704 0.500000 0.951513
O O6 0.500611 0.265639 0.885113
O O7 0.274173 0.275798 0.902549
O O8 0.343064 0.500000 0.197965
O O9 0.291003 0.262719 0.283089
O O10 0.128816 0.500000 0.910733
O O11 0.171114 0.262910 0.824366
O O12 0.000000 0.263041 0.000000
O O13 0.500000 0.272548 0.500000
O O14 0.327916 0.500000 0.560994
O O15 0.251024 0.261312 0.535795
O O16 0.265449 0.269940 0.661070
O O17 0.808249 0.202831 0.564518
O O18 0.015337 0.219052 0.400365
O O19 0.833343 0.000000 0.461751
O O20 0.190790 0.000000 0.343651
O O21 0.148011 0.500000 0.760976
#
# Coordination Sequence:
#
# PCOD8059328 Si02
#       8
#     4   4   4   4   4   4   4   4
#     4   9  15  25  41  62  92 127 164 202 237 280
#     4   9  16  25  39  63  95 129 162 200 241 284
#     4  10  19  28  44  73 103 127 155 196 252 309
#     4   9  14  23  39  59  88 126 165 200 235 279
#     4  10  21  34  49  76 113 141 160 201 264 312
#     4   9  19  37  58  74  93 129 176 216 248 295
#     4   9  19  36  55  74  97 128 168 215 259 298
#     4   9  16  26  42  63  91 130 168 197 236 291
#
# _framework density 18.441980999999998
#
# number of rings (size 3 to 8) (size 9 to 14) (size 15 to 20)
#    0.000    2.750    1.250    1.875    0.000    4.750 
#    0.000    3.750    0.000    1.500    0.000    0.000 
#    0.000    1.000    0.000    0.000    0.000    0.000 
#
# Total GULP energy -396674.647184 kJ/mol
# GULP energy per Si atom -12396.082724 kJ/mol
# Density = 1.840001 g / cm^3
# Si number density = 18.441981 Si / 1000 Ang^3
#
#
#
# Elastic Constant Matrix: (Units=GPa)
#
#
# Indices 1 2 3 4 5 6 
#
# 1 112.8281 20.7300 75.0034 0.0000 6.8649 0.0000
# 2 20.7300 14.7275 21.8470 0.0000 0.5124 0.0000
# 3 75.0034 21.8470 163.4400 0.0000 -5.8033 0.0000
# 4 0.0000 0.0000 0.0000 9.1710 0.0000 2.0595
# 5 6.8649 0.5124 -5.8033 0.0000 29.7418 0.0000
# 6 0.0000 0.0000 0.0000 2.0595 0.0000 17.3782
#
#
#
# Elastic Compliance Matrix: (Units=1/GPa)
#
#
# Indices 1 2 3 4 5 6 
#
# 1 0.015077 -0.013201 -0.005307 0.000000 -0.004288 0.000000
# 2 -0.013201 0.096657 -0.006861 0.000000 0.000043 0.000000
# 3 -0.005307 -0.006861 0.009585 0.000000 0.003213 0.000000
# 4 0.000000 0.000000 0.000000 0.112021 0.000000 -0.013276
# 5 -0.004288 0.000043 0.003213 0.000000 0.035239 0.000000
# 6 0.000000 0.000000 0.000000 -0.013276 0.000000 0.059117
#
#
# Mechanical properties :
#
#
# Convention : Reuss Voigt Hill
#
# Bulk Modulus (GPa) = 14.16777 58.46181 36.31479
# Shear Modulus (GPa) = 12.43908 22.81921 17.62915
#
# Velocity S-wave (km/s) = 2.59993 3.52142 3.09516
# Velocity P-wave (km/s) = 4.08801 6.95004 5.70153
#
# Compressibility (1/GPa) = 0.07058276
#
# Stress axis : x y z
#
# Youngs Moduli (GPa) = 66.32652 10.34584 104.33157
#
# Poissons Ratio (x) = 0.13657 0.55364
# Poissons Ratio (y) = 0.87556 0.71579
# Poissons Ratio (z) = 0.35197 0.07098
#
# Static dielectric constant tensor:
#      x y z
#    x 3.538810 0.000000 0.004360 
#    y 0.000000 2.727290 0.000000 
#    z 0.004360 0.000000 3.628360 
# 
# 
# High freq. dielectric constant tensor:
#      x y z
#    x 1.725670 0.000000 0.003770 
#    y 0.000000 1.646650 0.000000 
#    z 0.003770 0.000000 1.728460 
# 
# From -- ./inp_files/83585.got.cif
#   From: 2010.06.25/outbox.cif.g09.slc.cpg/sg10_42_cif.got.tgz:83585.got - 2010.06.27 22:07:45.
