data_PCOD8059764
_publ_section_title
;
Structure prediction by ZEFSAII (Michael W. Deem and Ramdas Pophale) SiO2 
 PCOD8059764
Probable space group: P 2/M
;
_chemical_formula_sum "Si O2"
_cell_formula_units_Z 28
_cell_length_a 18.737381
_cell_length_b 13.448873
_cell_length_c 22.735375
_cell_angle_alpha 90.000000
_cell_angle_beta 17.504347
_cell_angle_gamma 90.000000
_cell_volume 1723.229797
_symmetry_space_group_name_H-M "P 2/M"
_symmetry_group_IT_number 10
_symmetry_cell_setting 'monoclinic'
loop_
_space_group_symop_operation_xyz
x,y,z
-x,y,-z
-x,-y,-z
x,-y,z
loop_
_atom_site_type_symbol
_atom_site_label
_atom_site_fract_x
_atom_site_fract_y
_atom_site_fract_z
Si Si1 0.580151 0.239610 0.063641
Si Si2 0.007106 0.760140 0.351125
Si Si3 0.793713 0.114061 0.000276
Si Si4 0.184554 0.383910 0.407200
Si Si5 0.378704 0.885290 0.414480
Si Si6 0.330083 0.883274 0.584268
Si Si7 0.289621 0.890669 0.211475
O O1 0.713049 0.188364 0.013007
O O2 0.444423 0.339462 0.189003
O O3 0.379723 0.163284 0.199158
O O4 0.765748 0.267846 0.866766
O O5 0.071074 0.832370 0.354852
O O6 0.908372 0.659649 0.457750
O O7 0.812241 0.815500 0.465964
O O8 0.632192 0.126431 0.184518
O O9 0.787589 0.000000 0.981479
O O10 0.058093 0.145160 0.811465
O O11 0.219757 0.500000 0.388913
O O12 0.000000 0.360915 0.500000
O O13 0.406231 0.846871 0.459557
O O14 0.289140 0.000000 0.482663
O O15 0.500000 0.832636 0.500000
O O16 0.366791 0.000000 0.558380
O O17 0.199827 0.000000 0.299978
O O18 0.500000 0.898306 0.000000
#
# Coordination Sequence:
#
# PCOD8059764 Si02
#       7
#     4   4   4   4   4   4   4
#     4  11  20  34  53  74 101 135 174 212 258 304
#     4  11  20  34  53  74 101 135 174 212 258 304
#     4  10  19  30  49  77 108 142 174 210 249 295
#     4  11  24  40  54  72  99 132 177 225 270 309
#     4  10  19  30  49  77 108 142 174 210 249 295
#     4   9  18  32  48  71 108 149 178 203 244 299
#     4   9  18  29  45  72 103 135 170 206 240 292
#
# _framework density 16.248559
#
# number of rings (size 3 to 8) (size 9 to 14) (size 15 to 20)
#    0.000    1.857    4.286    0.857    0.000    2.286 
#    0.000    5.000    0.000    0.000    0.000    0.000 
#    0.000    3.429    0.000    0.000    0.000    0.000 
#
# Total GULP energy -347195.845841 kJ/mol
# GULP energy per Si atom -12399.851637 kJ/mol
# Density = 1.621158 g / cm^3
# Si number density = 16.248559 Si / 1000 Ang^3
#
#
#
# Elastic Constant Matrix: (Units=GPa)
#
#
# Indices 1 2 3 4 5 6 
#
# 1 102.3063 42.0225 52.0386 0.0000 -16.8613 0.0000
# 2 42.0225 87.8509 46.1547 0.0000 -2.0988 0.0000
# 3 52.0386 46.1547 114.8333 0.0000 5.0274 0.0000
# 4 0.0000 0.0000 0.0000 18.9046 0.0000 3.7404
# 5 -16.8613 -2.0988 5.0274 0.0000 26.4572 0.0000
# 6 0.0000 0.0000 0.0000 3.7404 0.0000 4.9951
#
#
#
# Elastic Compliance Matrix: (Units=1/GPa)
#
#
# Indices 1 2 3 4 5 6 
#
# 1 0.016670 -0.004395 -0.006290 0.000000 0.011470 0.000000
# 2 -0.004395 0.015725 -0.004296 0.000000 -0.000737 0.000000
# 3 -0.006290 -0.004296 0.013589 0.000000 -0.006931 0.000000
# 4 0.000000 0.000000 0.000000 0.062097 0.000000 -0.046499
# 5 0.011470 -0.000737 -0.006931 0.000000 0.046365 0.000000
# 6 0.000000 0.000000 0.000000 -0.046499 0.000000 0.235016
#
#
# Mechanical properties :
#
#
# Convention : Reuss Voigt Hill
#
# Bulk Modulus (GPa) = 62.41826 65.04690 63.73258
# Shear Modulus (GPa) = 11.77123 21.05636 16.41380
#
# Velocity S-wave (km/s) = 2.69448 3.60375 3.18176
# Velocity P-wave (km/s) = 6.94106 7.57861 7.26683
#
# Compressibility (1/GPa) = 0.01602095
#
# Stress axis : x y z
#
# Youngs Moduli (GPa) = 59.98935 63.59368 73.59013
#
# Poissons Ratio (x) = 0.27951 0.46286
# Poissons Ratio (y) = 0.26367 0.31616
# Poissons Ratio (z) = 0.37732 0.27321
#
# Static dielectric constant tensor:
#      x y z
#    x 3.190600 0.000000 0.042310 
#    y 0.000000 2.805460 0.000000 
#    z 0.042310 0.000000 3.217980 
# 
# 
# High freq. dielectric constant tensor:
#      x y z
#    x 1.619610 0.000000 0.007630 
#    y 0.000000 1.584040 0.000000 
#    z 0.007630 0.000000 1.639960 
# 
# From -- ./inp_files/67538.got.cif
#   From: 2010.06.25/outbox.cif.g09.slc.cpg/sg10_34_cif.got.tgz:67538.got - 2010.06.27 22:07:45.
