data_PCOD8059307
_publ_section_title
;
Structure prediction by ZEFSAII (Michael W. Deem and Ramdas Pophale) SiO2 
 PCOD8059307
Probable space group: P 2/M
;
_chemical_formula_sum "Si O2"
_cell_formula_units_Z 28
_cell_length_a 19.457840
_cell_length_b 9.313462
_cell_length_c 30.281815
_cell_angle_alpha 90.000000
_cell_angle_beta 20.538516
_cell_angle_gamma 90.000000
_cell_volume 1925.276096
_symmetry_space_group_name_H-M "P 2/M"
_symmetry_group_IT_number 10
_symmetry_cell_setting 'monoclinic'
loop_
_space_group_symop_operation_xyz
x,y,z
-x,y,-z
-x,-y,-z
x,-y,z
loop_
_atom_site_type_symbol
_atom_site_label
_atom_site_fract_x
_atom_site_fract_y
_atom_site_fract_z
Si Si1 0.521508 0.164786 0.538037
Si Si2 0.767848 0.162317 0.134305
Si Si3 0.032110 0.165604 0.729807
Si Si4 0.724754 0.664831 0.244281
Si Si5 0.813674 0.336899 0.024120
Si Si6 0.687834 0.662848 0.911903
Si Si7 0.175927 0.337781 0.078783
O O1 0.500000 0.207368 0.500000
O O2 0.745254 0.186763 0.419133
O O3 0.387530 0.269190 0.646860
O O4 0.455322 0.000000 0.585109
O O5 0.666424 0.249693 0.234934
O O6 0.687977 0.000000 0.182830
O O7 0.711026 0.235133 0.121863
O O8 0.000000 0.166907 0.000000
O O9 0.884911 0.244263 0.783391
O O10 0.000733 0.235535 0.797639
O O11 0.973850 0.000000 0.767757
O O12 0.662285 0.500000 0.275648
O O13 0.953512 0.679944 0.115781
O O14 0.752507 0.500000 0.071932
O O15 0.741525 0.288497 0.018555
O O16 0.722669 0.500000 0.874277
O O17 0.653321 0.666280 0.986196
O O18 0.500000 0.729895 0.000000
O O19 0.092215 0.500000 0.123985
#
# Coordination Sequence:
#
# PCOD8059307 Si02
#       7
#     4   4   4   4   4   4   4
#     4  10  20  31  41  56  83 116 146 175 207 243
#     4   9  17  28  41  56  76 104 136 172 213 253
#     4   9  17  27  40  59  82 109 141 174 205 239
#     4  10  19  28  41  58  77 106 144 179 209 240
#     4   9  16  27  41  58  80 105 137 177 212 243
#     4   8  15  28  44  60  82 111 138 167 209 255
#     4   8  15  26  40  58  82 108 134 165 205 246
#
# _framework density 14.543369
#
# number of rings (size 3 to 8) (size 9 to 14) (size 15 to 20)
#    0.857    2.143    0.000    1.714    0.000    4.571 
#    0.000    0.000    0.000    0.000    0.000    0.000 
#    0.000    1.143    0.000   13.143    0.000    3.286 
#
# Total GULP energy -346920.475237 kJ/mol
# GULP energy per Si atom -12390.016973 kJ/mol
# Density = 1.451027 g / cm^3
# Si number density = 14.543369 Si / 1000 Ang^3
#
#
#
# Elastic Constant Matrix: (Units=GPa)
#
#
# Indices 1 2 3 4 5 6 
#
# 1 66.9733 35.8786 25.6075 0.0000 11.1608 0.0000
# 2 35.8786 94.6357 36.8766 0.0000 13.0703 0.0000
# 3 25.6075 36.8766 41.3191 0.0000 10.9298 0.0000
# 4 0.0000 0.0000 0.0000 23.0292 0.0000 5.6761
# 5 11.1608 13.0703 10.9298 0.0000 24.4705 0.0000
# 6 0.0000 0.0000 0.0000 5.6761 0.0000 20.3291
#
#
#
# Elastic Compliance Matrix: (Units=1/GPa)
#
#
# Indices 1 2 3 4 5 6 
#
# 1 0.020956 -0.004228 -0.008259 0.000000 -0.003611 0.000000
# 2 -0.004228 0.017189 -0.012249 0.000000 -0.001782 0.000000
# 3 -0.008259 -0.012249 0.042553 0.000000 -0.008697 0.000000
# 4 0.000000 0.000000 0.000000 0.046632 0.000000 -0.013020
# 5 -0.003611 -0.001782 -0.008697 0.000000 0.047348 0.000000
# 6 0.000000 0.000000 0.000000 -0.013020 0.000000 0.052826
#
#
# Mechanical properties :
#
#
# Convention : Reuss Voigt Hill
#
# Bulk Modulus (GPa) = 32.02500 44.40596 38.21548
# Shear Modulus (GPa) = 17.39820 20.53677 18.96749
#
# Velocity S-wave (km/s) = 3.46251 3.76188 3.61529
# Velocity P-wave (km/s) = 6.16874 7.03340 6.61521
#
# Compressibility (1/GPa) = 0.03122561
#
# Stress axis : x y z
#
# Youngs Moduli (GPa) = 47.71952 58.17673 23.49997
#
# Poissons Ratio (x) = 0.24597 0.19408
# Poissons Ratio (y) = 0.20175 0.28786
# Poissons Ratio (z) = 0.39411 0.71263
#
# Static dielectric constant tensor:
#      x y z
#    x 2.830320 0.000000 0.148530 
#    y 0.000000 2.943850 0.000000 
#    z 0.148530 0.000000 2.485770 
# 
# 
# High freq. dielectric constant tensor:
#      x y z
#    x 1.541970 0.000000 0.019250 
#    y 0.000000 1.567630 0.000000 
#    z 0.019250 0.000000 1.508420 
# 
# From -- ./inp_files/95619.got.cif
#   From: 2010.06.25/outbox.cif.g09.slc.cpg/sg10_48_cif.got.tgz:95619.got - 2010.06.27 22:07:45.
