data_PCOD8059737
_publ_section_title
;
Structure prediction by ZEFSAII (Michael W. Deem and Ramdas Pophale) SiO2 
 PCOD8059737
Probable space group: P 2/M
;
_chemical_formula_sum "Si O2"
_cell_formula_units_Z 32
_cell_length_a 22.830535
_cell_length_b 9.113937
_cell_length_c 17.062722
_cell_angle_alpha 90.000000
_cell_angle_beta 148.566860
_cell_angle_gamma 90.000000
_cell_volume 1851.515862
_symmetry_space_group_name_H-M "P 2/M"
_symmetry_group_IT_number 10
_symmetry_cell_setting 'monoclinic'
loop_
_space_group_symop_operation_xyz
x,y,z
-x,y,-z
-x,-y,-z
x,-y,z
loop_
_atom_site_type_symbol
_atom_site_label
_atom_site_fract_x
_atom_site_fract_y
_atom_site_fract_z
Si Si1 0.333164 0.332912 0.832926
Si Si2 0.122147 0.673827 0.965558
Si Si3 0.335410 0.673835 0.656120
Si Si4 0.892186 0.332305 0.331681
Si Si5 0.136271 0.674036 0.320759
Si Si6 0.875612 0.673531 0.861475
Si Si7 0.780889 0.827767 0.069166
Si Si8 0.443088 0.172545 0.095574
O O1 0.376546 0.500000 0.888121
O O2 0.327897 0.278166 0.737881
O O3 0.208911 0.317127 0.723685
O O4 0.418543 0.234417 0.980464
O O5 0.130506 0.500000 0.961465
O O6 0.201726 0.755379 0.995203
O O7 0.991758 0.726957 0.808912
O O8 0.174354 0.720357 0.110805
O O9 0.347107 0.500000 0.659102
O O10 0.223746 0.734576 0.485020
O O11 0.444368 0.751749 0.742780
O O12 0.910308 0.500000 0.324923
O O13 0.874644 0.234735 0.234902
O O14 0.000000 0.271154 0.500000
O O15 0.135100 0.500000 0.322691
O O16 0.181911 0.726303 0.285982
O O17 0.881744 0.500000 0.867856
O O18 0.000000 0.739067 0.000000
O O19 0.797219 0.000000 0.081149
O O20 0.657336 0.785927 0.959766
O O21 0.460163 0.000000 0.108730
#
# Coordination Sequence:
#
# PCOD8059737 Si02
#       8
#     4   4   4   4   4   4   4   4
#     4   9  18  31  47  70  94 119 156 197 236 275
#     4   9  16  28  52  77  98 124 157 190 225 283
#     4  10  19  30  49  73  96 121 152 197 240 278
#     4   9  18  31  49  69  94 126 157 191 231 280
#     4   8  15  27  47  76 105 124 145 186 241 287
#     4   7  11  23  44  73 101 124 148 181 228 281
#     4  10  21  34  47  66  94 127 162 198 236 275
#     4  10  21  36  49  62  88 127 167 202 235 273
#
# _framework density 17.283135000000001
#
# number of rings (size 3 to 8) (size 9 to 14) (size 15 to 20)
#    0.000    3.000    0.000    2.625    1.750    3.750 
#    0.000    0.625    0.000    4.875    0.000    5.250 
#    0.000    0.000    0.000    0.000    0.000    0.000 
#
# Total GULP energy -396520.228453 kJ/mol
# GULP energy per Si atom -12391.257139 kJ/mol
# Density = 1.724380 g / cm^3
# Si number density = 17.283135 Si / 1000 Ang^3
#
#
#
# Elastic Constant Matrix: (Units=GPa)
#
#
# Indices 1 2 3 4 5 6 
#
# 1 111.3717 34.2185 41.7927 0.0000 -22.6345 0.0000
# 2 34.2185 40.1308 19.1535 0.0000 -4.3957 0.0000
# 3 41.7927 19.1535 73.1802 0.0000 -7.3902 0.0000
# 4 0.0000 0.0000 0.0000 7.6562 0.0000 7.6735
# 5 -22.6345 -4.3957 -7.3902 0.0000 19.0054 0.0000
# 6 0.0000 0.0000 0.0000 7.6735 0.0000 16.5615
#
#
#
# Elastic Compliance Matrix: (Units=1/GPa)
#
#
# Indices 1 2 3 4 5 6 
#
# 1 0.017699 -0.010582 -0.005680 0.000000 0.016423 0.000000
# 2 -0.010582 0.035074 -0.003737 0.000000 -0.005944 0.000000
# 3 -0.005680 -0.003737 0.017816 0.000000 -0.000701 0.000000
# 4 0.000000 0.000000 0.000000 0.243857 0.000000 -0.112987
# 5 0.016423 -0.005944 -0.000701 0.000000 0.070528 0.000000
# 6 0.000000 0.000000 0.000000 -0.112987 0.000000 0.112732
#
#
# Mechanical properties :
#
#
# Convention : Reuss Voigt Hill
#
# Bulk Modulus (GPa) = 32.68847 46.11244 39.40046
# Shear Modulus (GPa) = 9.12574 17.27914 13.20244
#
# Velocity S-wave (km/s) = 2.30035 3.16534 2.76686
# Velocity P-wave (km/s) = 5.10000 6.33228 5.74925
#
# Compressibility (1/GPa) = 0.03059183
#
# Stress axis : x y z
#
# Youngs Moduli (GPa) = 56.49935 28.51112 56.12977
#
# Poissons Ratio (x) = 0.30171 0.31881
# Poissons Ratio (y) = 0.59788 0.20975
# Poissons Ratio (z) = 0.32091 0.10654
#
# Static dielectric constant tensor:
#      x y z
#    x 3.375810 0.000000 -0.186440 
#    y 0.000000 2.918030 0.000000 
#    z -0.186440 0.000000 3.397160 
# 
# 
# High freq. dielectric constant tensor:
#      x y z
#    x 1.670050 0.000000 -0.008390 
#    y 0.000000 1.635400 0.000000 
#    z -0.008390 0.000000 1.653720 
# 
# From -- ./inp_files/79969.got.cif
#   From: 2010.06.25/outbox.cif.g09.slc.cpg/sg10_40_cif.got.tgz:79969.got - 2010.06.27 22:07:45.
