data_PCOD8059582
_publ_section_title
;
Structure prediction by ZEFSAII (Michael W. Deem and Ramdas Pophale) SiO2 
 PCOD8059582
Probable space group: P 2/M
;
_chemical_formula_sum "Si O2"
_cell_formula_units_Z 32
_cell_length_a 15.524874
_cell_length_b 9.123581
_cell_length_c 14.380892
_cell_angle_alpha 90.000000
_cell_angle_beta 91.697727
_cell_angle_gamma 90.000000
_cell_volume 2036.050566
_symmetry_space_group_name_H-M "P 2/M"
_symmetry_group_IT_number 10
_symmetry_cell_setting 'monoclinic'
loop_
_space_group_symop_operation_xyz
x,y,z
-x,y,-z
-x,-y,-z
x,-y,z
loop_
_atom_site_type_symbol
_atom_site_label
_atom_site_fract_x
_atom_site_fract_y
_atom_site_fract_z
Si Si1 0.099809 0.173541 0.609296
Si Si2 0.994817 0.171360 0.108140
Si Si3 0.903428 0.826545 0.595944
Si Si4 0.677118 0.825931 0.898393
Si Si5 0.165634 0.174134 0.216823
Si Si6 0.844971 0.329940 0.212068
Si Si7 0.510962 0.838271 0.110256
Si Si8 0.325157 0.330782 0.907939
O O1 0.128495 0.226901 0.506596
O O2 0.157473 0.257059 0.686264
O O3 0.000916 0.222795 0.621059
O O4 0.111632 0.000000 0.622566
O O5 0.083040 0.229218 0.156643
O O6 0.914874 0.256490 0.148044
O O7 0.980720 0.000000 0.127823
O O8 0.000000 0.206211 0.000000
O O9 0.841688 0.767684 0.676752
O O10 0.904024 0.000000 0.593651
O O11 0.747258 0.765028 0.827248
O O12 0.582417 0.784479 0.854559
O O13 0.684353 0.000000 0.913438
O O14 0.696087 0.753900 0.998194
O O15 0.167846 0.000000 0.215763
O O16 0.867372 0.500000 0.222199
O O17 0.751262 0.304050 0.166331
O O18 0.587505 0.727616 0.138906
O O19 0.533595 0.000000 0.150291
O O20 0.500000 0.846655 0.000000
O O21 0.338200 0.500000 0.932931
#
# Coordination Sequence:
#
# PCOD8059582 Si02
#       8
#     4   4   4   4   4   4   4   4
#     4   9  16  29  49  67  84 111 150 189 222 262
#     4  10  19  30  46  65  86 120 159 182 205 254
#     4   8  14  26  47  70  87 108 144 189 226 258
#     4   9  17  29  47  69  91 115 144 181 220 260
#     4   9  15  26  45  68  91 114 143 178 217 262
#     4  11  22  32  42  62  92 122 150 184 225 260
#     4   8  15  28  45  66  88 110 142 184 225 258
#     4  10  20  31  43  61  88 122 153 181 217 260
#
# _framework density 15.716701
#
# number of rings (size 3 to 8) (size 9 to 14) (size 15 to 20)
#    0.000    2.750    1.250    3.000    0.000    5.500 
#    0.000    1.875    0.000    0.000    0.000    0.875 
#    0.000    7.000    0.000    0.000    0.000    0.000 
#
# Total GULP energy -396623.701429 kJ/mol
# GULP energy per Si atom -12394.490670 kJ/mol
# Density = 1.568093 g / cm^3
# Si number density = 15.716701 Si / 1000 Ang^3
#
#
#
# Elastic Constant Matrix: (Units=GPa)
#
#
# Indices 1 2 3 4 5 6 
#
# 1 112.8957 41.1863 59.8304 0.0000 -2.4243 0.0000
# 2 41.1863 51.5472 40.9349 0.0000 3.8323 0.0000
# 3 59.8304 40.9349 109.3679 0.0000 -5.5478 0.0000
# 4 0.0000 0.0000 0.0000 9.4877 0.0000 6.8191
# 5 -2.4243 3.8323 -5.5478 0.0000 13.6258 0.0000
# 6 0.0000 0.0000 0.0000 6.8191 0.0000 16.9331
#
#
#
# Elastic Compliance Matrix: (Units=1/GPa)
#
#
# Indices 1 2 3 4 5 6 
#
# 1 0.014300 -0.007881 -0.004729 0.000000 0.002835 0.000000
# 2 -0.007881 0.034097 -0.009198 0.000000 -0.014737 0.000000
# 3 -0.004729 -0.009198 0.015584 0.000000 0.008091 0.000000
# 4 0.000000 0.000000 0.000000 0.148332 0.000000 -0.059734
# 5 0.002835 -0.014737 0.008091 0.000000 0.081334 0.000000
# 6 0.000000 0.000000 0.000000 -0.059734 0.000000 0.083111
#
#
# Mechanical properties :
#
#
# Convention : Reuss Voigt Hill
#
# Bulk Modulus (GPa) = 49.10702 61.96819 55.53761
# Shear Modulus (GPa) = 11.70515 16.79993 14.25254
#
# Velocity S-wave (km/s) = 2.73199 3.27298 3.01465
# Velocity P-wave (km/s) = 6.42375 7.33465 6.89426
#
# Compressibility (1/GPa) = 0.02036369
#
# Stress axis : x y z
#
# Youngs Moduli (GPa) = 69.92952 29.32839 64.16876
#
# Poissons Ratio (x) = 0.23113 0.30348
# Poissons Ratio (y) = 0.55110 0.59024
# Poissons Ratio (z) = 0.33073 0.26977
#
# Static dielectric constant tensor:
#      x y z
#    x 3.311210 0.000000 -0.177730 
#    y 0.000000 2.801970 0.000000 
#    z -0.177730 0.000000 3.099390 
# 
# 
# High freq. dielectric constant tensor:
#      x y z
#    x 1.596300 0.000000 -0.004120 
#    y 0.000000 1.580890 0.000000 
#    z -0.004120 0.000000 1.588320 
# 
# From -- ./inp_files/66208.got.cif
#   From: 2010.06.25/outbox.cif.g09.slc.cpg/sg10_34_cif.got.tgz:66208.got - 2010.06.27 22:07:45.
