data_PCOD8059580
_publ_section_title
;
Structure prediction by ZEFSAII (Michael W. Deem and Ramdas Pophale) SiO2 
 PCOD8059580
Probable space group: P 2/M
;
_chemical_formula_sum "Si O2"
_cell_formula_units_Z 30
_cell_length_a 12.142626
_cell_length_b 14.271260
_cell_length_c 17.126793
_cell_angle_alpha 90.000000
_cell_angle_beta 147.490591
_cell_angle_gamma 90.000000
_cell_volume 1595.068865
_symmetry_space_group_name_H-M "P 2/M"
_symmetry_group_IT_number 10
_symmetry_cell_setting 'monoclinic'
loop_
_space_group_symop_operation_xyz
x,y,z
-x,y,-z
-x,-y,-z
x,-y,z
loop_
_atom_site_type_symbol
_atom_site_label
_atom_site_fract_x
_atom_site_fract_y
_atom_site_fract_z
Si Si1 0.329888 0.108617 0.334236
Si Si2 0.000000 0.677676 0.500000
Si Si3 0.725347 0.610869 0.037589
Si Si4 0.907181 0.792088 0.098162
Si Si5 0.739267 0.895077 0.149036
Si Si6 0.623420 0.896863 0.814225
Si Si7 0.788935 0.147338 0.352661
Si Si8 0.276346 0.606252 0.789567
O O1 0.500000 0.134393 0.500000
O O2 0.421280 0.127843 0.302690
O O3 0.143288 0.180113 0.233421
O O4 0.260408 0.000000 0.302383
O O5 0.193668 0.747431 0.599313
O O6 0.070815 0.614416 0.614672
O O7 0.773731 0.500000 0.050461
O O8 0.877041 0.678757 0.079234
O O9 0.765046 0.647213 0.149780
O O10 0.489094 0.641145 0.876440
O O11 0.821465 0.838005 0.125242
O O12 0.785271 0.827132 0.949130
O O13 0.786692 0.840253 0.257582
O O14 0.837059 0.000000 0.209338
O O15 0.500000 0.905779 0.000000
O O16 0.409432 0.902418 0.732685
O O17 0.722300 0.000000 0.879516
O O18 0.000000 0.091309 0.500000
O O19 0.326879 0.500000 0.837502
#
# Coordination Sequence:
#
# PCOD8059580 Si02
#       8
#     4   2   4   4   4   4   4   4
#     4  10  24  42  60  84 113 151 196 240 280 324
#     4  10  19  30  45  80 110 154 192 224 272 340
#     4   9  20  35  57  83 109 143 184 238 290 341
#     4  12  22  36  63  83 112 149 194 241 280 344
#     4  11  22  35  53  83 120 156 194 231 281 342
#     4  11  22  39  58  81 114 153 198 235 274 330
#     4  10  23  34  50  81 122 159 185 227 281 339
#     4   9  17  32  51  76 112 147 185 232 286 338
#
# _framework density 18.807964999999999
#
# number of rings (size 3 to 8) (size 9 to 14) (size 15 to 20)
#    0.400    1.333    1.333    4.600    3.733    2.133 
#    0.000    0.000    0.000    2.000    0.000    0.000 
#    0.000    0.000    0.000    0.000    0.000    0.000 
#
# Total GULP energy -371651.136936 kJ/mol
# GULP energy per Si atom -12388.371231 kJ/mol
# Density = 1.876516 g / cm^3
# Si number density = 18.807965 Si / 1000 Ang^3
#
#
#
# Elastic Constant Matrix: (Units=GPa)
#
#
# Indices 1 2 3 4 5 6 
#
# 1 77.7655 29.9877 35.2579 0.0000 -15.9550 0.0000
# 2 29.9877 79.8288 37.0644 0.0000 1.3725 0.0000
# 3 35.2579 37.0644 126.4180 0.0000 -22.3212 0.0000
# 4 0.0000 0.0000 0.0000 39.3335 0.0000 2.3725
# 5 -15.9550 1.3725 -22.3212 0.0000 31.3192 0.0000
# 6 0.0000 0.0000 0.0000 2.3725 0.0000 26.7685
#
#
#
# Elastic Compliance Matrix: (Units=1/GPa)
#
#
# Indices 1 2 3 4 5 6 
#
# 1 0.017573 -0.005921 -0.001760 0.000000 0.007957 0.000000
# 2 -0.005921 0.016994 -0.004570 0.000000 -0.007018 0.000000
# 3 -0.001760 -0.004570 0.011003 0.000000 0.007145 0.000000
# 4 0.000000 0.000000 0.000000 0.025560 0.000000 -0.002265
# 5 0.007957 -0.007018 0.007145 0.000000 0.041383 0.000000
# 6 0.000000 0.000000 0.000000 -0.002265 0.000000 0.037558
#
#
# Mechanical properties :
#
#
# Convention : Reuss Voigt Hill
#
# Bulk Modulus (GPa) = 47.46799 54.29248 50.88024
# Shear Modulus (GPa) = 27.53377 31.59774 29.56575
#
# Velocity S-wave (km/s) = 3.83030 4.10325 3.96912
# Velocity P-wave (km/s) = 6.69736 7.16787 6.93660
#
# Compressibility (1/GPa) = 0.02106683
#
# Stress axis : x y z
#
# Youngs Moduli (GPa) = 56.90559 58.84582 90.88665
#
# Poissons Ratio (x) = 0.34842 0.15998
# Poissons Ratio (y) = 0.33693 0.41537
# Poissons Ratio (z) = 0.10016 0.26894
#
# Static dielectric constant tensor:
#      x y z
#    x 4.542860 0.000000 -0.336370 
#    y 0.000000 3.456440 0.000000 
#    z -0.336370 0.000000 3.561270 
# 
# 
# High freq. dielectric constant tensor:
#      x y z
#    x 1.699570 0.000000 -0.019490 
#    y 0.000000 1.727430 0.000000 
#    z -0.019490 0.000000 1.737600 
# 
# From -- ./inp_files/76924.got.cif
#   From: 2010.06.25/outbox.cif.g09.slc.cpg/sg10_39_cif.got.tgz:76924.got - 2010.06.27 22:07:45.
