data_PCOD8059014
_publ_section_title
;
Structure prediction by ZEFSAII (Michael W. Deem and Ramdas Pophale) SiO2 
 PCOD8059014
Probable space group: P 2/M
;
_chemical_formula_sum "Si O2"
_cell_formula_units_Z 32
_cell_length_a 26.377520
_cell_length_b 12.726201
_cell_length_c 8.494376
_cell_angle_alpha 90.000000
_cell_angle_beta 145.614859
_cell_angle_gamma 90.000000
_cell_volume 1610.359232
_symmetry_space_group_name_H-M "P 2/M"
_symmetry_group_IT_number 10
_symmetry_cell_setting 'monoclinic'
loop_
_space_group_symop_operation_xyz
x,y,z
-x,y,-z
-x,-y,-z
x,-y,z
loop_
_atom_site_type_symbol
_atom_site_label
_atom_site_fract_x
_atom_site_fract_y
_atom_site_fract_z
Si Si1 0.414461 0.379933 0.618899
Si Si2 0.412534 0.119562 0.178657
Si Si3 0.059022 0.382685 0.509431
Si Si4 0.598506 0.694407 0.073628
Si Si5 0.212109 0.377106 0.402582
Si Si6 0.230438 0.310032 0.092392
Si Si7 0.775492 0.880212 0.136180
Si Si8 0.087772 0.761136 0.302657
O O1 0.403142 0.500000 0.647025
O O2 0.410665 0.303960 0.761113
O O3 0.330432 0.346686 0.295242
O O4 0.510040 0.364877 0.775967
O O5 0.500000 0.156077 0.500000
O O6 0.423681 0.000000 0.150001
O O7 0.400705 0.187736 0.990823
O O8 0.325817 0.133233 0.065185
O O9 0.026645 0.500000 0.385830
O O10 0.042301 0.310929 0.317827
O O11 0.000000 0.335243 0.500000
O O12 0.163335 0.385039 0.825595
O O13 0.690617 0.634867 0.263434
O O14 0.186830 0.500000 0.325328
O O15 0.215573 0.323050 0.240131
O O16 0.138721 0.315451 0.313530
O O17 0.212632 0.190204 0.990315
O O18 0.844532 0.846546 0.451248
O O19 0.796492 0.000000 0.143349
O O20 0.000000 0.816895 0.000000
#
# Coordination Sequence:
#
# PCOD8059014 Si02
#       8
#     4   4   4   4   4   4   4   4
#     4  10  19  33  55  81 118 160 192 229 285 347
#     4  10  20  36  59  81 109 151 196 245 299 340
#     4  10  20  35  56  83 118 155 194 238 288 348
#     4  10  18  33  54  81 115 155 195 237 283 345
#     4  11  21  36  59  87 123 158 191 237 291 349
#     4  10  20  35  58  83 112 154 199 241 288 349
#     4  10  22  42  61  82 115 152 195 250 300 344
#     4  11  23  38  60  88 117 153 198 242 294 352
#
# _framework density 19.871343
#
# number of rings (size 3 to 8) (size 9 to 14) (size 15 to 20)
#    0.000    1.750    1.250    5.250    0.000    2.250 
#    0.000    4.375    0.000   16.125    0.000    0.000 
#    0.000    0.000    0.000    0.000    0.000    0.000 
#
# Total GULP energy -396656.695258 kJ/mol
# GULP energy per Si atom -12395.521727 kJ/mol
# Density = 1.982611 g / cm^3
# Si number density = 19.871343 Si / 1000 Ang^3
#
#
#
# Elastic Constant Matrix: (Units=GPa)
#
#
# Indices 1 2 3 4 5 6 
#
# 1 64.8909 38.3988 28.6247 0.0000 4.5892 0.0000
# 2 38.3988 121.5390 34.3049 0.0000 -12.0323 0.0000
# 3 28.6247 34.3049 119.3789 0.0000 17.6333 0.0000
# 4 0.0000 0.0000 0.0000 12.2627 0.0000 1.8688
# 5 4.5892 -12.0323 17.6333 0.0000 31.0977 0.0000
# 6 0.0000 0.0000 0.0000 1.8688 0.0000 28.2035
#
#
#
# Elastic Compliance Matrix: (Units=1/GPa)
#
#
# Indices 1 2 3 4 5 6 
#
# 1 0.020443 -0.006126 -0.002560 0.000000 -0.003935 0.000000
# 2 -0.006126 0.011696 -0.002940 0.000000 0.007096 0.000000
# 3 -0.002560 -0.002940 0.010857 0.000000 -0.006916 0.000000
# 4 0.000000 0.000000 0.000000 0.082380 0.000000 -0.005459
# 5 -0.003935 0.007096 -0.006916 0.000000 0.039405 0.000000
# 6 0.000000 0.000000 0.000000 -0.005459 0.000000 0.035818
#
#
# Mechanical properties :
#
#
# Convention : Reuss Voigt Hill
#
# Bulk Modulus (GPa) = 50.65016 56.49618 53.57317
# Shear Modulus (GPa) = 21.69836 27.94482 24.82159
#
# Velocity S-wave (km/s) = 3.30804 3.75412 3.53812
# Velocity P-wave (km/s) = 6.33524 6.87633 6.61132
#
# Compressibility (1/GPa) = 0.01974328
#
# Stress axis : x y z
#
# Youngs Moduli (GPa) = 48.91648 85.50239 92.10582
#
# Poissons Ratio (x) = 0.52376 0.23582
# Poissons Ratio (y) = 0.29965 0.27081
# Poissons Ratio (z) = 0.12524 0.25140
#
# Static dielectric constant tensor:
#      x y z
#    x 3.524260 0.000000 0.335260 
#    y 0.000000 3.455340 0.000000 
#    z 0.335260 0.000000 4.050210 
# 
# 
# High freq. dielectric constant tensor:
#      x y z
#    x 1.762460 0.000000 0.022790 
#    y 0.000000 1.755330 0.000000 
#    z 0.022790 0.000000 1.795320 
# 
# From -- ./inp_files/38252.got.cif
#   From: 2010.06.25/outbox.cif.g09.slc.cpg/sg10_20_cif.got.tgz:38252.got - 2010.06.27 22:07:45.
