data_PCOD8059905
_publ_section_title
;
Structure prediction by ZEFSAII (Michael W. Deem and Ramdas Pophale) SiO2 
 PCOD8059905
Probable space group: P 2/M
;
_chemical_formula_sum "Si O2"
_cell_formula_units_Z 22
_cell_length_a 14.247559
_cell_length_b 11.536705
_cell_length_c 8.726600
_cell_angle_alpha 90.000000
_cell_angle_beta 115.926893
_cell_angle_gamma 90.000000
_cell_volume 1290.022674
_symmetry_space_group_name_H-M "P 2/M"
_symmetry_group_IT_number 10
_symmetry_cell_setting 'monoclinic'
loop_
_space_group_symop_operation_xyz
x,y,z
-x,y,-z
-x,-y,-z
x,-y,z
loop_
_atom_site_type_symbol
_atom_site_label
_atom_site_fract_x
_atom_site_fract_y
_atom_site_fract_z
Si Si1 0.313365 0.000000 0.764686
Si Si2 0.227475 0.363877 0.988793
Si Si3 0.088099 0.000000 0.684302
Si Si4 0.037609 0.754313 0.700218
Si Si5 0.498509 0.000000 0.682460
Si Si6 0.097748 0.374354 0.177507
Si Si7 0.593826 0.191728 0.961692
O O1 0.190508 0.000000 0.650030
O O2 0.377866 0.000000 0.652344
O O3 0.337031 0.112323 0.880894
O O4 0.247345 0.500000 0.982930
O O5 0.135710 0.329433 0.803790
O O6 0.193350 0.332469 0.138822
O O7 0.336759 0.299316 0.042288
O O8 0.076092 0.116464 0.777144
O O9 0.000000 0.000000 0.500000
O O10 0.000000 0.746030 0.500000
O O11 0.932719 0.721076 0.718589
O O12 0.500000 0.000000 0.500000
O O13 0.553613 0.884094 0.788037
O O14 0.124201 0.500000 0.272903
O O15 0.000000 0.393952 0.000000
O O16 0.500000 0.240297 0.000000
#
# Coordination Sequence:
#
# PCOD8059905 Si02
#       7
#     2   4   2   4   2   4   4
#     4   9  16  35  57  70 105 138 164 198 256 310
#     4  10  19  33  53  74 102 138 170 207 252 295
#     4  10  19  31  47  76 108 134 158 206 262 289
#     4  10  19  32  50  73 103 136 175 206 245 297
#     4   9  19  36  58  81  94 129 171 209 253 308
#     4   8  16  31  47  65  95 134 169 201 242 295
#     4   9  18  34  56  77 100 131 168 210 250 304
#
# _framework density 17.053964000000001
#
# number of rings (size 3 to 8) (size 9 to 14) (size 15 to 20)
#    0.000    2.727    1.818    2.727    0.000    1.818 
#    6.545    5.000    0.000    0.545    0.000    0.000 
#    0.000    0.000    0.000    0.000    0.000    0.000 
#
# Total GULP energy -272560.661966 kJ/mol
# GULP energy per Si atom -12389.120998 kJ/mol
# Density = 1.701515 g / cm^3
# Si number density = 17.053964 Si / 1000 Ang^3
#
#
#
# Elastic Constant Matrix: (Units=GPa)
#
#
# Indices 1 2 3 4 5 6 
#
# 1 151.2040 82.7917 49.3113 0.0000 -11.0207 0.0000
# 2 82.7917 125.9205 40.0525 0.0000 -15.9098 0.0000
# 3 49.3113 40.0525 78.5502 0.0000 -15.2905 0.0000
# 4 0.0000 0.0000 0.0000 16.8069 0.0000 -1.0349
# 5 -11.0207 -15.9098 -15.2905 0.0000 26.4705 0.0000
# 6 0.0000 0.0000 0.0000 -1.0349 0.0000 31.4915
#
#
#
# Elastic Compliance Matrix: (Units=1/GPa)
#
#
# Indices 1 2 3 4 5 6 
#
# 1 0.011319 -0.006300 -0.004183 0.000000 -0.001490 0.000000
# 2 -0.006300 0.013244 -0.001982 0.000000 0.004192 0.000000
# 3 -0.004183 -0.001982 0.017798 0.000000 0.007348 0.000000
# 4 0.000000 0.000000 0.000000 0.059620 0.000000 0.001959
# 5 -0.001490 0.004192 0.007348 0.000000 0.043921 0.000000
# 6 0.000000 0.000000 0.000000 0.001959 0.000000 0.031819
#
#
# Mechanical properties :
#
#
# Convention : Reuss Voigt Hill
#
# Bulk Modulus (GPa) = 57.37297 77.77619 67.57458
# Shear Modulus (GPa) = 23.98532 27.18839 25.58685
#
# Velocity S-wave (km/s) = 3.75432 3.99715 3.87763
# Velocity P-wave (km/s) = 7.24626 8.18583 7.73033
#
# Compressibility (1/GPa) = 0.01742981
#
# Stress axis : x y z
#
# Youngs Moduli (GPa) = 88.35034 75.50843 56.18621
#
# Poissons Ratio (x) = 0.47567 0.23505
# Poissons Ratio (y) = 0.55656 0.11137
# Poissons Ratio (z) = 0.36961 0.14967
#
# Static dielectric constant tensor:
#      x y z
#    x 4.775250 0.000000 -0.997550 
#    y 0.000000 5.779200 0.000000 
#    z -0.997550 0.000000 3.430010 
# 
# 
# High freq. dielectric constant tensor:
#      x y z
#    x 1.663500 0.000000 -0.006510 
#    y 0.000000 1.660970 0.000000 
#    z -0.006510 0.000000 1.624370 
# 
# From -- ./inp_files/27603.got.cif
#   From: 2010.06.25/outbox.cif.g09.slc.cpg/sg10_14_cif.got.tgz:27603.got - 2010.06.27 22:07:45.
