data_PCOD8059450
_publ_section_title
;
Structure prediction by ZEFSAII (Michael W. Deem and Ramdas Pophale) SiO2 
 PCOD8059450
Probable space group: P 2/M
;
_chemical_formula_sum "Si O2"
_cell_formula_units_Z 32
_cell_length_a 11.321985
_cell_length_b 12.599820
_cell_length_c 12.024816
_cell_angle_alpha 90.000000
_cell_angle_beta 98.472982
_cell_angle_gamma 90.000000
_cell_volume 1696.676991
_symmetry_space_group_name_H-M "P 2/M"
_symmetry_group_IT_number 10
_symmetry_cell_setting 'monoclinic'
loop_
_space_group_symop_operation_xyz
x,y,z
-x,y,-z
-x,-y,-z
x,-y,z
loop_
_atom_site_type_symbol
_atom_site_label
_atom_site_fract_x
_atom_site_fract_y
_atom_site_fract_z
Si Si1 0.623055 0.259031 0.571082
Si Si2 0.278270 0.881394 0.602697
Si Si3 0.755473 0.623125 0.783996
Si Si4 0.609137 0.737603 0.943205
Si Si5 0.524140 0.117000 0.741380
Si Si6 0.061001 0.201583 0.166379
Si Si7 0.822012 0.875651 0.023922
Si Si8 0.023254 0.121623 0.623293
O O1 0.500000 0.307921 0.500000
O O2 0.709144 0.211027 0.487970
O O3 0.692459 0.343415 0.658410
O O4 0.588789 0.159325 0.641167
O O5 0.383375 0.878928 0.705157
O O6 0.163558 0.860270 0.665207
O O7 0.268898 0.000000 0.546255
O O8 0.783786 0.500000 0.780549
O O9 0.670055 0.645212 0.878399
O O10 0.882558 0.680407 0.825385
O O11 0.548236 0.820209 0.854518
O O12 0.500000 0.688026 0.000000
O O13 0.702966 0.806630 0.030156
O O14 0.573520 0.000000 0.767769
O O15 0.927131 0.189047 0.101005
O O16 0.061359 0.171233 0.295443
O O17 0.148751 0.127082 0.104830
O O18 0.813101 0.000000 0.060727
O O19 0.000000 0.174962 0.500000
O O20 0.985997 0.000000 0.614339
#
# Coordination Sequence:
#
# PCOD8059450 Si02
#       8
#     4   4   4   4   4   4   4   4
#     4   9  17  32  54  80 109 142 179 227 269 323
#     4   9  17  28  47  78 113 150 178 204 256 324
#     4  10  22  40  60  78 100 138 191 243 287 322
#     4  10  22  36  53  82 113 143 178 222 281 334
#     4   9  17  29  47  76 113 150 177 205 252 323
#     4  10  20  36  54  77 107 144 190 232 268 315
#     4  10  20  35  57  84 114 149 181 217 267 331
#     4  10  19  29  46  75 109 145 177 210 261 326
#
# _framework density 18.860398
#
# number of rings (size 3 to 8) (size 9 to 14) (size 15 to 20)
#    0.000    2.375    0.000    3.000    1.750    3.000 
#    0.000   10.000    0.000    3.375    0.000    0.000 
#    0.000    0.000    0.000    0.000    0.000    0.000 
#
# Total GULP energy -396487.724247 kJ/mol
# GULP energy per Si atom -12390.241383 kJ/mol
# Density = 1.881747 g / cm^3
# Si number density = 18.860398 Si / 1000 Ang^3
#
#
#
# Elastic Constant Matrix: (Units=GPa)
#
#
# Indices 1 2 3 4 5 6 
#
# 1 85.2259 34.0735 24.0544 0.0000 -0.5058 0.0000
# 2 34.0735 96.5975 25.8180 0.0000 7.2360 0.0000
# 3 24.0544 25.8180 70.3865 0.0000 -0.9166 0.0000
# 4 0.0000 0.0000 0.0000 5.9450 0.0000 1.9254
# 5 -0.5058 7.2360 -0.9166 0.0000 24.1916 0.0000
# 6 0.0000 0.0000 0.0000 1.9254 0.0000 18.7647
#
#
#
# Elastic Compliance Matrix: (Units=1/GPa)
#
#
# Indices 1 2 3 4 5 6 
#
# 1 0.014400 -0.004300 -0.003325 0.000000 0.001461 0.000000
# 2 -0.004300 0.013083 -0.003383 0.000000 -0.004131 0.000000
# 3 -0.003325 -0.003383 0.016605 0.000000 0.001572 0.000000
# 4 0.000000 0.000000 0.000000 0.173992 0.000000 -0.017853
# 5 0.001461 -0.004131 0.001572 0.000000 0.042662 0.000000
# 6 0.000000 0.000000 0.000000 -0.017853 0.000000 0.055123
#
#
# Mechanical properties :
#
#
# Convention : Reuss Voigt Hill
#
# Bulk Modulus (GPa) = 45.30729 46.67797 45.99263
# Shear Modulus (GPa) = 14.48277 20.99785 17.74031
#
# Velocity S-wave (km/s) = 2.77409 3.34028 3.07027
# Velocity P-wave (km/s) = 5.85964 6.29917 6.08338
#
# Compressibility (1/GPa) = 0.02207150
#
# Stress axis : x y z
#
# Youngs Moduli (GPa) = 69.44543 76.43669 60.22336
#
# Poissons Ratio (x) = 0.32869 0.20023
# Poissons Ratio (y) = 0.29863 0.20374
# Poissons Ratio (z) = 0.23089 0.25859
#
# Static dielectric constant tensor:
#      x y z
#    x 3.823240 0.000000 0.187920 
#    y 0.000000 3.008830 0.000000 
#    z 0.187920 0.000000 3.928390 
# 
# 
# High freq. dielectric constant tensor:
#      x y z
#    x 1.747020 0.000000 0.006560 
#    y 0.000000 1.679750 0.000000 
#    z 0.006560 0.000000 1.737850 
# 
# From -- ./inp_files/46657.got.cif
#   From: 2010.06.25/outbox.cif.g09.slc.cpg/sg10_24_cif.got.tgz:46657.got - 2010.06.27 22:07:45.
