data_PCOD8059572
_publ_section_title
;
Structure prediction by ZEFSAII (Michael W. Deem and Ramdas Pophale) SiO2 
 PCOD8059572
Probable space group: P 2/M
;
_chemical_formula_sum "Si O2"
_cell_formula_units_Z 24
_cell_length_a 9.292804
_cell_length_b 11.730847
_cell_length_c 26.633859
_cell_angle_alpha 90.000000
_cell_angle_beta 28.877051
_cell_angle_gamma 90.000000
_cell_volume 1402.154753
_symmetry_space_group_name_H-M "P 2/M"
_symmetry_group_IT_number 10
_symmetry_cell_setting 'monoclinic'
loop_
_space_group_symop_operation_xyz
x,y,z
-x,y,-z
-x,-y,-z
x,-y,z
loop_
_atom_site_type_symbol
_atom_site_label
_atom_site_fract_x
_atom_site_fract_y
_atom_site_fract_z
Si Si1 0.690271 0.367237 0.117666
Si Si2 0.890155 0.238580 0.723400
Si Si3 0.386727 0.761835 0.650227
Si Si4 0.470665 0.370368 0.721388
Si Si5 0.019118 0.000000 0.651771
Si Si6 0.558072 0.000000 0.564416
Si Si7 0.878262 0.368567 0.439795
O O1 0.636906 0.500000 0.122891
O O2 0.423270 0.300458 0.172150
O O3 0.691754 0.343149 0.176549
O O4 0.000000 0.323880 0.000000
O O5 0.063370 0.235667 0.723140
O O6 0.823277 0.111605 0.723158
O O7 0.101309 0.302036 0.618857
O O8 0.340283 0.717585 0.720850
O O9 0.601548 0.675213 0.555923
O O10 0.531208 0.887920 0.607208
O O11 0.403916 0.500000 0.724870
O O12 0.823633 0.351408 0.618813
O O13 0.306008 0.000000 0.599444
O O14 0.124363 0.000000 0.561409
O O15 0.829069 0.500000 0.441454
#
# Coordination Sequence:
#
# PCOD8059572 Si02
#       7
#     4   4   4   4   2   2   4
#     4   9  19  38  58  73  95 127 162 205 259 308
#     4  10  19  31  52  74  96 129 173 208 235 288
#     4  11  19  30  48  73 103 133 167 202 237 288
#     4   9  19  33  48  70 102 134 159 196 254 299
#     4   9  16  32  48  69 102 137 169 201 239 280
#     4   9  18  30  46  68 104 144 166 193 243 278
#     4  10  19  30  45  69 104 139 163 192 241 297
#
# _framework density 17.116512
#
# number of rings (size 3 to 8) (size 9 to 14) (size 15 to 20)
#    0.000    2.333    1.667    3.000    0.000    4.667 
#    0.000    6.250    0.000    3.000    0.000    3.500 
#    0.000    0.000    0.000    0.000    0.000    0.000 
#
# Total GULP energy -297642.470855 kJ/mol
# GULP energy per Si atom -12401.769619 kJ/mol
# Density = 1.707755 g / cm^3
# Si number density = 17.116512 Si / 1000 Ang^3
#
#
#
# Elastic Constant Matrix: (Units=GPa)
#
#
# Indices 1 2 3 4 5 6 
#
# 1 77.4671 46.0304 33.4687 0.0000 4.1433 0.0000
# 2 46.0304 112.3376 34.7393 0.0000 1.6283 0.0000
# 3 33.4687 34.7393 98.8779 0.0000 -8.0935 0.0000
# 4 0.0000 0.0000 0.0000 20.2942 0.0000 -0.7306
# 5 4.1433 1.6283 -8.0935 0.0000 13.8191 0.0000
# 6 0.0000 0.0000 0.0000 -0.7306 0.0000 14.4892
#
#
#
# Elastic Compliance Matrix: (Units=1/GPa)
#
#
# Indices 1 2 3 4 5 6 
#
# 1 0.019158 -0.006204 -0.004953 0.000000 -0.007914 0.000000
# 2 -0.006204 0.012150 -0.002241 0.000000 -0.000884 0.000000
# 3 -0.004953 -0.002241 0.013361 0.000000 0.009574 0.000000
# 4 0.000000 0.000000 0.000000 0.049365 0.000000 0.002489
# 5 -0.007914 -0.000884 0.009574 0.000000 0.080448 0.000000
# 6 0.000000 0.000000 0.000000 0.002489 0.000000 0.069142
#
#
# Mechanical properties :
#
#
# Convention : Reuss Voigt Hill
#
# Bulk Modulus (GPa) = 55.94949 57.46216 56.70582
# Shear Modulus (GPa) = 18.09127 21.35013 19.72070
#
# Velocity S-wave (km/s) = 3.25460 3.53560 3.39801
# Velocity P-wave (km/s) = 6.84702 7.09305 6.97112
#
# Compressibility (1/GPa) = 0.01787326
#
# Stress axis : x y z
#
# Youngs Moduli (GPa) = 52.19762 82.30762 74.84458
#
# Poissons Ratio (x) = 0.51061 0.37070
# Poissons Ratio (y) = 0.32382 0.16773
# Poissons Ratio (z) = 0.25853 0.18446
#
# Static dielectric constant tensor:
#      x y z
#    x 3.041310 0.000000 0.039380 
#    y 0.000000 3.400820 0.000000 
#    z 0.039380 0.000000 2.976490 
# 
# 
# High freq. dielectric constant tensor:
#      x y z
#    x 1.647080 0.000000 0.003790 
#    y 0.000000 1.670330 0.000000 
#    z 0.003790 0.000000 1.629230 
# 
# From -- ./inp_files/27563.got.cif
#   From: 2010.06.25/outbox.cif.g09.slc.cpg/sg10_14_cif.got.tgz:27563.got - 2010.06.27 22:07:45.
