data_PCOD8059536
_publ_section_title
;
Structure prediction by ZEFSAII (Michael W. Deem and Ramdas Pophale) SiO2 
 PCOD8059536
Probable space group: P 2/M
;
_chemical_formula_sum "Si O2"
_cell_formula_units_Z 32
_cell_length_a 31.162097
_cell_length_b 11.424900
_cell_length_c 5.284711
_cell_angle_alpha 90.000000
_cell_angle_beta 89.999623
_cell_angle_gamma 90.000000
_cell_volume 1881.483114
_symmetry_space_group_name_H-M "P 2/M"
_symmetry_group_IT_number 10
_symmetry_cell_setting 'monoclinic'
loop_
_space_group_symop_operation_xyz
x,y,z
-x,y,-z
-x,-y,-z
x,-y,z
loop_
_atom_site_type_symbol
_atom_site_label
_atom_site_fract_x
_atom_site_fract_y
_atom_site_fract_z
Si Si1 0.988800 0.661391 0.250000
Si Si2 0.523821 0.639513 0.249999
Si Si3 0.379077 0.360575 0.749999
Si Si4 0.903480 0.220285 0.250002
Si Si5 0.668763 0.639781 0.749998
Si Si6 0.235059 0.362167 0.250027
Si Si7 0.815860 0.639128 0.249947
Si Si8 0.941323 0.868990 0.750001
O O1 0.938428 0.677797 0.250002
O O2 0.000000 0.587420 0.500000
O O3 0.017563 0.781907 0.249998
O O4 0.000000 0.587420 0.000000
O O5 0.500000 0.687511 0.500000
O O6 0.523376 0.500000 0.249998
O O7 0.572378 0.687036 0.249999
O O8 0.500000 0.687511 0.000000
O O9 0.378785 0.500000 0.749995
O O10 0.355246 0.312852 0.499881
O O11 0.355245 0.312855 0.000117
O O12 0.858318 0.284156 0.250030
O O13 0.910724 0.145467 0.504776
O O14 0.910722 0.145472 0.995218
O O15 0.668985 0.500000 0.749987
O O16 0.717049 0.691144 0.749994
O O17 0.239312 0.500000 0.249913
O O18 0.210451 0.322170 0.502259
O O19 0.210432 0.322123 0.997887
O O20 0.826167 0.500000 0.249915
O O21 0.960360 0.000000 0.750008
#
# Coordination Sequence:
#
# PCOD8059536 Si02
#       8
#     4   4   4   4   4   4   4   4
#     4   8  16  27  42  61  84 104 126 153 184 219
#     4   9  15  21  27  36  53  78 106 132 165 220
#     4   9  15  21  30  43  59  79 103 139 185 226
#     4  10  19  30  45  65  87 108 134 162 189 231
#     4   9  15  23  34  48  63  78 105 147 191 230
#     4   9  17  28  42  57  72  94 125 160 198 239
#     4  10  19  31  45  60  80 107 135 162 195 235
#     4  10  19  31  48  68  89 110 131 159 196 232
#
# _framework density 17.007857999999999
#
# number of rings (size 3 to 8) (size 9 to 14) (size 15 to 20)
#    0.000    2.750    0.000    2.625    0.000   10.500 
#    0.000    0.000    0.000    6.750    0.000    0.000 
#    0.000    0.000    0.000    0.000    0.000    0.000 
#
# Total GULP energy -396477.013812 kJ/mol
# GULP energy per Si atom -12389.906682 kJ/mol
# Density = 1.696915 g / cm^3
# Si number density = 17.007858 Si / 1000 Ang^3
#
#
#
# Elastic Constant Matrix: (Units=GPa)
#
#
# Indices 1 2 3 4 5 6 
#
# 1 157.6012 21.3560 73.3961 0.0000 0.0279 0.0000
# 2 21.3560 35.6864 8.9591 0.0000 -0.0023 0.0000
# 3 73.3961 8.9591 186.6302 0.0000 0.0338 0.0000
# 4 0.0000 0.0000 0.0000 9.6900 0.0000 0.0094
# 5 0.0279 -0.0023 0.0338 0.0000 31.3586 0.0000
# 6 0.0000 0.0000 0.0000 0.0094 0.0000 21.9837
#
#
#
# Elastic Compliance Matrix: (Units=1/GPa)
#
#
# Indices 1 2 3 4 5 6 
#
# 1 0.008353 -0.004225 -0.003082 0.000000 -0.000004 0.000000
# 2 -0.004225 0.030501 0.000197 0.000000 0.000006 0.000000
# 3 -0.003082 0.000197 0.006561 0.000000 -0.000004 0.000000
# 4 0.000000 0.000000 0.000000 0.103199 0.000000 -0.000044
# 5 -0.000004 0.000006 -0.000004 0.000000 0.031889 0.000000
# 6 0.000000 0.000000 0.000000 -0.000044 0.000000 0.045488
#
#
# Mechanical properties :
#
#
# Convention : Reuss Voigt Hill
#
# Bulk Modulus (GPa) = 32.05635 65.26001 48.65818
# Shear Modulus (GPa) = 19.95142 31.02024 25.48583
#
# Velocity S-wave (km/s) = 3.42873 4.27532 3.87521
# Velocity P-wave (km/s) = 5.87910 7.92622 6.97813
#
# Compressibility (1/GPa) = 0.03119507
#
# Stress axis : x y z
#
# Youngs Moduli (GPa) = 119.71694 32.78610 152.41937
#
# Poissons Ratio (x) = 0.13852 0.46978
# Poissons Ratio (y) = 0.50580 -0.03008
# Poissons Ratio (z) = 0.36899 -0.00647
#
# Static dielectric constant tensor:
#      x y z
#    x 3.272790 0.000000 -0.000010 
#    y 0.000000 2.413620 0.000000 
#    z -0.000010 0.000000 4.062070 
# 
# 
# High freq. dielectric constant tensor:
#      x y z
#    x 1.659800 0.000000 0.000000 
#    y 0.000000 1.566140 0.000000 
#    z 0.000000 0.000000 1.692520 
# 
# From -- ./inp_files/13454.got.cif
#   From: 2010.06.25/outbox.cif.g09.slc.cpg/sg10_7_cif.got.tgz:13454.got - 2010.06.27 22:07:45.
