data_PCOD8059855
_publ_section_title
;
Structure prediction by ZEFSAII (Michael W. Deem and Ramdas Pophale) SiO2 
 PCOD8059855
Probable space group: P 2/M
;
_chemical_formula_sum "Si O2"
_cell_formula_units_Z 32
_cell_length_a 22.870684
_cell_length_b 9.227583
_cell_length_c 12.463245
_cell_angle_alpha 90.000000
_cell_angle_beta 50.035100
_cell_angle_gamma 90.000000
_cell_volume 2015.929402
_symmetry_space_group_name_H-M "P 2/M"
_symmetry_group_IT_number 10
_symmetry_cell_setting 'monoclinic'
loop_
_space_group_symop_operation_xyz
x,y,z
-x,y,-z
-x,-y,-z
x,-y,z
loop_
_atom_site_type_symbol
_atom_site_label
_atom_site_fract_x
_atom_site_fract_y
_atom_site_fract_z
Si Si1 0.338959 0.166154 0.258695
Si Si2 0.073478 0.668620 0.690217
Si Si3 0.090037 0.836450 0.879356
Si Si4 0.827608 0.169928 0.590957
Si Si5 0.797317 0.667106 0.846038
Si Si6 0.895698 0.667173 0.930721
Si Si7 0.365571 0.665581 0.014321
Si Si8 0.473439 0.660872 0.154739
O O1 0.249536 0.192960 0.389467
O O2 0.399205 0.241724 0.269102
O O3 0.360467 0.000000 0.236215
O O4 0.351176 0.223666 0.125830
O O5 0.096039 0.500000 0.663814
O O6 0.111363 0.743923 0.749330
O O7 0.104382 0.746437 0.547693
O O8 0.983054 0.690725 0.795088
O O9 0.121584 0.000000 0.829650
O O10 0.127800 0.761685 0.938480
O O11 0.000000 0.837196 0.000000
O O12 0.820123 0.235120 0.718415
O O13 0.846885 0.000000 0.578490
O O14 0.817932 0.500000 0.795344
O O15 0.843549 0.721994 0.894474
O O16 0.706404 0.682098 0.981171
O O17 0.879944 0.500000 0.977462
O O18 0.368144 0.500000 0.056679
O O19 0.450040 0.700118 0.864823
O O20 0.446032 0.500000 0.213587
O O21 0.500000 0.678511 0.000000
#
# Coordination Sequence:
#
# PCOD8059855 Si02
#       8
#     4   4   4   4   4   4   4   4
#     4   9  16  24  35  52  75 104 136 170 205 241
#     4  10  19  31  47  64  83 109 142 178 214 250
#     4   9  17  30  48  67  85 105 132 171 218 258
#     4  10  20  31  41  58  86 116 146 177 210 250
#     4   9  17  30  45  60  84 117 147 173 205 246
#     4   9  18  31  47  66  85 108 141 178 211 247
#     4   8  14  24  37  53  75 105 137 167 200 239
#     4   8  13  21  34  52  73  99 133 168 200 238
#
# _framework density 15.873571999999999
#
# number of rings (size 3 to 8) (size 9 to 14) (size 15 to 20)
#    0.000    3.000    0.000    2.250    0.000    6.750 
#    0.000    2.500    0.000    0.000    0.000    0.000 
#    0.000    1.000    0.000   11.500    0.000    4.125 
#
# Total GULP energy -396461.259351 kJ/mol
# GULP energy per Si atom -12389.414355 kJ/mol
# Density = 1.583744 g / cm^3
# Si number density = 15.873572 Si / 1000 Ang^3
#
#
#
# Elastic Constant Matrix: (Units=GPa)
#
#
# Indices 1 2 3 4 5 6 
#
# 1 109.3831 51.9569 41.6256 0.0000 4.1553 0.0000
# 2 51.9569 91.0182 23.3717 0.0000 2.9706 0.0000
# 3 41.6256 23.3717 21.9916 0.0000 7.7858 0.0000
# 4 0.0000 0.0000 0.0000 18.5447 0.0000 -2.4768
# 5 4.1553 2.9706 7.7858 0.0000 14.0760 0.0000
# 6 0.0000 0.0000 0.0000 -2.4768 0.0000 19.6096
#
#
#
# Elastic Compliance Matrix: (Units=1/GPa)
#
#
# Indices 1 2 3 4 5 6 
#
# 1 0.048584 -0.002106 -0.105452 0.000000 0.044431 0.000000
# 2 -0.002106 0.015791 -0.014718 0.000000 0.005430 0.000000
# 3 -0.105452 -0.014718 0.309128 0.000000 -0.136751 0.000000
# 4 0.000000 0.000000 0.000000 0.054849 0.000000 0.006928
# 5 0.044431 0.005430 -0.136751 0.000000 0.132421 0.000000
# 6 0.000000 0.000000 0.000000 0.006928 0.000000 0.051870
#
#
# Mechanical properties :
#
#
# Convention : Reuss Voigt Hill
#
# Bulk Modulus (GPa) = 7.75492 50.70014 29.22753
# Shear Modulus (GPa) = 5.55444 17.47532 11.51488
#
# Velocity S-wave (km/s) = 1.87264 3.32159 2.69627
# Velocity P-wave (km/s) = 3.09382 6.83520 5.30526
#
# Compressibility (1/GPa) = 0.12895043
#
# Stress axis : x y z
#
# Youngs Moduli (GPa) = 20.58272 63.32651 3.23491
#
# Poissons Ratio (x) = 0.13337 0.34113
# Poissons Ratio (y) = 0.04335 0.04761
# Poissons Ratio (z) = 2.17049 0.93206
#
# Static dielectric constant tensor:
#      x y z
#    x 3.360690 0.000000 -0.309080 
#    y 0.000000 3.141640 0.000000 
#    z -0.309080 0.000000 2.698470 
# 
# 
# High freq. dielectric constant tensor:
#      x y z
#    x 1.605950 0.000000 -0.022320 
#    y 0.000000 1.620880 0.000000 
#    z -0.022320 0.000000 1.555620 
# 
# From -- ./inp_files/52808.got.cif
#   From: 2010.06.25/outbox.cif.g09.slc.cpg/sg10_27_cif.got.tgz:52808.got - 2010.06.27 22:07:45.
