data_PCOD8059103
_publ_section_title
;
Structure prediction by ZEFSAII (Michael W. Deem and Ramdas Pophale) SiO2 
 PCOD8059103
Probable space group: P 2/M
;
_chemical_formula_sum "Si O2"
_cell_formula_units_Z 28
_cell_length_a 15.170035
_cell_length_b 21.413007
_cell_length_c 8.722534
_cell_angle_alpha 90.000000
_cell_angle_beta 29.589174
_cell_angle_gamma 90.000000
_cell_volume 1399.066212
_symmetry_space_group_name_H-M "P 2/M"
_symmetry_group_IT_number 10
_symmetry_cell_setting 'monoclinic'
loop_
_space_group_symop_operation_xyz
x,y,z
-x,y,-z
-x,-y,-z
x,-y,z
loop_
_atom_site_type_symbol
_atom_site_label
_atom_site_fract_x
_atom_site_fract_y
_atom_site_fract_z
Si Si1 0.322007 0.145656 0.855987
Si Si2 0.659887 0.929577 0.865883
Si Si3 0.532557 0.500000 0.130367
Si Si4 0.336374 0.372286 0.131546
Si Si5 0.032080 0.627714 0.131546
Si Si6 0.837076 0.500000 0.130367
Si Si7 0.974230 0.929577 0.865883
Si Si8 0.679652 0.292805 0.140697
O O1 0.500000 0.125491 0.500000
O O2 0.299939 0.219190 0.900122
O O3 0.327414 0.118481 0.016584
O O4 0.156002 0.118481 0.016584
O O5 0.838468 0.926705 0.500000
O O6 0.626283 0.000000 0.978433
O O7 0.500000 0.907286 0.000000
O O8 0.350863 0.500000 0.500000
O O9 0.500000 0.500000 0.000000
O O10 0.641669 0.436672 0.999515
O O11 0.157827 0.375592 0.500000
O O12 0.500000 0.360266 0.000000
O O13 0.325405 0.317097 0.025577
O O14 0.141184 0.563328 0.000485
O O15 0.149017 0.682903 0.025577
O O16 0.000000 0.639734 0.000000
O O17 0.000000 0.500000 0.000000
O O18 0.895285 0.000000 0.978433
O O19 0.000000 0.907285 0.000000
O O20 0.500000 0.313031 0.500000
#
# Coordination Sequence:
#
# PCOD8059103 Si02
#       8
#     4   4   2   4   4   2   4   4
#     4  11  24  40  60  85 118 157 196 240 289 344
#     4  10  21  38  62  91 121 153 192 238 288 342
#     4  10  18  33  58  87 117 150 188 237 293 347
#     4  11  22  39  62  88 117 152 193 241 294 348
#     4  11  22  39  62  88 117 152 193 241 294 348
#     4  10  18  33  58  87 117 150 188 237 293 347
#     4  10  21  38  62  91 121 153 192 238 288 342
#     4  11  25  43  59  83 116 155 201 242 287 345
#
# _framework density 20.013348000000001
#
# number of rings (size 3 to 8) (size 9 to 14) (size 15 to 20)
#    0.000    1.429    0.000    7.714    0.000    7.429 
#    0.000    2.857    0.000    0.000    0.000    0.000 
#    0.000    0.000    0.000    0.000    0.000    0.000 
#
# Total GULP energy -347258.900109 kJ/mol
# GULP energy per Si atom -12402.103575 kJ/mol
# Density = 1.996780 g / cm^3
# Si number density = 20.013348 Si / 1000 Ang^3
#
#
#
# Elastic Constant Matrix: (Units=GPa)
#
#
# Indices 1 2 3 4 5 6 
#
# 1 129.4547 60.5762 59.1618 0.0000 -0.0219 0.0000
# 2 60.5762 87.9951 54.4984 0.0000 -0.2047 0.0000
# 3 59.1618 54.4984 163.5065 0.0000 1.1664 0.0000
# 4 0.0000 0.0000 0.0000 34.6119 0.0000 -0.2583
# 5 -0.0219 -0.2047 1.1664 0.0000 34.8674 0.0000
# 6 0.0000 0.0000 0.0000 -0.2583 0.0000 42.2895
#
#
#
# Elastic Compliance Matrix: (Units=1/GPa)
#
#
# Indices 1 2 3 4 5 6 
#
# 1 0.011885 -0.006953 -0.001983 0.000000 0.000033 0.000000
# 2 -0.006953 0.018391 -0.003615 0.000000 0.000225 0.000000
# 3 -0.001983 -0.003615 0.008041 0.000000 -0.000291 0.000000
# 4 0.000000 0.000000 0.000000 0.028893 0.000000 0.000177
# 5 0.000033 0.000225 -0.000291 0.000000 0.028691 0.000000
# 6 0.000000 0.000000 0.000000 0.000177 0.000000 0.023648
#
#
# Mechanical properties :
#
#
# Convention : Reuss Voigt Hill
#
# Bulk Modulus (GPa) = 75.68536 81.04767 78.36651
# Shear Modulus (GPa) = 33.54467 36.13510 34.83988
#
# Velocity S-wave (km/s) = 4.09848 4.25379 4.17685
# Velocity P-wave (km/s) = 7.76507 8.04431 7.90592
#
# Compressibility (1/GPa) = 0.01321260
#
# Stress axis : x y z
#
# Youngs Moduli (GPa) = 84.14282 54.37550 124.36913
#
# Poissons Ratio (x) = 0.37809 0.24661
# Poissons Ratio (y) = 0.58507 0.44965
# Poissons Ratio (z) = 0.16684 0.19659
#
# Static dielectric constant tensor:
#      x y z
#    x 3.623380 0.000000 0.006930 
#    y 0.000000 3.933260 0.000000 
#    z 0.006930 0.000000 3.829600 
# 
# 
# High freq. dielectric constant tensor:
#      x y z
#    x 1.782270 0.000000 0.000660 
#    y 0.000000 1.783300 0.000000 
#    z 0.000660 0.000000 1.802050 
# 
# From -- ./inp_files/30456.got.cif
#   From: 2010.06.25/outbox.cif.g09.slc.cpg/sg10_16_cif.got.tgz:30456.got - 2010.06.27 22:07:45.
