data_PCOD8059434
_publ_section_title
;
Structure prediction by ZEFSAII (Michael W. Deem and Ramdas Pophale) SiO2 
 PCOD8059434
Probable space group: P 2/M
;
_chemical_formula_sum "Si O2"
_cell_formula_units_Z 20
_cell_length_a 20.102714
_cell_length_b 9.125654
_cell_length_c 17.131053
_cell_angle_alpha 90.000000
_cell_angle_beta 158.828758
_cell_angle_gamma 90.000000
_cell_volume 1135.006300
_symmetry_space_group_name_H-M "P 2/M"
_symmetry_group_IT_number 10
_symmetry_cell_setting 'monoclinic'
loop_
_space_group_symop_operation_xyz
x,y,z
-x,y,-z
-x,-y,-z
x,-y,z
loop_
_atom_site_type_symbol
_atom_site_label
_atom_site_fract_x
_atom_site_fract_y
_atom_site_fract_z
Si Si1 0.062327 0.673514 0.686961
Si Si2 0.093955 0.826325 0.180659
Si Si3 0.296012 0.673332 0.796016
Si Si4 0.507236 0.173670 0.420534
Si Si5 0.146929 0.174041 0.940814
O O1 0.068277 0.500000 0.704833
O O2 0.219904 0.723126 0.797501
O O3 0.104241 0.752645 0.812736
O O4 0.857708 0.723112 0.435296
O O5 0.305008 0.775851 0.415004
O O6 0.000019 0.768623 0.156550
O O7 0.073155 0.000000 0.154082
O O8 0.000000 0.759589 0.000000
O O9 0.311357 0.500000 0.811362
O O10 0.500000 0.740996 0.000000
O O11 0.500000 0.240424 0.500000
O O12 0.492218 0.000000 0.411293
O O13 0.343464 0.231379 0.186939
O O14 0.141440 0.000000 0.924316
#
# Coordination Sequence:
#
# PCOD8059434 Si02
#       5
#     4   4   4   4   4
#     4   9  18  32  50  72  94 118 152 190 227 273
#     4   9  15  25  42  64  88 118 158 196 225 258
#     4   8  15  31  54  72  88 118 158 190 218 268
#     4   9  15  25  42  64  88 118 158 196 225 258
#     4  10  19  29  45  70  98 122 150 193 235 270
#
# _framework density 17.621047999999998
#
# number of rings (size 3 to 8) (size 9 to 14) (size 15 to 20)
#    0.000    3.000    2.000    1.200    0.000    1.600 
#    0.000    2.000    0.000    2.400    0.000    0.000 
#    0.000    0.000    0.000    0.000    0.000    0.000 
#
# Total GULP energy -247852.020777 kJ/mol
# GULP energy per Si atom -12392.601039 kJ/mol
# Density = 1.758094 g / cm^3
# Si number density = 17.621048 Si / 1000 Ang^3
#
#
#
# Elastic Constant Matrix: (Units=GPa)
#
#
# Indices 1 2 3 4 5 6 
#
# 1 172.6667 26.2057 121.8788 0.0000 -0.5374 0.0000
# 2 26.2057 15.8593 25.1273 0.0000 -5.0210 0.0000
# 3 121.8788 25.1273 173.2395 0.0000 3.4199 0.0000
# 4 0.0000 0.0000 0.0000 33.5095 0.0000 -29.3018
# 5 -0.5374 -5.0210 3.4199 0.0000 43.5101 0.0000
# 6 0.0000 0.0000 0.0000 -29.3018 0.0000 39.9287
#
#
#
# Elastic Compliance Matrix: (Units=1/GPa)
#
#
# Indices 1 2 3 4 5 6 
#
# 1 0.012354 -0.008749 -0.007417 0.000000 -0.000274 0.000000
# 2 -0.008749 0.093046 -0.007562 0.000000 0.011224 0.000000
# 3 -0.007417 -0.007562 0.012125 0.000000 -0.001917 0.000000
# 4 0.000000 0.000000 0.000000 0.083290 0.000000 0.061123
# 5 -0.000274 0.011224 -0.001917 0.000000 0.024426 0.000000
# 6 0.000000 0.000000 0.000000 0.061123 0.000000 0.069900
#
#
# Mechanical properties :
#
#
# Convention : Reuss Voigt Hill
#
# Bulk Modulus (GPa) = 14.27171 78.68768 46.47969
# Shear Modulus (GPa) = 13.66301 35.95991 24.81146
#
# Velocity S-wave (km/s) = 2.78759 4.52235 3.75648
# Velocity P-wave (km/s) = 4.29857 8.48654 6.72677
#
# Compressibility (1/GPa) = 0.07006870
#
# Stress axis : x y z
#
# Youngs Moduli (GPa) = 80.94745 10.74741 82.47432
#
# Poissons Ratio (x) = 0.09403 0.61170
# Poissons Ratio (y) = 0.70819 0.62369
# Poissons Ratio (z) = 0.60037 0.08127
#
# Static dielectric constant tensor:
#      x y z
#    x 3.530110 0.000000 0.277190 
#    y 0.000000 2.600320 0.000000 
#    z 0.277190 0.000000 3.590490 
# 
# 
# High freq. dielectric constant tensor:
#      x y z
#    x 1.692250 0.000000 0.007190 
#    y 0.000000 1.610090 0.000000 
#    z 0.007190 0.000000 1.693810 
# 
# From -- ./inp_files/45771.got.cif
#   From: 2010.06.25/outbox.cif.g09.slc.cpg/sg10_23_cif.got.tgz:45771.got - 2010.06.27 22:07:45.
