data_PCOD8059461
_publ_section_title
;
Structure prediction by ZEFSAII (Michael W. Deem and Ramdas Pophale) SiO2 
 PCOD8059461
Probable space group: P 2/M
;
_chemical_formula_sum "Si O2"
_cell_formula_units_Z 26
_cell_length_a 30.371513
_cell_length_b 7.625120
_cell_length_c 30.371514
_cell_angle_alpha 90.000000
_cell_angle_beta 9.885187
_cell_angle_gamma 90.000000
_cell_volume 1207.494363
_symmetry_space_group_name_H-M "P 2/M"
_symmetry_group_IT_number 10
_symmetry_cell_setting 'monoclinic'
loop_
_space_group_symop_operation_xyz
x,y,z
-x,y,-z
-x,-y,-z
x,-y,z
loop_
_atom_site_type_symbol
_atom_site_label
_atom_site_fract_x
_atom_site_fract_y
_atom_site_fract_z
Si Si1 0.400086 0.709781 0.900085
Si Si2 0.122435 0.698140 0.622436
Si Si3 0.549795 0.708703 0.049793
Si Si4 0.171800 0.796688 0.671764
Si Si5 0.300664 0.794303 0.800704
Si Si6 0.024966 0.290928 0.524965
Si Si7 0.264754 0.500000 0.764754
O O1 0.398872 0.500000 0.898865
O O2 0.634272 0.789458 0.640688
O O3 0.425168 0.778227 0.925170
O O4 0.140689 0.789458 0.134271
O O5 0.113783 0.500000 0.613785
O O6 0.148845 0.695148 0.648845
O O7 0.549444 0.500000 0.049445
O O8 0.287299 0.781928 0.287544
O O9 0.787546 0.781928 0.787297
O O10 0.435739 0.742892 0.435056
O O11 0.166063 0.000000 0.666060
O O12 0.935127 0.742886 0.935676
O O13 0.278817 0.678384 0.778812
O O14 0.294060 0.000000 0.794092
O O15 0.025026 0.500000 0.525025
O O16 0.000000 0.218972 0.500000
O O17 0.500000 0.500000 0.500000
O O18 0.000000 0.500000 0.000000
#
# Coordination Sequence:
#
# PCOD8059461 Si02
#       7
#     4   4   4   4   4   4   2
#     4   9  17  28  39  62  91 121 164 205 259 314
#     4  10  19  29  48  73  98 129 170 218 252 306
#     4   9  15  23  34  45  72 110 143 197 251 298
#     4  10  21  38  58  83 113 149 185 224 278 326
#     4  10  23  41  62  88 121 155 192 237 283 338
#     4   9  15  21  30  46  65  98 152 201 243 296
#     4  12  26  42  66  96 122 158 200 238 286 340
#
# _framework density 21.532191999999998
#
# number of rings (size 3 to 8) (size 9 to 14) (size 15 to 20)
#    0.000    2.308    0.000    3.231    2.154    6.154 
#    0.000    0.000    0.000    0.000    0.000    0.000 
#    0.000    0.000    0.000    0.000    0.000   53.846 
#
# Total GULP energy -322419.833232 kJ/mol
# GULP energy per Si atom -12400.762817 kJ/mol
# Density = 2.148318 g / cm^3
# Si number density = 21.532192 Si / 1000 Ang^3
#
#
#
# Elastic Constant Matrix: (Units=GPa)
#
#
# Indices 1 2 3 4 5 6 
#
# 1 197.0889 30.3211 121.5101 0.0000 -2.4339 0.0000
# 2 30.3211 37.1594 21.8143 0.0000 0.7496 0.0000
# 3 121.5101 21.8143 252.7946 0.0000 -2.4829 0.0000
# 4 0.0000 0.0000 0.0000 -7.6879 0.0000 -0.5903
# 5 -2.4339 0.7496 -2.4829 0.0000 51.5818 0.0000
# 6 0.0000 0.0000 0.0000 -0.5903 0.0000 -14.3510
#
#
#
# Elastic Compliance Matrix: (Units=1/GPa)
#
#
# Indices 1 2 3 4 5 6 
#
# 1 0.007845 -0.004419 -0.003387 0.000000 0.000271 0.000000
# 2 -0.004419 0.030850 -0.000545 0.000000 -0.000683 0.000000
# 3 -0.003387 -0.000545 0.005632 0.000000 0.000119 0.000000
# 4 0.000000 0.000000 0.000000 -0.130487 0.000000 0.005367
# 5 0.000271 -0.000683 0.000119 0.000000 0.019415 0.000000
# 6 0.000000 0.000000 0.000000 0.005367 0.000000 -0.069902
#
#
# Mechanical properties :
#
#
# Convention : Reuss Voigt Hill
#
# Bulk Modulus (GPa) = 36.19741 92.70378 64.45060
# Shear Modulus (GPa) = -45.15208 26.80174 -9.17517
#
# Velocity S-wave (km/s) = -4.58422 3.53190 -2.06649
# Velocity P-wave (km/s) = 3.34257 7.73172 4.92984
#
# Compressibility (1/GPa) = 0.02762629
#
# Stress axis : x y z
#
# Youngs Moduli (GPa) = 127.46810 32.41470 177.55784
#
# Poissons Ratio (x) = 0.14323 0.60138
# Poissons Ratio (y) = 0.56323 0.09677
# Poissons Ratio (z) = 0.43173 0.01767
#
# Static dielectric constant tensor:
#      x y z
#    x 3.840800 0.000000 -0.053870 
#    y 0.000000 3.366690 0.000000 
#    z -0.053870 0.000000 4.451460 
# 
# 
# High freq. dielectric constant tensor:
#      x y z
#    x 1.849180 0.000000 -0.001770 
#    y 0.000000 1.807860 0.000000 
#    z -0.001770 0.000000 1.869230 
# 
# From -- ./inp_files/13429.got.cif
#   From: 2010.06.25/outbox.cif.g09.slc.cpg/sg10_7_cif.got.tgz:13429.got - 2010.06.27 22:07:45.
