data_PCOD8059155
_publ_section_title
;
Structure prediction by ZEFSAII (Michael W. Deem and Ramdas Pophale) SiO2 
 PCOD8059155
Probable space group: P 2/M
;
_chemical_formula_sum "Si O2"
_cell_formula_units_Z 32
_cell_length_a 24.165761
_cell_length_b 8.918736
_cell_length_c 19.620949
_cell_angle_alpha 90.000000
_cell_angle_beta 23.292220
_cell_angle_gamma 90.000000
_cell_volume 1672.181017
_symmetry_space_group_name_H-M "P 2/M"
_symmetry_group_IT_number 10
_symmetry_cell_setting 'monoclinic'
loop_
_space_group_symop_operation_xyz
x,y,z
-x,y,-z
-x,-y,-z
x,-y,z
loop_
_atom_site_type_symbol
_atom_site_label
_atom_site_fract_x
_atom_site_fract_y
_atom_site_fract_z
Si Si1 0.414571 0.324478 0.791578
Si Si2 0.152021 0.170399 0.137687
Si Si3 0.076673 0.177588 0.708582
Si Si4 0.614237 0.821715 0.666889
Si Si5 0.637072 0.676738 0.303767
Si Si6 0.866543 0.829727 0.686015
Si Si7 0.441595 0.821070 0.993292
Si Si8 0.926691 0.822146 0.013574
O O1 0.443730 0.500000 0.761186
O O2 0.545662 0.239672 0.675480
O O3 0.386933 0.268148 0.746207
O O4 0.281874 0.281481 0.986942
O O5 0.096899 0.175215 0.276228
O O6 0.031935 0.234524 0.224913
O O7 0.195969 0.000000 0.067772
O O8 0.227612 0.240638 0.515870
O O9 0.024684 0.236533 0.840935
O O10 0.083840 0.000000 0.701167
O O11 0.539450 0.761411 0.820603
O O12 0.607230 0.000000 0.673091
O O13 0.500000 0.726408 0.500000
O O14 0.661652 0.500000 0.279565
O O15 0.771950 0.754749 0.183649
O O16 0.000000 0.747483 0.500000
O O17 0.858422 0.000000 0.668010
O O18 0.715916 0.755506 0.838578
O O19 0.439410 0.000000 0.992680
O O20 0.500000 0.764010 0.000000
O O21 0.911130 0.000000 0.029267
O O22 0.000000 0.767097 0.000000
#
# Coordination Sequence:
#
# PCOD8059155 Si02
#       8
#     4   4   4   4   4   4   4   4
#     4  11  22  37  57  80 106 141 185 232 270 316
#     4  10  18  34  57  80 107 142 180 223 275 324
#     4   9  19  33  53  80 109 138 173 220 268 320
#     4  10  20  35  55  81 110 143 180 221 275 327
#     4  10  23  41  58  79 108 144 186 227 271 322
#     4   9  17  27  45  77 109 137 174 220 267 315
#     4   9  17  28  45  74 109 140 173 217 265 316
#     4  10  21  37  56  83 114 141 174 218 271 328
#
# _framework density 19.136683999999999
#
# number of rings (size 3 to 8) (size 9 to 14) (size 15 to 20)
#    0.000    2.250    2.500    0.375    3.500    1.000 
#    0.000    1.250    0.000    0.750    0.000    0.000 
#    0.000    0.000    0.000    0.000    0.000    0.000 
#
# Total GULP energy -396733.710237 kJ/mol
# GULP energy per Si atom -12397.928445 kJ/mol
# Density = 1.909313 g / cm^3
# Si number density = 19.136684 Si / 1000 Ang^3
#
#
#
# Elastic Constant Matrix: (Units=GPa)
#
#
# Indices 1 2 3 4 5 6 
#
# 1 135.3700 19.4702 50.7368 0.0000 -7.2021 0.0000
# 2 19.4702 16.8002 17.7925 0.0000 -0.9209 0.0000
# 3 50.7368 17.7925 143.4251 0.0000 -5.2133 0.0000
# 4 0.0000 0.0000 0.0000 3.4275 0.0000 -2.4146
# 5 -7.2021 -0.9209 -5.2133 0.0000 33.2951 0.0000
# 6 0.0000 0.0000 0.0000 -2.4146 0.0000 15.4246
#
#
#
# Elastic Compliance Matrix: (Units=1/GPa)
#
#
# Indices 1 2 3 4 5 6 
#
# 1 0.009548 -0.008593 -0.002258 0.000000 0.001474 0.000000
# 2 -0.008593 0.076271 -0.006449 0.000000 -0.000759 0.000000
# 3 -0.002258 -0.006449 0.008596 0.000000 0.000679 0.000000
# 4 0.000000 0.000000 0.000000 0.327916 0.000000 0.051332
# 5 0.001474 -0.000759 0.000679 0.000000 0.030439 0.000000
# 6 0.000000 0.000000 0.000000 0.051332 0.000000 0.072867
#
#
# Mechanical properties :
#
#
# Convention : Reuss Voigt Hill
#
# Bulk Modulus (GPa) = 16.71873 52.39937 34.55905
# Shear Modulus (GPa) = 8.61810 24.26918 16.44364
#
# Velocity S-wave (km/s) = 2.12443 3.56505 2.93452
# Velocity P-wave (km/s) = 3.84358 6.66237 5.43876
#
# Compressibility (1/GPa) = 0.05981315
#
# Stress axis : x y z
#
# Youngs Moduli (GPa) = 104.73613 13.11123 116.33577
#
# Poissons Ratio (x) = 0.11267 0.26268
# Poissons Ratio (y) = 0.90000 0.75030
# Poissons Ratio (z) = 0.23649 0.08456
#
# Static dielectric constant tensor:
#      x y z
#    x 3.741620 0.000000 -0.062700 
#    y 0.000000 2.998800 0.000000 
#    z -0.062700 0.000000 3.806410 
# 
# 
# High freq. dielectric constant tensor:
#      x y z
#    x 1.759450 0.000000 -0.001450 
#    y 0.000000 1.687450 0.000000 
#    z -0.001450 0.000000 1.756720 
# 
# From -- ./inp_files/86815.got.cif
#   From: 2010.06.25/outbox.cif.g09.slc.cpg/sg10_44_cif.got.tgz:86815.got - 2010.06.27 22:07:45.
