data_PCOD8059465
_publ_section_title
;
Structure prediction by ZEFSAII (Michael W. Deem and Ramdas Pophale) SiO2 
 PCOD8059465
Probable space group: P 2/M
;
_chemical_formula_sum "Si O2"
_cell_formula_units_Z 26
_cell_length_a 24.505363
_cell_length_b 14.977757
_cell_length_c 21.984616
_cell_angle_alpha 90.000000
_cell_angle_beta 169.252731
_cell_angle_gamma 90.000000
_cell_volume 1504.709148
_symmetry_space_group_name_H-M "P 2/M"
_symmetry_group_IT_number 10
_symmetry_cell_setting 'monoclinic'
loop_
_space_group_symop_operation_xyz
x,y,z
-x,y,-z
-x,-y,-z
x,-y,z
loop_
_atom_site_type_symbol
_atom_site_label
_atom_site_fract_x
_atom_site_fract_y
_atom_site_fract_z
Si Si1 0.558418 0.217139 0.770474
Si Si2 0.733849 0.358700 0.806531
Si Si3 0.676074 0.895925 0.018040
Si Si4 0.605907 0.597829 0.449434
Si Si5 0.343864 0.102708 0.770629
Si Si6 0.826390 0.000000 0.873490
Si Si7 0.088474 0.176237 0.959319
O O1 0.506704 0.324980 0.720522
O O2 0.257306 0.183748 0.413223
O O3 0.630979 0.171082 0.913264
O O4 0.813814 0.185821 0.004099
O O5 0.500000 0.390588 0.500000
O O6 0.627520 0.401681 0.752286
O O7 0.736111 0.251064 0.810680
O O8 0.070686 0.388977 0.166745
O O9 0.999330 0.884317 0.398697
O O10 0.617752 0.000000 0.935172
O O11 0.458980 0.859389 0.832463
O O12 0.591138 0.500000 0.401413
O O13 0.440220 0.000000 0.875701
O O14 0.500000 0.149218 0.000000
O O15 0.500000 0.000000 0.500000
O O16 0.866494 0.917586 0.961352
O O17 0.000000 0.000000 0.000000
#
# Coordination Sequence:
#
# PCOD8059465 Si02
#       7
#     4   4   4   4   4   2   4
#     4  10  21  36  50  72  99 127 164 202 244 286
#     4  10  20  34  51  71  93 118 153 199 255 310
#     4  10  19  29  49  73  98 134 166 195 227 281
#     4  10  21  35  51  71  95 123 154 200 255 301
#     4   9  17  30  46  71 104 135 163 194 230 267
#     4  12  24  36  52  70  90 126 173 204 243 300
#     4  10  22  35  50  67  95 128 157 210 248 286
#
# _framework density 17.279087000000001
#
# number of rings (size 3 to 8) (size 9 to 14) (size 15 to 20)
#    0.000    2.000    0.000    3.692    2.154    6.154 
#    0.000    0.000    0.000    0.000    0.000    0.000 
#    0.000    3.692    0.000    0.000    0.000    0.000 
#
# Total GULP energy -322140.206030 kJ/mol
# GULP energy per Si atom -12390.007924 kJ/mol
# Density = 1.723976 g / cm^3
# Si number density = 17.279087 Si / 1000 Ang^3
#
#
#
# Elastic Constant Matrix: (Units=GPa)
#
#
# Indices 1 2 3 4 5 6 
#
# 1 57.3018 38.1977 8.3262 0.0000 -1.6784 0.0000
# 2 38.1977 126.1093 19.4227 0.0000 -11.8817 0.0000
# 3 8.3262 19.4227 47.3981 0.0000 3.0594 0.0000
# 4 0.0000 0.0000 0.0000 9.9810 0.0000 1.1858
# 5 -1.6784 -11.8817 3.0594 0.0000 33.7003 0.0000
# 6 0.0000 0.0000 0.0000 1.1858 0.0000 9.4516
#
#
#
# Elastic Compliance Matrix: (Units=1/GPa)
#
#
# Indices 1 2 3 4 5 6 
#
# 1 0.021972 -0.006595 -0.001084 0.000000 -0.001132 0.000000
# 2 -0.006595 0.010829 -0.003525 0.000000 0.003810 0.000000
# 3 -0.001084 -0.003525 0.022951 0.000000 -0.003380 0.000000
# 4 0.000000 0.000000 0.000000 0.101706 0.000000 -0.012760
# 5 -0.001132 0.003810 -0.003380 0.000000 0.031267 0.000000
# 6 0.000000 0.000000 0.000000 -0.012760 0.000000 0.107403
#
#
# Mechanical properties :
#
#
# Convention : Reuss Voigt Hill
#
# Bulk Modulus (GPa) = 29.99035 40.30025 35.14530
# Shear Modulus (GPa) = 15.16756 21.61742 18.39249
#
# Velocity S-wave (km/s) = 2.96598 3.54089 3.26611
# Velocity P-wave (km/s) = 5.39662 6.33174 5.88279
#
# Compressibility (1/GPa) = 0.03334406
#
# Stress axis : x y z
#
# Youngs Moduli (GPa) = 45.51245 92.34473 43.57114
#
# Poissons Ratio (x) = 0.60900 0.04724
# Poissons Ratio (y) = 0.30015 0.15358
# Poissons Ratio (z) = 0.04934 0.32550
#
# Static dielectric constant tensor:
#      x y z
#    x 3.231360 0.000000 0.260360 
#    y 0.000000 3.426170 0.000000 
#    z 0.260360 0.000000 3.302350 
# 
# 
# High freq. dielectric constant tensor:
#      x y z
#    x 1.658980 0.000000 0.027150 
#    y 0.000000 1.648450 0.000000 
#    z 0.027150 0.000000 1.674020 
# 
# From -- ./inp_files/13281.got.cif
#   From: 2010.06.25/outbox.cif.g09.slc.cpg/sg10_7_cif.got.tgz:13281.got - 2010.06.27 22:07:45.
