data_PCOD8059270
_publ_section_title
;
Structure prediction by ZEFSAII (Michael W. Deem and Ramdas Pophale) SiO2 
 PCOD8059270
Probable space group: P 2/M
;
_chemical_formula_sum "Si O2"
_cell_formula_units_Z 32
_cell_length_a 11.293051
_cell_length_b 18.055077
_cell_length_c 13.620259
_cell_angle_alpha 90.000000
_cell_angle_beta 148.327663
_cell_angle_gamma 90.000000
_cell_volume 1458.161422
_symmetry_space_group_name_H-M "P 2/M"
_symmetry_group_IT_number 10
_symmetry_cell_setting 'monoclinic'
loop_
_space_group_symop_operation_xyz
x,y,z
-x,y,-z
-x,-y,-z
x,-y,z
loop_
_atom_site_type_symbol
_atom_site_label
_atom_site_fract_x
_atom_site_fract_y
_atom_site_fract_z
Si Si1 0.105414 0.416040 0.885760
Si Si2 0.506364 0.334973 0.268064
Si Si3 0.206067 0.083669 0.043973
Si Si4 0.997302 0.370115 0.392847
Si Si5 0.328129 0.238991 0.788568
Si Si6 0.812397 0.700669 0.788653
Si Si7 0.737265 0.140571 0.707114
Si Si8 0.399411 0.079913 0.824189
O O1 0.048680 0.500000 0.875193
O O2 0.136759 0.410118 0.789463
O O3 0.900453 0.365208 0.780869
O O4 0.342714 0.394334 0.101178
O O5 0.747499 0.368491 0.463460
O O6 0.540915 0.266634 0.216936
O O7 0.414686 0.316983 0.311795
O O8 0.259299 0.137637 0.172180
O O9 0.386269 0.101094 0.089465
O O10 0.221831 0.000000 0.094370
O O11 0.955448 0.096268 0.821102
O O12 0.000000 0.413590 0.500000
O O13 0.887366 0.289301 0.337054
O O14 0.241876 0.153494 0.710356
O O15 0.500000 0.240751 0.000000
O O16 0.764055 0.774097 0.690485
O O17 0.000000 0.721016 0.000000
O O18 0.500000 0.107525 0.500000
O O19 0.286105 0.000000 0.710989
O O20 0.500000 0.065484 0.000000
#
# Coordination Sequence:
#
# PCOD8059270 Si02
#       8
#     4   4   4   4   4   4   4   4
#     4  11  25  44  67  95 128 164 204 255 315 380
#     4  10  22  40  65  93 127 163 208 256 313 373
#     4  10  21  39  62  92 129 167 210 263 315 362
#     4  10  23  41  65  96 124 162 211 259 312 368
#     4  10  18  36  65  92 121 164 210 262 308 363
#     4  10  22  40  63  91 129 165 209 253 314 375
#     4  11  22  36  61  94 123 168 211 261 307 368
#     4   9  19  35  62  92 124 169 211 256 317 369
#
# _framework density 21.945443000000001
#
# number of rings (size 3 to 8) (size 9 to 14) (size 15 to 20)
#    0.000    1.875    2.500    1.500    3.500    4.000 
#    0.000    5.000    0.000    3.375    0.000    0.000 
#    0.000    0.000    0.000    0.000    0.000    0.000 
#
# Total GULP energy -396457.494245 kJ/mol
# GULP energy per Si atom -12389.296695 kJ/mol
# Density = 2.189549 g / cm^3
# Si number density = 21.945443 Si / 1000 Ang^3
#
#
#
# Elastic Constant Matrix: (Units=GPa)
#
#
# Indices 1 2 3 4 5 6 
#
# 1 94.4672 29.3536 13.0033 0.0000 9.4892 0.0000
# 2 29.3536 129.6008 17.7772 0.0000 0.9365 0.0000
# 3 13.0033 17.7772 80.2093 0.0000 10.9151 0.0000
# 4 0.0000 0.0000 0.0000 4.1672 0.0000 6.8036
# 5 9.4892 0.9365 10.9151 0.0000 32.6112 0.0000
# 6 0.0000 0.0000 0.0000 6.8036 0.0000 24.6272
#
#
#
# Elastic Compliance Matrix: (Units=1/GPa)
#
#
# Indices 1 2 3 4 5 6 
#
# 1 0.011805 -0.002523 -0.000940 0.000000 -0.003048 0.000000
# 2 -0.002523 0.008502 -0.001616 0.000000 0.001031 0.000000
# 3 -0.000940 -0.001616 0.013552 0.000000 -0.004216 0.000000
# 4 0.000000 0.000000 0.000000 0.437135 0.000000 -0.120764
# 5 -0.003048 0.001031 -0.004216 0.000000 0.032933 0.000000
# 6 0.000000 0.000000 0.000000 -0.120764 0.000000 0.073968
#
#
# Mechanical properties :
#
#
# Convention : Reuss Voigt Hill
#
# Bulk Modulus (GPa) = 42.19094 47.17173 44.68134
# Shear Modulus (GPa) = 8.38995 28.55733 18.47364
#
# Velocity S-wave (km/s) = 1.95739 3.61125 2.90452
# Velocity P-wave (km/s) = 4.93717 6.23938 5.62608
#
# Compressibility (1/GPa) = 0.02370177
#
# Stress axis : x y z
#
# Youngs Moduli (GPa) = 84.70876 117.62557 73.79251
#
# Poissons Ratio (x) = 0.29675 0.06936
# Poissons Ratio (y) = 0.21371 0.11921
# Poissons Ratio (z) = 0.07962 0.19002
#
# Static dielectric constant tensor:
#      x y z
#    x 3.961010 0.000000 -0.023650 
#    y 0.000000 3.997740 0.000000 
#    z -0.023650 0.000000 3.812630 
# 
# 
# High freq. dielectric constant tensor:
#      x y z
#    x 1.865840 0.000000 -0.000200 
#    y 0.000000 1.856040 0.000000 
#    z -0.000200 0.000000 1.851780 
# 
# From -- ./inp_files/65416.got.cif
#   From: 2010.06.25/outbox.cif.g09.slc.cpg/sg10_33_cif.got.tgz:65416.got - 2010.06.27 22:07:45.
