data_PCOD8059432
_publ_section_title
;
Structure prediction by ZEFSAII (Michael W. Deem and Ramdas Pophale) SiO2 
 PCOD8059432
Probable space group: P 2/M
;
_chemical_formula_sum "Si O2"
_cell_formula_units_Z 30
_cell_length_a 13.505616
_cell_length_b 9.975085
_cell_length_c 16.957023
_cell_angle_alpha 90.000000
_cell_angle_beta 128.424921
_cell_angle_gamma 90.000000
_cell_volume 1789.686851
_symmetry_space_group_name_H-M "P 2/M"
_symmetry_group_IT_number 10
_symmetry_cell_setting 'monoclinic'
loop_
_space_group_symop_operation_xyz
x,y,z
-x,y,-z
-x,-y,-z
x,-y,z
loop_
_atom_site_type_symbol
_atom_site_label
_atom_site_fract_x
_atom_site_fract_y
_atom_site_fract_z
Si Si1 0.240690 0.351243 0.195560
Si Si2 0.000000 0.759796 0.000000
Si Si3 0.593200 0.153237 0.474637
Si Si4 0.698102 0.341460 0.064123
Si Si5 0.080470 0.148515 0.873574
Si Si6 0.809707 0.151279 0.693649
Si Si7 0.446282 0.657521 0.857515
Si Si8 0.478527 0.653630 0.701425
O O1 0.229584 0.500000 0.226251
O O2 0.122779 0.330117 0.078874
O O3 0.249332 0.248435 0.271075
O O4 0.370531 0.335621 0.211516
O O5 0.032532 0.849506 0.940261
O O6 0.500000 0.191133 0.500000
O O7 0.737604 0.173898 0.575321
O O8 0.572971 0.251919 0.392220
O O9 0.569253 0.000000 0.435543
O O10 0.722771 0.500000 0.065395
O O11 0.820800 0.263510 0.096236
O O12 0.669548 0.304774 0.141836
O O13 0.579643 0.285743 0.955393
O O14 0.959424 0.176014 0.757216
O O15 0.136565 0.000000 0.885181
O O16 0.784536 0.000000 0.711490
O O17 0.465775 0.500000 0.868638
O O18 0.417944 0.704810 0.754186
O O19 0.439554 0.500000 0.662987
#
# Coordination Sequence:
#
# PCOD8059432 Si02
#       8
#     4   2   4   4   4   4   4   4
#     4  10  19  29  45  70  97 125 160 199 232 275
#     4  10  20  32  46  66 100 138 162 184 228 294
#     4  10  19  33  51  69  93 130 170 202 240 296
#     4   9  17  33  56  74  97 132 166 196 236 290
#     4  10  20  33  49  70  97 129 162 199 241 285
#     4   9  19  34  48  64  94 132 163 192 238 295
#     4   8  16  32  52  75 100 130 162 196 243 294
#     4  10  19  30  48  74 101 124 156 205 251 284
#
# _framework density 16.762709999999998
#
# number of rings (size 3 to 8) (size 9 to 14) (size 15 to 20)
#    0.000    2.533    1.333    2.000    0.000    5.067 
#    0.000    4.000    0.000    0.800    0.000    5.600 
#    0.000    0.000    0.000    0.000    0.000    0.000 
#
# Total GULP energy -371837.182097 kJ/mol
# GULP energy per Si atom -12394.572737 kJ/mol
# Density = 1.672456 g / cm^3
# Si number density = 16.762710 Si / 1000 Ang^3
#
#
#
# Elastic Constant Matrix: (Units=GPa)
#
#
# Indices 1 2 3 4 5 6 
#
# 1 82.5849 41.4741 47.4342 0.0000 -5.7331 0.0000
# 2 41.4741 78.3021 44.5969 0.0000 -6.1455 0.0000
# 3 47.4342 44.5969 106.6894 0.0000 -6.4792 0.0000
# 4 0.0000 0.0000 0.0000 25.8560 0.0000 11.7558
# 5 -5.7331 -6.1455 -6.4792 0.0000 26.9519 0.0000
# 6 0.0000 0.0000 0.0000 11.7558 0.0000 37.6226
#
#
#
# Elastic Compliance Matrix: (Units=1/GPa)
#
#
# Indices 1 2 3 4 5 6 
#
# 1 0.018676 -0.006711 -0.005429 0.000000 0.001137 0.000000
# 2 -0.006711 0.019299 -0.004976 0.000000 0.001777 0.000000
# 3 -0.005429 -0.004976 0.013931 0.000000 0.001060 0.000000
# 4 0.000000 0.000000 0.000000 0.045080 0.000000 -0.014086
# 5 0.001137 0.001777 0.001060 0.000000 0.038005 0.000000
# 6 0.000000 0.000000 0.000000 -0.014086 0.000000 0.030981
#
#
# Mechanical properties :
#
#
# Convention : Reuss Voigt Hill
#
# Bulk Modulus (GPa) = 56.57706 59.39854 57.98780
# Shear Modulus (GPa) = 24.26067 27.02419 25.64243
#
# Velocity S-wave (km/s) = 3.80847 4.01953 3.91542
# Velocity P-wave (km/s) = 7.29138 7.55341 7.42355
#
# Compressibility (1/GPa) = 0.01767501
#
# Stress axis : x y z
#
# Youngs Moduli (GPa) = 53.54407 51.81683 71.78230
#
# Poissons Ratio (x) = 0.34773 0.38973
# Poissons Ratio (y) = 0.35932 0.35715
# Poissons Ratio (z) = 0.29071 0.25782
#
# Static dielectric constant tensor:
#      x y z
#    x 3.156840 0.000000 -0.039470 
#    y 0.000000 3.030870 0.000000 
#    z -0.039470 0.000000 3.314560 
# 
# 
# High freq. dielectric constant tensor:
#      x y z
#    x 1.627010 0.000000 0.005130 
#    y 0.000000 1.638930 0.000000 
#    z 0.005130 0.000000 1.641510 
# 
# From -- ./inp_files/77564.got.cif
#   From: 2010.06.25/outbox.cif.g09.slc.cpg/sg10_39_cif.got.tgz:77564.got - 2010.06.27 22:07:45.
