data_PCOD8059633
_publ_section_title
;
Structure prediction by ZEFSAII (Michael W. Deem and Ramdas Pophale) SiO2 
 PCOD8059633
Probable space group: P 2/M
;
_chemical_formula_sum "Si O2"
_cell_formula_units_Z 28
_cell_length_a 19.318234
_cell_length_b 9.155880
_cell_length_c 16.627759
_cell_angle_alpha 90.000000
_cell_angle_beta 32.328708
_cell_angle_gamma 90.000000
_cell_volume 1572.798121
_symmetry_space_group_name_H-M "P 2/M"
_symmetry_group_IT_number 10
_symmetry_cell_setting 'monoclinic'
loop_
_space_group_symop_operation_xyz
x,y,z
-x,y,-z
-x,-y,-z
x,-y,z
loop_
_atom_site_type_symbol
_atom_site_label
_atom_site_fract_x
_atom_site_fract_y
_atom_site_fract_z
Si Si1 0.123573 0.831793 0.541122
Si Si2 0.846504 0.338153 0.640785
Si Si3 0.753535 0.830923 0.411495
Si Si4 0.011347 0.334648 0.894289
Si Si5 0.505484 0.326710 0.587811
Si Si6 0.855840 0.671421 0.805403
Si Si7 0.250689 0.328809 0.924587
O O1 0.193217 0.768565 0.392639
O O2 0.222266 0.809021 0.517416
O O3 0.989837 0.751972 0.693015
O O4 0.091431 0.000000 0.557302
O O5 0.793160 0.500000 0.673266
O O6 0.793765 0.282723 0.779858
O O7 0.000000 0.341323 0.500000
O O8 0.871683 0.768245 0.244767
O O9 0.625242 0.745791 0.514304
O O10 0.737665 0.000000 0.404916
O O11 0.034974 0.500000 0.838694
O O12 0.000000 0.336377 0.000000
O O13 0.879729 0.265883 0.987373
O O14 0.500000 0.280758 0.500000
O O15 0.518892 0.500000 0.583728
O O16 0.377726 0.262826 0.757618
O O17 0.889785 0.500000 0.770311
O O18 0.752204 0.708037 0.977124
O O19 0.252810 0.500000 0.905963
#
# Coordination Sequence:
#
# PCOD8059633 Si02
#       7
#     4   4   4   4   4   4   4
#     4  10  19  30  46  72 105 137 172 208 247 303
#     4   8  15  26  44  71 101 132 166 207 257 309
#     4  11  23  36  51  76 109 142 174 210 256 312
#     4  10  19  33  56  81 102 130 170 217 266 310
#     4  10  21  38  58  78 101 134 179 222 260 309
#     4   9  16  29  49  74 103 133 167 210 263 312
#     4   9  17  31  53  78 103 131 168 218 266 307
#
# _framework density 17.802667
#
# number of rings (size 3 to 8) (size 9 to 14) (size 15 to 20)
#    0.000    2.429    1.429    2.571    0.000    7.143 
#    0.000    1.429    0.000    0.857    0.000    6.000 
#    0.000    0.000    0.000    0.000    0.000    0.000 
#
# Total GULP energy -347107.838188 kJ/mol
# GULP energy per Si atom -12396.708507 kJ/mol
# Density = 1.776215 g / cm^3
# Si number density = 17.802667 Si / 1000 Ang^3
#
#
#
# Elastic Constant Matrix: (Units=GPa)
#
#
# Indices 1 2 3 4 5 6 
#
# 1 100.0174 44.3200 63.3642 0.0000 14.1206 0.0000
# 2 44.3200 57.8383 33.1478 0.0000 5.1326 0.0000
# 3 63.3642 33.1478 125.5096 0.0000 10.4927 0.0000
# 4 0.0000 0.0000 0.0000 7.6248 0.0000 2.1739
# 5 14.1206 5.1326 10.4927 0.0000 32.9969 0.0000
# 6 0.0000 0.0000 0.0000 2.1739 0.0000 23.0175
#
#
#
# Elastic Compliance Matrix: (Units=1/GPa)
#
#
# Indices 1 2 3 4 5 6 
#
# 1 0.019697 -0.010848 -0.006694 0.000000 -0.004613 0.000000
# 2 -0.010848 0.026420 -0.001588 0.000000 0.001038 0.000000
# 3 -0.006694 -0.001588 0.011820 0.000000 -0.000647 0.000000
# 4 0.000000 0.000000 0.000000 0.134780 0.000000 -0.012729
# 5 -0.004613 0.001038 -0.000647 0.000000 0.032325 0.000000
# 6 0.000000 0.000000 0.000000 -0.012729 0.000000 0.044647
#
#
# Mechanical properties :
#
#
# Convention : Reuss Voigt Hill
#
# Bulk Modulus (GPa) = 50.81585 62.78105 56.79845
# Shear Modulus (GPa) = 15.89790 22.23005 19.06397
#
# Velocity S-wave (km/s) = 2.99156 3.53752 3.27593
# Velocity P-wave (km/s) = 6.36699 7.21297 6.80314
#
# Compressibility (1/GPa) = 0.01967890
#
# Stress axis : x y z
#
# Youngs Moduli (GPa) = 50.76901 37.85024 84.60061
#
# Poissons Ratio (x) = 0.41059 0.56628
# Poissons Ratio (y) = 0.55073 0.13433
# Poissons Ratio (z) = 0.33982 0.06010
#
# Static dielectric constant tensor:
#      x y z
#    x 3.501390 0.000000 0.366460 
#    y 0.000000 3.206620 0.000000 
#    z 0.366460 0.000000 3.444400 
# 
# 
# High freq. dielectric constant tensor:
#      x y z
#    x 1.692110 0.000000 0.027970 
#    y 0.000000 1.670440 0.000000 
#    z 0.027970 0.000000 1.671850 
# 
# From -- ./inp_files/79218.got.cif
#   From: 2010.06.25/outbox.cif.g09.slc.cpg/sg10_40_cif.got.tgz:79218.got - 2010.06.27 22:07:45.
