data_PCOD8059922
_publ_section_title
;
Structure prediction by ZEFSAII (Michael W. Deem and Ramdas Pophale) SiO2 
 PCOD8059922
Probable space group: P 2/M
;
_chemical_formula_sum "Si O2"
_cell_formula_units_Z 32
_cell_length_a 12.063381
_cell_length_b 9.229663
_cell_length_c 25.213981
_cell_angle_alpha 90.000000
_cell_angle_beta 45.261377
_cell_angle_gamma 90.000000
_cell_volume 1994.130172
_symmetry_space_group_name_H-M "P 2/M"
_symmetry_group_IT_number 10
_symmetry_cell_setting 'monoclinic'
loop_
_space_group_symop_operation_xyz
x,y,z
-x,y,-z
-x,-y,-z
x,-y,z
loop_
_atom_site_type_symbol
_atom_site_label
_atom_site_fract_x
_atom_site_fract_y
_atom_site_fract_z
Si Si1 0.931536 0.336304 0.077250
Si Si2 0.285426 0.833437 0.461105
Si Si3 0.993671 0.830345 0.625593
Si Si4 0.306962 0.167066 0.331835
Si Si5 0.872089 0.834479 0.310041
Si Si6 0.122822 0.166850 0.808351
Si Si7 0.380914 0.664625 0.768851
Si Si8 0.443851 0.332364 0.577838
O O1 0.994929 0.500000 0.062834
O O2 0.987615 0.242323 0.109759
O O3 0.741236 0.334056 0.140204
O O4 0.000000 0.268309 0.000000
O O5 0.142037 0.766400 0.543431
O O6 0.247577 0.816914 0.411946
O O7 0.442372 0.745519 0.419190
O O8 0.314688 0.000000 0.467204
O O9 0.007232 0.793873 0.683685
O O10 0.830555 0.767340 0.658840
O O11 0.990672 0.000000 0.614756
O O12 0.459451 0.260614 0.267683
O O13 0.345166 0.000000 0.305611
O O14 0.952604 0.816881 0.224925
O O15 0.728597 0.727850 0.360453
O O16 0.813939 0.000000 0.337416
O O17 0.294494 0.245248 0.750656
O O18 0.146954 0.000000 0.815591
O O19 0.412600 0.500000 0.739163
O O20 0.500000 0.301530 0.500000
O O21 0.441798 0.500000 0.593283
#
# Coordination Sequence:
#
# PCOD8059922 Si02
#       8
#     4   4   4   4   4   4   4   4
#     4   8  16  31  49  71 100 129 150 172 216 276
#     4  10  19  32  50  66  84 117 159 200 240 280
#     4   9  18  32  48  64  86 120 161 201 235 268
#     4  10  19  31  48  69  89 115 158 203 234 268
#     4  10  19  32  48  65  89 122 156 189 230 281
#     4   9  17  28  46  73  97 118 148 185 222 265
#     4   9  18  31  47  68  95 125 150 178 226 277
#     4  11  22  32  44  64  90 117 152 198 243 281
#
# _framework density 16.047097000000001
#
# number of rings (size 3 to 8) (size 9 to 14) (size 15 to 20)
#    0.750    1.750    1.250    1.875    0.000    6.750 
#    0.000    1.250    0.000    1.500    0.000    0.875 
#    0.000    7.000    0.000    0.000    0.000    0.000 
#
# Total GULP energy -396558.324681 kJ/mol
# GULP energy per Si atom -12392.447646 kJ/mol
# Density = 1.601057 g / cm^3
# Si number density = 16.047097 Si / 1000 Ang^3
#
#
#
# Elastic Constant Matrix: (Units=GPa)
#
#
# Indices 1 2 3 4 5 6 
#
# 1 105.1785 31.2599 38.4564 0.0000 15.8254 0.0000
# 2 31.2599 60.2169 31.9272 0.0000 13.1978 0.0000
# 3 38.4564 31.9272 74.1264 0.0000 18.6025 0.0000
# 4 0.0000 0.0000 0.0000 22.3843 0.0000 -1.3280
# 5 15.8254 13.1978 18.6025 0.0000 18.6881 0.0000
# 6 0.0000 0.0000 0.0000 -1.3280 0.0000 4.8638
#
#
#
# Elastic Compliance Matrix: (Units=1/GPa)
#
#
# Indices 1 2 3 4 5 6 
#
# 1 0.012650 -0.003525 -0.003974 0.000000 -0.004268 0.000000
# 2 -0.003525 0.023430 -0.006478 0.000000 -0.007114 0.000000
# 3 -0.003974 -0.006478 0.021794 0.000000 -0.013754 0.000000
# 4 0.000000 0.000000 0.000000 0.045410 0.000000 0.012399
# 5 -0.004268 -0.007114 -0.013754 0.000000 0.075839 0.000000
# 6 0.000000 0.000000 0.000000 0.012399 0.000000 0.208986
#
#
# Mechanical properties :
#
#
# Convention : Reuss Voigt Hill
#
# Bulk Modulus (GPa) = 33.42069 49.20097 41.31083
# Shear Modulus (GPa) = 11.73611 18.37912 15.05762
#
# Velocity S-wave (km/s) = 2.70729 3.38793 3.06656
# Velocity P-wave (km/s) = 5.53574 6.78462 6.19175
#
# Compressibility (1/GPa) = 0.02992159
#
# Stress axis : x y z
#
# Youngs Moduli (GPa) = 79.04960 42.68015 45.88459
#
# Poissons Ratio (x) = 0.15044 0.18233
# Poissons Ratio (y) = 0.27863 0.29723
# Poissons Ratio (z) = 0.31412 0.27647
#
# Static dielectric constant tensor:
#      x y z
#    x 3.016530 0.000000 0.159950 
#    y 0.000000 2.982300 0.000000 
#    z 0.159950 0.000000 2.935300 
# 
# 
# High freq. dielectric constant tensor:
#      x y z
#    x 1.598970 0.000000 0.016470 
#    y 0.000000 1.611540 0.000000 
#    z 0.016470 0.000000 1.595260 
# 
# From -- ./inp_files/92452.got.cif
#   From: 2010.06.25/outbox.cif.g09.slc.cpg/sg10_47_cif.got.tgz:92452.got - 2010.06.27 22:07:45.
