data_PCOD8059739
_publ_section_title
;
Structure prediction by ZEFSAII (Michael W. Deem and Ramdas Pophale) SiO2 
 PCOD8059739
Probable space group: P 2/M
;
_chemical_formula_sum "Si O2"
_cell_formula_units_Z 28
_cell_length_a 26.684542
_cell_length_b 13.539620
_cell_length_c 23.914386
_cell_angle_alpha 90.000000
_cell_angle_beta 9.806898
_cell_angle_gamma 90.000000
_cell_volume 1471.674796
_symmetry_space_group_name_H-M "P 2/M"
_symmetry_group_IT_number 10
_symmetry_cell_setting 'monoclinic'
loop_
_space_group_symop_operation_xyz
x,y,z
-x,y,-z
-x,-y,-z
x,-y,z
loop_
_atom_site_type_symbol
_atom_site_label
_atom_site_fract_x
_atom_site_fract_y
_atom_site_fract_z
Si Si1 0.222287 0.612925 0.929153
Si Si2 0.662526 0.732791 0.378122
Si Si3 0.116918 0.197072 0.674904
Si Si4 0.221673 0.393094 0.053217
Si Si5 0.385732 0.305219 0.288528
Si Si6 0.660484 0.386118 0.881372
Si Si7 0.516159 0.113450 0.630524
O O1 0.110740 0.500000 0.040728
O O2 0.481966 0.639531 0.600802
O O3 0.361589 0.622984 0.838091
O O4 0.957059 0.693300 0.217892
O O5 0.500000 0.766035 0.500000
O O6 0.665694 0.825561 0.416292
O O7 0.000000 0.698665 0.000000
O O8 0.229938 0.206656 0.485563
O O9 0.363008 0.147292 0.442396
O O10 0.832662 0.128285 0.986583
O O11 0.299472 0.500000 0.991494
O O12 0.868737 0.387079 0.435748
O O13 0.358308 0.319652 0.947357
O O14 0.537509 0.305202 0.060882
O O15 0.614553 0.500000 0.952168
O O16 0.000000 0.362944 0.500000
O O17 0.500000 0.366714 0.000000
O O18 0.593384 0.000000 0.535083
#
# Coordination Sequence:
#
# PCOD8059739 Si02
#       7
#     4   4   4   4   4   4   4
#     4   9  20  37  55  78 111 148 184 226 272 314
#     4  11  23  38  55  79 111 144 184 221 259 330
#     4  10  21  38  59  87 111 135 180 228 276 336
#     4  10  19  30  49  73  97 136 186 228 268 309
#     4  11  19  32  51  73 107 141 178 228 273 307
#     4  10  20  31  44  68 107 154 197 225 246 289
#     4  11  23  42  64  83 108 136 169 229 294 335
#
# _framework density 19.025942000000001
#
# number of rings (size 3 to 8) (size 9 to 14) (size 15 to 20)
#    0.000    1.714    0.000    6.857    0.000    4.571 
#    0.000    8.571    0.000    0.000    0.000    0.000 
#    0.000   11.429    0.000    0.000    0.000    0.000 
#
# Total GULP energy -346963.081233 kJ/mol
# GULP energy per Si atom -12391.538615 kJ/mol
# Density = 1.898264 g / cm^3
# Si number density = 19.025942 Si / 1000 Ang^3
#
#
#
# Elastic Constant Matrix: (Units=GPa)
#
#
# Indices 1 2 3 4 5 6 
#
# 1 100.4632 17.2953 43.4798 0.0000 6.3122 0.0000
# 2 17.2953 74.6832 11.7548 0.0000 3.0357 0.0000
# 3 43.4798 11.7548 88.4761 0.0000 4.3136 0.0000
# 4 0.0000 0.0000 0.0000 15.3735 0.0000 -3.9544
# 5 6.3122 3.0357 4.3136 0.0000 39.6383 0.0000
# 6 0.0000 0.0000 0.0000 -3.9544 0.0000 17.7087
#
#
#
# Elastic Compliance Matrix: (Units=1/GPa)
#
#
# Indices 1 2 3 4 5 6 
#
# 1 0.013002 -0.002006 -0.006062 0.000000 -0.001257 0.000000
# 2 -0.002006 0.014014 -0.000844 0.000000 -0.000662 0.000000
# 3 -0.006062 -0.000844 0.014420 0.000000 -0.000539 0.000000
# 4 0.000000 0.000000 0.000000 0.069011 0.000000 0.015410
# 5 -0.001257 -0.000662 -0.000539 0.000000 0.025538 0.000000
# 6 0.000000 0.000000 0.000000 0.015410 0.000000 0.059911
#
#
# Mechanical properties :
#
#
# Convention : Reuss Voigt Hill
#
# Bulk Modulus (GPa) = 42.34976 45.40917 43.87947
# Shear Modulus (GPa) = 22.56439 27.28362 24.92400
#
# Velocity S-wave (km/s) = 3.44754 3.79096 3.62332
# Velocity P-wave (km/s) = 6.17695 6.56358 6.37320
#
# Compressibility (1/GPa) = 0.02361288
#
# Stress axis : x y z
#
# Youngs Moduli (GPa) = 76.91363 71.35653 69.34937
#
# Poissons Ratio (x) = 0.14313 0.42037
# Poissons Ratio (y) = 0.15427 0.05853
# Poissons Ratio (z) = 0.46622 0.06022
#
# Static dielectric constant tensor:
#      x y z
#    x 3.590550 0.000000 0.064600 
#    y 0.000000 3.252680 0.000000 
#    z 0.064600 0.000000 3.562470 
# 
# 
# High freq. dielectric constant tensor:
#      x y z
#    x 1.744400 0.000000 -0.010970 
#    y 0.000000 1.691600 0.000000 
#    z -0.010970 0.000000 1.749910 
# 
# From -- ./inp_files/91267.got.cif
#   From: 2010.06.25/outbox.cif.g09.slc.cpg/sg10_46_cif.got.tgz:91267.got - 2010.06.27 22:07:45.
