data_PCOD8059555
_publ_section_title
;
Structure prediction by ZEFSAII (Michael W. Deem and Ramdas Pophale) SiO2 
 PCOD8059555
Probable space group: P 2/M
;
_chemical_formula_sum "Si O2"
_cell_formula_units_Z 32
_cell_length_a 20.822187
_cell_length_b 18.408796
_cell_length_c 5.028925
_cell_angle_alpha 90.000000
_cell_angle_beta 117.398647
_cell_angle_gamma 90.000000
_cell_volume 1711.413166
_symmetry_space_group_name_H-M "P 2/M"
_symmetry_group_IT_number 10
_symmetry_cell_setting 'monoclinic'
loop_
_space_group_symop_operation_xyz
x,y,z
-x,y,-z
-x,-y,-z
x,-y,z
loop_
_atom_site_type_symbol
_atom_site_label
_atom_site_fract_x
_atom_site_fract_y
_atom_site_fract_z
Si Si1 0.292294 0.581679 0.653292
Si Si2 0.649212 0.267527 0.332463
Si Si3 0.080080 0.789451 0.110841
Si Si4 0.801579 0.419572 0.026254
Si Si5 0.416329 0.198201 0.293372
Si Si6 0.921197 0.304870 0.390575
Si Si7 0.701441 0.915724 0.876624
Si Si8 0.768151 0.152143 0.503775
O O1 0.325745 0.500000 0.677898
O O2 0.349789 0.645566 0.709546
O O3 0.225481 0.592625 0.324665
O O4 0.265571 0.591646 0.903169
O O5 0.617683 0.255218 0.564888
O O6 0.729503 0.231363 0.460422
O O7 0.594972 0.230499 0.020972
O O8 0.088160 0.721101 0.324722
O O9 0.145492 0.844800 0.290023
O O10 0.087834 0.763803 0.822070
O O11 0.000000 0.825590 0.000000
O O12 0.833940 0.500000 0.122777
O O13 0.863569 0.364574 0.213081
O O14 0.500000 0.184640 0.500000
O O15 0.377468 0.120431 0.248604
O O16 0.000000 0.340211 0.500000
O O17 0.733374 0.904148 0.644275
O O18 0.692463 0.000000 0.920738
O O19 0.756298 0.878317 0.186848
#
# Coordination Sequence:
#
# PCOD8059555 Si02
#       8
#     4   4   4   4   4   4   4   4
#     4  10  20  33  51  74 100 132 173 220 261 299
#     4  10  19  33  55  78 103 137 175 214 254 300
#     4  10  20  33  51  74 100 132 173 220 261 299
#     4  10  19  30  45  67  96 130 169 214 264 314
#     4  10  21  36  56  82 108 136 167 202 250 306
#     4  10  19  30  45  67  96 130 169 214 264 314
#     4  10  21  36  56  82 108 136 167 202 250 306
#     4  10  19  33  55  78 103 137 175 214 254 300
#
# _framework density 18.697997000000001
#
# number of rings (size 3 to 8) (size 9 to 14) (size 15 to 20)
#    0.000    2.000    0.000    4.500    0.000    2.500 
#    0.000    0.000    0.000   13.500    0.000    0.000 
#    0.000    0.000    0.000    0.000    0.000    0.000 
#
# Total GULP energy -396818.485484 kJ/mol
# GULP energy per Si atom -12400.577671 kJ/mol
# Density = 1.865544 g / cm^3
# Si number density = 18.697997 Si / 1000 Ang^3
#
#
#
# Elastic Constant Matrix: (Units=GPa)
#
#
# Indices 1 2 3 4 5 6 
#
# 1 50.8557 29.2603 25.0947 0.0000 13.9865 0.0000
# 2 29.2603 90.8626 9.5840 0.0000 17.8985 0.0000
# 3 25.0947 9.5840 73.6453 0.0000 12.5151 0.0000
# 4 0.0000 0.0000 0.0000 16.7057 0.0000 0.6270
# 5 13.9865 17.8985 12.5151 0.0000 42.3394 0.0000
# 6 0.0000 0.0000 0.0000 0.6270 0.0000 13.9966
#
#
#
# Elastic Compliance Matrix: (Units=1/GPa)
#
#
# Indices 1 2 3 4 5 6 
#
# 1 0.029332 -0.007793 -0.008311 0.000000 -0.003938 0.000000
# 2 -0.007793 0.014114 0.001469 0.000000 -0.003826 0.000000
# 3 -0.008311 0.001469 0.016697 0.000000 -0.002811 0.000000
# 4 0.000000 0.000000 0.000000 0.059961 0.000000 -0.002686
# 5 -0.003938 -0.003826 -0.002811 0.000000 0.027368 0.000000
# 6 0.000000 0.000000 0.000000 -0.002686 0.000000 0.071566
#
#
# Mechanical properties :
#
#
# Convention : Reuss Voigt Hill
#
# Bulk Modulus (GPa) = 32.39195 38.13796 35.26496
# Shear Modulus (GPa) = 19.33488 24.70330 22.01909
#
# Velocity S-wave (km/s) = 3.21917 3.63874 3.43537
# Velocity P-wave (km/s) = 5.58380 6.17211 5.88531
#
# Compressibility (1/GPa) = 0.03087187
#
# Stress axis : x y z
#
# Youngs Moduli (GPa) = 34.09277 70.85137 59.89020
#
# Poissons Ratio (x) = 0.55216 0.49777
# Poissons Ratio (y) = 0.26569 -0.08798
# Poissons Ratio (z) = 0.28336 -0.10408
#
# Static dielectric constant tensor:
#      x y z
#    x 3.379760 0.000000 -0.209870 
#    y 0.000000 3.240260 0.000000 
#    z -0.209870 0.000000 3.608580 
# 
# 
# High freq. dielectric constant tensor:
#      x y z
#    x 1.717540 0.000000 -0.020630 
#    y 0.000000 1.703150 0.000000 
#    z -0.020630 0.000000 1.740450 
# 
# From -- ./inp_files/12866.got.cif
#   From: 2010.06.25/outbox.cif.g09.slc.cpg/sg10_7_cif.got.tgz:12866.got - 2010.06.27 22:07:45.
