data_PCOD8059605
_publ_section_title
;
Structure prediction by ZEFSAII (Michael W. Deem and Ramdas Pophale) SiO2 
 PCOD8059605
Probable space group: P 2/M
;
_chemical_formula_sum "Si O2"
_cell_formula_units_Z 32
_cell_length_a 17.928059
_cell_length_b 8.895594
_cell_length_c 24.862005
_cell_angle_alpha 90.000000
_cell_angle_beta 153.278911
_cell_angle_gamma 90.000000
_cell_volume 1782.858361
_symmetry_space_group_name_H-M "P 2/M"
_symmetry_group_IT_number 10
_symmetry_cell_setting 'monoclinic'
loop_
_space_group_symop_operation_xyz
x,y,z
-x,y,-z
-x,-y,-z
x,-y,z
loop_
_atom_site_type_symbol
_atom_site_label
_atom_site_fract_x
_atom_site_fract_y
_atom_site_fract_z
Si Si1 0.712049 0.323325 0.031725
Si Si2 0.415723 0.834022 0.888059
Si Si3 0.782800 0.175886 0.965016
Si Si4 0.888843 0.178083 0.245771
Si Si5 0.406316 0.178725 0.259731
Si Si6 0.317499 0.178806 0.395458
Si Si7 0.744693 0.821663 0.526602
Si Si8 0.849669 0.176435 0.817825
O O1 0.725250 0.500000 0.044865
O O2 0.767387 0.271699 0.008718
O O3 0.833031 0.252260 0.153927
O O4 0.519465 0.275978 0.916555
O O5 0.228633 0.773643 0.779503
O O6 0.411430 0.000000 0.858457
O O7 0.500000 0.844835 0.000000
O O8 0.957379 0.211966 0.047741
O O9 0.771677 0.000000 0.972890
O O10 0.640452 0.225651 0.831210
O O11 0.076451 0.227007 0.382109
O O12 0.874960 0.000000 0.227349
O O13 0.590599 0.242100 0.392176
O O14 0.269966 0.247131 0.213455
O O15 0.402796 0.000000 0.262009
O O16 0.500000 0.238026 0.500000
O O17 0.263129 0.244473 0.418039
O O18 0.196809 0.240872 0.271103
O O19 0.313083 0.000000 0.395043
O O20 0.729466 0.000000 0.518262
O O21 0.816203 0.000000 0.796335
#
# Coordination Sequence:
#
# PCOD8059605 Si02
#       8
#     4   4   4   4   4   4   4   4
#     4  11  21  32  48  70  96 124 157 193 231 280
#     4   8  15  29  49  72  98 122 145 181 235 289
#     4  10  19  30  46  68  95 126 161 201 239 271
#     4   9  17  30  50  76 101 123 147 184 236 288
#     4   9  16  26  42  67  97 126 159 199 235 271
#     4   9  13  18  31  55  92 127 148 177 225 274
#     4   9  15  24  41  68 101 128 152 185 231 282
#     4   9  15  24  40  65  95 124 156 195 239 279
#
# _framework density 17.948705
#
# number of rings (size 3 to 8) (size 9 to 14) (size 15 to 20)
#    0.000    2.750    1.250    3.000    0.000    5.750 
#    0.000    0.000    0.000    3.000    0.000    6.125 
#    0.000    0.000    0.000    0.000    0.000    0.000 
#
# Total GULP energy -396544.045612 kJ/mol
# GULP energy per Si atom -12392.001425 kJ/mol
# Density = 1.790785 g / cm^3
# Si number density = 17.948705 Si / 1000 Ang^3
#
#
#
# Elastic Constant Matrix: (Units=GPa)
#
#
# Indices 1 2 3 4 5 6 
#
# 1 71.6931 22.4316 46.2785 0.0000 19.3619 0.0000
# 2 22.4316 34.6533 20.4712 0.0000 3.1014 0.0000
# 3 46.2785 20.4712 118.9231 0.0000 13.0534 0.0000
# 4 0.0000 0.0000 0.0000 1.8216 0.0000 -1.3297
# 5 19.3619 3.1014 13.0534 0.0000 30.6452 0.0000
# 6 0.0000 0.0000 0.0000 -1.3297 0.0000 2.9240
#
#
#
# Elastic Compliance Matrix: (Units=1/GPa)
#
#
# Indices 1 2 3 4 5 6 
#
# 1 0.024779 -0.011191 -0.006422 0.000000 -0.011787 0.000000
# 2 -0.011191 0.037204 -0.002530 0.000000 0.004383 0.000000
# 3 -0.006422 -0.002530 0.011403 0.000000 -0.000543 0.000000
# 4 0.000000 0.000000 0.000000 0.821777 0.000000 0.373704
# 5 -0.011787 0.004383 -0.000543 0.000000 0.039867 0.000000
# 6 0.000000 0.000000 0.000000 0.373704 0.000000 0.511940
#
#
# Mechanical properties :
#
#
# Convention : Reuss Voigt Hill
#
# Bulk Modulus (GPa) = 30.21272 44.84802 37.53037
# Shear Modulus (GPa) = 3.33714 16.15069 9.74391
#
# Velocity S-wave (km/s) = 1.36503 3.00296 2.33250
# Velocity P-wave (km/s) = 4.39929 6.08808 5.31124
#
# Compressibility (1/GPa) = 0.03309865
#
# Stress axis : x y z
#
# Youngs Moduli (GPa) = 40.35702 26.87893 87.69393
#
# Poissons Ratio (x) = 0.30080 0.56321
# Poissons Ratio (y) = 0.45163 0.22191
# Poissons Ratio (z) = 0.25919 0.06802
#
# Static dielectric constant tensor:
#      x y z
#    x 3.519830 0.000000 0.327570 
#    y 0.000000 2.717920 0.000000 
#    z 0.327570 0.000000 3.628930 
# 
# 
# High freq. dielectric constant tensor:
#      x y z
#    x 1.690930 0.000000 0.018150 
#    y 0.000000 1.627940 0.000000 
#    z 0.018150 0.000000 1.691030 
# 
# From -- ./inp_files/89976.got.cif
#   From: 2010.06.25/outbox.cif.g09.slc.cpg/sg10_45_cif.got.tgz:89976.got - 2010.06.27 22:07:45.
