data_PCOD8059354
_publ_section_title
;
Structure prediction by ZEFSAII (Michael W. Deem and Ramdas Pophale) SiO2 
 PCOD8059354
Probable space group: P 2/M
;
_chemical_formula_sum "Si O2"
_cell_formula_units_Z 32
_cell_length_a 16.599547
_cell_length_b 8.939986
_cell_length_c 23.395536
_cell_angle_alpha 90.000000
_cell_angle_beta 149.375276
_cell_angle_gamma 90.000000
_cell_volume 1768.625656
_symmetry_space_group_name_H-M "P 2/M"
_symmetry_group_IT_number 10
_symmetry_cell_setting 'monoclinic'
loop_
_space_group_symop_operation_xyz
x,y,z
-x,y,-z
-x,-y,-z
x,-y,z
loop_
_atom_site_type_symbol
_atom_site_label
_atom_site_fract_x
_atom_site_fract_y
_atom_site_fract_z
Si Si1 0.256119 0.324304 0.281966
Si Si2 0.476987 0.826711 0.749428
Si Si3 0.864380 0.676404 0.583703
Si Si4 0.887154 0.174503 0.481883
Si Si5 0.529455 0.177046 0.384262
Si Si6 0.000972 0.162464 0.936066
Si Si7 0.744943 0.677180 0.973483
Si Si8 0.995283 0.324635 0.781385
O O1 0.290807 0.500000 0.304454
O O2 0.420784 0.241564 0.368952
O O3 0.163307 0.265873 0.282376
O O4 0.140275 0.278563 0.160296
O O5 0.292357 0.789395 0.644925
O O6 0.527273 0.780899 0.715076
O O7 0.566369 0.736094 0.854741
O O8 0.512279 0.000000 0.781241
O O9 0.835945 0.500000 0.562545
O O10 0.937894 0.736025 0.569662
O O11 0.701456 0.755913 0.499416
O O12 0.987263 0.718181 0.709789
O O13 0.000000 0.229439 0.500000
O O14 0.909766 0.000000 0.508872
O O15 0.538815 0.000000 0.396207
O O16 0.984657 0.000000 0.893504
O O17 0.163708 0.246557 0.022742
O O18 0.000000 0.118815 0.000000
O O19 0.744017 0.500000 0.968388
O O20 0.838694 0.731787 0.088620
O O21 0.991535 0.500000 0.788490
#
# Coordination Sequence:
#
# PCOD8059354 Si02
#       8
#     4   4   4   4   4   4   4   4
#     4  10  19  31  46  65  92 130 176 216 252 293
#     4   9  18  32  50  73 101 130 159 197 248 298
#     4  10  19  34  55  75  98 129 167 206 245 295
#     4   9  19  37  59  82 108 131 151 189 249 305
#     4  10  20  33  47  69 102 134 168 213 263 302
#     4  10  19  29  41  60  90 127 166 211 259 297
#     4  10  19  31  48  69  95 129 168 205 243 290
#     4   8  18  34  48  67  98 135 170 209 253 288
#
# _framework density 18.093143000000001
#
# number of rings (size 3 to 8) (size 9 to 14) (size 15 to 20)
#    0.000    2.500    0.000    4.125    0.000    7.250 
#    0.000   10.000    0.000    0.750    0.000    5.250 
#    0.000    0.000    0.000    0.000    0.000    0.000 
#
# Total GULP energy -396441.628381 kJ/mol
# GULP energy per Si atom -12388.800887 kJ/mol
# Density = 1.805196 g / cm^3
# Si number density = 18.093143 Si / 1000 Ang^3
#
#
#
# Elastic Constant Matrix: (Units=GPa)
#
#
# Indices 1 2 3 4 5 6 
#
# 1 87.4174 35.5108 52.3702 0.0000 -8.6882 0.0000
# 2 35.5108 76.0903 42.2551 0.0000 -7.6906 0.0000
# 3 52.3702 42.2551 106.9414 0.0000 -18.2418 0.0000
# 4 0.0000 0.0000 0.0000 13.2699 0.0000 -1.3219
# 5 -8.6882 -7.6906 -18.2418 0.0000 20.5131 0.0000
# 6 0.0000 0.0000 0.0000 -1.3219 0.0000 17.1188
#
#
#
# Elastic Compliance Matrix: (Units=1/GPa)
#
#
# Indices 1 2 3 4 5 6 
#
# 1 0.017222 -0.004299 -0.006796 0.000000 -0.000362 0.000000
# 2 -0.004299 0.017914 -0.004878 0.000000 0.000558 0.000000
# 3 -0.006796 -0.004878 0.016272 0.000000 0.009763 0.000000
# 4 0.000000 0.000000 0.000000 0.075943 0.000000 0.005864
# 5 -0.000362 0.000558 0.009763 0.000000 0.057487 0.000000
# 6 0.000000 0.000000 0.000000 0.005864 0.000000 0.058868
#
#
# Mechanical properties :
#
#
# Convention : Reuss Voigt Hill
#
# Bulk Modulus (GPa) = 51.38704 58.96905 55.17805
# Shear Modulus (GPa) = 17.72179 19.53457 18.62818
#
# Velocity S-wave (km/s) = 3.13305 3.28939 3.21217
# Velocity P-wave (km/s) = 6.44601 6.86218 6.65735
#
# Compressibility (1/GPa) = 0.01946016
#
# Stress axis : x y z
#
# Youngs Moduli (GPa) = 58.06668 55.82274 61.45613
#
# Poissons Ratio (x) = 0.24001 0.41768
# Poissons Ratio (y) = 0.24966 0.29976
# Poissons Ratio (z) = 0.39465 0.27228
#
# Static dielectric constant tensor:
#      x y z
#    x 3.310310 0.000000 -0.037410 
#    y 0.000000 3.308560 0.000000 
#    z -0.037410 0.000000 3.459470 
# 
# 
# High freq. dielectric constant tensor:
#      x y z
#    x 1.666890 0.000000 -0.004070 
#    y 0.000000 1.703360 0.000000 
#    z -0.004070 0.000000 1.698000 
# 
# From -- ./inp_files/55306.got.cif
#   From: 2010.06.25/outbox.cif.g09.slc.cpg/sg10_28_cif.got.tgz:55306.got - 2010.06.27 22:07:45.
