data_PCOD8059496
_publ_section_title
;
Structure prediction by ZEFSAII (Michael W. Deem and Ramdas Pophale) SiO2 
 PCOD8059496
Probable space group: P 2/M
;
_chemical_formula_sum "Si O2"
_cell_formula_units_Z 32
_cell_length_a 11.103102
_cell_length_b 14.501904
_cell_length_c 16.271780
_cell_angle_alpha 90.000000
_cell_angle_beta 49.276805
_cell_angle_gamma 90.000000
_cell_volume 1985.634449
_symmetry_space_group_name_H-M "P 2/M"
_symmetry_group_IT_number 10
_symmetry_cell_setting 'monoclinic'
loop_
_space_group_symop_operation_xyz
x,y,z
-x,y,-z
-x,-y,-z
x,-y,z
loop_
_atom_site_type_symbol
_atom_site_label
_atom_site_fract_x
_atom_site_fract_y
_atom_site_fract_z
Si Si1 0.596785 0.602871 0.831337
Si Si2 0.744670 0.891628 0.371091
Si Si3 0.620108 0.100150 0.873689
Si Si4 0.141925 0.248749 0.998489
Si Si5 0.920723 0.109477 0.839040
Si Si6 0.743936 0.603111 0.932798
Si Si7 0.455561 0.109208 0.388032
Si Si8 0.495223 0.771202 0.790597
O O1 0.630132 0.500000 0.781902
O O2 0.727636 0.628705 0.842983
O O3 0.591430 0.674346 0.757077
O O4 0.427475 0.607136 0.950093
O O5 0.693628 0.866124 0.486770
O O6 0.614887 0.858205 0.363179
O O7 0.915548 0.850248 0.271715
O O8 0.752437 0.000000 0.360947
O O9 0.785413 0.139789 0.835055
O O10 0.538579 0.171811 0.851175
O O11 0.648727 0.000000 0.818067
O O12 0.500000 0.084755 0.000000
O O13 0.109600 0.151386 0.057292
O O14 0.142567 0.326043 0.069940
O O15 0.305134 0.243746 0.873448
O O16 0.000000 0.272966 0.000000
O O17 0.922497 0.000000 0.850813
O O18 0.815183 0.500000 0.909576
O O19 0.439414 0.172956 0.315875
O O20 0.458782 0.000000 0.364123
#
# Coordination Sequence:
#
# PCOD8059496 Si02
#       8
#     4   4   4   4   4   4   4   4
#     4   8  15  27  45  65  84 112 149 184 220 264
#     4   8  16  32  49  63  86 121 160 194 220 254
#     4  10  19  30  43  62  91 125 150 177 222 272
#     4  11  21  28  40  66  94 118 147 183 223 272
#     4  10  19  31  45  62  89 124 155 183 220 264
#     4   8  15  29  45  60  84 117 149 180 217 265
#     4   9  17  30  48  68  89 119 156 190 224 262
#     4  11  19  28  46  67  93 117 147 187 230 267
#
# _framework density 16.115755
#
# number of rings (size 3 to 8) (size 9 to 14) (size 15 to 20)
#    0.000    2.625    1.250    3.375    1.750    1.000 
#    0.000    0.625    0.000    3.000    0.000    2.625 
#    0.000    3.000    0.000    0.000    0.000    0.000 
#
# Total GULP energy -396572.529742 kJ/mol
# GULP energy per Si atom -12392.891554 kJ/mol
# Density = 1.607907 g / cm^3
# Si number density = 16.115755 Si / 1000 Ang^3
#
#
#
# Elastic Constant Matrix: (Units=GPa)
#
#
# Indices 1 2 3 4 5 6 
#
# 1 92.4425 40.9854 20.1261 0.0000 4.5399 0.0000
# 2 40.9854 78.1911 26.1916 0.0000 16.1504 0.0000
# 3 20.1261 26.1916 48.5249 0.0000 7.2487 0.0000
# 4 0.0000 0.0000 0.0000 11.3876 0.0000 11.8446
# 5 4.5399 16.1504 7.2487 0.0000 23.1076 0.0000
# 6 0.0000 0.0000 0.0000 11.8446 0.0000 25.5144
#
#
#
# Elastic Compliance Matrix: (Units=1/GPa)
#
#
# Indices 1 2 3 4 5 6 
#
# 1 0.014488 -0.007407 -0.002475 0.000000 0.003107 0.000000
# 2 -0.007407 0.021252 -0.006712 0.000000 -0.011293 0.000000
# 3 -0.002475 -0.006712 0.025688 0.000000 -0.002881 0.000000
# 4 0.000000 0.000000 0.000000 0.169810 0.000000 -0.078831
# 5 0.003107 -0.011293 -0.002881 0.000000 0.051462 0.000000
# 6 0.000000 0.000000 0.000000 -0.078831 0.000000 0.075790
#
#
# Mechanical properties :
#
#
# Convention : Reuss Voigt Hill
#
# Bulk Modulus (GPa) = 35.41082 43.75162 39.58122
# Shear Modulus (GPa) = 12.46600 20.79227 16.62914
#
# Velocity S-wave (km/s) = 2.78426 3.59581 3.21574
# Velocity P-wave (km/s) = 5.68829 6.66686 6.19692
#
# Compressibility (1/GPa) = 0.02823995
#
# Stress axis : x y z
#
# Youngs Moduli (GPa) = 69.02438 47.05336 38.92889
#
# Poissons Ratio (x) = 0.34850 0.09636
# Poissons Ratio (y) = 0.51123 0.26130
# Poissons Ratio (z) = 0.17085 0.31583
#
# Static dielectric constant tensor:
#      x y z
#    x 3.101460 0.000000 -0.189210 
#    y 0.000000 3.237960 0.000000 
#    z -0.189210 0.000000 2.919070 
# 
# 
# High freq. dielectric constant tensor:
#      x y z
#    x 1.620200 0.000000 0.003960 
#    y 0.000000 1.610630 0.000000 
#    z 0.003960 0.000000 1.580940 
# 
# From -- ./inp_files/61844.got.cif
#   From: 2010.06.25/outbox.cif.g09.slc.cpg/sg10_31_cif.got.tgz:61844.got - 2010.06.27 22:07:45.
