data_PCOD8059696
_publ_section_title
;
Structure prediction by ZEFSAII (Michael W. Deem and Ramdas Pophale) SiO2 
 PCOD8059696
Probable space group: P 2/M
;
_chemical_formula_sum "Si O2"
_cell_formula_units_Z 32
_cell_length_a 14.162142
_cell_length_b 9.005044
_cell_length_c 15.505363
_cell_angle_alpha 90.000000
_cell_angle_beta 90.079788
_cell_angle_gamma 90.000000
_cell_volume 1977.408063
_symmetry_space_group_name_H-M "P 2/M"
_symmetry_group_IT_number 10
_symmetry_cell_setting 'monoclinic'
loop_
_space_group_symop_operation_xyz
x,y,z
-x,y,-z
-x,-y,-z
x,-y,z
loop_
_atom_site_type_symbol
_atom_site_label
_atom_site_fract_x
_atom_site_fract_y
_atom_site_fract_z
Si Si1 0.293620 0.671338 0.155230
Si Si2 0.288678 0.827910 0.826392
Si Si3 0.385585 0.674547 0.669667
Si Si4 0.612140 0.167093 0.502225
Si Si5 0.602849 0.325706 0.673250
Si Si6 0.606651 0.175604 0.002238
Si Si7 0.093281 0.326951 0.090276
Si Si8 0.906383 0.826515 0.090736
O O1 0.320165 0.500000 0.141100
O O2 0.335951 0.728779 0.245378
O O3 0.338193 0.762686 0.078564
O O4 0.180718 0.695451 0.155473
O O5 0.319160 0.731848 0.745317
O O6 0.177420 0.802453 0.841264
O O7 0.311901 0.000000 0.808665
O O8 0.345482 0.769038 0.909616
O O9 0.374478 0.500000 0.660975
O O10 0.348628 0.746259 0.580743
O O11 0.493945 0.719970 0.689214
O O12 0.500000 0.171128 0.500000
O O13 0.646644 0.245335 0.589868
O O14 0.651482 0.000000 0.500220
O O15 0.611895 0.500000 0.657242
O O16 0.611504 0.000000 0.996093
O O17 0.500000 0.235268 0.000000
O O18 0.070625 0.500000 0.076582
O O19 0.001907 0.244582 0.130289
O O20 0.119187 0.255060 0.998384
O O21 0.921324 0.000000 0.071195
#
# Coordination Sequence:
#
# PCOD8059696 Si02
#       8
#     4   4   4   4   4   4   4   4
#     4  10  20  32  47  68  95 126 157 194 236 277
#     4  10  20  32  45  66  94 124 158 195 234 277
#     4  10  19  30  48  70  94 126 159 193 231 275
#     4   9  17  30  48  69  93 122 156 195 235 272
#     4   9  18  32  47  68  97 126 158 192 230 277
#     4  10  20  32  45  63  92 129 164 195 227 269
#     4  10  19  31  48  69  91 118 156 200 240 279
#     4  10  19  32  49  66  89 122 156 197 244 280
#
# _framework density 16.182798999999999
#
# number of rings (size 3 to 8) (size 9 to 14) (size 15 to 20)
#    0.000    2.250    1.250    3.000    0.000    4.750 
#    0.000    0.000    0.000    0.000    0.000    0.875 
#    0.000    7.000    0.000    0.000    0.000    0.000 
#
# Total GULP energy -396821.657287 kJ/mol
# GULP energy per Si atom -12400.676790 kJ/mol
# Density = 1.614597 g / cm^3
# Si number density = 16.182799 Si / 1000 Ang^3
#
#
#
# Elastic Constant Matrix: (Units=GPa)
#
#
# Indices 1 2 3 4 5 6 
#
# 1 82.5404 34.2276 47.5720 0.0000 -8.3162 0.0000
# 2 34.2276 73.8194 47.5896 0.0000 -7.6252 0.0000
# 3 47.5720 47.5896 122.2658 0.0000 -7.1216 0.0000
# 4 0.0000 0.0000 0.0000 27.8601 0.0000 6.1219
# 5 -8.3162 -7.6252 -7.1216 0.0000 9.2498 0.0000
# 6 0.0000 0.0000 0.0000 6.1219 0.0000 -19.3035
#
#
#
# Elastic Compliance Matrix: (Units=1/GPa)
#
#
# Indices 1 2 3 4 5 6 
#
# 1 0.017391 -0.004185 -0.004636 0.000000 0.008616 0.000000
# 2 -0.004185 0.020008 -0.005672 0.000000 0.008364 0.000000
# 3 -0.004636 -0.005672 0.012223 0.000000 0.000567 0.000000
# 4 0.000000 0.000000 0.000000 0.033555 0.000000 0.010642
# 5 0.008616 0.008364 0.000567 0.000000 0.123189 0.000000
# 6 0.000000 0.000000 0.000000 0.010642 0.000000 -0.048429
#
#
# Mechanical properties :
#
#
# Convention : Reuss Voigt Hill
#
# Bulk Modulus (GPa) = 48.45853 59.71155 54.08504
# Shear Modulus (GPa) = 25.79975 13.51038 19.65507
#
# Velocity S-wave (km/s) = 3.99716 2.89253 3.48884
# Velocity P-wave (km/s) = 7.16328 6.93786 7.05147
#
# Compressibility (1/GPa) = 0.02063620
#
# Stress axis : x y z
#
# Youngs Moduli (GPa) = 57.50248 49.98095 81.81038
#
# Poissons Ratio (x) = 0.20916 0.37925
# Poissons Ratio (y) = 0.24064 0.46404
# Poissons Ratio (z) = 0.26656 0.28350
#
# Static dielectric constant tensor:
#      x y z
#    x 3.119710 0.000000 0.108780 
#    y 0.000000 3.126090 0.000000 
#    z 0.108780 0.000000 3.015330 
# 
# 
# High freq. dielectric constant tensor:
#      x y z
#    x 1.604590 0.000000 0.001080 
#    y 0.000000 1.631870 0.000000 
#    z 0.001080 0.000000 1.608800 
# 
# From -- ./inp_files/65990.got.cif
#   From: 2010.06.25/outbox.cif.g09.slc.cpg/sg10_33_cif.got.tgz:65990.got - 2010.06.27 22:07:45.
