data_PCOD8059320
_publ_section_title
;
Structure prediction by ZEFSAII (Michael W. Deem and Ramdas Pophale) SiO2 
 PCOD8059320
Probable space group: P 2/M
;
_chemical_formula_sum "Si O2"
_cell_formula_units_Z 32
_cell_length_a 13.866939
_cell_length_b 9.295180
_cell_length_c 15.112307
_cell_angle_alpha 90.000000
_cell_angle_beta 90.855799
_cell_angle_gamma 90.000000
_cell_volume 1947.694015
_symmetry_space_group_name_H-M "P 2/M"
_symmetry_group_IT_number 10
_symmetry_cell_setting 'monoclinic'
loop_
_space_group_symop_operation_xyz
x,y,z
-x,y,-z
-x,-y,-z
x,-y,z
loop_
_atom_site_type_symbol
_atom_site_label
_atom_site_fract_x
_atom_site_fract_y
_atom_site_fract_z
Si Si1 0.121854 0.662393 0.748453
Si Si2 0.948138 0.334842 0.862031
Si Si3 0.325625 0.168195 0.170296
Si Si4 0.825903 0.165625 0.974906
Si Si5 0.520796 0.171523 0.099293
Si Si6 0.272897 0.835327 0.841045
Si Si7 0.163929 0.169357 0.290228
Si Si8 0.971911 0.668907 0.598459
O O1 0.153598 0.500000 0.729064
O O2 0.219644 0.753949 0.759807
O O3 0.057810 0.719377 0.665039
O O4 0.061264 0.671626 0.839582
O O5 0.911848 0.500000 0.856358
O O6 0.920722 0.265178 0.956998
O O7 0.896530 0.232975 0.790803
O O8 0.259395 0.226641 0.089369
O O9 0.434578 0.228978 0.162404
O O10 0.276856 0.200313 0.266026
O O11 0.333824 0.000000 0.154030
O O12 0.851242 0.000000 0.953101
O O13 0.793671 0.182635 0.074443
O O14 0.621673 0.233079 0.138625
O O15 0.529791 0.000000 0.096448
O O16 0.500000 0.228993 0.000000
O O17 0.282809 0.000000 0.812276
O O18 0.128266 0.249016 0.378925
O O19 0.144781 0.000000 0.299388
O O20 0.952477 0.500000 0.609535
O O21 0.000000 0.711727 0.500000
#
# Coordination Sequence:
#
# PCOD8059320 Si02
#       8
#     4   4   4   4   4   4   4   4
#     4   9  19  33  45  60  87 117 142 177 224 269
#     4   9  17  29  43  58  81 120 160 185 215 263
#     4   8  13  23  40  62  89 118 149 187 225 258
#     4   9  16  26  40  61  85 113 151 194 231 254
#     4   9  14  24  43  64  86 117 159 198 224 255
#     4  10  19  28  43  65  87 116 155 193 226 262
#     4   9  16  26  44  71  97 116 139 180 230 269
#     4   9  18  34  54  72  90 116 148 176 212 273
#
# _framework density 16.429684999999999
#
# number of rings (size 3 to 8) (size 9 to 14) (size 15 to 20)
#    0.000    3.000    1.250    2.250    0.000    3.750 
#    0.000    2.500    0.000    4.125    0.000    0.875 
#    0.000    7.000    0.000    0.000    0.000    0.000 
#
# Total GULP energy -396423.944801 kJ/mol
# GULP energy per Si atom -12388.248275 kJ/mol
# Density = 1.639229 g / cm^3
# Si number density = 16.429685 Si / 1000 Ang^3
#
#
#
# Elastic Constant Matrix: (Units=GPa)
#
#
# Indices 1 2 3 4 5 6 
#
# 1 102.5052 39.2396 48.9375 0.0000 -4.4169 0.0000
# 2 39.2396 49.3827 28.3967 0.0000 -6.5929 0.0000
# 3 48.9375 28.3967 59.8583 0.0000 -8.9992 0.0000
# 4 0.0000 0.0000 0.0000 15.7199 0.0000 5.7620
# 5 -4.4169 -6.5929 -8.9992 0.0000 20.3877 0.0000
# 6 0.0000 0.0000 0.0000 5.7620 0.0000 7.4571
#
#
#
# Elastic Compliance Matrix: (Units=1/GPa)
#
#
# Indices 1 2 3 4 5 6 
#
# 1 0.018346 -0.008436 -0.011578 0.000000 -0.003864 0.000000
# 2 -0.008436 0.031947 -0.007477 0.000000 0.005203 0.000000
# 3 -0.011578 -0.007477 0.031037 0.000000 0.008774 0.000000
# 4 0.000000 0.000000 0.000000 0.088749 0.000000 -0.068575
# 5 -0.003864 0.005203 0.008774 0.000000 0.053768 0.000000
# 6 0.000000 0.000000 0.000000 -0.068575 0.000000 0.187086
#
#
# Mechanical properties :
#
#
# Convention : Reuss Voigt Hill
#
# Bulk Modulus (GPa) = 37.95046 49.43265 43.69155
# Shear Modulus (GPa) = 10.53303 15.05775 12.79539
#
# Velocity S-wave (km/s) = 2.53474 3.03065 2.79372
# Velocity P-wave (km/s) = 5.63164 6.51147 6.08747
#
# Compressibility (1/GPa) = 0.02635014
#
# Stress axis : x y z
#
# Youngs Moduli (GPa) = 54.50859 31.30163 32.21915
#
# Poissons Ratio (x) = 0.26406 0.37302
# Poissons Ratio (y) = 0.45983 0.24089
# Poissons Ratio (z) = 0.63108 0.23403
#
# Static dielectric constant tensor:
#      x y z
#    x 3.378690 0.000000 -0.302170 
#    y 0.000000 2.984660 0.000000 
#    z -0.302170 0.000000 2.953160 
# 
# 
# High freq. dielectric constant tensor:
#      x y z
#    x 1.626190 0.000000 -0.016480 
#    y 0.000000 1.611250 0.000000 
#    z -0.016480 0.000000 1.595270 
# 
# From -- ./inp_files/66017.got.cif
#   From: 2010.06.25/outbox.cif.g09.slc.cpg/sg10_34_cif.got.tgz:66017.got - 2010.06.27 22:07:45.
