data_PCOD8059796
_publ_section_title
;
Structure prediction by ZEFSAII (Michael W. Deem and Ramdas Pophale) SiO2 
 PCOD8059796
Probable space group: P 2/M
;
_chemical_formula_sum "Si O2"
_cell_formula_units_Z 24
_cell_length_a 7.900126
_cell_length_b 11.740617
_cell_length_c 17.033747
_cell_angle_alpha 90.000000
_cell_angle_beta 65.831817
_cell_angle_gamma 90.000000
_cell_volume 1441.436351
_symmetry_space_group_name_H-M "P 2/M"
_symmetry_group_IT_number 10
_symmetry_cell_setting 'monoclinic'
loop_
_space_group_symop_operation_xyz
x,y,z
-x,y,-z
-x,-y,-z
x,-y,z
loop_
_atom_site_type_symbol
_atom_site_label
_atom_site_fract_x
_atom_site_fract_y
_atom_site_fract_z
Si Si1 0.695223 0.500000 0.212394
Si Si2 0.461671 0.871173 0.593816
Si Si3 0.500000 0.303890 0.000000
Si Si4 0.470114 0.258607 0.740347
Si Si5 0.898560 0.500000 0.834412
Si Si6 0.753873 0.741801 0.823422
Si Si7 0.864900 0.872361 0.241446
Si Si8 0.289567 0.500000 0.967419
O O1 0.566452 0.392948 0.256973
O O2 0.883137 0.500000 0.228204
O O3 0.780217 0.500000 0.108181
O O4 0.500000 0.821402 0.500000
O O5 0.555331 0.788213 0.641382
O O6 0.239718 0.873273 0.653939
O O7 0.542905 0.000000 0.585439
O O8 0.649964 0.227345 0.925370
O O9 0.588308 0.385712 0.049351
O O10 0.619314 0.226010 0.777680
O O11 0.270180 0.195871 0.794019
O O12 0.803257 0.608422 0.812491
O O13 0.867088 0.500000 0.935156
O O14 0.937688 0.815463 0.784684
O O15 0.892677 0.000000 0.203743
#
# Coordination Sequence:
#
# PCOD8059796 Si02
#       8
#     2   4   2   4   2   4   4   2
#     4  12  17  32  49  82 108 144 175 210 274 322
#     4   8  16  36  60  79 102 132 173 225 268 308
#     4   9  18  30  47  76 112 140 181 225 254 296
#     4  10  20  32  54  80 109 140 172 211 270 321
#     4  10  19  30  52  78 107 136 182 228 262 304
#     4  11  19  34  53  78 110 143 177 220 262 311
#     4   9  20  36  55  77 101 137 181 222 262 313
#     4   9  17  28  46  76 106 136 181 228 259 301
#
# _framework density 16.650058999999999
#
# number of rings (size 3 to 8) (size 9 to 14) (size 15 to 20)
#    1.000    1.333    3.333    1.250    0.000    1.333 
#    0.000    2.500    0.000    4.000    0.000    3.500 
#    0.000    0.000    0.000    0.000    0.000    0.000 
#
# Total GULP energy -297322.248421 kJ/mol
# GULP energy per Si atom -12388.427018 kJ/mol
# Density = 1.661216 g / cm^3
# Si number density = 16.650059 Si / 1000 Ang^3
#
#
#
# Elastic Constant Matrix: (Units=GPa)
#
#
# Indices 1 2 3 4 5 6 
#
# 1 116.2853 44.7274 36.9725 0.0000 2.0022 0.0000
# 2 44.7274 100.5813 34.4883 0.0000 4.9463 0.0000
# 3 36.9725 34.4883 75.9226 0.0000 10.1257 0.0000
# 4 0.0000 0.0000 0.0000 40.0116 0.0000 -0.4736
# 5 2.0022 4.9463 10.1257 0.0000 22.9856 0.0000
# 6 0.0000 0.0000 0.0000 -0.4736 0.0000 13.7101
#
#
#
# Elastic Compliance Matrix: (Units=1/GPa)
#
#
# Indices 1 2 3 4 5 6 
#
# 1 0.011278 -0.003716 -0.004016 0.000000 0.001586 0.000000
# 2 -0.003716 0.013002 -0.004001 0.000000 -0.000711 0.000000
# 3 -0.004016 -0.004001 0.017831 0.000000 -0.006644 0.000000
# 4 0.000000 0.000000 0.000000 0.025003 0.000000 0.000864
# 5 0.001586 -0.000711 -0.006644 0.000000 0.046447 0.000000
# 6 0.000000 0.000000 0.000000 0.000864 0.000000 0.072969
#
#
# Mechanical properties :
#
#
# Convention : Reuss Voigt Hill
#
# Bulk Modulus (GPa) = 53.63728 58.35174 55.99451
# Shear Modulus (GPa) = 23.12546 27.11485 25.12015
#
# Velocity S-wave (km/s) = 3.73085 4.03986 3.88843
# Velocity P-wave (km/s) = 7.13046 7.54206 7.33915
#
# Compressibility (1/GPa) = 0.01864375
#
# Stress axis : x y z
#
# Youngs Moduli (GPa) = 88.66432 76.91163 56.08324
#
# Poissons Ratio (x) = 0.28584 0.22521
# Poissons Ratio (y) = 0.32952 0.22442
# Poissons Ratio (z) = 0.35605 0.30776
#
# Static dielectric constant tensor:
#      x y z
#    x 2.984600 0.000000 -0.078570 
#    y 0.000000 3.095430 0.000000 
#    z -0.078570 0.000000 2.959730 
# 
# 
# High freq. dielectric constant tensor:
#      x y z
#    x 1.633100 0.000000 -0.008400 
#    y 0.000000 1.634620 0.000000 
#    z -0.008400 0.000000 1.617060 
# 
# From -- ./inp_files/74759.got.cif
#   From: 2010.06.25/outbox.cif.g09.slc.cpg/sg10_38_cif.got.tgz:74759.got - 2010.06.27 22:07:45.
