data_PCOD8059327
_publ_section_title
;
Structure prediction by ZEFSAII (Michael W. Deem and Ramdas Pophale) SiO2 
 PCOD8059327
Probable space group: P 2/M
;
_chemical_formula_sum "Si O2"
_cell_formula_units_Z 32
_cell_length_a 22.563192
_cell_length_b 12.736709
_cell_length_c 9.021066
_cell_angle_alpha 90.000000
_cell_angle_beta 131.460293
_cell_angle_gamma 90.000000
_cell_volume 1942.843691
_symmetry_space_group_name_H-M "P 2/M"
_symmetry_group_IT_number 10
_symmetry_cell_setting 'monoclinic'
loop_
_space_group_symop_operation_xyz
x,y,z
-x,y,-z
-x,-y,-z
x,-y,z
loop_
_atom_site_type_symbol
_atom_site_label
_atom_site_fract_x
_atom_site_fract_y
_atom_site_fract_z
Si Si1 0.957784 0.762566 0.072930
Si Si2 0.807992 0.692639 0.178211
Si Si3 0.342945 0.375611 0.574246
Si Si4 0.083476 0.119543 0.716928
Si Si5 0.342841 0.375626 0.914129
Si Si6 0.952819 0.382346 0.566990
Si Si7 0.504313 0.624256 0.340606
Si Si8 0.186860 0.377902 0.148572
O O1 0.926749 0.855883 0.125692
O O2 0.024516 0.692944 0.262447
O O3 0.885728 0.687557 0.904975
O O4 0.000000 0.813129 0.000000
O O5 0.846866 0.808634 0.236196
O O6 0.720286 0.693348 0.099115
O O7 0.859920 0.622650 0.377155
O O8 0.806844 0.638419 0.016503
O O9 0.348202 0.500000 0.578091
O O10 0.340698 0.338318 0.740474
O O11 0.419709 0.327851 0.618671
O O12 0.265618 0.335764 0.359407
O O13 0.000000 0.140673 0.500000
O O14 0.111070 0.000000 0.742924
O O15 0.325844 0.500000 0.904028
O O16 0.427250 0.344328 0.120499
O O17 0.977599 0.500000 0.651648
O O18 0.000000 0.343554 0.500000
O O19 0.500000 0.671077 0.500000
O O20 0.512963 0.500000 0.364299
O O21 0.172912 0.500000 0.160376
#
# Coordination Sequence:
#
# PCOD8059327 Si02
#       8
#     4   4   4   4   4   4   4   4
#     4  11  22  33  47  70  98 126 162 201 247 290
#     4  11  19  32  48  70  90 121 163 201 240 284
#     4   9  18  29  41  63  97 134 166 194 227 269
#     4  10  20  38  57  69  86 118 163 211 256 294
#     4  10  19  28  44  68  98 131 158 194 235 280
#     4  11  19  31  47  67  97 133 163 193 226 277
#     4   9  16  28  44  62  90 130 172 199 223 264
#     4  10  19  30  43  64  95 131 163 194 230 278
#
# _framework density 16.470703
#
# number of rings (size 3 to 8) (size 9 to 14) (size 15 to 20)
#    0.000    1.875    3.750    2.625    1.750    4.750 
#    0.000    0.000    0.000    0.000    0.000    0.000 
#    0.000   14.500    0.000    0.000    0.000    1.500 
#
# Total GULP energy -396785.471454 kJ/mol
# GULP energy per Si atom -12399.545983 kJ/mol
# Density = 1.643321 g / cm^3
# Si number density = 16.470703 Si / 1000 Ang^3
#
#
#
# Elastic Constant Matrix: (Units=GPa)
#
#
# Indices 1 2 3 4 5 6 
#
# 1 106.2855 21.0825 35.7532 0.0000 6.2330 0.0000
# 2 21.0825 56.5364 17.8782 0.0000 2.2308 0.0000
# 3 35.7532 17.8782 103.3500 0.0000 14.9278 0.0000
# 4 0.0000 0.0000 0.0000 8.6773 0.0000 0.7229
# 5 6.2330 2.2308 14.9278 0.0000 25.0268 0.0000
# 6 0.0000 0.0000 0.0000 0.7229 0.0000 11.4409
#
#
#
# Elastic Compliance Matrix: (Units=1/GPa)
#
#
# Indices 1 2 3 4 5 6 
#
# 1 0.011148 -0.003111 -0.003236 0.000000 -0.000569 0.000000
# 2 -0.003111 0.019581 -0.002375 0.000000 0.000446 0.000000
# 3 -0.003236 -0.002375 0.012102 0.000000 -0.006201 0.000000
# 4 0.000000 0.000000 0.000000 0.115853 0.000000 -0.007320
# 5 -0.000569 0.000446 -0.006201 0.000000 0.043758 0.000000
# 6 0.000000 0.000000 0.000000 -0.007320 0.000000 0.087868
#
#
# Mechanical properties :
#
#
# Convention : Reuss Voigt Hill
#
# Bulk Modulus (GPa) = 39.39264 46.17774 42.78519
# Shear Modulus (GPa) = 15.81188 21.79285 18.80237
#
# Velocity S-wave (km/s) = 3.10175 3.64143 3.38237
# Velocity P-wave (km/s) = 6.06601 6.76588 6.42548
#
# Compressibility (1/GPa) = 0.02538546
#
# Stress axis : x y z
#
# Youngs Moduli (GPa) = 89.70456 51.06864 82.63140
#
# Poissons Ratio (x) = 0.15889 0.26741
# Poissons Ratio (y) = 0.27909 0.19629
# Poissons Ratio (z) = 0.29029 0.12131
#
# Static dielectric constant tensor:
#      x y z
#    x 3.156980 0.000000 0.028690 
#    y 0.000000 2.642000 0.000000 
#    z 0.028690 0.000000 3.308050 
# 
# 
# High freq. dielectric constant tensor:
#      x y z
#    x 1.635290 0.000000 -0.001100 
#    y 0.000000 1.571690 0.000000 
#    z -0.001100 0.000000 1.648930 
# 
# From -- ./inp_files/34881.got.cif
#   From: 2010.06.25/outbox.cif.g09.slc.cpg/sg10_18_cif.got.tgz:34881.got - 2010.06.27 22:07:45.
