data_PCOD8059551
_publ_section_title
;
Structure prediction by ZEFSAII (Michael W. Deem and Ramdas Pophale) SiO2 
 PCOD8059551
Probable space group: P 2/M
;
_chemical_formula_sum "Si O2"
_cell_formula_units_Z 28
_cell_length_a 18.159353
_cell_length_b 10.070322
_cell_length_c 25.411472
_cell_angle_alpha 90.000000
_cell_angle_beta 21.417888
_cell_angle_gamma 90.000000
_cell_volume 1696.936557
_symmetry_space_group_name_H-M "P 2/M"
_symmetry_group_IT_number 10
_symmetry_cell_setting 'monoclinic'
loop_
_space_group_symop_operation_xyz
x,y,z
-x,y,-z
-x,-y,-z
x,-y,z
loop_
_atom_site_type_symbol
_atom_site_label
_atom_site_fract_x
_atom_site_fract_y
_atom_site_fract_z
Si Si1 0.724689 0.158852 0.337935
Si Si2 0.262580 0.154806 0.157820
Si Si3 0.024185 0.849554 0.926691
Si Si4 0.638418 0.849971 0.113416
Si Si5 0.305348 0.647840 0.328767
Si Si6 0.126524 0.351368 0.336344
Si Si7 0.095318 0.842618 0.158068
O O1 0.500000 0.213805 0.500000
O O2 0.809874 0.212906 0.224570
O O3 0.875222 0.208223 0.284617
O O4 0.725017 0.000000 0.335890
O O5 0.166257 0.239763 0.267536
O O6 0.155960 0.207845 0.175452
O O7 0.214993 0.000000 0.198912
O O8 0.500000 0.180685 0.000000
O O9 0.095147 0.000000 0.889743
O O10 0.000000 0.776852 0.000000
O O11 0.804965 0.845042 0.047418
O O12 0.458637 0.754429 0.250443
O O13 0.555916 0.000000 0.161632
O O14 0.731846 0.794095 0.996947
O O15 0.399205 0.500000 0.269248
O O16 0.255166 0.684594 0.302130
O O17 0.108431 0.653681 0.495175
O O18 0.183441 0.500000 0.278543
O O19 0.093983 0.000000 0.157199
#
# Coordination Sequence:
#
# PCOD8059551 Si02
#       7
#     4   4   4   4   4   4   4
#     4   8  13  23  39  57  83 124 156 176 219 277
#     4  10  19  30  45  67  95 122 147 185 232 268
#     4   8  14  25  40  63  94 118 145 189 229 265
#     4   9  16  28  48  69  91 120 150 182 227 274
#     4   9  18  33  49  64  87 119 153 189 228 268
#     4   9  19  34  48  63  88 121 154 189 226 268
#     4   8  15  27  41  62  93 121 148 182 221 271
#
# _framework density 16.500322000000001
#
# number of rings (size 3 to 8) (size 9 to 14) (size 15 to 20)
#    0.000    3.286    0.000    3.429    0.000    2.571 
#    2.571    2.143    0.000    0.429    0.000    0.000 
#    0.000    3.429    0.000    0.000    0.000    0.000 
#
# Total GULP energy -346947.984793 kJ/mol
# GULP energy per Si atom -12390.999457 kJ/mol
# Density = 1.646277 g / cm^3
# Si number density = 16.500322 Si / 1000 Ang^3
#
#
#
# Elastic Constant Matrix: (Units=GPa)
#
#
# Indices 1 2 3 4 5 6 
#
# 1 98.9170 33.1086 57.3933 0.0000 16.0419 0.0000
# 2 33.1086 47.5125 34.7278 0.0000 1.8356 0.0000
# 3 57.3933 34.7278 84.0223 0.0000 -2.7150 0.0000
# 4 0.0000 0.0000 0.0000 14.5998 0.0000 4.5132
# 5 16.0419 1.8356 -2.7150 0.0000 25.2762 0.0000
# 6 0.0000 0.0000 0.0000 4.5132 0.0000 11.0595
#
#
#
# Elastic Compliance Matrix: (Units=1/GPa)
#
#
# Indices 1 2 3 4 5 6 
#
# 1 0.022036 -0.004893 -0.013517 0.000000 -0.015082 0.000000
# 2 -0.004893 0.031563 -0.009711 0.000000 -0.000230 0.000000
# 3 -0.013517 -0.009711 0.025537 0.000000 0.012027 0.000000
# 4 0.000000 0.000000 0.000000 0.078382 0.000000 -0.031986
# 5 -0.015082 -0.000230 0.012027 0.000000 0.050444 0.000000
# 6 0.000000 0.000000 0.000000 -0.031986 0.000000 0.103473
#
#
# Mechanical properties :
#
#
# Convention : Reuss Voigt Hill
#
# Bulk Modulus (GPa) = 43.67854 53.43457 48.55656
# Shear Modulus (GPa) = 13.32238 17.20192 15.26215
#
# Velocity S-wave (km/s) = 2.84456 3.23231 3.04462
# Velocity P-wave (km/s) = 6.10881 6.81063 6.46924
#
# Compressibility (1/GPa) = 0.02289454
#
# Stress axis : x y z
#
# Youngs Moduli (GPa) = 45.38016 31.68225 39.15860
#
# Poissons Ratio (x) = 0.15502 0.52932
# Poissons Ratio (y) = 0.22204 0.38027
# Poissons Ratio (z) = 0.61342 0.30766
#
# Static dielectric constant tensor:
#      x y z
#    x 3.292160 0.000000 0.019940 
#    y 0.000000 2.759990 0.000000 
#    z 0.019940 0.000000 3.128950 
# 
# 
# High freq. dielectric constant tensor:
#      x y z
#    x 1.637060 0.000000 -0.000090 
#    y 0.000000 1.587910 0.000000 
#    z -0.000090 0.000000 1.633410 
# 
# From -- ./inp_files/54984.got.cif
#   From: 2010.06.25/outbox.cif.g09.slc.cpg/sg10_28_cif.got.tgz:54984.got - 2010.06.27 22:07:45.
