data_PCOD8059550
_publ_section_title
;
Structure prediction by ZEFSAII (Michael W. Deem and Ramdas Pophale) SiO2 
 PCOD8059550
Probable space group: P 2/M
;
_chemical_formula_sum "Si O2"
_cell_formula_units_Z 32
_cell_length_a 22.834075
_cell_length_b 9.451270
_cell_length_c 17.188039
_cell_angle_alpha 90.000000
_cell_angle_beta 150.198071
_cell_angle_gamma 90.000000
_cell_volume 1843.567689
_symmetry_space_group_name_H-M "P 2/M"
_symmetry_group_IT_number 10
_symmetry_cell_setting 'monoclinic'
loop_
_space_group_symop_operation_xyz
x,y,z
-x,y,-z
-x,-y,-z
x,-y,z
loop_
_atom_site_type_symbol
_atom_site_label
_atom_site_fract_x
_atom_site_fract_y
_atom_site_fract_z
Si Si1 0.763301 0.333566 0.948392
Si Si2 0.133556 0.163478 0.244974
Si Si3 0.568152 0.667769 0.842333
Si Si4 0.137034 0.162824 0.070450
Si Si5 0.200543 0.331900 0.594539
Si Si6 0.257951 0.331422 0.828566
Si Si7 0.061761 0.332377 0.717216
Si Si8 0.304936 0.668065 0.553064
O O1 0.764039 0.500000 0.933505
O O2 0.641910 0.287030 0.850975
O O3 0.773870 0.254946 0.878495
O O4 0.873138 0.285976 0.128574
O O5 0.170281 0.189787 0.198221
O O6 0.212487 0.262526 0.388954
O O7 0.152905 0.000000 0.289762
O O8 0.997896 0.207408 0.100783
O O9 0.565655 0.500000 0.845578
O O10 0.435382 0.725922 0.683431
O O11 0.631234 0.726814 0.993602
O O12 0.155091 0.000000 0.069328
O O13 0.191667 0.500000 0.588158
O O14 0.261618 0.274196 0.744161
O O15 0.277471 0.284118 0.609653
O O16 0.069010 0.266579 0.435599
O O17 0.261216 0.500000 0.833284
O O18 0.136577 0.279192 0.729064
O O19 0.054637 0.500000 0.706604
O O20 0.294642 0.500000 0.531625
#
# Coordination Sequence:
#
# PCOD8059550 Si02
#       8
#     4   4   4   4   4   4   4   4
#     4   9  16  28  47  68  92 123 154 183 222 270
#     4   9  19  35  51  68  93 120 142 174 228 283
#     4   8  16  29  42  61  93 128 156 186 224 261
#     4   9  18  33  52  72  92 113 142 182 225 274
#     4   9  15  21  35  62  90 116 150 190 226 262
#     4   8  13  22  36  56  88 125 151 179 226 270
#     4   8  13  21  35  59  90 118 146 184 227 268
#     4  10  19  30  45  67  94 121 155 195 224 254
#
# _framework density 17.357648000000001
#
# number of rings (size 3 to 8) (size 9 to 14) (size 15 to 20)
#    0.000    3.250    0.000    3.375    0.000    4.000 
#    0.000    5.000    0.000    3.750    0.000    5.250 
#    0.000   13.000    0.000    0.000    0.000    0.000 
#
# Total GULP energy -396605.556023 kJ/mol
# GULP energy per Si atom -12393.923626 kJ/mol
# Density = 1.731814 g / cm^3
# Si number density = 17.357648 Si / 1000 Ang^3
#
#
#
# Elastic Constant Matrix: (Units=GPa)
#
#
# Indices 1 2 3 4 5 6 
#
# 1 130.6300 35.3817 50.4820 0.0000 -3.9742 0.0000
# 2 35.3817 25.2498 22.2440 0.0000 -2.9373 0.0000
# 3 50.4820 22.2440 60.8036 0.0000 3.3471 0.0000
# 4 0.0000 0.0000 0.0000 12.1345 0.0000 4.5023
# 5 -3.9742 -2.9373 3.3471 0.0000 23.6189 0.0000
# 6 0.0000 0.0000 0.0000 4.5023 0.0000 0.3729
#
#
#
# Elastic Compliance Matrix: (Units=1/GPa)
#
#
# Indices 1 2 3 4 5 6 
#
# 1 0.013949 -0.013388 -0.006774 0.000000 0.001642 0.000000
# 2 -0.013388 0.073925 -0.016439 0.000000 0.009271 0.000000
# 3 -0.006774 -0.016439 0.028482 0.000000 -0.007220 0.000000
# 4 0.000000 0.000000 0.000000 -0.023685 0.000000 0.285946
# 5 0.001642 0.009271 -0.007220 0.000000 0.044791 0.000000
# 6 0.000000 0.000000 0.000000 0.285946 0.000000 -0.770686
#
#
# Mechanical properties :
#
#
# Convention : Reuss Voigt Hill
#
# Bulk Modulus (GPa) = 23.17283 48.09986 35.63635
# Shear Modulus (GPa) = -9.16363 14.46364 2.65000
#
# Velocity S-wave (km/s) = -2.30017 2.88978 1.23694
# Velocity P-wave (km/s) = 2.51492 6.23744 4.75555
#
# Compressibility (1/GPa) = 0.04315398
#
# Stress axis : x y z
#
# Youngs Moduli (GPa) = 71.68917 13.52716 35.11000
#
# Poissons Ratio (x) = 0.18110 0.23783
# Poissons Ratio (y) = 0.95977 0.57719
# Poissons Ratio (z) = 0.48561 0.22238
#
# Static dielectric constant tensor:
#      x y z
#    x 3.433690 0.000000 0.075240 
#    y 0.000000 2.640370 0.000000 
#    z 0.075240 0.000000 3.371570 
# 
# 
# High freq. dielectric constant tensor:
#      x y z
#    x 1.680720 0.000000 -0.002570 
#    y 0.000000 1.606910 0.000000 
#    z -0.002570 0.000000 1.665940 
# 
# From -- ./inp_files/79994.got.cif
#   From: 2010.06.25/outbox.cif.g09.slc.cpg/sg10_40_cif.got.tgz:79994.got - 2010.06.27 22:07:45.
