data_PCOD8059622
_publ_section_title
;
Structure prediction by ZEFSAII (Michael W. Deem and Ramdas Pophale) SiO2 
 PCOD8059622
Probable space group: P 2/M
;
_chemical_formula_sum "Si O2"
_cell_formula_units_Z 28
_cell_length_a 17.840063
_cell_length_b 12.239313
_cell_length_c 23.353992
_cell_angle_alpha 90.000000
_cell_angle_beta 164.377732
_cell_angle_gamma 90.000000
_cell_volume 1373.224188
_symmetry_space_group_name_H-M "P 2/M"
_symmetry_group_IT_number 10
_symmetry_cell_setting 'monoclinic'
loop_
_space_group_symop_operation_xyz
x,y,z
-x,y,-z
-x,-y,-z
x,-y,z
loop_
_atom_site_type_symbol
_atom_site_label
_atom_site_fract_x
_atom_site_fract_y
_atom_site_fract_z
Si Si1 0.795517 0.629515 0.195603
Si Si2 0.444412 0.228831 0.396211
Si Si3 0.132178 0.231177 0.982164
Si Si4 0.187444 0.000000 0.049881
Si Si5 0.586391 0.000000 0.658147
Si Si6 0.800576 0.629194 0.068401
Si Si7 0.312129 0.620090 0.206245
Si Si8 0.823447 0.629133 0.422837
O O1 0.775718 0.500000 0.182955
O O2 0.044565 0.672565 0.419966
O O3 0.500000 0.677646 0.000000
O O4 0.849004 0.665349 0.169325
O O5 0.500000 0.273703 0.500000
O O6 0.517176 0.320628 0.402710
O O7 0.584345 0.110501 0.484769
O O8 0.109582 0.212601 0.148467
O O9 0.016230 0.289856 0.838070
O O10 0.340254 0.315813 0.166847
O O11 0.265026 0.110083 0.070500
O O12 0.364181 0.000000 0.238017
O O13 0.861284 0.000000 0.822178
O O14 0.860900 0.500000 0.102783
O O15 0.494072 0.664050 0.820679
O O16 0.440353 0.500000 0.289752
O O17 0.000000 0.608000 0.000000
O O18 0.849030 0.500000 0.440135
O O19 0.000000 0.678470 0.500000
#
# Coordination Sequence:
#
# PCOD8059622 Si02
#       8
#     4   4   4   2   2   4   4   4
#     4   9  15  26  45  69  98 128 159 192 228 282
#     4  10  19  31  49  70  93 122 161 205 248 288
#     4  10  19  33  49  68  93 123 160 201 248 290
#     4   9  16  30  54  70  84 116 163 209 243 283
#     4   9  15  30  52  74  86 108 163 216 247 280
#     4  10  19  30  46  70 103 133 155 193 244 291
#     4   9  17  30  47  63  87 125 159 186 225 289
#     4   9  15  26  46  70  96 128 162 192 230 284
#
# _framework density 20.389970000000002
#
# number of rings (size 3 to 8) (size 9 to 14) (size 15 to 20)
#    0.000    2.571    2.857    0.643    0.000    0.857 
#    2.571    0.000    0.000    0.000    0.000    1.000 
#    0.000    0.000    0.000    0.000    0.000    0.000 
#
# Total GULP energy -346877.839941 kJ/mol
# GULP energy per Si atom -12388.494284 kJ/mol
# Density = 2.034356 g / cm^3
# Si number density = 20.389970 Si / 1000 Ang^3
#
#
#
# Elastic Constant Matrix: (Units=GPa)
#
#
# Indices 1 2 3 4 5 6 
#
# 1 98.3837 50.8362 5.8826 0.0000 -36.1994 0.0000
# 2 50.8362 133.2441 0.6201 0.0000 -20.6911 0.0000
# 3 5.8826 0.6201 25.6752 0.0000 -22.8957 0.0000
# 4 0.0000 0.0000 0.0000 10.4915 0.0000 -8.2015
# 5 -36.1994 -20.6911 -22.8957 0.0000 41.2851 0.0000
# 6 0.0000 0.0000 0.0000 -8.2015 0.0000 17.8830
#
#
#
# Elastic Compliance Matrix: (Units=1/GPa)
#
#
# Indices 1 2 3 4 5 6 
#
# 1 0.021136 -0.003868 0.019880 0.000000 0.027619 0.000000
# 2 -0.003868 0.009495 0.003712 0.000000 0.003426 0.000000
# 3 0.019880 0.003712 0.101901 0.000000 0.075803 0.000000
# 4 0.000000 0.000000 0.000000 0.148584 0.000000 0.068143
# 5 0.027619 0.003426 0.075803 0.000000 0.092195 0.000000
# 6 0.000000 0.000000 0.000000 0.068143 0.000000 0.087171
#
#
# Mechanical properties :
#
#
# Convention : Reuss Voigt Hill
#
# Bulk Modulus (GPa) = 5.81456 41.33121 23.57289
# Shear Modulus (GPa) = 10.45237 27.26285 18.85761
#
# Velocity S-wave (km/s) = 2.26657 3.66057 3.04443
# Velocity P-wave (km/s) = 3.11572 6.17905 4.89328
#
# Compressibility (1/GPa) = 0.17198207
#
# Stress axis : x y z
#
# Youngs Moduli (GPa) = 47.31169 105.31359 9.81347
#
# Poissons Ratio (x) = 0.40732 -0.19509
# Poissons Ratio (y) = 0.18299 -0.03643
# Poissons Ratio (z) = -0.94056 -0.39095
#
# Static dielectric constant tensor:
#      x y z
#    x 3.752380 0.000000 -0.175700 
#    y 0.000000 3.732870 0.000000 
#    z -0.175700 0.000000 3.687290 
# 
# 
# High freq. dielectric constant tensor:
#      x y z
#    x 1.788380 0.000000 -0.032350 
#    y 0.000000 1.760240 0.000000 
#    z -0.032350 0.000000 1.778620 
# 
# From -- ./inp_files/90170.got.cif
#   From: 2010.06.25/outbox.cif.g09.slc.cpg/sg10_46_cif.got.tgz:90170.got - 2010.06.27 22:07:45.
