data_PCOD8059300
_publ_section_title
;
Structure prediction by ZEFSAII (Michael W. Deem and Ramdas Pophale) SiO2 
 PCOD8059300
Probable space group: P 2/M
;
_chemical_formula_sum "Si O2"
_cell_formula_units_Z 32
_cell_length_a 15.949169
_cell_length_b 9.181498
_cell_length_c 29.947822
_cell_angle_alpha 90.000000
_cell_angle_beta 29.674719
_cell_angle_gamma 90.000000
_cell_volume 2171.141599
_symmetry_space_group_name_H-M "P 2/M"
_symmetry_group_IT_number 10
_symmetry_cell_setting 'monoclinic'
loop_
_space_group_symop_operation_xyz
x,y,z
-x,y,-z
-x,-y,-z
x,-y,z
loop_
_atom_site_type_symbol
_atom_site_label
_atom_site_fract_x
_atom_site_fract_y
_atom_site_fract_z
Si Si1 0.367970 0.167462 0.152972
Si Si2 0.194855 0.832538 0.326086
Si Si3 0.088778 0.832453 0.027723
Si Si4 0.260725 0.832453 0.855776
Si Si5 0.599906 0.672064 0.693956
Si Si6 0.905445 0.660214 0.496932
Si Si7 0.281679 0.327936 0.012182
Si Si8 0.698316 0.660214 0.899308
O O1 0.245085 0.187198 0.251638
O O2 0.540487 0.253611 0.082268
O O3 0.264982 0.227361 0.157586
O O4 0.414722 0.000000 0.122852
O O5 0.327781 0.746389 0.294975
O O6 0.002722 0.772639 0.419847
O O7 0.197999 0.000000 0.339575
O O8 0.893008 0.804448 0.106992
O O9 0.118689 0.000000 0.027245
O O10 0.204500 0.792179 0.931833
O O11 0.136684 0.729266 0.046498
O O12 0.412862 0.729266 0.770320
O O13 0.319112 0.000000 0.826821
O O14 0.597960 0.500000 0.703367
O O15 0.714017 0.710647 0.597446
O O16 0.905538 0.500000 0.474262
O O17 0.000000 0.651385 0.500000
O O18 0.306023 0.500000 0.995305
O O19 0.220372 0.289354 0.091091
O O20 0.766137 0.500000 0.854062
O O21 0.500000 0.651388 0.000000
#
# Coordination Sequence:
#
# PCOD8059300 Si02
#       8
#     4   4   4   4   4   4   4   4
#     4  10  19  28  40  60  83 107 137 169 200 238
#     4  10  19  28  40  60  83 107 137 169 200 238
#     4   9  18  31  44  59  81 108 138 171 203 235
#     4   9  18  31  44  59  81 108 138 171 203 235
#     4  10  19  29  42  60  81 107 139 170 201 239
#     4   8  16  29  41  56  79 105 134 167 200 236
#     4  10  19  29  42  60  81 107 139 170 201 239
#     4   8  16  29  41  56  79 105 134 167 200 236
#
# _framework density 14.738789000000001
#
# number of rings (size 3 to 8) (size 9 to 14) (size 15 to 20)
#    0.000    2.750    0.000    4.500    0.000   11.500 
#    0.000    1.250    0.000    0.000    0.000    0.000 
#    0.000    1.000    0.000   11.000    0.000    8.000 
#
# Total GULP energy -396688.482480 kJ/mol
# GULP energy per Si atom -12396.515077 kJ/mol
# Density = 1.470524 g / cm^3
# Si number density = 14.738789 Si / 1000 Ang^3
#
#
#
# Elastic Constant Matrix: (Units=GPa)
#
#
# Indices 1 2 3 4 5 6 
#
# 1 84.8379 49.6482 32.7304 0.0000 4.3484 0.0000
# 2 49.6482 96.8430 52.6509 0.0000 5.3564 0.0000
# 3 32.7304 52.6509 85.8810 0.0000 -2.4876 0.0000
# 4 0.0000 0.0000 0.0000 22.8890 0.0000 0.7042
# 5 4.3484 5.3564 -2.4876 0.0000 15.0780 0.0000
# 6 0.0000 0.0000 0.0000 0.7042 0.0000 22.4948
#
#
#
# Elastic Compliance Matrix: (Units=1/GPa)
#
#
# Indices 1 2 3 4 5 6 
#
# 1 0.017098 -0.007560 -0.001956 0.000000 -0.002568 0.000000
# 2 -0.007560 0.019627 -0.009335 0.000000 -0.006332 0.000000
# 3 -0.001956 -0.009335 0.018312 0.000000 0.006901 0.000000
# 4 0.000000 0.000000 0.000000 0.043731 0.000000 -0.001369
# 5 -0.002568 -0.006332 0.006901 0.000000 0.070450 0.000000
# 6 0.000000 0.000000 0.000000 -0.001369 0.000000 0.044498
#
#
# Mechanical properties :
#
#
# Convention : Reuss Voigt Hill
#
# Bulk Modulus (GPa) = 57.68489 59.73565 58.71027
# Shear Modulus (GPa) = 19.44041 20.92784 20.18413
#
# Velocity S-wave (km/s) = 3.63574 3.77227 3.70463
# Velocity P-wave (km/s) = 7.53976 7.71951 7.63016
#
# Compressibility (1/GPa) = 0.01733556
#
# Stress axis : x y z
#
# Youngs Moduli (GPa) = 58.48787 50.94961 54.60835
#
# Poissons Ratio (x) = 0.38519 0.10679
# Poissons Ratio (y) = 0.44218 0.50977
# Poissons Ratio (z) = 0.11438 0.47561
#
# Static dielectric constant tensor:
#      x y z
#    x 2.838080 0.000000 0.076710 
#    y 0.000000 2.975180 0.000000 
#    z 0.076710 0.000000 2.881090 
# 
# 
# High freq. dielectric constant tensor:
#      x y z
#    x 1.538080 0.000000 0.007330 
#    y 0.000000 1.576270 0.000000 
#    z 0.007330 0.000000 1.542190 
# 
# From -- ./inp_files/72228.got.cif
#   From: 2010.06.25/outbox.cif.g09.slc.cpg/sg10_37_cif.got.tgz:72228.got - 2010.06.27 22:07:45.
