data_PCOD8059381
_publ_section_title
;
Structure prediction by ZEFSAII (Michael W. Deem and Ramdas Pophale) SiO2 
 PCOD8059381
Probable space group: P 2/M
;
_chemical_formula_sum "Si O2"
_cell_formula_units_Z 32
_cell_length_a 30.165799
_cell_length_b 8.948703
_cell_length_c 15.944415
_cell_angle_alpha 90.000000
_cell_angle_beta 150.453813
_cell_angle_gamma 90.000000
_cell_volume 2122.465031
_symmetry_space_group_name_H-M "P 2/M"
_symmetry_group_IT_number 10
_symmetry_cell_setting 'monoclinic'
loop_
_space_group_symop_operation_xyz
x,y,z
-x,y,-z
-x,-y,-z
x,-y,z
loop_
_atom_site_type_symbol
_atom_site_label
_atom_site_fract_x
_atom_site_fract_y
_atom_site_fract_z
Si Si1 0.504968 0.668170 0.607651
Si Si2 0.970697 0.328144 0.584953
Si Si3 0.675030 0.175329 0.679749
Si Si4 0.012903 0.175894 0.218000
Si Si5 0.143508 0.672111 0.763256
Si Si6 0.161869 0.323749 0.143782
Si Si7 0.683591 0.174125 0.888252
Si Si8 0.100584 0.164472 0.198470
O O1 0.500000 0.668739 0.500000
O O2 0.498745 0.500000 0.633089
O O3 0.423261 0.766509 0.509241
O O4 0.599237 0.740530 0.790616
O O5 0.972395 0.500000 0.616280
O O6 0.891222 0.300568 0.387979
O O7 0.951528 0.224156 0.632854
O O8 0.065813 0.283946 0.700773
O O9 0.745818 0.261393 0.739709
O O10 0.695120 0.214518 0.809522
O O11 0.681137 0.000000 0.672344
O O12 0.091560 0.218321 0.280448
O O13 0.993264 0.000000 0.183010
O O14 0.919966 0.258324 0.044646
O O15 0.171564 0.500000 0.822316
O O16 0.227749 0.778181 0.916450
O O17 0.160287 0.500000 0.132682
O O18 0.156306 0.279523 0.233129
O O19 0.666236 0.000000 0.871811
O O20 0.145978 0.000000 0.267631
O O21 0.000000 0.153168 0.000000
#
# Coordination Sequence:
#
# PCOD8059381 Si02
#       8
#     4   4   4   4   4   4   4   4
#     4   9  17  29  44  61  82 109 140 174 210 248
#     4   9  18  31  45  61  83 111 144 180 215 249
#     4  10  19  30  43  61  87 114 141 174 210 249
#     4  10  19  30  44  61  83 112 143 175 214 254
#     4   9  18  31  44  60  84 113 143 178 216 249
#     4  11  20  28  42  63  85 111 144 176 207 248
#     4  10  19  29  43  62  83 112 146 176 209 250
#     4   8  16  30  43  57  81 110 138 171 211 251
#
# _framework density 15.076808
#
# number of rings (size 3 to 8) (size 9 to 14) (size 15 to 20)
#    0.000    2.500    0.000    4.875    0.000    8.750 
#    0.000    1.250    0.000    0.000    0.000    0.000 
#    0.000    1.000    0.000   10.500    0.000    5.750 
#
# Total GULP energy -396769.050975 kJ/mol
# GULP energy per Si atom -12399.032843 kJ/mol
# Density = 1.504249 g / cm^3
# Si number density = 15.076808 Si / 1000 Ang^3
#
#
#
# Elastic Constant Matrix: (Units=GPa)
#
#
# Indices 1 2 3 4 5 6 
#
# 1 89.4026 50.7913 37.8563 0.0000 -2.2517 0.0000
# 2 50.7913 92.1075 35.9313 0.0000 4.6888 0.0000
# 3 37.8563 35.9313 69.2268 0.0000 8.2286 0.0000
# 4 0.0000 0.0000 0.0000 23.6177 0.0000 4.6772
# 5 -2.2517 4.6888 8.2286 0.0000 21.5979 0.0000
# 6 0.0000 0.0000 0.0000 4.6772 0.0000 23.3288
#
#
#
# Elastic Compliance Matrix: (Units=1/GPa)
#
#
# Indices 1 2 3 4 5 6 
#
# 1 0.018808 -0.008009 -0.006879 0.000000 0.006320 0.000000
# 2 -0.008009 0.017026 -0.004104 0.000000 -0.002968 0.000000
# 3 -0.006879 -0.004104 0.021280 0.000000 -0.007934 0.000000
# 4 0.000000 0.000000 0.000000 0.044092 0.000000 -0.008840
# 5 0.006320 -0.002968 -0.007934 0.000000 0.050627 0.000000
# 6 0.000000 0.000000 0.000000 -0.008840 0.000000 0.044638
#
#
# Mechanical properties :
#
#
# Convention : Reuss Voigt Hill
#
# Bulk Modulus (GPa) = 52.27863 55.54386 53.91125
# Shear Modulus (GPa) = 20.76140 22.11940 21.44040
#
# Velocity S-wave (km/s) = 3.71488 3.83445 3.77514
# Velocity P-wave (km/s) = 7.29044 7.51828 7.40524
#
# Compressibility (1/GPa) = 0.01912827
#
# Stress axis : x y z
#
# Youngs Moduli (GPa) = 53.16988 58.73454 46.99177
#
# Poissons Ratio (x) = 0.47043 0.32325
# Poissons Ratio (y) = 0.42586 0.19287
# Poissons Ratio (z) = 0.36575 0.24107
#
# Static dielectric constant tensor:
#      x y z
#    x 3.023440 0.000000 -0.015370 
#    y 0.000000 2.981190 0.000000 
#    z -0.015370 0.000000 2.699130 
# 
# 
# High freq. dielectric constant tensor:
#      x y z
#    x 1.563410 0.000000 0.007080 
#    y 0.000000 1.590020 0.000000 
#    z 0.007080 0.000000 1.545160 
# 
# From -- ./inp_files/72184.got.cif
#   From: 2010.06.25/outbox.cif.g09.slc.cpg/sg10_37_cif.got.tgz:72184.got - 2010.06.27 22:07:45.
