data_PCOD8059317
_publ_section_title
;
Structure prediction by ZEFSAII (Michael W. Deem and Ramdas Pophale) SiO2 
 PCOD8059317
Probable space group: P 2/M
;
_chemical_formula_sum "Si O2"
_cell_formula_units_Z 26
_cell_length_a 11.418758
_cell_length_b 13.787457
_cell_length_c 12.375827
_cell_angle_alpha 90.000000
_cell_angle_beta 127.829965
_cell_angle_gamma 90.000000
_cell_volume 1538.910254
_symmetry_space_group_name_H-M "P 2/M"
_symmetry_group_IT_number 10
_symmetry_cell_setting 'monoclinic'
loop_
_space_group_symop_operation_xyz
x,y,z
-x,y,-z
-x,-y,-z
x,-y,z
loop_
_atom_site_type_symbol
_atom_site_label
_atom_site_fract_x
_atom_site_fract_y
_atom_site_fract_z
Si Si1 0.711575 0.711072 0.440325
Si Si2 0.829858 0.891719 0.241162
Si Si3 0.671808 0.393654 0.624559
Si Si4 0.376491 0.780912 0.021716
Si Si5 0.417693 0.893604 0.718215
Si Si6 0.419038 0.386251 0.196835
Si Si7 0.000000 0.772996 0.500000
O O1 0.750093 0.679666 0.584979
O O2 0.647207 0.820797 0.408789
O O3 0.591436 0.641393 0.315061
O O4 0.859662 0.705921 0.450847
O O5 0.776636 0.824493 0.111275
O O6 0.696032 0.901183 0.248294
O O7 0.968694 0.840993 0.378321
O O8 0.875303 0.000000 0.227060
O O9 0.500000 0.399875 0.500000
O O10 0.744542 0.500000 0.651093
O O11 0.682160 0.360484 0.755276
O O12 0.500000 0.770626 0.000000
O O13 0.429011 0.852868 0.146888
O O14 0.350996 0.674166 0.058447
O O15 0.443948 0.000000 0.681464
O O16 0.411184 0.500000 0.165132
#
# Coordination Sequence:
#
# PCOD8059317 Si02
#       7
#     4   4   4   4   4   4   2
#     4   9  16  27  44  66  93 118 146 180 216 257
#     4   9  16  27  43  63  89 119 149 177 210 258
#     4   8  14  27  47  66  83 110 148 184 219 260
#     4   9  16  26  43  67  90 112 141 184 232 264
#     4   8  14  24  40  63  89 115 144 180 221 262
#     4   9  17  30  49  69  87 111 147 187 224 264
#     4  10  19  28  41  66  96 122 147 174 209 258
#
# _framework density 16.895071999999999
#
# number of rings (size 3 to 8) (size 9 to 14) (size 15 to 20)
#    0.000    3.231    0.000    3.000    0.000    2.769 
#    0.000    1.538    0.000   15.231    0.000    3.231 
#    0.000    0.000    0.000    0.000    0.000    0.000 
#
# Total GULP energy -322186.402913 kJ/mol
# GULP energy per Si atom -12391.784727 kJ/mol
# Density = 1.685662 g / cm^3
# Si number density = 16.895072 Si / 1000 Ang^3
#
#
#
# Elastic Constant Matrix: (Units=GPa)
#
#
# Indices 1 2 3 4 5 6 
#
# 1 45.2407 38.8193 28.6530 0.0000 -8.9428 0.0000
# 2 38.8193 127.3349 49.1050 0.0000 -17.0503 0.0000
# 3 28.6530 49.1050 79.2449 0.0000 -5.8455 0.0000
# 4 0.0000 0.0000 0.0000 20.2202 0.0000 -0.8050
# 5 -8.9428 -17.0503 -5.8455 0.0000 17.7444 0.0000
# 6 0.0000 0.0000 0.0000 -0.8050 0.0000 9.6346
#
#
#
# Elastic Compliance Matrix: (Units=1/GPa)
#
#
# Indices 1 2 3 4 5 6 
#
# 1 0.034115 -0.006219 -0.007845 0.000000 0.008633 0.000000
# 2 -0.006219 0.012696 -0.005073 0.000000 0.007393 0.000000
# 3 -0.007845 -0.005073 0.018395 0.000000 -0.002768 0.000000
# 4 0.000000 0.000000 0.000000 0.049621 0.000000 0.004146
# 5 0.008633 0.007393 -0.002768 0.000000 0.066899 0.000000
# 6 0.000000 0.000000 0.000000 0.004146 0.000000 0.104139
#
#
# Mechanical properties :
#
#
# Convention : Reuss Voigt Hill
#
# Bulk Modulus (GPa) = 37.13012 53.88612 45.50812
# Shear Modulus (GPa) = 15.00985 18.53608 16.77296
#
# Velocity S-wave (km/s) = 2.98386 3.31589 3.15425
# Velocity P-wave (km/s) = 5.82202 6.82817 6.34507
#
# Compressibility (1/GPa) = 0.02693231
#
# Stress axis : x y z
#
# Youngs Moduli (GPa) = 29.31234 78.76768 54.36330
#
# Poissons Ratio (x) = 0.48987 0.42646
# Poissons Ratio (y) = 0.18230 0.27578
# Poissons Ratio (z) = 0.22994 0.39958
#
# Static dielectric constant tensor:
#      x y z
#    x 2.843740 0.000000 -0.191090 
#    y 0.000000 3.420000 0.000000 
#    z -0.191090 0.000000 3.198850 
# 
# 
# High freq. dielectric constant tensor:
#      x y z
#    x 1.598360 0.000000 -0.009270 
#    y 0.000000 1.656530 0.000000 
#    z -0.009270 0.000000 1.635960 
# 
# From -- ./inp_files/47132.got.cif
#   From: 2010.06.25/outbox.cif.g09.slc.cpg/sg10_24_cif.got.tgz:47132.got - 2010.06.27 22:07:45.
