data_PCOD8059214
_publ_section_title
;
Structure prediction by ZEFSAII (Michael W. Deem and Ramdas Pophale) SiO2 
 PCOD8059214
Probable space group: P 2/M
;
_chemical_formula_sum "Si O2"
_cell_formula_units_Z 28
_cell_length_a 14.327142
_cell_length_b 15.451770
_cell_length_c 9.247081
_cell_angle_alpha 90.000000
_cell_angle_beta 45.152987
_cell_angle_gamma 90.000000
_cell_volume 1451.389560
_symmetry_space_group_name_H-M "P 2/M"
_symmetry_group_IT_number 10
_symmetry_cell_setting 'monoclinic'
loop_
_space_group_symop_operation_xyz
x,y,z
-x,y,-z
-x,-y,-z
x,-y,z
loop_
_atom_site_type_symbol
_atom_site_label
_atom_site_fract_x
_atom_site_fract_y
_atom_site_fract_z
Si Si1 0.458035 0.815937 0.388808
Si Si2 0.627415 0.776247 0.945138
Si Si3 0.955624 0.500000 0.711215
Si Si4 0.860951 0.500000 0.242698
Si Si5 0.042715 0.203232 0.799176
Si Si6 0.746997 0.900066 0.578451
Si Si7 0.818543 0.318732 0.921198
Si Si8 0.264638 0.323485 0.675258
O O1 0.500000 0.849438 0.500000
O O2 0.347945 0.882841 0.453950
O O3 0.397097 0.717970 0.462933
O O4 0.581222 0.819073 0.146069
O O5 0.696164 0.849068 0.773946
O O6 0.734107 0.702675 0.868913
O O7 0.500000 0.736941 0.000000
O O8 0.872967 0.415309 0.844134
O O9 0.000000 0.500000 0.500000
O O10 0.094765 0.500000 0.640615
O O11 0.758682 0.423515 0.326967
O O12 0.000000 0.500000 0.000000
O O13 0.107503 0.130422 0.626993
O O14 0.140361 0.279409 0.736351
O O15 0.931161 0.247013 0.822095
O O16 0.000000 0.160763 0.000000
O O17 0.750417 0.000000 0.616284
O O18 0.725346 0.311090 0.163129
#
# Coordination Sequence:
#
# PCOD8059214 Si02
#       8
#     4   4   2   2   4   4   4   4
#     4  10  20  38  62  90 113 159 211 250 296 358
#     4  10  23  39  62  83 121 166 202 243 301 371
#     4  12  26  32  56  94 128 157 206 246 289 350
#     4  12  18  36  58  93 126 161 199 257 298 355
#     4   9  19  35  63  92 119 155 194 248 311 364
#     4  10  23  41  62  89 121 156 197 254 316 371
#     4  11  20  38  59  89 121 161 203 249 295 357
#     4  10  18  34  64  89 120 153 206 252 298 345
#
# _framework density 19.291857
#
# number of rings (size 3 to 8) (size 9 to 14) (size 15 to 20)
#    0.000    1.714    4.286    0.429    2.000    4.286 
#    0.000    2.857    0.000    0.000    0.000    0.000 
#    0.000    0.000    0.000    0.000    0.000    0.000 
#
# Total GULP energy -347048.592522 kJ/mol
# GULP energy per Si atom -12394.592590 kJ/mol
# Density = 1.924795 g / cm^3
# Si number density = 19.291857 Si / 1000 Ang^3
#
#
#
# Elastic Constant Matrix: (Units=GPa)
#
#
# Indices 1 2 3 4 5 6 
#
# 1 119.6565 47.8957 35.6160 0.0000 14.8739 0.0000
# 2 47.8957 116.9649 42.8298 0.0000 -1.9843 0.0000
# 3 35.6160 42.8298 122.8240 0.0000 5.7932 0.0000
# 4 0.0000 0.0000 0.0000 17.1128 0.0000 4.2373
# 5 14.8739 -1.9843 5.7932 0.0000 28.1964 0.0000
# 6 0.0000 0.0000 0.0000 4.2373 0.0000 17.0552
#
#
#
# Elastic Compliance Matrix: (Units=1/GPa)
#
#
# Indices 1 2 3 4 5 6 
#
# 1 0.011194 -0.004123 -0.001531 0.000000 -0.005881 0.000000
# 2 -0.004123 0.011375 -0.002940 0.000000 0.003580 0.000000
# 3 -0.001531 -0.002940 0.009676 0.000000 -0.001387 0.000000
# 4 0.000000 0.000000 0.000000 0.062266 0.000000 -0.015470
# 5 -0.005881 0.003580 -0.001387 0.000000 0.039105 0.000000
# 6 0.000000 0.000000 0.000000 -0.015470 0.000000 0.062477
#
#
# Mechanical properties :
#
#
# Convention : Reuss Voigt Hill
#
# Bulk Modulus (GPa) = 66.41013 68.01428 67.21220
# Shear Modulus (GPa) = 22.90418 28.01312 25.45865
#
# Velocity S-wave (km/s) = 3.44938 3.81474 3.63665
# Velocity P-wave (km/s) = 7.09669 7.39831 7.24907
#
# Compressibility (1/GPa) = 0.01505794
#
# Stress axis : x y z
#
# Youngs Moduli (GPa) = 89.33088 87.91076 103.34566
#
# Poissons Ratio (x) = 0.36247 0.15822
# Poissons Ratio (y) = 0.36832 0.30382
# Poissons Ratio (z) = 0.13676 0.25845
#
# Static dielectric constant tensor:
#      x y z
#    x 3.682490 0.000000 -0.034230 
#    y 0.000000 3.305940 0.000000 
#    z -0.034230 0.000000 4.282830 
# 
# 
# High freq. dielectric constant tensor:
#      x y z
#    x 1.756380 0.000000 0.008170 
#    y 0.000000 1.724160 0.000000 
#    z 0.008170 0.000000 1.755350 
# 
# From -- ./inp_files/29452.got.cif
#   From: 2010.06.25/outbox.cif.g09.slc.cpg/sg10_15_cif.got.tgz:29452.got - 2010.06.27 22:07:45.
