data_PCOD8059523
_publ_section_title
;
Structure prediction by ZEFSAII (Michael W. Deem and Ramdas Pophale) SiO2 
 PCOD8059523
Probable space group: P 2/M
;
_chemical_formula_sum "Si O2"
_cell_formula_units_Z 32
_cell_length_a 12.297744
_cell_length_b 8.565846
_cell_length_c 22.158456
_cell_angle_alpha 90.000000
_cell_angle_beta 134.012444
_cell_angle_gamma 90.000000
_cell_volume 1678.719706
_symmetry_space_group_name_H-M "P 2/M"
_symmetry_group_IT_number 10
_symmetry_cell_setting 'monoclinic'
loop_
_space_group_symop_operation_xyz
x,y,z
-x,y,-z
-x,-y,-z
x,-y,z
loop_
_atom_site_type_symbol
_atom_site_label
_atom_site_fract_x
_atom_site_fract_y
_atom_site_fract_z
Si Si1 0.244550 0.179314 0.279582
Si Si2 0.510036 0.814686 0.298703
Si Si3 0.613490 0.814863 0.095597
Si Si4 0.953929 0.183756 0.359523
Si Si5 0.373237 0.316596 0.771908
Si Si6 0.226943 0.683262 0.520624
Si Si7 0.048174 0.814483 0.777270
Si Si8 0.327269 0.669246 0.429541
O O1 0.363221 0.256625 0.278199
O O2 0.303829 0.199841 0.370112
O O3 0.071184 0.247917 0.217439
O O4 0.237364 0.000000 0.259221
O O5 0.503794 0.736511 0.230370
O O6 0.669413 0.771659 0.391277
O O7 0.499146 0.000000 0.289554
O O8 0.563779 0.733276 0.138499
O O9 0.782227 0.758126 0.142014
O O10 0.607621 0.000000 0.102935
O O11 0.500000 0.758508 0.000000
O O12 0.780651 0.227728 0.303633
O O13 0.999242 0.242931 0.308798
O O14 0.050456 0.264970 0.450733
O O15 0.972720 0.000000 0.372566
O O16 0.345852 0.500000 0.758953
O O17 0.243258 0.500000 0.538988
O O18 0.278031 0.738926 0.474380
O O19 0.043642 0.000000 0.775149
O O20 0.500000 0.630794 0.500000
O O21 0.247244 0.500000 0.384562
#
# Coordination Sequence:
#
# PCOD8059523 Si02
#       8
#     4   4   4   4   4   4   4   4
#     4  10  19  31  50  74 102 139 183 226 265 311
#     4  11  23  36  51  72 102 145 192 228 264 314
#     4   9  18  36  64  92 114 136 165 206 260 322
#     4  10  19  34  55  76 104 139 181 230 274 316
#     4  11  23  39  57  78 108 140 175 218 268 325
#     4  11  21  32  48  73 105 142 186 230 275 318
#     4   8  15  29  51  81 110 133 165 215 267 309
#     4  10  19  30  44  67 102 141 181 228 271 311
#
# _framework density 19.062145999999998
#
# number of rings (size 3 to 8) (size 9 to 14) (size 15 to 20)
#    0.000    2.000    2.500    3.000    0.000    2.000 
#    0.000    2.500    0.000    0.750    0.000    5.250 
#    0.000    0.000    0.000    0.000    0.000    0.000 
#
# Total GULP energy -396491.210514 kJ/mol
# GULP energy per Si atom -12390.350329 kJ/mol
# Density = 1.901876 g / cm^3
# Si number density = 19.062146 Si / 1000 Ang^3
#
#
#
# Elastic Constant Matrix: (Units=GPa)
#
#
# Indices 1 2 3 4 5 6 
#
# 1 99.8615 15.9550 50.9109 0.0000 -12.3986 0.0000
# 2 15.9550 42.4621 18.3481 0.0000 -2.4881 0.0000
# 3 50.9109 18.3481 104.7207 0.0000 1.9557 0.0000
# 4 0.0000 0.0000 0.0000 16.2827 0.0000 -3.2919
# 5 -12.3986 -2.4881 1.9557 0.0000 20.0709 0.0000
# 6 0.0000 0.0000 0.0000 -3.2919 0.0000 19.3727
#
#
#
# Elastic Compliance Matrix: (Units=1/GPa)
#
#
# Indices 1 2 3 4 5 6 
#
# 1 0.015259 -0.002022 -0.007249 0.000000 0.009882 0.000000
# 2 -0.002022 0.026010 -0.003617 0.000000 0.002327 0.000000
# 3 -0.007249 -0.003617 0.013824 0.000000 -0.006273 0.000000
# 4 0.000000 0.000000 0.000000 0.063600 0.000000 0.010807
# 5 0.009882 0.002327 -0.006273 0.000000 0.056828 0.000000
# 6 0.000000 0.000000 0.000000 0.010807 0.000000 0.053455
#
#
# Mechanical properties :
#
#
# Convention : Reuss Voigt Hill
#
# Bulk Modulus (GPa) = 34.11069 46.38581 40.24825
# Shear Modulus (GPa) = 18.90177 21.93394 20.41786
#
# Velocity S-wave (km/s) = 3.15236 3.39581 3.27635
# Velocity P-wave (km/s) = 5.58419 6.30573 5.95589
#
# Compressibility (1/GPa) = 0.02931632
#
# Stress axis : x y z
#
# Youngs Moduli (GPa) = 65.53332 38.44705 72.33698
#
# Poissons Ratio (x) = 0.07776 0.52435
# Poissons Ratio (y) = 0.13254 0.26167
# Poissons Ratio (z) = 0.47503 0.13908
#
# Static dielectric constant tensor:
#      x y z
#    x 3.953730 0.000000 0.117410 
#    y 0.000000 3.324820 0.000000 
#    z 0.117410 0.000000 3.304570 
# 
# 
# High freq. dielectric constant tensor:
#      x y z
#    x 1.752720 0.000000 0.006450 
#    y 0.000000 1.729130 0.000000 
#    z 0.006450 0.000000 1.700270 
# 
# From -- ./inp_files/49854.got.cif
#   From: 2010.06.25/outbox.cif.g09.slc.cpg/sg10_25_cif.got.tgz:49854.got - 2010.06.27 22:07:45.
