data_PCOD8059533
_publ_section_title
;
Structure prediction by ZEFSAII (Michael W. Deem and Ramdas Pophale) SiO2 
 PCOD8059533
Probable space group: P 2/M
;
_chemical_formula_sum "Si O2"
_cell_formula_units_Z 32
_cell_length_a 11.472730
_cell_length_b 9.546528
_cell_length_c 23.017810
_cell_angle_alpha 90.000000
_cell_angle_beta 53.425300
_cell_angle_gamma 90.000000
_cell_volume 2024.582123
_symmetry_space_group_name_H-M "P 2/M"
_symmetry_group_IT_number 10
_symmetry_cell_setting 'monoclinic'
loop_
_space_group_symop_operation_xyz
x,y,z
-x,y,-z
-x,-y,-z
x,-y,z
loop_
_atom_site_type_symbol
_atom_site_label
_atom_site_fract_x
_atom_site_fract_y
_atom_site_fract_z
Si Si1 0.690916 0.663688 0.802308
Si Si2 0.880465 0.157409 0.485221
Si Si3 0.657945 0.835838 0.928391
Si Si4 0.460427 0.663739 0.773603
Si Si5 0.869410 0.165006 0.964559
Si Si6 0.070009 0.655113 0.357345
Si Si7 0.692099 0.655298 0.613390
Si Si8 0.192474 0.165436 0.888884
O O1 0.682575 0.500000 0.820318
O O2 0.680275 0.755362 0.862411
O O3 0.559372 0.706233 0.799024
O O4 0.844855 0.699620 0.726212
O O5 0.734848 0.235544 0.550303
O O6 0.000000 0.157594 0.500000
O O7 0.942516 0.235157 0.409621
O O8 0.838130 0.000000 0.480049
O O9 0.774504 0.774798 0.939854
O O10 0.680544 0.000000 0.909916
O O11 0.500000 0.803716 0.000000
O O12 0.422704 0.500000 0.787085
O O13 0.543023 0.701065 0.689029
O O14 0.314457 0.753503 0.816931
O O15 0.037906 0.204422 0.905772
O O16 0.851764 0.000000 0.972256
O O17 0.808862 0.220901 0.044185
O O18 0.001590 0.500000 0.370225
O O19 0.183402 0.649933 0.375742
O O20 0.675878 0.500000 0.590755
O O21 0.222519 0.000000 0.876582
#
# Coordination Sequence:
#
# PCOD8059533 Si02
#       8
#     4   4   4   4   4   4   4   4
#     4   9  18  30  42  59  84 113 143 174 208 247
#     4   9  15  21  32  53  78 102 133 172 203 230
#     4  10  19  30  45  64  85 109 139 174 210 249
#     4   9  17  28  41  60  86 111 139 176 211 243
#     4   8  16  30  45  63  84 106 136 173 212 252
#     4   8  14  25  38  50  71 107 142 165 195 243
#     4   8  14  24  36  50  74 109 138 161 198 245
#     4   9  16  29  48  62  78 108 141 172 208 252
#
# _framework density 15.805731
#
# number of rings (size 3 to 8) (size 9 to 14) (size 15 to 20)
#    0.000    3.250    0.000    3.375    0.000    4.250 
#    0.000    5.000    0.000    0.000    0.000    0.000 
#    0.000    1.000    0.000   11.250    0.000    8.500 
#
# Total GULP energy -396635.470755 kJ/mol
# GULP energy per Si atom -12394.858461 kJ/mol
# Density = 1.576976 g / cm^3
# Si number density = 15.805731 Si / 1000 Ang^3
#
#
#
# Elastic Constant Matrix: (Units=GPa)
#
#
# Indices 1 2 3 4 5 6 
#
# 1 60.2350 31.6402 41.3007 0.0000 -8.9389 0.0000
# 2 31.6402 80.8062 72.9713 0.0000 -10.0679 0.0000
# 3 41.3007 72.9713 130.5425 0.0000 -17.1924 0.0000
# 4 0.0000 0.0000 0.0000 31.4156 0.0000 -5.1741
# 5 -8.9389 -10.0679 -17.1924 0.0000 18.5471 0.0000
# 6 0.0000 0.0000 0.0000 -5.1741 0.0000 11.2113
#
#
#
# Elastic Compliance Matrix: (Units=1/GPa)
#
#
# Indices 1 2 3 4 5 6 
#
# 1 0.022407 -0.004736 -0.003825 0.000000 0.004683 0.000000
# 2 -0.004736 0.025999 -0.013072 0.000000 -0.000287 0.000000
# 3 -0.003825 -0.013072 0.017086 0.000000 0.006899 0.000000
# 4 0.000000 0.000000 0.000000 0.034450 0.000000 0.015899
# 5 0.004683 -0.000287 0.006899 0.000000 0.062413 0.000000
# 6 0.000000 0.000000 0.000000 0.015899 0.000000 0.096534
#
#
# Mechanical properties :
#
#
# Convention : Reuss Voigt Hill
#
# Bulk Modulus (GPa) = 44.99384 62.60089 53.79737
# Shear Modulus (GPa) = 16.15178 20.61290 18.38234
#
# Velocity S-wave (km/s) = 3.20018 3.61521 3.41400
# Velocity P-wave (km/s) = 6.49488 7.55769 7.04635
#
# Compressibility (1/GPa) = 0.02222526
#
# Stress axis : x y z
#
# Youngs Moduli (GPa) = 44.62911 38.46322 58.52634
#
# Poissons Ratio (x) = 0.18216 0.22386
# Poissons Ratio (y) = 0.21137 0.76508
# Poissons Ratio (z) = 0.17070 0.50281
#
# Static dielectric constant tensor:
#      x y z
#    x 2.798560 0.000000 -0.091560 
#    y 0.000000 2.975490 0.000000 
#    z -0.091560 0.000000 3.143170 
# 
# 
# High freq. dielectric constant tensor:
#      x y z
#    x 1.553870 0.000000 -0.013690 
#    y 0.000000 1.598540 0.000000 
#    z -0.013690 0.000000 1.614810 
# 
# From -- ./inp_files/54841.got.cif
#   From: 2010.06.25/outbox.cif.g09.slc.cpg/sg10_28_cif.got.tgz:54841.got - 2010.06.27 22:07:45.
