data_PCOD8059358
_publ_section_title
;
Structure prediction by ZEFSAII (Michael W. Deem and Ramdas Pophale) SiO2 
 PCOD8059358
Probable space group: P 2/M
;
_chemical_formula_sum "Si O2"
_cell_formula_units_Z 32
_cell_length_a 14.117296
_cell_length_b 9.204093
_cell_length_c 16.432356
_cell_angle_alpha 90.000000
_cell_angle_beta 118.772643
_cell_angle_gamma 90.000000
_cell_volume 1871.554207
_symmetry_space_group_name_H-M "P 2/M"
_symmetry_group_IT_number 10
_symmetry_cell_setting 'monoclinic'
loop_
_space_group_symop_operation_xyz
x,y,z
-x,y,-z
-x,-y,-z
x,-y,z
loop_
_atom_site_type_symbol
_atom_site_label
_atom_site_fract_x
_atom_site_fract_y
_atom_site_fract_z
Si Si1 0.125331 0.167348 0.705134
Si Si2 0.253701 0.329040 0.624316
Si Si3 0.939797 0.657787 0.559362
Si Si4 0.156540 0.829515 0.210783
Si Si5 0.092455 0.834374 0.873356
Si Si6 0.339581 0.672114 0.378943
Si Si7 0.872483 0.336058 0.959206
Si Si8 0.564715 0.671061 0.412598
O O1 0.218036 0.246210 0.691144
O O2 0.151018 0.189090 0.810928
O O3 0.004304 0.227881 0.640729
O O4 0.124360 0.000000 0.679383
O O5 0.245051 0.500000 0.640009
O O6 0.179773 0.288300 0.514890
O O7 0.374172 0.280474 0.645606
O O8 0.935064 0.500000 0.602153
O O9 0.000000 0.637135 0.500000
O O10 0.232231 0.757642 0.309918
O O11 0.183786 0.757086 0.134892
O O12 0.034056 0.795149 0.186443
O O13 0.179707 0.000000 0.214410
O O14 0.103625 0.000000 0.907732
O O15 0.153971 0.733734 0.963953
O O16 0.315984 0.500000 0.366856
O O17 0.438489 0.715176 0.358494
O O18 0.374332 0.730569 0.482069
O O19 0.827168 0.500000 0.937982
O O20 0.000000 0.332303 0.000000
O O21 0.573035 0.500000 0.424919
#
# Coordination Sequence:
#
# PCOD8059358 Si02
#       8
#     4   4   4   4   4   4   4   4
#     4  10  19  29  41  62  90 120 154 186 218 265
#     4   9  17  30  45  61  85 119 154 188 230 270
#     4   8  15  26  39  56  81 112 149 187 220 257
#     4  10  19  31  47  67  95 126 150 179 228 278
#     4   9  19  32  44  63  96 129 151 179 225 273
#     4   9  17  31  50  70  89 115 156 197 230 269
#     4   9  17  30  48  70  91 115 152 190 221 263
#     4   8  16  31  49  67  90 119 152 196 240 267
#
# _framework density 17.098089000000002
#
# number of rings (size 3 to 8) (size 9 to 14) (size 15 to 20)
#    0.000    3.000    0.000    2.625    1.750    5.250 
#    0.000    2.500    0.000    0.000    0.000    0.875 
#    0.000    7.000    0.000    0.000    0.000    0.000 
#
# Total GULP energy -396563.757918 kJ/mol
# GULP energy per Si atom -12392.617435 kJ/mol
# Density = 1.705917 g / cm^3
# Si number density = 17.098089 Si / 1000 Ang^3
#
#
#
# Elastic Constant Matrix: (Units=GPa)
#
#
# Indices 1 2 3 4 5 6 
#
# 1 68.3056 23.2400 11.6903 0.0000 -14.4760 0.0000
# 2 23.2400 75.9675 29.6305 0.0000 -9.7042 0.0000
# 3 11.6903 29.6305 51.0565 0.0000 -10.4108 0.0000
# 4 0.0000 0.0000 0.0000 28.3471 0.0000 -2.9695
# 5 -14.4760 -9.7042 -10.4108 0.0000 20.3150 0.0000
# 6 0.0000 0.0000 0.0000 -2.9695 0.0000 15.6217
#
#
#
# Elastic Compliance Matrix: (Units=1/GPa)
#
#
# Indices 1 2 3 4 5 6 
#
# 1 0.018449 -0.004457 0.000680 0.000000 0.011366 0.000000
# 2 -0.004457 0.018308 -0.009457 0.000000 0.000723 0.000000
# 3 0.000680 -0.009457 0.026908 0.000000 0.009757 0.000000
# 4 0.000000 0.000000 0.000000 0.035994 0.000000 0.006842
# 5 0.011366 0.000723 0.009757 0.000000 0.062669 0.000000
# 6 0.000000 0.000000 0.000000 0.006842 0.000000 0.065314
#
#
# Mechanical properties :
#
#
# Convention : Reuss Voigt Hill
#
# Bulk Modulus (GPa) = 26.88411 36.05015 31.46713
# Shear Modulus (GPa) = 18.76106 21.57467 20.16786
#
# Velocity S-wave (km/s) = 3.31609 3.55606 3.43817
# Velocity P-wave (km/s) = 5.51539 6.16367 5.84852
#
# Compressibility (1/GPa) = 0.03719669
#
# Stress axis : x y z
#
# Youngs Moduli (GPa) = 54.20361 54.62056 37.16328
#
# Poissons Ratio (x) = 0.24346 -0.02527
# Poissons Ratio (y) = 0.24160 0.35146
# Poissons Ratio (z) = -0.03686 0.51655
#
# Static dielectric constant tensor:
#      x y z
#    x 3.452780 0.000000 0.018940 
#    y 0.000000 3.113170 0.000000 
#    z 0.018940 0.000000 3.101330 
# 
# 
# High freq. dielectric constant tensor:
#      x y z
#    x 1.639820 0.000000 -0.017320 
#    y 0.000000 1.650360 0.000000 
#    z -0.017320 0.000000 1.634690 
# 
# From -- ./inp_files/66562.got.cif
#   From: 2010.06.25/outbox.cif.g09.slc.cpg/sg10_34_cif.got.tgz:66562.got - 2010.06.27 22:07:45.
