data_PCOD8059598
_publ_section_title
;
Structure prediction by ZEFSAII (Michael W. Deem and Ramdas Pophale) SiO2 
 PCOD8059598
Probable space group: P 2/M
;
_chemical_formula_sum "Si O2"
_cell_formula_units_Z 26
_cell_length_a 18.633905
_cell_length_b 16.126283
_cell_length_c 5.026371
_cell_angle_alpha 90.000000
_cell_angle_beta 115.715926
_cell_angle_gamma 90.000000
_cell_volume 1360.806866
_symmetry_space_group_name_H-M "P 2/M"
_symmetry_group_IT_number 10
_symmetry_cell_setting 'monoclinic'
loop_
_space_group_symop_operation_xyz
x,y,z
-x,y,-z
-x,-y,-z
x,-y,z
loop_
_atom_site_type_symbol
_atom_site_label
_atom_site_fract_x
_atom_site_fract_y
_atom_site_fract_z
Si Si1 0.552338 0.590284 0.827635
Si Si2 0.362509 0.261820 0.803270
Si Si3 0.753506 0.094682 0.834529
Si Si4 0.198684 0.192476 0.570981
Si Si5 0.411171 0.168763 0.388215
Si Si6 0.055587 0.500000 0.339453
Si Si7 0.943302 0.680241 0.658829
O O1 0.500000 0.627730 0.500000
O O2 0.586947 0.500000 0.795417
O O3 0.500000 0.578112 0.000000
O O4 0.623197 0.649978 0.033116
O O5 0.268716 0.255776 0.597618
O O6 0.410769 0.245070 0.603897
O O7 0.389450 0.193156 0.055183
O O8 0.802046 0.118576 0.646304
O O9 0.657678 0.104419 0.630684
O O10 0.771984 0.000000 0.936029
O O11 0.786412 0.154314 0.116195
O O12 0.118489 0.244799 0.441531
O O13 0.500000 0.129944 0.500000
O O14 0.102333 0.589072 0.414640
O O15 0.000000 0.500000 0.500000
O O16 0.000000 0.500000 0.000000
O O17 0.000000 0.689520 0.500000
O O18 0.000000 0.689764 0.000000
#
# Coordination Sequence:
#
# PCOD8059598 Si02
#       7
#     4   4   4   4   4   2   4
#     4  10  19  30  46  67  96 136 177 214 252 296
#     4  10  19  32  48  72 103 133 175 216 261 312
#     4  10  21  37  56  77 108 143 176 221 272 323
#     4  10  21  36  56  81 105 140 179 213 269 330
#     4  10  19  31  52  76  99 132 176 220 265 311
#     4   8  16  30  52  82 110 136 165 204 257 310
#     4  10  19  35  59  84 112 141 177 216 261 320
#
# _framework density 19.106310000000001
#
# number of rings (size 3 to 8) (size 9 to 14) (size 15 to 20)
#    0.000    2.154    0.000    4.154    0.000    0.308 
#    1.385    0.000    0.000   14.769    0.000    0.000 
#    0.000    0.000    0.000    0.000    0.000    0.000 
#
# Total GULP energy -322101.283525 kJ/mol
# GULP energy per Si atom -12388.510905 kJ/mol
# Density = 1.906282 g / cm^3
# Si number density = 19.106310 Si / 1000 Ang^3
#
#
#
# Elastic Constant Matrix: (Units=GPa)
#
#
# Indices 1 2 3 4 5 6 
#
# 1 83.6907 37.9678 37.2079 0.0000 2.1333 0.0000
# 2 37.9678 105.4701 27.7633 0.0000 18.1668 0.0000
# 3 37.2079 27.7633 98.2806 0.0000 -12.4775 0.0000
# 4 0.0000 0.0000 0.0000 26.1089 0.0000 -1.5175
# 5 2.1333 18.1668 -12.4775 0.0000 31.5364 0.0000
# 6 0.0000 0.0000 0.0000 -1.5175 0.0000 19.4829
#
#
#
# Elastic Compliance Matrix: (Units=1/GPa)
#
#
# Indices 1 2 3 4 5 6 
#
# 1 0.016166 -0.004438 -0.004928 0.000000 -0.000487 0.000000
# 2 -0.004438 0.013426 -0.003218 0.000000 -0.008707 0.000000
# 3 -0.004928 -0.003218 0.013927 0.000000 0.007697 0.000000
# 4 0.000000 0.000000 0.000000 0.038475 0.000000 0.002997
# 5 -0.000487 -0.008707 0.007697 0.000000 0.039803 0.000000
# 6 0.000000 0.000000 0.000000 0.002997 0.000000 0.051561
#
#
# Mechanical properties :
#
#
# Convention : Reuss Voigt Hill
#
# Bulk Modulus (GPa) = 54.49617 54.81327 54.65472
# Shear Modulus (GPa) = 24.43280 27.72580 26.07930
#
# Velocity S-wave (km/s) = 3.57989 3.81351 3.69854
# Velocity P-wave (km/s) = 6.75810 6.93839 6.84884
#
# Compressibility (1/GPa) = 0.01834991
#
# Stress axis : x y z
#
# Youngs Moduli (GPa) = 61.85937 74.48301 71.80342
#
# Poissons Ratio (x) = 0.33058 0.35386
# Poissons Ratio (y) = 0.27455 0.23105
# Poissons Ratio (z) = 0.30485 0.23967
#
# Static dielectric constant tensor:
#      x y z
#    x 3.379370 0.000000 -0.226930 
#    y 0.000000 3.648280 0.000000 
#    z -0.226930 0.000000 3.565750 
# 
# 
# High freq. dielectric constant tensor:
#      x y z
#    x 1.719140 0.000000 -0.029400 
#    y 0.000000 1.733530 0.000000 
#    z -0.029400 0.000000 1.754650 
# 
# From -- ./inp_files/11355.got.cif
#   From: 2010.06.25/outbox.cif.g09.slc.cpg/sg10_6_cif.got.tgz:11355.got - 2010.06.27 22:07:45.
