data_PCOD8059673
_publ_section_title
;
Structure prediction by ZEFSAII (Michael W. Deem and Ramdas Pophale) SiO2 
 PCOD8059673
Probable space group: P 2/M
;
_chemical_formula_sum "Si O2"
_cell_formula_units_Z 30
_cell_length_a 14.713052
_cell_length_b 26.220190
_cell_length_c 12.991850
_cell_angle_alpha 90.000000
_cell_angle_beta 160.096610
_cell_angle_gamma 90.000000
_cell_volume 1706.255401
_symmetry_space_group_name_H-M "P 2/M"
_symmetry_group_IT_number 10
_symmetry_cell_setting 'monoclinic'
loop_
_space_group_symop_operation_xyz
x,y,z
-x,y,-z
-x,-y,-z
x,-y,z
loop_
_atom_site_type_symbol
_atom_site_label
_atom_site_fract_x
_atom_site_fract_y
_atom_site_fract_z
Si Si1 0.189604 0.597545 0.891531
Si Si2 0.602684 0.941665 0.713866
Si Si3 0.781896 0.753920 0.351735
Si Si4 0.360303 0.350642 0.739777
Si Si5 0.277264 0.500000 0.851081
Si Si6 0.784616 0.865552 0.355364
Si Si7 0.216411 0.440589 0.148104
Si Si8 0.136533 0.941366 0.378428
O O1 0.303092 0.548642 0.952250
O O2 0.890721 0.610893 0.535190
O O3 0.411588 0.640635 0.103234
O O4 0.180793 0.589897 0.004417
O O5 0.500000 0.914241 0.500000
O O6 0.381912 0.936487 0.564346
O O7 0.671465 0.000000 0.759598
O O8 0.876379 0.917004 0.046508
O O9 0.755875 0.706620 0.403202
O O10 0.852888 0.809211 0.476851
O O11 0.000000 0.737513 0.500000
O O12 0.500000 0.762244 0.000000
O O13 0.500000 0.356604 0.000000
O O14 0.000000 0.500000 0.500000
O O15 0.500000 0.500000 0.000000
O O16 0.792338 0.908870 0.447607
O O17 0.000000 0.879945 0.500000
O O18 0.500000 0.866519 0.000000
O O19 0.500000 0.429153 0.500000
O O20 0.175240 0.500000 0.079329
O O21 0.000000 0.421217 0.000000
O O22 0.086477 0.000000 0.358637
#
# Coordination Sequence:
#
# PCOD8059673 Si02
#       8
#     4   4   4   4   2   4   4   4
#     4  12  22  36  53  79 104 137 169 200 251 303
#     4   9  17  30  47  68  96 128 165 210 251 291
#     4   9  18  33  51  71  97 132 173 211 244 281
#     4  11  21  34  54  77 107 133 166 206 245 303
#     4  12  24  34  46  72 112 142 156 182 237 310
#     4  10  20  33  49  71 102 136 169 206 245 294
#     4  10  21  38  57  74  99 133 176 219 244 275
#     4  10  19  30  47  73 101 132 168 205 251 309
#
# _framework density 17.582362
#
# number of rings (size 3 to 8) (size 9 to 14) (size 15 to 20)
#    0.000    1.733    0.667    6.000    0.000    2.133 
#    0.000    0.000    0.000    0.000    0.000    9.333 
#    0.000    0.000    0.000    0.000    0.000    0.000 
#
# Total GULP energy -371888.044313 kJ/mol
# GULP energy per Si atom -12396.268144 kJ/mol
# Density = 1.754234 g / cm^3
# Si number density = 17.582362 Si / 1000 Ang^3
#
#
#
# Elastic Constant Matrix: (Units=GPa)
#
#
# Indices 1 2 3 4 5 6 
#
# 1 119.5276 51.3863 51.4679 0.0000 1.8873 0.0000
# 2 51.3863 82.0283 34.1679 0.0000 -11.2372 0.0000
# 3 51.4679 34.1679 98.7160 0.0000 9.9005 0.0000
# 4 0.0000 0.0000 0.0000 7.4274 0.0000 6.9866
# 5 1.8873 -11.2372 9.9005 0.0000 34.7806 0.0000
# 6 0.0000 0.0000 0.0000 6.9866 0.0000 13.6248
#
#
#
# Elastic Compliance Matrix: (Units=1/GPa)
#
#
# Indices 1 2 3 4 5 6 
#
# 1 0.013126 -0.006611 -0.004395 0.000000 -0.001597 0.000000
# 2 -0.006611 0.018994 -0.003890 0.000000 0.007603 0.000000
# 3 -0.004395 -0.003890 0.014278 0.000000 -0.005083 0.000000
# 4 0.000000 0.000000 0.000000 0.260092 0.000000 -0.133371
# 5 -0.001597 0.007603 -0.005083 0.000000 0.032742 0.000000
# 6 0.000000 0.000000 0.000000 -0.133371 0.000000 0.141786
#
#
# Mechanical properties :
#
#
# Convention : Reuss Voigt Hill
#
# Bulk Modulus (GPa) = 60.22029 63.81290 62.01659
# Shear Modulus (GPa) = 9.68344 22.04986 15.86665
#
# Velocity S-wave (km/s) = 2.34935 3.54516 3.00729
# Velocity P-wave (km/s) = 6.45631 7.28903 6.88527
#
# Compressibility (1/GPa) = 0.01660570
#
# Stress axis : x y z
#
# Youngs Moduli (GPa) = 76.18400 52.64793 70.03832
#
# Poissons Ratio (x) = 0.34804 0.30784
# Poissons Ratio (y) = 0.50363 0.27246
# Poissons Ratio (z) = 0.33485 0.20481
#
# Static dielectric constant tensor:
#      x y z
#    x 3.217230 0.000000 0.191120 
#    y 0.000000 3.450550 0.000000 
#    z 0.191120 0.000000 3.362730 
# 
# 
# High freq. dielectric constant tensor:
#      x y z
#    x 1.677810 0.000000 0.027310 
#    y 0.000000 1.657380 0.000000 
#    z 0.027310 0.000000 1.688700 
# 
# From -- ./inp_files/52141.got.cif
#   From: 2010.06.25/outbox.cif.g09.slc.cpg/sg10_27_cif.got.tgz:52141.got - 2010.06.27 22:07:45.
