data_PCOD8059047
_publ_section_title
;
Structure prediction by ZEFSAII (Michael W. Deem and Ramdas Pophale) SiO2 
 PCOD8059047
Probable space group: P 2/M
;
_chemical_formula_sum "Si O2"
_cell_formula_units_Z 32
_cell_length_a 20.280198
_cell_length_b 8.768057
_cell_length_c 26.189831
_cell_angle_alpha 90.000000
_cell_angle_beta 158.899013
_cell_angle_gamma 90.000000
_cell_volume 1676.587752
_symmetry_space_group_name_H-M "P 2/M"
_symmetry_group_IT_number 10
_symmetry_cell_setting 'monoclinic'
loop_
_space_group_symop_operation_xyz
x,y,z
-x,y,-z
-x,-y,-z
x,-y,z
loop_
_atom_site_type_symbol
_atom_site_label
_atom_site_fract_x
_atom_site_fract_y
_atom_site_fract_z
Si Si1 0.688876 0.318355 0.658878
Si Si2 0.902303 0.320621 0.308938
Si Si3 0.205629 0.318172 0.154568
Si Si4 0.273562 0.318959 0.627829
Si Si5 0.800715 0.820340 0.130119
Si Si6 0.049878 0.318877 0.861929
Si Si7 0.366307 0.318554 0.166206
Si Si8 0.405088 0.321229 0.832146
O O1 0.500000 0.251933 0.500000
O O2 0.685732 0.500000 0.657537
O O3 0.710605 0.255232 0.732169
O O4 0.856902 0.262134 0.745377
O O5 0.918266 0.500000 0.309530
O O6 0.889561 0.232511 0.247003
O O7 0.724180 0.283660 0.213695
O O8 0.080403 0.257548 0.467499
O O9 0.202206 0.500000 0.152410
O O10 0.326917 0.257198 0.194812
O O11 0.000000 0.255546 0.000000
O O12 0.270641 0.500000 0.625224
O O13 0.436961 0.256204 0.709946
O O14 0.305807 0.262597 0.708982
O O15 0.926580 0.753068 0.176491
O O16 0.803949 0.000000 0.129212
O O17 0.593488 0.765016 0.976017
O O18 0.056023 0.500000 0.861179
O O19 0.210795 0.259035 0.015205
O O20 0.363167 0.500000 0.163631
O O21 0.449529 0.500000 0.860297
#
# Coordination Sequence:
#
# PCOD8059047 Si02
#       8
#     4   4   4   4   4   4   4   4
#     4   9  17  27  44  77 113 138 168 217 273 324
#     4  10  21  36  57  84 112 142 177 226 281 332
#     4   9  14  22  38  66 103 136 164 201 258 315
#     4   9  17  31  54  85 113 138 176 223 274 327
#     4  12  25  38  54  78 110 149 190 229 270 322
#     4  10  18  33  56  78 106 143 181 226 275 322
#     4   9  15  25  48  78 107 139 173 216 266 320
#     4  10  19  36  61  85 109 139 180 226 275 333
#
# _framework density 19.086386000000001
#
# number of rings (size 3 to 8) (size 9 to 14) (size 15 to 20)
#    0.000    2.250    2.500    1.875    0.000    4.500 
#    0.000    4.375    0.000    1.875    0.000    1.750 
#    0.000    0.000    0.000    0.000    0.000    0.000 
#
# Total GULP energy -396788.571571 kJ/mol
# GULP energy per Si atom -12399.642862 kJ/mol
# Density = 1.904294 g / cm^3
# Si number density = 19.086386 Si / 1000 Ang^3
#
#
#
# Elastic Constant Matrix: (Units=GPa)
#
#
# Indices 1 2 3 4 5 6 
#
# 1 147.8398 24.8786 46.0688 0.0000 -8.3256 0.0000
# 2 24.8786 27.6817 18.5457 0.0000 0.8691 0.0000
# 3 46.0688 18.5457 111.7773 0.0000 -11.6170 0.0000
# 4 0.0000 0.0000 0.0000 -0.2653 0.0000 1.9424
# 5 -8.3256 0.8691 -11.6170 0.0000 36.6914 0.0000
# 6 0.0000 0.0000 0.0000 1.9424 0.0000 1.1648
#
#
#
# Elastic Compliance Matrix: (Units=1/GPa)
#
#
# Indices 1 2 3 4 5 6 
#
# 1 0.008627 -0.006196 -0.002387 0.000000 0.001348 0.000000
# 2 -0.006196 0.045460 -0.005425 0.000000 -0.004200 0.000000
# 3 -0.002387 -0.005425 0.011155 0.000000 0.003118 0.000000
# 4 0.000000 0.000000 0.000000 -0.285372 0.000000 0.475861
# 5 0.001348 -0.004200 0.003118 0.000000 0.028647 0.000000
# 6 0.000000 0.000000 0.000000 0.475861 0.000000 0.064990
#
#
# Mechanical properties :
#
#
# Convention : Reuss Voigt Hill
#
# Bulk Modulus (GPa) = 26.86446 51.80943 39.33694
# Shear Modulus (GPa) = -58.09324 20.70525 -18.69400
#
# Velocity S-wave (km/s) = -5.52296 3.29723 -3.13300
# Velocity P-wave (km/s) = 5.15413 6.45750 2.75084
#
# Compressibility (1/GPa) = 0.03722390
#
# Stress axis : x y z
#
# Youngs Moduli (GPa) = 115.92076 21.99723 89.64951
#
# Poissons Ratio (x) = 0.13629 0.21402
# Poissons Ratio (y) = 0.71824 0.48639
# Poissons Ratio (z) = 0.27673 0.11935
#
# Static dielectric constant tensor:
#      x y z
#    x 3.795120 0.000000 -0.014590 
#    y 0.000000 2.854230 0.000000 
#    z -0.014590 0.000000 3.719250 
# 
# 
# High freq. dielectric constant tensor:
#      x y z
#    x 1.762980 0.000000 -0.000030 
#    y 0.000000 1.673310 0.000000 
#    z -0.000030 0.000000 1.749460 
# 
# From -- ./inp_files/93705.got.cif
#   From: 2010.06.25/outbox.cif.g09.slc.cpg/sg10_47_cif.got.tgz:93705.got - 2010.06.27 22:07:45.
