data_PCOD8059007
_publ_section_title
;
Structure prediction by ZEFSAII (Michael W. Deem and Ramdas Pophale) SiO2 
 PCOD8059007
Probable space group: P 2/M
;
_chemical_formula_sum "Si O2"
_cell_formula_units_Z 32
_cell_length_a 9.613793
_cell_length_b 13.698480
_cell_length_c 27.907117
_cell_angle_alpha 90.000000
_cell_angle_beta 149.595859
_cell_angle_gamma 90.000000
_cell_volume 1860.009279
_symmetry_space_group_name_H-M "P 2/M"
_symmetry_group_IT_number 10
_symmetry_cell_setting 'monoclinic'
loop_
_space_group_symop_operation_xyz
x,y,z
-x,y,-z
-x,-y,-z
x,-y,z
loop_
_atom_site_type_symbol
_atom_site_label
_atom_site_fract_x
_atom_site_fract_y
_atom_site_fract_z
Si Si1 0.478644 0.222924 0.786106
Si Si2 0.461093 0.228410 0.891432
Si Si3 0.572185 0.110914 0.394343
Si Si4 0.160904 0.605667 0.003476
Si Si5 0.017323 0.884171 0.915362
Si Si6 0.902020 0.110441 0.395227
Si Si7 0.090971 0.776914 0.213576
Si Si8 0.292895 0.389630 0.206830
O O1 0.387782 0.220649 0.813962
O O2 0.222509 0.172228 0.684472
O O3 0.503364 0.330231 0.768556
O O4 0.768982 0.166010 0.870454
O O5 0.575621 0.335766 0.933828
O O6 0.190690 0.230975 0.842273
O O7 0.686153 0.149180 0.976144
O O8 0.696213 0.115918 0.378335
O O9 0.305944 0.179249 0.315748
O O10 0.796640 0.149579 0.499491
O O11 0.488778 0.000000 0.382008
O O12 0.255955 0.500000 0.050892
O O13 0.000000 0.658704 0.000000
O O14 0.987898 0.596159 0.904382
O O15 0.972889 0.853453 0.847427
O O16 0.996384 0.000000 0.914164
O O17 0.930733 0.000000 0.385784
O O18 0.219299 0.674660 0.232139
O O19 0.406693 0.500000 0.253464
#
# Coordination Sequence:
#
# PCOD8059007 Si02
#       8
#     4   4   4   4   4   4   4   4
#     4  11  20  35  56  76 106 134 176 222 258 310
#     4  12  23  34  48  79 109 145 174 204 266 315
#     4   9  17  33  57  81 101 131 177 222 263 304
#     4  10  18  33  54  75 102 137 180 222 257 296
#     4  11  22  36  51  70 104 145 181 212 248 306
#     4   9  17  32  58  83  99 128 178 226 263 301
#     4  11  22  35  53  74 110 140 172 216 261 318
#     4  10  20  34  54  76 102 137 174 217 256 303
#
# _framework density 17.204214
#
# number of rings (size 3 to 8) (size 9 to 14) (size 15 to 20)
#    0.000    1.625    6.250    2.250    0.000    3.500 
#    0.000    1.875    0.000    3.000    0.000    0.000 
#    0.000    3.000    0.000    0.000    0.000    0.000 
#
# Total GULP energy -396532.640056 kJ/mol
# GULP energy per Si atom -12391.645002 kJ/mol
# Density = 1.716506 g / cm^3
# Si number density = 17.204214 Si / 1000 Ang^3
#
#
#
# Elastic Constant Matrix: (Units=GPa)
#
#
# Indices 1 2 3 4 5 6 
#
# 1 44.4254 13.9678 12.5022 0.0000 -1.8239 0.0000
# 2 13.9678 101.3377 33.8759 0.0000 -1.4638 0.0000
# 3 12.5022 33.8759 89.0688 0.0000 -4.0560 0.0000
# 4 0.0000 0.0000 0.0000 16.2963 0.0000 0.3241
# 5 -1.8239 -1.4638 -4.0560 0.0000 18.5322 0.0000
# 6 0.0000 0.0000 0.0000 0.3241 0.0000 10.5824
#
#
#
# Elastic Compliance Matrix: (Units=1/GPa)
#
#
# Indices 1 2 3 4 5 6 
#
# 1 0.024025 -0.002504 -0.002345 0.000000 0.001654 0.000000
# 2 -0.002504 0.011566 -0.004058 0.000000 -0.000221 0.000000
# 3 -0.002345 -0.004058 0.013206 0.000000 0.002339 0.000000
# 4 0.000000 0.000000 0.000000 0.061401 0.000000 -0.001880
# 5 0.001654 -0.000221 0.002339 0.000000 0.054617 0.000000
# 6 0.000000 0.000000 0.000000 -0.001880 0.000000 0.094554
#
#
# Mechanical properties :
#
#
# Convention : Reuss Voigt Hill
#
# Bulk Modulus (GPa) = 32.27381 39.50264 35.88822
# Shear Modulus (GPa) = 17.39071 20.71459 19.05265
#
# Velocity S-wave (km/s) = 3.18282 3.47369 3.33143
# Velocity P-wave (km/s) = 5.68393 6.25297 5.97523
#
# Compressibility (1/GPa) = 0.03098488
#
# Stress axis : x y z
#
# Youngs Moduli (GPa) = 41.62410 86.45774 75.72210
#
# Poissons Ratio (x) = 0.21647 0.17754
# Poissons Ratio (y) = 0.10421 0.30726
# Poissons Ratio (z) = 0.09760 0.35082
#
# Static dielectric constant tensor:
#      x y z
#    x 2.777190 0.000000 -0.133110 
#    y 0.000000 3.628550 0.000000 
#    z -0.133110 0.000000 3.318950 
# 
# 
# High freq. dielectric constant tensor:
#      x y z
#    x 1.642930 0.000000 -0.008920 
#    y 0.000000 1.662980 0.000000 
#    z -0.008920 0.000000 1.655220 
# 
# From -- ./inp_files/92397.got.cif
#   From: 2010.06.25/outbox.cif.g09.slc.cpg/sg10_47_cif.got.tgz:92397.got - 2010.06.27 22:07:45.
