data_PCOD8059408
_publ_section_title
;
Structure prediction by ZEFSAII (Michael W. Deem and Ramdas Pophale) SiO2 
 PCOD8059408
Probable space group: P 2/M
;
_chemical_formula_sum "Si O2"
_cell_formula_units_Z 24
_cell_length_a 20.402831
_cell_length_b 9.843270
_cell_length_c 11.594875
_cell_angle_alpha 90.000000
_cell_angle_beta 39.124440
_cell_angle_gamma 90.000000
_cell_volume 1469.365797
_symmetry_space_group_name_H-M "P 2/M"
_symmetry_group_IT_number 10
_symmetry_cell_setting 'monoclinic'
loop_
_space_group_symop_operation_xyz
x,y,z
-x,y,-z
-x,-y,-z
x,-y,z
loop_
_atom_site_type_symbol
_atom_site_label
_atom_site_fract_x
_atom_site_fract_y
_atom_site_fract_z
Si Si1 0.608957 0.844952 0.908193
Si Si2 0.295710 0.846998 0.454468
Si Si3 0.356052 0.345962 0.925467
Si Si4 0.415918 0.651953 0.440053
Si Si5 0.883477 0.158314 0.131224
Si Si6 0.755659 0.342993 0.146132
O O1 0.702148 0.832377 0.686974
O O2 0.597300 0.000000 0.967369
O O3 0.500000 0.796852 0.000000
O O4 0.644670 0.753415 0.965490
O O5 0.386516 0.752155 0.377360
O O6 0.184400 0.807940 0.661673
O O7 0.324851 0.000000 0.450866
O O8 0.343346 0.500000 0.988838
O O9 0.461503 0.333125 0.706600
O O10 0.262858 0.310099 0.963848
O O11 0.387600 0.500000 0.438056
O O12 0.352657 0.688804 0.641281
O O13 0.845068 0.245964 0.074467
O O14 0.877041 0.000000 0.106179
O O15 0.000000 0.203074 0.000000
O O16 0.788834 0.500000 0.117463
#
# Coordination Sequence:
#
# PCOD8059408 Si02
#       6
#     4   4   4   4   4   4
#     4  10  19  30  44  64  94 129 159 185 217 264
#     4   9  17  30  46  66  93 121 151 188 227 266
#     4  10  19  29  44  66  95 128 157 186 219 263
#     4   9  16  27  44  65  92 124 154 184 220 266
#     4   9  18  33  53  73  90 112 148 195 239 275
#     4   9  18  31  46  68  95 121 151 187 231 276
#
# _framework density 16.333577999999999
#
# number of rings (size 3 to 8) (size 9 to 14) (size 15 to 20)
#    0.000    2.667    1.667    0.500    0.000    4.000 
#    0.000    0.000    0.000    6.000    0.000    7.000 
#    0.000    0.000    0.000    0.000    0.000    0.000 
#
# Total GULP energy -297480.271690 kJ/mol
# GULP energy per Si atom -12395.011320 kJ/mol
# Density = 1.629640 g / cm^3
# Si number density = 16.333578 Si / 1000 Ang^3
#
#
#
# Elastic Constant Matrix: (Units=GPa)
#
#
# Indices 1 2 3 4 5 6 
#
# 1 118.7659 69.1373 47.3134 0.0000 5.2189 0.0000
# 2 69.1373 78.6335 31.3749 0.0000 6.3379 0.0000
# 3 47.3134 31.3749 55.2692 0.0000 0.4858 0.0000
# 4 0.0000 0.0000 0.0000 21.3821 0.0000 4.2826
# 5 5.2189 6.3379 0.4858 0.0000 22.0081 0.0000
# 6 0.0000 0.0000 0.0000 4.2826 0.0000 34.7445
#
#
#
# Elastic Compliance Matrix: (Units=1/GPa)
#
#
# Indices 1 2 3 4 5 6 
#
# 1 0.020467 -0.014171 -0.009472 0.000000 -0.000564 0.000000
# 2 -0.014171 0.026717 -0.002998 0.000000 -0.004267 0.000000
# 3 -0.009472 -0.002998 0.027881 0.000000 0.002494 0.000000
# 4 0.000000 0.000000 0.000000 0.047952 0.000000 -0.005911
# 5 -0.000564 -0.004267 0.002494 0.000000 0.046745 0.000000
# 6 0.000000 0.000000 0.000000 -0.005911 0.000000 0.029510
#
#
# Mechanical properties :
#
#
# Convention : Reuss Voigt Hill
#
# Bulk Modulus (GPa) = 45.90404 60.92446 53.41425
# Shear Modulus (GPa) = 19.24442 22.61647 20.93044
#
# Velocity S-wave (km/s) = 3.43623 3.72514 3.58360
# Velocity P-wave (km/s) = 6.62636 7.47552 7.06371
#
# Compressibility (1/GPa) = 0.02178458
#
# Stress axis : x y z
#
# Youngs Moduli (GPa) = 48.85848 37.42951 35.86614
#
# Poissons Ratio (x) = 0.53041 0.33971
# Poissons Ratio (y) = 0.69237 0.10752
# Poissons Ratio (z) = 0.46277 0.11221
#
# Static dielectric constant tensor:
#      x y z
#    x 2.899230 0.000000 0.066670 
#    y 0.000000 3.141640 0.000000 
#    z 0.066670 0.000000 3.021960 
# 
# 
# High freq. dielectric constant tensor:
#      x y z
#    x 1.605550 0.000000 0.011430 
#    y 0.000000 1.633120 0.000000 
#    z 0.011430 0.000000 1.610700 
# 
# From -- ./inp_files/27781.got.cif
#   From: 2010.06.25/outbox.cif.g09.slc.cpg/sg10_14_cif.got.tgz:27781.got - 2010.06.27 22:07:45.
