data_PCOD8059502
_publ_section_title
;
Structure prediction by ZEFSAII (Michael W. Deem and Ramdas Pophale) SiO2 
 PCOD8059502
Probable space group: P 2/M
;
_chemical_formula_sum "Si O2"
_cell_formula_units_Z 28
_cell_length_a 19.736852
_cell_length_b 9.794077
_cell_length_c 24.799012
_cell_angle_alpha 90.000000
_cell_angle_beta 21.111357
_cell_angle_gamma 90.000000
_cell_volume 1726.622735
_symmetry_space_group_name_H-M "P 2/M"
_symmetry_group_IT_number 10
_symmetry_cell_setting 'monoclinic'
loop_
_space_group_symop_operation_xyz
x,y,z
-x,y,-z
-x,-y,-z
x,-y,z
loop_
_atom_site_type_symbol
_atom_site_label
_atom_site_fract_x
_atom_site_fract_y
_atom_site_fract_z
Si Si1 0.820361 0.836254 0.665831
Si Si2 0.285085 0.851239 0.143105
Si Si3 0.208139 0.344222 0.689934
Si Si4 0.590391 0.655503 0.349588
Si Si5 0.193025 0.158376 0.885737
Si Si6 0.587756 0.162232 0.060857
Si Si7 0.862711 0.840635 0.949200
O O1 0.822968 0.778656 0.726162
O O2 0.628462 0.785206 0.778881
O O3 0.000000 0.777602 0.500000
O O4 0.825478 0.000000 0.663577
O O5 0.190436 0.000000 0.206019
O O6 0.500000 0.869840 0.000000
O O7 0.289876 0.775602 0.080889
O O8 0.135605 0.500000 0.745265
O O9 0.287703 0.301246 0.689077
O O10 0.370410 0.327840 0.525086
O O11 0.041718 0.244126 0.796407
O O12 0.636580 0.500000 0.299208
O O13 0.638589 0.754269 0.264457
O O14 0.185269 0.196788 0.954030
O O15 0.238352 0.000000 0.842876
O O16 0.000000 0.200392 0.000000
O O17 0.685083 0.203761 0.044628
O O18 0.585913 0.000000 0.054448
O O19 0.910789 0.000000 0.907123
#
# Coordination Sequence:
#
# PCOD8059502 Si02
#       7
#     4   4   4   4   4   4   4
#     4   8  12  19  34  55  78 107 140 173 209 248
#     4   7  10  18  32  49  71 100 134 168 201 242
#     4   9  18  32  48  66  85 108 145 191 231 266
#     4   9  18  32  49  66  83 107 147 195 231 262
#     4  10  19  30  43  64  92 120 150 183 219 267
#     4   8  14  24  36  53  81 114 143 172 209 256
#     4  10  19  30  44  64  92 122 149 181 224 267
#
# _framework density 16.216629000000001
#
# number of rings (size 3 to 8) (size 9 to 14) (size 15 to 20)
#    0.000    3.286    1.429    2.571    0.000    1.429 
#    0.000    2.857    0.000    5.143    0.000    0.000 
#    0.000    5.714    0.000    0.000    0.000    3.571 
#
# Total GULP energy -346904.418716 kJ/mol
# GULP energy per Si atom -12389.443526 kJ/mol
# Density = 1.617972 g / cm^3
# Si number density = 16.216629 Si / 1000 Ang^3
#
#
#
# Elastic Constant Matrix: (Units=GPa)
#
#
# Indices 1 2 3 4 5 6 
#
# 1 119.6924 22.5700 61.3759 0.0000 7.4569 0.0000
# 2 22.5700 33.3343 33.2912 0.0000 3.1342 0.0000
# 3 61.3759 33.2912 109.4086 0.0000 12.1472 0.0000
# 4 0.0000 0.0000 0.0000 22.4798 0.0000 4.5174
# 5 7.4569 3.1342 12.1472 0.0000 24.4137 0.0000
# 6 0.0000 0.0000 0.0000 4.5174 0.0000 5.3813
#
#
#
# Elastic Compliance Matrix: (Units=1/GPa)
#
#
# Indices 1 2 3 4 5 6 
#
# 1 0.011822 -0.001993 -0.005984 0.000000 -0.000378 0.000000
# 2 -0.001993 0.043457 -0.012229 0.000000 0.001114 0.000000
# 3 -0.005984 -0.012229 0.016767 0.000000 -0.004945 0.000000
# 4 0.000000 0.000000 0.000000 0.053511 0.000000 -0.044920
# 5 -0.000378 0.001114 -0.004945 0.000000 0.043393 0.000000
# 6 0.000000 0.000000 0.000000 -0.044920 0.000000 0.223537
#
#
# Mechanical properties :
#
#
# Convention : Reuss Voigt Hill
#
# Bulk Modulus (GPa) = 31.61087 55.21219 43.41153
# Shear Modulus (GPa) = 11.27537 20.13485 15.70511
#
# Velocity S-wave (km/s) = 2.63971 3.52748 3.11538
# Velocity P-wave (km/s) = 5.36898 7.12119 6.30624
#
# Compressibility (1/GPa) = 0.03163469
#
# Stress axis : x y z
#
# Youngs Moduli (GPa) = 84.58474 23.01132 59.64183
#
# Poissons Ratio (x) = 0.04587 0.35688
# Poissons Ratio (y) = 0.16860 0.72934
# Poissons Ratio (z) = 0.50613 0.28140
#
# Static dielectric constant tensor:
#      x y z
#    x 3.220160 0.000000 0.198760 
#    y 0.000000 2.605460 0.000000 
#    z 0.198760 0.000000 3.086780 
# 
# 
# High freq. dielectric constant tensor:
#      x y z
#    x 1.618500 0.000000 0.016690 
#    y 0.000000 1.571930 0.000000 
#    z 0.016690 0.000000 1.616790 
# 
# From -- ./inp_files/82348.got.cif
#   From: 2010.06.25/outbox.cif.g09.slc.cpg/sg10_42_cif.got.tgz:82348.got - 2010.06.27 22:07:45.
