data_PCOD8059195
_publ_section_title
;
Structure prediction by ZEFSAII (Michael W. Deem and Ramdas Pophale) SiO2 
 PCOD8059195
Probable space group: P 2/M
;
_chemical_formula_sum "Si O2"
_cell_formula_units_Z 24
_cell_length_a 22.802463
_cell_length_b 9.238670
_cell_length_c 10.885518
_cell_angle_alpha 90.000000
_cell_angle_beta 147.764773
_cell_angle_gamma 90.000000
_cell_volume 1223.180153
_symmetry_space_group_name_H-M "P 2/M"
_symmetry_group_IT_number 10
_symmetry_cell_setting 'monoclinic'
loop_
_space_group_symop_operation_xyz
x,y,z
-x,y,-z
-x,-y,-z
x,-y,z
loop_
_atom_site_type_symbol
_atom_site_label
_atom_site_fract_x
_atom_site_fract_y
_atom_site_fract_z
Si Si1 0.691426 0.834462 0.098990
Si Si2 0.058021 0.832327 0.477615
Si Si3 0.282274 0.662836 0.366670
Si Si4 0.500055 0.660372 0.357774
Si Si5 0.625101 0.337899 0.204726
Si Si6 0.038112 0.326573 0.929306
O O1 0.813632 0.813472 0.264460
O O2 0.687570 0.772059 0.228320
O O3 0.655782 0.000000 0.038671
O O4 0.605867 0.752029 0.862275
O O5 0.000000 0.774578 0.500000
O O6 0.030057 0.743492 0.303752
O O7 0.027363 0.000000 0.399137
O O8 0.277192 0.500000 0.306645
O O9 0.386266 0.739586 0.483658
O O10 0.302936 0.666712 0.547027
O O11 0.163043 0.732581 0.130723
O O12 0.500000 0.640980 0.500000
O O13 0.493149 0.500000 0.282496
O O14 0.624192 0.500000 0.147724
O O15 0.500000 0.284447 0.000000
O O16 0.029181 0.500000 0.903133
O O17 0.000000 0.279044 0.000000
#
# Coordination Sequence:
#
# PCOD8059195 Si02
#       6
#     4   4   4   4   4   4
#     4  11  23  38  58  84 117 150 191 242 287 342
#     4  10  24  44  61  82 118 162 204 246 296 353
#     4   9  18  34  56  86 117 144 181 234 289 340
#     4  10  21  37  58  83 113 150 190 232 285 348
#     4  10  18  34  60  85 115 152 186 226 286 349
#     4  10  21  38  62  91 120 150 195 252 298 346
#
# _framework density 19.620985999999998
#
# number of rings (size 3 to 8) (size 9 to 14) (size 15 to 20)
#    0.000    2.000    1.667    1.500    2.333    4.000 
#    0.000    1.667    0.000    0.000    0.000    0.000 
#    0.000    0.000    0.000    0.000    0.000    0.000 
#
# Total GULP energy -297439.761967 kJ/mol
# GULP energy per Si atom -12393.323415 kJ/mol
# Density = 1.957633 g / cm^3
# Si number density = 19.620986 Si / 1000 Ang^3
#
#
#
# Elastic Constant Matrix: (Units=GPa)
#
#
# Indices 1 2 3 4 5 6 
#
# 1 120.8843 45.0753 45.8371 0.0000 5.4101 0.0000
# 2 45.0753 67.8997 38.7998 0.0000 5.7152 0.0000
# 3 45.8371 38.7998 108.2401 0.0000 12.5435 0.0000
# 4 0.0000 0.0000 0.0000 1.3481 0.0000 13.7209
# 5 5.4101 5.7152 12.5435 0.0000 35.2879 0.0000
# 6 0.0000 0.0000 0.0000 13.7209 0.0000 17.9464
#
#
#
# Elastic Compliance Matrix: (Units=1/GPa)
#
#
# Indices 1 2 3 4 5 6 
#
# 1 0.011592 -0.006154 -0.002725 0.000000 0.000188 0.000000
# 2 -0.006154 0.021804 -0.005121 0.000000 -0.000768 0.000000
# 3 -0.002725 -0.005121 0.012603 0.000000 -0.003233 0.000000
# 4 0.000000 0.000000 0.000000 -0.109384 0.000000 0.083629
# 5 0.000188 -0.000768 -0.003233 0.000000 0.029583 0.000000
# 6 0.000000 0.000000 0.000000 0.083629 0.000000 -0.008217
#
#
# Mechanical properties :
#
#
# Convention : Reuss Voigt Hill
#
# Bulk Modulus (GPa) = 55.55753 61.82762 58.69257
# Shear Modulus (GPa) = -623.38460 22.07061 -300.65700
#
# Velocity S-wave (km/s) = -17.84385 3.35751 -12.39214
# Velocity P-wave (km/s) = 19.90378 6.82714 13.22026
#
# Compressibility (1/GPa) = 0.01799936
#
# Stress axis : x y z
#
# Youngs Moduli (GPa) = 86.26752 45.86365 79.34792
#
# Poissons Ratio (x) = 0.28225 0.21619
# Poissons Ratio (y) = 0.53090 0.40632
# Poissons Ratio (z) = 0.23505 0.23485
#
# Static dielectric constant tensor:
#      x y z
#    x 3.746560 0.000000 0.205990 
#    y 0.000000 3.378360 0.000000 
#    z 0.205990 0.000000 3.688960 
# 
# 
# High freq. dielectric constant tensor:
#      x y z
#    x 1.775070 0.000000 0.008570 
#    y 0.000000 1.730510 0.000000 
#    z 0.008570 0.000000 1.777730 
# 
# From -- ./inp_files/56688.got.cif
#   From: 2010.06.25/outbox.cif.g09.slc.cpg/sg10_29_cif.got.tgz:56688.got - 2010.06.27 22:07:45.
