data_PCOD8059404
_publ_section_title
;
Structure prediction by ZEFSAII (Michael W. Deem and Ramdas Pophale) SiO2 
 PCOD8059404
Probable space group: P 2/M
;
_chemical_formula_sum "Si O2"
_cell_formula_units_Z 32
_cell_length_a 24.291784
_cell_length_b 9.250195
_cell_length_c 10.260636
_cell_angle_alpha 90.000000
_cell_angle_beta 124.994194
_cell_angle_gamma 90.000000
_cell_volume 1888.773632
_symmetry_space_group_name_H-M "P 2/M"
_symmetry_group_IT_number 10
_symmetry_cell_setting 'monoclinic'
loop_
_space_group_symop_operation_xyz
x,y,z
-x,y,-z
-x,-y,-z
x,-y,z
loop_
_atom_site_type_symbol
_atom_site_label
_atom_site_fract_x
_atom_site_fract_y
_atom_site_fract_z
Si Si1 0.704920 0.837718 0.905428
Si Si2 0.050481 0.167764 0.182283
Si Si3 0.568349 0.337574 0.427919
Si Si4 0.824542 0.330869 0.743029
Si Si5 0.420298 0.337643 0.247441
Si Si6 0.835422 0.668873 0.061314
Si Si7 0.693617 0.837553 0.580456
Si Si8 0.964292 0.834175 0.316056
O O1 0.638934 0.767294 0.882594
O O2 0.696662 0.837961 0.739767
O O3 0.713002 0.000000 0.970319
O O4 0.770085 0.745531 0.033383
O O5 0.117210 0.263380 0.266006
O O6 0.016956 0.202189 0.274530
O O7 0.070225 0.000000 0.193420
O O8 0.000000 0.215911 0.000000
O O9 0.579605 0.500000 0.390182
O O10 0.492663 0.284348 0.290532
O O11 0.577728 0.337701 0.594754
O O12 0.623227 0.232198 0.437111
O O13 0.818462 0.500000 0.706450
O O14 0.754751 0.256512 0.606817
O O15 0.841476 0.298489 0.916304
O O16 0.405347 0.500000 0.177701
O O17 0.829333 0.500000 0.081794
O O18 0.900342 0.731169 0.220775
O O19 0.698256 0.000000 0.531388
O O20 0.000000 0.802243 0.500000
O O21 0.939990 0.000000 0.271419
#
# Coordination Sequence:
#
# PCOD8059404 Si02
#       8
#     4   4   4   4   4   4   4   4
#     4   9  16  24  36  54  77 106 143 185 225 266
#     4  10  19  32  51  71  91 117 149 187 227 270
#     4   8  13  21  32  46  70 105 142 179 220 266
#     4  10  19  29  44  65  88 114 148 189 228 268
#     4   8  13  21  32  47  70 103 142 181 220 264
#     4  10  19  30  45  64  87 115 148 187 228 271
#     4   9  16  24  35  53  78 108 143 183 225 268
#     4  10  21  36  52  70  93 120 149 184 230 279
#
# _framework density 16.942209999999999
#
# number of rings (size 3 to 8) (size 9 to 14) (size 15 to 20)
#    0.000    2.750    1.250    2.250    0.000    5.500 
#    0.000    2.500    0.000    0.000    0.000    0.000 
#    0.000    0.000    0.000    1.125    0.000   22.250 
#
# Total GULP energy -396739.118084 kJ/mol
# GULP energy per Si atom -12398.097440 kJ/mol
# Density = 1.690365 g / cm^3
# Si number density = 16.942210 Si / 1000 Ang^3
#
#
#
# Elastic Constant Matrix: (Units=GPa)
#
#
# Indices 1 2 3 4 5 6 
#
# 1 107.1700 71.0058 54.7909 0.0000 38.9718 0.0000
# 2 71.0058 124.2520 46.9491 0.0000 34.3786 0.0000
# 3 54.7909 46.9491 49.6725 0.0000 17.7079 0.0000
# 4 0.0000 0.0000 0.0000 17.1145 0.0000 15.8442
# 5 38.9718 34.3786 17.7079 0.0000 33.2110 0.0000
# 6 0.0000 0.0000 0.0000 15.8442 0.0000 29.6585
#
#
#
# Elastic Compliance Matrix: (Units=1/GPa)
#
#
# Indices 1 2 3 4 5 6 
#
# 1 0.031180 -0.002953 -0.024259 0.000000 -0.020597 0.000000
# 2 -0.002953 0.014920 -0.008117 0.000000 -0.007651 0.000000
# 3 -0.024259 -0.008117 0.051139 0.000000 0.009602 0.000000
# 4 0.000000 0.000000 0.000000 0.115604 0.000000 -0.061758
# 5 -0.020597 -0.007651 0.009602 0.000000 0.057080 0.000000
# 6 0.000000 0.000000 0.000000 -0.061758 0.000000 0.066710
#
#
# Mechanical properties :
#
#
# Convention : Reuss Voigt Hill
#
# Bulk Modulus (GPa) = 37.62056 69.62069 53.62062
# Shear Modulus (GPa) = 12.01491 23.22006 17.61749
#
# Velocity S-wave (km/s) = 2.66591 3.70610 3.22818
# Velocity P-wave (km/s) = 5.63290 7.71336 6.75372
#
# Compressibility (1/GPa) = 0.02658121
#
# Stress axis : x y z
#
# Youngs Moduli (GPa) = 32.07204 67.02598 19.55454
#
# Poissons Ratio (x) = 0.19794 0.47437
# Poissons Ratio (y) = 0.09471 0.15872
# Poissons Ratio (z) = 0.77803 0.54402
#
# Static dielectric constant tensor:
#      x y z
#    x 3.146470 0.000000 0.411800 
#    y 0.000000 3.306610 0.000000 
#    z 0.411800 0.000000 2.754990 
# 
# 
# High freq. dielectric constant tensor:
#      x y z
#    x 1.642130 0.000000 0.046860 
#    y 0.000000 1.661630 0.000000 
#    z 0.046860 0.000000 1.598670 
# 
# From -- ./inp_files/54903.got.cif
#   From: 2010.06.25/outbox.cif.g09.slc.cpg/sg10_28_cif.got.tgz:54903.got - 2010.06.27 22:07:45.
