data_PCOD8059415
_publ_section_title
;
Structure prediction by ZEFSAII (Michael W. Deem and Ramdas Pophale) SiO2 
 PCOD8059415
Probable space group: P 2/M
;
_chemical_formula_sum "Si O2"
_cell_formula_units_Z 20
_cell_length_a 5.056970
_cell_length_b 13.277889
_cell_length_c 17.136724
_cell_angle_alpha 90.000000
_cell_angle_beta 92.527330
_cell_angle_gamma 90.000000
_cell_volume 1149.541276
_symmetry_space_group_name_H-M "P 2/M"
_symmetry_group_IT_number 10
_symmetry_cell_setting 'monoclinic'
loop_
_space_group_symop_operation_xyz
x,y,z
-x,y,-z
-x,-y,-z
x,-y,z
loop_
_atom_site_type_symbol
_atom_site_label
_atom_site_fract_x
_atom_site_fract_y
_atom_site_fract_z
Si Si1 0.963244 0.382584 0.913937
Si Si2 0.438567 0.381559 0.816194
Si Si3 0.114484 0.615960 0.419668
Si Si4 0.382610 0.703181 0.652466
Si Si5 0.251857 0.113430 0.552845
O O1 0.024539 0.500000 0.922606
O O2 0.671172 0.360051 0.880157
O O3 0.173680 0.341082 0.854152
O O4 0.000000 0.332365 0.000000
O O5 0.431089 0.500000 0.792256
O O6 0.489449 0.311635 0.741361
O O7 0.193665 0.500000 0.424561
O O8 0.384366 0.673818 0.404140
O O9 0.000000 0.656569 0.500000
O O10 0.877951 0.632383 0.354995
O O11 0.294200 0.816737 0.629760
O O12 0.500000 0.118288 0.500000
O O13 0.000000 0.151099 0.500000
O O14 0.205133 0.000000 0.583519
#
# Coordination Sequence:
#
# PCOD8059415 Si02
#       5
#     4   4   4   4   4
#     4   9  17  30  46  64  91 127 161 189 221 271
#     4  10  19  29  44  68  96 125 155 190 234 281
#     4  11  22  33  46  66  95 133 168 193 227 284
#     4  12  21  33  50  70  98 126 160 205 251 285
#     4  10  21  37  55  72  91 122 166 211 252 291
#
# _framework density 17.398243999999998
#
# number of rings (size 3 to 8) (size 9 to 14) (size 15 to 20)
#    0.000    1.600    0.000    7.200    0.000    5.600 
#    0.000    0.000    0.000    0.000    0.000    0.000 
#    0.000    4.800    0.000    0.000    0.000    0.000 
#
# Total GULP energy -248003.528201 kJ/mol
# GULP energy per Si atom -12400.176410 kJ/mol
# Density = 1.735865 g / cm^3
# Si number density = 17.398244 Si / 1000 Ang^3
#
#
#
# Elastic Constant Matrix: (Units=GPa)
#
#
# Indices 1 2 3 4 5 6 
#
# 1 96.2515 25.1971 12.1772 0.0000 0.1027 0.0000
# 2 25.1971 70.9515 45.6613 0.0000 0.8772 0.0000
# 3 12.1772 45.6613 97.9715 0.0000 2.7972 0.0000
# 4 0.0000 0.0000 0.0000 15.7793 0.0000 1.2413
# 5 0.1027 0.8772 2.7972 0.0000 27.1256 0.0000
# 6 0.0000 0.0000 0.0000 1.2413 0.0000 17.0549
#
#
#
# Elastic Compliance Matrix: (Units=1/GPa)
#
#
# Indices 1 2 3 4 5 6 
#
# 1 0.011486 -0.004514 0.000675 0.000000 0.000033 0.000000
# 2 -0.004514 0.021909 -0.009659 0.000000 0.000305 0.000000
# 3 0.000675 -0.009659 0.014659 0.000000 -0.001202 0.000000
# 4 0.000000 0.000000 0.000000 0.063739 0.000000 -0.004639
# 5 0.000033 0.000305 -0.001202 0.000000 0.036980 0.000000
# 6 0.000000 0.000000 0.000000 -0.004639 0.000000 0.058972
#
#
# Mechanical properties :
#
#
# Convention : Reuss Voigt Hill
#
# Bulk Modulus (GPa) = 47.48538 47.91621 47.70080
# Shear Modulus (GPa) = 20.68171 24.13455 22.40813
#
# Velocity S-wave (km/s) = 3.45153 3.72853 3.59270
# Velocity P-wave (km/s) = 6.57545 6.79239 6.68480
#
# Compressibility (1/GPa) = 0.02105911
#
# Stress axis : x y z
#
# Youngs Moduli (GPa) = 87.06522 45.64235 68.21673
#
# Poissons Ratio (x) = 0.20602 -0.04606
# Poissons Ratio (y) = 0.39300 0.65890
# Poissons Ratio (z) = -0.05879 0.44086
#
# Static dielectric constant tensor:
#      x y z
#    x 3.405800 0.000000 0.009170 
#    y 0.000000 3.002510 0.000000 
#    z 0.009170 0.000000 3.201100 
# 
# 
# High freq. dielectric constant tensor:
#      x y z
#    x 1.699190 0.000000 0.005770 
#    y 0.000000 1.621760 0.000000 
#    z 0.005770 0.000000 1.660500 
# 
# From -- ./inp_files/11201.got.cif
#   From: 2010.06.25/outbox.cif.g09.slc.cpg/sg10_6_cif.got.tgz:11201.got - 2010.06.27 22:07:45.
