data_PCOD8059428
_publ_section_title
;
Structure prediction by ZEFSAII (Michael W. Deem and Ramdas Pophale) SiO2 
 PCOD8059428
Probable space group: P 2/M
;
_chemical_formula_sum "Si O2"
_cell_formula_units_Z 32
_cell_length_a 19.845686
_cell_length_b 9.143636
_cell_length_c 11.641708
_cell_angle_alpha 90.000000
_cell_angle_beta 58.001474
_cell_angle_gamma 90.000000
_cell_volume 1791.551147
_symmetry_space_group_name_H-M "P 2/M"
_symmetry_group_IT_number 10
_symmetry_cell_setting 'monoclinic'
loop_
_space_group_symop_operation_xyz
x,y,z
-x,y,-z
-x,-y,-z
x,-y,z
loop_
_atom_site_type_symbol
_atom_site_label
_atom_site_fract_x
_atom_site_fract_y
_atom_site_fract_z
Si Si1 0.285127 0.169003 0.590202
Si Si2 0.165051 0.835757 0.114153
Si Si3 0.748592 0.671587 0.150775
Si Si4 0.910550 0.669292 0.619689
Si Si5 0.407903 0.670320 0.850779
Si Si6 0.781121 0.169987 0.595370
Si Si7 0.673666 0.838384 0.889640
Si Si8 0.467318 0.829024 0.407289
O O1 0.250149 0.269663 0.721287
O O2 0.232070 0.199782 0.526581
O O3 0.375362 0.212295 0.480883
O O4 0.280966 0.000000 0.632714
O O5 0.100004 0.751595 0.249371
O O6 0.246106 0.839896 0.110397
O O7 0.134830 0.000000 0.114502
O O8 0.179802 0.749763 0.982095
O O9 0.765031 0.500000 0.135185
O O10 0.663760 0.709802 0.170740
O O11 0.888809 0.500000 0.657058
O O12 0.854569 0.733226 0.570554
O O13 0.000000 0.692461 0.500000
O O14 0.423418 0.500000 0.844909
O O15 0.487614 0.746266 0.735042
O O16 0.388683 0.727475 0.996684
O O17 0.699617 0.211140 0.737911
O O18 0.800778 0.000000 0.602405
O O19 0.634909 0.000000 0.923305
O O20 0.500000 0.773723 0.500000
O O21 0.483479 0.000000 0.376772
#
# Coordination Sequence:
#
# PCOD8059428 Si02
#       8
#     4   4   4   4   4   4   4   4
#     4  10  20  34  51  72 100 134 175 215 255 303
#     4   9  17  30  51  77 103 132 169 210 246 288
#     4  10  19  30  47  73 103 135 171 211 258 303
#     4  10  20  34  55  83 111 135 160 197 247 301
#     4  10  19  29  45  69  96 126 166 215 259 300
#     4   9  19  35  54  76 101 133 171 210 248 298
#     4   8  15  29  48  68  92 124 164 207 252 297
#     4  10  19  31  48  69  95 131 172 214 259 301
#
# _framework density 17.861616999999999
#
# number of rings (size 3 to 8) (size 9 to 14) (size 15 to 20)
#    0.000    2.500    1.250    2.250    0.000    6.250 
#    0.000    0.625    0.000    4.500    0.000    5.250 
#    0.000    0.000    0.000    0.000    0.000    0.000 
#
# Total GULP energy -396810.874826 kJ/mol
# GULP energy per Si atom -12400.339838 kJ/mol
# Density = 1.782096 g / cm^3
# Si number density = 17.861617 Si / 1000 Ang^3
#
#
#
# Elastic Constant Matrix: (Units=GPa)
#
#
# Indices 1 2 3 4 5 6 
#
# 1 46.1649 35.5562 37.2348 0.0000 0.6661 0.0000
# 2 35.5562 106.9784 77.1391 0.0000 -1.1145 0.0000
# 3 37.2348 77.1391 128.6729 0.0000 2.9043 0.0000
# 4 0.0000 0.0000 0.0000 32.5518 0.0000 -2.6970
# 5 0.6661 -1.1145 2.9043 0.0000 21.1536 0.0000
# 6 0.0000 0.0000 0.0000 -2.6970 0.0000 15.5782
#
#
#
# Elastic Compliance Matrix: (Units=1/GPa)
#
#
# Indices 1 2 3 4 5 6 
#
# 1 0.030772 -0.006736 -0.004852 0.000000 -0.000658 0.000000
# 2 -0.006736 0.018045 -0.008923 0.000000 0.002388 0.000000
# 3 -0.004852 -0.008923 0.014577 0.000000 -0.002319 0.000000
# 4 0.000000 0.000000 0.000000 0.031167 0.000000 0.005396
# 5 -0.000658 0.002388 -0.002319 0.000000 0.047738 0.000000
# 6 0.000000 0.000000 0.000000 0.005396 0.000000 0.065126
#
#
# Mechanical properties :
#
#
# Convention : Reuss Voigt Hill
#
# Bulk Modulus (GPa) = 44.69541 64.63068 54.66305
# Shear Modulus (GPa) = 19.53844 22.64914 21.09379
#
# Velocity S-wave (km/s) = 3.31097 3.56481 3.44023
# Velocity P-wave (km/s) = 6.30033 7.29428 6.81545
#
# Compressibility (1/GPa) = 0.02237366
#
# Stress axis : x y z
#
# Youngs Moduli (GPa) = 32.49675 55.41562 68.60085
#
# Poissons Ratio (x) = 0.37330 0.33282
# Poissons Ratio (y) = 0.21891 0.61211
# Poissons Ratio (z) = 0.15766 0.49446
#
# Static dielectric constant tensor:
#      x y z
#    x 2.888660 0.000000 0.138890 
#    y 0.000000 3.358310 0.000000 
#    z 0.138890 0.000000 3.514090 
# 
# 
# High freq. dielectric constant tensor:
#      x y z
#    x 1.642770 0.000000 0.007670 
#    y 0.000000 1.695640 0.000000 
#    z 0.007670 0.000000 1.702550 
# 
# From -- ./inp_files/54837.got.cif
#   From: 2010.06.25/outbox.cif.g09.slc.cpg/sg10_28_cif.got.tgz:54837.got - 2010.06.27 22:07:45.
