data_PCOD8059962
_publ_section_title
;
Structure prediction by ZEFSAII (Michael W. Deem and Ramdas Pophale) SiO2 
 PCOD8059962
Probable space group: P 2/M
;
_chemical_formula_sum "Si O2"
_cell_formula_units_Z 28
_cell_length_a 9.457455
_cell_length_b 9.139811
_cell_length_c 20.491854
_cell_angle_alpha 90.000000
_cell_angle_beta 62.139694
_cell_angle_gamma 90.000000
_cell_volume 1565.990169
_symmetry_space_group_name_H-M "P 2/M"
_symmetry_group_IT_number 10
_symmetry_cell_setting 'monoclinic'
loop_
_space_group_symop_operation_xyz
x,y,z
-x,y,-z
-x,-y,-z
x,-y,z
loop_
_atom_site_type_symbol
_atom_site_label
_atom_site_fract_x
_atom_site_fract_y
_atom_site_fract_z
Si Si1 0.391170 0.170131 0.727561
Si Si2 0.244665 0.334454 0.573793
Si Si3 0.773926 0.673762 0.841470
Si Si4 0.683010 0.161193 0.981800
Si Si5 0.538166 0.171966 0.142337
Si Si6 0.077569 0.172423 0.716646
Si Si7 0.565946 0.336322 0.587239
O O1 0.394027 0.219066 0.802164
O O2 0.221297 0.217372 0.734221
O O3 0.542238 0.239842 0.656996
O O4 0.416419 0.000000 0.714295
O O5 0.175589 0.500000 0.587634
O O6 0.118275 0.224130 0.634053
O O7 0.405668 0.331596 0.580226
O O8 0.287337 0.281591 0.490646
O O9 0.778057 0.500000 0.837704
O O10 0.778558 0.723818 0.916574
O O11 0.617274 0.732662 0.839197
O O12 0.924296 0.739544 0.772238
O O13 0.761393 0.000000 0.955805
O O14 0.500000 0.155035 0.000000
O O15 0.679479 0.206242 0.059190
O O16 0.491984 0.000000 0.149271
O O17 0.043496 0.000000 0.724117
O O18 0.603273 0.500000 0.602687
#
# Coordination Sequence:
#
# PCOD8059962 Si02
#       7
#     4   4   4   4   4   4   4
#     4   9  18  31  49  73  98 124 157 195 234 278
#     4   8  14  26  43  65  93 125 159 192 228 273
#     4  11  21  32  49  72  96 124 158 195 235 280
#     4   8  15  30  51  70  90 120 157 195 233 274
#     4   9  18  34  53  72  95 123 156 195 236 279
#     4  10  19  31  48  71  98 127 158 194 236 278
#     4   8  14  25  43  66  94 126 156 189 231 276
#
# _framework density 17.880061000000001
#
# number of rings (size 3 to 8) (size 9 to 14) (size 15 to 20)
#    0.000    3.000    0.000    3.429    0.000    4.286 
#    0.000    3.571    0.000    5.143    0.000    6.000 
#    0.000    0.000    0.000    0.000    0.000    0.000 
#
# Total GULP energy -346993.063806 kJ/mol
# GULP energy per Si atom -12392.609422 kJ/mol
# Density = 1.783937 g / cm^3
# Si number density = 17.880061 Si / 1000 Ang^3
#
#
#
# Elastic Constant Matrix: (Units=GPa)
#
#
# Indices 1 2 3 4 5 6 
#
# 1 12.7473 10.1771 -10.2495 0.0000 -10.5519 0.0000
# 2 10.1771 73.5240 14.7577 0.0000 -19.5052 0.0000
# 3 -10.2495 14.7577 30.5158 0.0000 -26.1820 0.0000
# 4 0.0000 0.0000 0.0000 33.5580 0.0000 -4.9129
# 5 -10.5519 -19.5052 -26.1820 0.0000 19.8755 0.0000
# 6 0.0000 0.0000 0.0000 -4.9129 0.0000 12.5964
#
#
#
# Elastic Compliance Matrix: (Units=1/GPa)
#
#
# Indices 1 2 3 4 5 6 
#
# 1 0.009814 -0.007700 -0.038448 0.000000 -0.052994 0.000000
# 2 -0.007700 0.017878 -0.002410 0.000000 0.010282 0.000000
# 3 -0.038448 -0.002410 -0.011358 0.000000 -0.037739 0.000000
# 4 0.000000 0.000000 0.000000 0.031604 0.000000 0.012326
# 5 -0.052994 0.010282 -0.037739 0.000000 -0.017445 0.000000
# 6 0.000000 0.000000 0.000000 0.012326 0.000000 0.084196
#
#
# Mechanical properties :
#
#
# Convention : Reuss Voigt Hill
#
# Bulk Modulus (GPa) = -12.37892 16.23975 1.93041
# Shear Modulus (GPa) = 27.04491 20.01276 23.52883
#
# Velocity S-wave (km/s) = 3.89340 3.34919 3.63150
# Velocity P-wave (km/s) = 3.64322 4.90494 4.32039
#
# Compressibility (1/GPa) = -0.08078248
#
# Stress axis : x y z
#
# Youngs Moduli (GPa) = 101.89786 55.93333 -88.04356
#
# Poissons Ratio (x) = 0.43069 -3.38511
# Poissons Ratio (y) = 0.78461 -0.21220
# Poissons Ratio (z) = 3.91778 0.13481
#
# Static dielectric constant tensor:
#      x y z
#    x 2.958060 0.000000 0.201990 
#    y 0.000000 3.315040 0.000000 
#    z 0.201990 0.000000 4.022620 
# 
# 
# High freq. dielectric constant tensor:
#      x y z
#    x 1.635570 0.000000 0.003440 
#    y 0.000000 1.685970 0.000000 
#    z 0.003440 0.000000 1.714010 
# 
# From -- ./inp_files/79313.got.cif
#   From: 2010.06.25/outbox.cif.g09.slc.cpg/sg10_40_cif.got.tgz:79313.got - 2010.06.27 22:07:45.
