data_PCOD8059621
_publ_section_title
;
Structure prediction by ZEFSAII (Michael W. Deem and Ramdas Pophale) SiO2 
 PCOD8059621
Probable space group: P 2/M
;
_chemical_formula_sum "Si O2"
_cell_formula_units_Z 30
_cell_length_a 25.362850
_cell_length_b 12.246359
_cell_length_c 25.422385
_cell_angle_alpha 90.000000
_cell_angle_beta 168.524859
_cell_angle_gamma 90.000000
_cell_volume 1570.903320
_symmetry_space_group_name_H-M "P 2/M"
_symmetry_group_IT_number 10
_symmetry_cell_setting 'monoclinic'
loop_
_space_group_symop_operation_xyz
x,y,z
-x,y,-z
-x,-y,-z
x,-y,z
loop_
_atom_site_type_symbol
_atom_site_label
_atom_site_fract_x
_atom_site_fract_y
_atom_site_fract_z
Si Si1 0.624377 0.884915 0.844173
Si Si2 0.340580 0.318682 0.188014
Si Si3 0.268333 0.371419 0.235355
Si Si4 0.278265 0.500000 0.740853
Si Si5 0.127372 0.383118 0.342295
Si Si6 0.924975 0.867492 0.327149
Si Si7 0.601665 0.255522 0.158734
Si Si8 0.092427 0.823546 0.374449
O O1 0.641000 0.805261 0.811744
O O2 0.361364 0.879523 0.620984
O O3 0.640752 0.000000 0.831249
O O4 0.854692 0.877857 0.111564
O O5 0.299545 0.314803 0.209849
O O6 0.607058 0.378699 0.432079
O O7 0.100601 0.375172 0.923691
O O8 0.500000 0.331850 0.500000
O O9 0.273264 0.500000 0.230658
O O10 0.000000 0.331604 0.000000
O O11 0.325247 0.383944 0.754505
O O12 0.000000 0.500000 0.500000
O O13 0.500000 0.500000 0.000000
O O14 0.109228 0.500000 0.352383
O O15 0.107278 0.303195 0.372067
O O16 0.131165 0.817596 0.571962
O O17 0.063881 0.839686 0.408169
O O18 0.887057 0.000000 0.298425
O O19 0.644144 0.801797 0.050614
O O20 0.500000 0.248689 0.000000
#
# Coordination Sequence:
#
# PCOD8059621 Si02
#       8
#     4   4   4   2   4   4   4   4
#     4  10  19  35  58  78 103 140 187 231 264 320
#     4  10  20  32  52  77 104 139 181 221 273 322
#     4  10  19  30  46  70 101 136 173 215 266 325
#     4  10  20  42  68  86 112 148 194 242 274 326
#     4  10  19  34  54  78 109 141 178 224 271 328
#     4  12  24  39  61  89 124 155 188 235 291 347
#     4  11  24  42  64  90 115 153 198 237 285 336
#     4  10  22  37  55  84 111 148 183 219 279 328
#
# _framework density 19.097291999999999
#
# number of rings (size 3 to 8) (size 9 to 14) (size 15 to 20)
#    0.000    1.600    0.000    6.400    0.000    2.667 
#    2.400    0.000    0.000    0.800    0.000    0.000 
#    0.000    0.000    0.000    0.000    0.000    0.000 
#
# Total GULP energy -371719.709751 kJ/mol
# GULP energy per Si atom -12390.656992 kJ/mol
# Density = 1.905383 g / cm^3
# Si number density = 19.097292 Si / 1000 Ang^3
#
#
#
# Elastic Constant Matrix: (Units=GPa)
#
#
# Indices 1 2 3 4 5 6 
#
# 1 86.4231 45.1857 22.1762 0.0000 4.9658 0.0000
# 2 45.1857 165.2888 48.8021 0.0000 6.6392 0.0000
# 3 22.1762 48.8021 150.5142 0.0000 5.2832 0.0000
# 4 0.0000 0.0000 0.0000 28.3963 0.0000 2.3239
# 5 4.9658 6.6392 5.2832 0.0000 42.1794 0.0000
# 6 0.0000 0.0000 0.0000 2.3239 0.0000 0.6587
#
#
#
# Elastic Compliance Matrix: (Units=1/GPa)
#
#
# Indices 1 2 3 4 5 6 
#
# 1 0.013644 -0.003437 -0.000862 0.000000 -0.000957 0.000000
# 2 -0.003437 0.007582 -0.001933 0.000000 -0.000547 0.000000
# 3 -0.000862 -0.001933 0.007416 0.000000 -0.000523 0.000000
# 4 0.000000 0.000000 0.000000 0.049509 0.000000 -0.174654
# 5 -0.000957 -0.000547 -0.000523 0.000000 0.023973 0.000000
# 6 0.000000 0.000000 0.000000 -0.174654 0.000000 2.134174
#
#
# Mechanical properties :
#
#
# Convention : Reuss Voigt Hill
#
# Bulk Modulus (GPa) = 61.81131 70.50603 66.15867
# Shear Modulus (GPa) = 2.21813 33.31769 17.76791
#
# Velocity S-wave (km/s) = 1.07889 4.18141 3.05354
# Velocity P-wave (km/s) = 5.82999 7.76606 6.86661
#
# Compressibility (1/GPa) = 0.01617827
#
# Stress axis : x y z
#
# Youngs Moduli (GPa) = 73.29106 131.88730 134.84349
#
# Poissons Ratio (x) = 0.45329 0.11628
# Poissons Ratio (y) = 0.25190 0.26063
# Poissons Ratio (z) = 0.06320 0.25492
#
# Static dielectric constant tensor:
#      x y z
#    x 3.231100 0.000000 0.077620 
#    y 0.000000 3.999420 0.000000 
#    z 0.077620 0.000000 3.849710 
# 
# 
# High freq. dielectric constant tensor:
#      x y z
#    x 1.722110 0.000000 0.005040 
#    y 0.000000 1.748580 0.000000 
#    z 0.005040 0.000000 1.770650 
# 
# From -- ./inp_files/94106.got.cif
#   From: 2010.06.25/outbox.cif.g09.slc.cpg/sg10_48_cif.got.tgz:94106.got - 2010.06.27 22:07:45.
