data_PCOD8059623
_publ_section_title
;
Structure prediction by ZEFSAII (Michael W. Deem and Ramdas Pophale) SiO2 
 PCOD8059623
Probable space group: P 2/M
;
_chemical_formula_sum "Si O2"
_cell_formula_units_Z 32
_cell_length_a 23.668020
_cell_length_b 8.847634
_cell_length_c 12.464256
_cell_angle_alpha 90.000000
_cell_angle_beta 46.160513
_cell_angle_gamma 90.000000
_cell_volume 1882.613468
_symmetry_space_group_name_H-M "P 2/M"
_symmetry_group_IT_number 10
_symmetry_cell_setting 'monoclinic'
loop_
_space_group_symop_operation_xyz
x,y,z
-x,y,-z
-x,-y,-z
x,-y,z
loop_
_atom_site_type_symbol
_atom_site_label
_atom_site_fract_x
_atom_site_fract_y
_atom_site_fract_z
Si Si1 0.690417 0.679393 0.118661
Si Si2 0.415383 0.177881 0.568421
Si Si3 0.591484 0.678802 0.047459
Si Si4 0.842511 0.822075 0.835973
Si Si5 0.687545 0.676202 0.719674
Si Si6 0.421268 0.323953 0.334474
Si Si7 0.999154 0.329751 0.373683
Si Si8 0.158714 0.177545 0.410019
O O1 0.693549 0.500000 0.116293
O O2 0.652430 0.738135 0.277651
O O3 0.639327 0.741897 0.086262
O O4 0.777715 0.743322 0.994746
O O5 0.500000 0.231991 0.500000
O O6 0.404781 0.223550 0.459460
O O7 0.404957 0.000000 0.595862
O O8 0.594770 0.500000 0.041045
O O9 0.501763 0.732496 0.173451
O O10 0.629789 0.741349 0.887759
O O11 0.828461 0.774585 0.730694
O O12 0.926637 0.764147 0.766944
O O13 0.838138 0.000000 0.857283
O O14 0.704707 0.500000 0.716967
O O15 0.648993 0.704554 0.655360
O O16 0.768582 0.766147 0.615476
O O17 0.427722 0.500000 0.358597
O O18 0.003700 0.500000 0.323150
O O19 0.919130 0.253228 0.438380
O O20 0.000000 0.326724 0.500000
O O21 0.148726 0.000000 0.434047
#
# Coordination Sequence:
#
# PCOD8059623 Si02
#       8
#     4   4   4   4   4   4   4   4
#     4  11  20  32  54  76  98 133 175 213 254 303
#     4  11  23  37  52  71  99 132 170 217 266 309
#     4   9  17  30  50  74 100 130 167 212 255 298
#     4  10  19  31  47  72 106 136 166 205 254 306
#     4  10  19  32  51  75 103 134 173 213 252 301
#     4  10  20  35  54  74  97 132 176 219 257 300
#     4   9  17  29  47  70  98 133 172 208 246 296
#     4  10  19  30  46  70 104 140 169 201 250 306
#
# _framework density 16.997646
#
# number of rings (size 3 to 8) (size 9 to 14) (size 15 to 20)
#    0.000    2.000    2.500    2.250    0.000    5.000 
#    0.000    0.625    0.000    1.500    0.000    0.875 
#    0.000    7.000    0.000    0.000    0.000    0.000 
#
# Total GULP energy -396893.252788 kJ/mol
# GULP energy per Si atom -12402.914150 kJ/mol
# Density = 1.695896 g / cm^3
# Si number density = 16.997646 Si / 1000 Ang^3
#
#
#
# Elastic Constant Matrix: (Units=GPa)
#
#
# Indices 1 2 3 4 5 6 
#
# 1 85.4305 33.7940 54.6392 0.0000 -16.3650 0.0000
# 2 33.7940 69.6517 39.9468 0.0000 -10.1074 0.0000
# 3 54.6392 39.9468 92.7093 0.0000 -20.6326 0.0000
# 4 0.0000 0.0000 0.0000 22.5004 0.0000 -2.9622
# 5 -16.3650 -10.1074 -20.6326 0.0000 30.9285 0.0000
# 6 0.0000 0.0000 0.0000 -2.9622 0.0000 23.7790
#
#
#
# Elastic Compliance Matrix: (Units=1/GPa)
#
#
# Indices 1 2 3 4 5 6 
#
# 1 0.019753 -0.003792 -0.009345 0.000000 0.002978 0.000000
# 2 -0.003792 0.019818 -0.006235 0.000000 0.000310 0.000000
# 3 -0.009345 -0.006235 0.020465 0.000000 0.006670 0.000000
# 4 0.000000 0.000000 0.000000 0.045185 0.000000 0.005629
# 5 0.002978 0.000310 0.006670 0.000000 0.038460 0.000000
# 6 0.000000 0.000000 0.000000 0.005629 0.000000 0.042755
#
#
# Mechanical properties :
#
#
# Convention : Reuss Voigt Hill
#
# Bulk Modulus (GPa) = 46.96679 56.06127 51.51403
# Shear Modulus (GPa) = 21.52609 23.40235 22.46422
#
# Velocity S-wave (km/s) = 3.56253 3.71455 3.63934
# Velocity P-wave (km/s) = 6.67934 7.17290 6.93052
#
# Compressibility (1/GPa) = 0.02129164
#
# Stress axis : x y z
#
# Youngs Moduli (GPa) = 50.62623 50.45877 48.86423
#
# Poissons Ratio (x) = 0.19135 0.45662
# Poissons Ratio (y) = 0.19198 0.30468
# Poissons Ratio (z) = 0.47308 0.31462
#
# Static dielectric constant tensor:
#      x y z
#    x 3.050780 0.000000 -0.200510 
#    y 0.000000 3.091570 0.000000 
#    z -0.200510 0.000000 3.123660 
# 
# 
# High freq. dielectric constant tensor:
#      x y z
#    x 1.636430 0.000000 -0.023950 
#    y 0.000000 1.653470 0.000000 
#    z -0.023950 0.000000 1.643720 
# 
# From -- ./inp_files/49851.got.cif
#   From: 2010.06.25/outbox.cif.g09.slc.cpg/sg10_25_cif.got.tgz:49851.got - 2010.06.27 22:07:45.
