data_PCOD8059241
_publ_section_title
;
Structure prediction by ZEFSAII (Michael W. Deem and Ramdas Pophale) SiO2 
 PCOD8059241
Probable space group: P 2/M
;
_chemical_formula_sum "Si O2"
_cell_formula_units_Z 32
_cell_length_a 15.994718
_cell_length_b 15.364745
_cell_length_c 10.572677
_cell_angle_alpha 90.000000
_cell_angle_beta 145.316123
_cell_angle_gamma 90.000000
_cell_volume 1478.549691
_symmetry_space_group_name_H-M "P 2/M"
_symmetry_group_IT_number 10
_symmetry_cell_setting 'monoclinic'
loop_
_space_group_symop_operation_xyz
x,y,z
-x,y,-z
-x,-y,-z
x,-y,z
loop_
_atom_site_type_symbol
_atom_site_label
_atom_site_fract_x
_atom_site_fract_y
_atom_site_fract_z
Si Si1 0.341071 0.742996 0.863331
Si Si2 0.643407 0.592594 0.596550
Si Si3 0.169746 0.100158 0.743373
Si Si4 0.891794 0.599375 0.480860
Si Si5 0.617112 0.906694 0.534103
Si Si6 0.936995 0.350104 0.061925
Si Si7 0.482620 0.743011 0.291350
Si Si8 0.786211 0.184793 0.930983
O O1 0.257629 0.836258 0.757021
O O2 0.244445 0.666133 0.681816
O O3 0.500000 0.753060 0.000000
O O4 0.370293 0.714549 0.043058
O O5 0.500000 0.584256 0.500000
O O6 0.667731 0.500000 0.553995
O O7 0.777139 0.607107 0.858904
O O8 0.613612 0.672183 0.463763
O O9 0.000000 0.109983 0.500000
O O10 0.221670 0.000000 0.790562
O O11 0.199437 0.128610 0.924473
O O12 0.837505 0.500000 0.391106
O O13 0.000000 0.627306 0.500000
O O14 0.969347 0.602211 0.714201
O O15 0.500000 0.917020 0.500000
O O16 0.563794 0.835567 0.364366
O O17 0.771995 0.878120 0.791590
O O18 0.638688 0.000000 0.492165
O O19 0.924800 0.248260 0.085172
O O20 0.000000 0.361727 0.000000
O O21 0.368847 0.757874 0.267631
#
# Coordination Sequence:
#
# PCOD8059241 Si02
#       8
#     4   4   4   4   4   4   4   4
#     4  11  25  41  65  94 132 175 227 287 357 408
#     4  11  22  38  63  93 125 166 216 270 324 393
#     4  10  21  40  67  96 129 176 234 283 334 412
#     4  11  26  48  70  95 133 186 242 286 341 421
#     4   9  16  28  53  87 117 146 192 258 321 373
#     4  12  25  42  67  98 139 177 218 280 350 406
#     4  10  19  37  59  87 122 162 216 269 321 397
#     4  10  18  35  61  88 128 166 215 263 326 398
#
# _framework density 21.64283
#
# number of rings (size 3 to 8) (size 9 to 14) (size 15 to 20)
#    0.000    1.500    2.500    3.750    1.750    5.000 
#    0.000    0.000    0.000    3.000    0.000    0.000 
#    0.000    0.000    0.000    0.000    0.000    0.000 
#
# Total GULP energy -396501.456747 kJ/mol
# GULP energy per Si atom -12390.670523 kJ/mol
# Density = 2.159357 g / cm^3
# Si number density = 21.642830 Si / 1000 Ang^3
#
#
#
# Elastic Constant Matrix: (Units=GPa)
#
#
# Indices 1 2 3 4 5 6 
#
# 1 70.2165 31.7210 24.5718 0.0000 6.5896 0.0000
# 2 31.7210 175.2491 65.8465 0.0000 7.0206 0.0000
# 3 24.5718 65.8465 127.7761 0.0000 -0.1311 0.0000
# 4 0.0000 0.0000 0.0000 38.5033 0.0000 6.3613
# 5 6.5896 7.0206 -0.1311 0.0000 27.2693 0.0000
# 6 0.0000 0.0000 0.0000 6.3613 0.0000 22.8914
#
#
#
# Elastic Compliance Matrix: (Units=1/GPa)
#
#
# Indices 1 2 3 4 5 6 
#
# 1 0.016199 -0.002014 -0.002081 0.000000 -0.003406 0.000000
# 2 -0.002014 0.007420 -0.003438 0.000000 -0.001440 0.000000
# 3 -0.002081 -0.003438 0.010000 0.000000 0.001436 0.000000
# 4 0.000000 0.000000 0.000000 0.027222 0.000000 -0.007565
# 5 -0.003406 -0.001440 0.001436 0.000000 0.037872 0.000000
# 6 0.000000 0.000000 0.000000 -0.007565 0.000000 0.045787
#
#
# Mechanical properties :
#
#
# Convention : Reuss Voigt Hill
#
# Bulk Modulus (GPa) = 53.89827 68.61336 61.25582
# Shear Modulus (GPa) = 30.16605 34.47296 32.31951
#
# Velocity S-wave (km/s) = 3.73743 3.99533 3.86853
# Velocity P-wave (km/s) = 6.60167 7.28389 6.95115
#
# Compressibility (1/GPa) = 0.01855347
#
# Stress axis : x y z
#
# Youngs Moduli (GPa) = 61.73105 134.76835 100.00479
#
# Poissons Ratio (x) = 0.27140 0.20810
# Poissons Ratio (y) = 0.12432 0.34382
# Poissons Ratio (z) = 0.12846 0.46333
#
# Static dielectric constant tensor:
#      x y z
#    x 3.606170 0.000000 -0.334390 
#    y 0.000000 4.711170 0.000000 
#    z -0.334390 0.000000 5.178960 
# 
# 
# High freq. dielectric constant tensor:
#      x y z
#    x 1.797420 0.000000 -0.002530 
#    y 0.000000 1.867760 0.000000 
#    z -0.002530 0.000000 1.861720 
# 
# From -- ./inp_files/54067.got.cif
#   From: 2010.06.25/outbox.cif.g09.slc.cpg/sg10_28_cif.got.tgz:54067.got - 2010.06.27 22:07:45.
