data_PCOD8059048
_publ_section_title
;
Structure prediction by ZEFSAII (Michael W. Deem and Ramdas Pophale) SiO2 
 PCOD8059048
Probable space group: P 2/M
;
_chemical_formula_sum "Si O2"
_cell_formula_units_Z 32
_cell_length_a 19.591824
_cell_length_b 14.263569
_cell_length_c 17.887154
_cell_angle_alpha 90.000000
_cell_angle_beta 159.961788
_cell_angle_gamma 90.000000
_cell_volume 1712.738140
_symmetry_space_group_name_H-M "P 2/M"
_symmetry_group_IT_number 10
_symmetry_cell_setting 'monoclinic'
loop_
_space_group_symop_operation_xyz
x,y,z
-x,y,-z
-x,-y,-z
x,-y,z
loop_
_atom_site_type_symbol
_atom_site_label
_atom_site_fract_x
_atom_site_fract_y
_atom_site_fract_z
Si Si1 0.105379 0.897441 0.373926
Si Si2 0.578188 0.610409 0.162666
Si Si3 0.095334 0.304306 0.419425
Si Si4 0.341542 0.670257 0.059263
Si Si5 0.306285 0.394564 0.499400
Si Si6 0.074792 0.265921 0.157420
Si Si7 0.756306 0.177334 0.933047
Si Si8 0.344539 0.894600 0.476302
O O1 0.088396 0.810198 0.414681
O O2 0.293329 0.883897 0.511858
O O3 0.121139 0.000000 0.430776
O O4 0.908308 0.901460 0.118837
O O5 0.578363 0.500000 0.181870
O O6 0.801701 0.653379 0.399955
O O7 0.442814 0.666083 0.082224
O O8 0.500000 0.631106 0.000000
O O9 0.229419 0.331151 0.487429
O O10 0.886889 0.357523 0.192309
O O11 0.453584 0.606016 0.237872
O O12 0.338578 0.773820 0.091347
O O13 0.225407 0.500000 0.416854
O O14 0.229656 0.345510 0.345164
O O15 0.199855 0.169997 0.277794
O O16 0.000000 0.298940 0.000000
O O17 0.883916 0.252702 0.015488
O O18 0.575765 0.132688 0.700495
O O19 0.311679 0.000000 0.414129
#
# Coordination Sequence:
#
# PCOD8059048 Si02
#       8
#     4   4   4   4   4   4   4   4
#     4   9  17  30  54  85 111 138 177 226 267 316
#     4  10  22  36  52  83 121 148 176 218 270 327
#     4  10  18  35  57  83 110 142 182 221 267 321
#     4  10  18  34  59  79 104 141 179 224 265 315
#     4  11  21  36  55  77 104 137 185 232 272 322
#     4  11  23  39  53  74 111 145 179 231 282 328
#     4  10  18  35  55  81 105 140 184 221 272 328
#     4  10  18  33  56  78 107 141 179 223 276 333
#
# _framework density 18.683533000000001
#
# number of rings (size 3 to 8) (size 9 to 14) (size 15 to 20)
#    0.000    1.875    5.000    2.625    0.000    4.000 
#    0.000    1.875    0.000    1.125    0.000    3.500 
#    0.000    0.000    0.000    0.000    0.000    0.000 
#
# Total GULP energy -396442.460194 kJ/mol
# GULP energy per Si atom -12388.826881 kJ/mol
# Density = 1.864101 g / cm^3
# Si number density = 18.683533 Si / 1000 Ang^3
#
#
#
# Elastic Constant Matrix: (Units=GPa)
#
#
# Indices 1 2 3 4 5 6 
#
# 1 52.3718 36.2981 42.0214 0.0000 -9.8160 0.0000
# 2 36.2981 105.6673 49.5198 0.0000 -7.3822 0.0000
# 3 42.0214 49.5198 146.3293 0.0000 -10.0386 0.0000
# 4 0.0000 0.0000 0.0000 19.8498 0.0000 -2.9187
# 5 -9.8160 -7.3822 -10.0386 0.0000 31.0586 0.0000
# 6 0.0000 0.0000 0.0000 -2.9187 0.0000 11.1197
#
#
#
# Elastic Compliance Matrix: (Units=1/GPa)
#
#
# Indices 1 2 3 4 5 6 
#
# 1 0.029716 -0.007117 -0.005724 0.000000 0.005850 0.000000
# 2 -0.007117 0.013018 -0.002356 0.000000 0.000084 0.000000
# 3 -0.005724 -0.002356 0.009319 0.000000 0.000643 0.000000
# 4 0.000000 0.000000 0.000000 0.052401 0.000000 0.013754
# 5 0.005850 0.000084 0.000643 0.000000 0.034274 0.000000
# 6 0.000000 0.000000 0.000000 0.013754 0.000000 0.093541
#
#
# Mechanical properties :
#
#
# Convention : Reuss Voigt Hill
#
# Bulk Modulus (GPa) = 46.16813 62.22745 54.19779
# Shear Modulus (GPa) = 18.52662 24.17422 21.35042
#
# Velocity S-wave (km/s) = 3.15239 3.60095 3.38411
# Velocity P-wave (km/s) = 6.16557 7.11811 6.65890
#
# Compressibility (1/GPa) = 0.02165996
#
# Stress axis : x y z
#
# Youngs Moduli (GPa) = 33.65226 76.81462 107.30697
#
# Poissons Ratio (x) = 0.54666 0.61420
# Poissons Ratio (y) = 0.23949 0.25283
# Poissons Ratio (z) = 0.19262 0.18099
#
# Static dielectric constant tensor:
#      x y z
#    x 3.055610 0.000000 0.164410 
#    y 0.000000 3.377840 0.000000 
#    z 0.164410 0.000000 4.106760 
# 
# 
# High freq. dielectric constant tensor:
#      x y z
#    x 1.677250 0.000000 0.017690 
#    y 0.000000 1.719020 0.000000 
#    z 0.017690 0.000000 1.742410 
# 
# From -- ./inp_files/79742.got.cif
#   From: 2010.06.25/outbox.cif.g09.slc.cpg/sg10_40_cif.got.tgz:79742.got - 2010.06.27 22:07:45.
