data_PCOD8059471
_publ_section_title
;
Structure prediction by ZEFSAII (Michael W. Deem and Ramdas Pophale) SiO2 
 PCOD8059471
Probable space group: P 2/M
;
_chemical_formula_sum "Si O2"
_cell_formula_units_Z 20
_cell_length_a 14.532192
_cell_length_b 19.284642
_cell_length_c 11.507075
_cell_angle_alpha 90.000000
_cell_angle_beta 19.020472
_cell_angle_gamma 90.000000
_cell_volume 1050.993353
_symmetry_space_group_name_H-M "P 2/M"
_symmetry_group_IT_number 10
_symmetry_cell_setting 'monoclinic'
loop_
_space_group_symop_operation_xyz
x,y,z
-x,y,-z
-x,-y,-z
x,-y,z
loop_
_atom_site_type_symbol
_atom_site_label
_atom_site_fract_x
_atom_site_fract_y
_atom_site_fract_z
Si Si1 0.647895 0.921223 0.198733
Si Si2 0.701197 0.693934 0.547897
Si Si3 0.546955 0.578082 0.576313
Si Si4 0.111831 0.642135 0.244692
Si Si5 0.145605 0.846174 0.703846
O O1 0.500000 0.918574 0.500000
O O2 0.447724 0.884596 0.342397
O O3 0.704638 0.000000 0.092420
O O4 0.945202 0.880211 0.845319
O O5 0.763758 0.632019 0.378979
O O6 0.820148 0.764935 0.356672
O O7 0.852757 0.677923 0.488182
O O8 0.361668 0.698408 0.972377
O O9 0.500000 0.601673 0.500000
O O10 0.668836 0.500000 0.437512
O O11 0.246496 0.581243 0.004168
O O12 0.000000 0.611173 0.500000
O O13 0.000000 0.858662 0.000000
#
# Coordination Sequence:
#
# PCOD8059471 Si02
#       5
#     4   4   4   4   4
#     4   9  17  29  45  72 112 152 183 216 269 340
#     4  10  22  35  58  80 112 145 194 234 277 333
#     4   9  22  39  59  85 115 151 187 233 287 337
#     4  10  22  39  58  80 110 148 191 241 286 332
#     4  10  19  29  50  77 109 148 184 224 279 332
#
# _framework density 19.029615
#
# number of rings (size 3 to 8) (size 9 to 14) (size 15 to 20)
#    1.200    1.200    0.000    2.400    2.800    4.400 
#    0.000    3.000    0.000    0.000    0.000    0.000 
#    0.000   56.000    0.000    0.000    0.000    0.000 
#
# Total GULP energy -247830.123768 kJ/mol
# GULP energy per Si atom -12391.506188 kJ/mol
# Density = 1.898630 g / cm^3
# Si number density = 19.029615 Si / 1000 Ang^3
#
#
#
# Elastic Constant Matrix: (Units=GPa)
#
#
# Indices 1 2 3 4 5 6 
#
# 1 112.3493 50.8048 58.2850 0.0000 -26.6620 0.0000
# 2 50.8048 134.9995 31.3159 0.0000 -20.9806 0.0000
# 3 58.2850 31.3159 70.0821 0.0000 -20.6382 0.0000
# 4 0.0000 0.0000 0.0000 23.2797 0.0000 -9.0079
# 5 -26.6620 -20.9806 -20.6382 0.0000 40.8101 0.0000
# 6 0.0000 0.0000 0.0000 -9.0079 0.0000 5.0081
#
#
#
# Elastic Compliance Matrix: (Units=1/GPa)
#
#
# Indices 1 2 3 4 5 6 
#
# 1 0.017448 -0.003212 -0.011991 0.000000 0.003684 0.000000
# 2 -0.003212 0.009137 -0.000759 0.000000 0.002215 0.000000
# 3 -0.011991 -0.000759 0.026036 0.000000 0.004943 0.000000
# 4 0.000000 0.000000 0.000000 0.141289 0.000000 0.254129
# 5 0.003684 0.002215 0.004943 0.000000 0.030549 0.000000
# 6 0.000000 0.000000 0.000000 0.254129 0.000000 0.656763
#
#
# Mechanical properties :
#
#
# Convention : Reuss Voigt Hill
#
# Bulk Modulus (GPa) = 48.31667 66.47137 57.39402
# Shear Modulus (GPa) = 5.43451 25.62127 15.52789
#
# Velocity S-wave (km/s) = 1.69175 3.67330 2.85965
# Velocity P-wave (km/s) = 5.40938 7.27991 6.41321
#
# Compressibility (1/GPa) = 0.02069679
#
# Stress axis : x y z
#
# Youngs Moduli (GPa) = 57.31172 109.45029 38.40809
#
# Poissons Ratio (x) = 0.35159 0.46055
# Poissons Ratio (y) = 0.18410 0.02915
# Poissons Ratio (z) = 0.68723 0.08305
#
# Static dielectric constant tensor:
#      x y z
#    x 3.396560 0.000000 -0.342000 
#    y 0.000000 3.296190 0.000000 
#    z -0.342000 0.000000 3.355880 
# 
# 
# High freq. dielectric constant tensor:
#      x y z
#    x 1.726430 0.000000 -0.032250 
#    y 0.000000 1.728180 0.000000 
#    z -0.032250 0.000000 1.721140 
# 
# From -- ./inp_files/4793.got.cif
#   From: 2010.06.25/outbox.cif.g09.slc.cpg/sg10_3_cif.got.tgz:4793.got - 2010.06.27 22:07:45.
