data_PCOD8059204
_publ_section_title
;
Structure prediction by ZEFSAII (Michael W. Deem and Ramdas Pophale) SiO2 
 PCOD8059204
Probable space group: P 2/M
;
_chemical_formula_sum "Si O2"
_cell_formula_units_Z 26
_cell_length_a 9.272888
_cell_length_b 14.413422
_cell_length_c 11.043345
_cell_angle_alpha 90.000000
_cell_angle_beta 63.821051
_cell_angle_gamma 90.000000
_cell_volume 1324.581708
_symmetry_space_group_name_H-M "P 2/M"
_symmetry_group_IT_number 10
_symmetry_cell_setting 'monoclinic'
loop_
_space_group_symop_operation_xyz
x,y,z
-x,y,-z
-x,-y,-z
x,-y,z
loop_
_atom_site_type_symbol
_atom_site_label
_atom_site_fract_x
_atom_site_fract_y
_atom_site_fract_z
Si Si1 0.615809 0.104414 0.061087
Si Si2 0.970396 0.897358 0.877749
Si Si3 0.000000 0.655999 0.500000
Si Si4 0.905761 0.275861 0.281750
Si Si5 0.669616 0.601704 0.724844
Si Si6 0.806169 0.391387 0.928269
Si Si7 0.370122 0.283808 0.793088
O O1 0.617849 0.175618 0.172763
O O2 0.570398 0.000000 0.124238
O O3 0.500000 0.142268 0.000000
O O4 0.781632 0.100226 0.926797
O O5 0.052637 0.831753 0.750593
O O6 0.048095 0.000000 0.838378
O O7 0.000000 0.855485 0.000000
O O8 0.922490 0.714331 0.419379
O O9 0.849681 0.596963 0.603525
O O10 0.724849 0.292855 0.299192
O O11 0.023571 0.343333 0.163081
O O12 0.593157 0.500000 0.733875
O O13 0.684562 0.623598 0.861631
O O14 0.550286 0.676186 0.707967
O O15 0.837350 0.500000 0.942359
O O16 0.724356 0.343280 0.072533
#
# Coordination Sequence:
#
# PCOD8059204 Si02
#       7
#     4   4   2   4   4   4   4
#     4  10  20  32  53  90 126 151 176 217 283 354
#     4  10  18  34  60  89 120 151 184 229 288 348
#     4  10  25  44  59  72 108 160 207 240 279 326
#     4  11  22  38  56  83 116 155 195 236 279 338
#     4  10  22  40  61  82 112 153 194 237 284 342
#     4  10  20  35  56  87 122 149 176 228 300 357
#     4  12  21  33  59  90 119 143 185 241 295 343
#
# _framework density 19.628838999999999
#
# number of rings (size 3 to 8) (size 9 to 14) (size 15 to 20)
#    0.000    1.538    3.077    2.538    2.154    4.308 
#    0.000    1.154    0.000    0.923    0.000    2.154 
#    0.000    0.000    0.000    0.000    0.000    0.000 
#
# Total GULP energy -322289.221534 kJ/mol
# GULP energy per Si atom -12395.739290 kJ/mol
# Density = 1.958416 g / cm^3
# Si number density = 19.628839 Si / 1000 Ang^3
#
#
#
# Elastic Constant Matrix: (Units=GPa)
#
#
# Indices 1 2 3 4 5 6 
#
# 1 139.7735 39.6434 33.6531 0.0000 12.2285 0.0000
# 2 39.6434 116.5714 22.4729 0.0000 9.4000 0.0000
# 3 33.6531 22.4729 60.7624 0.0000 12.8024 0.0000
# 4 0.0000 0.0000 0.0000 11.3245 0.0000 -2.5515
# 5 12.2285 9.4000 12.8024 0.0000 32.5657 0.0000
# 6 0.0000 0.0000 0.0000 -2.5515 0.0000 26.0484
#
#
#
# Elastic Compliance Matrix: (Units=1/GPa)
#
#
# Indices 1 2 3 4 5 6 
#
# 1 0.008789 -0.002157 -0.003823 0.000000 -0.001175 0.000000
# 2 -0.002157 0.009829 -0.002195 0.000000 -0.001164 0.000000
# 3 -0.003823 -0.002195 0.020662 0.000000 -0.006054 0.000000
# 4 0.000000 0.000000 0.000000 0.090297 0.000000 0.008845
# 5 -0.001175 -0.001164 -0.006054 0.000000 0.033864 0.000000
# 6 0.000000 0.000000 0.000000 0.008845 0.000000 0.039256
#
#
# Mechanical properties :
#
#
# Convention : Reuss Voigt Hill
#
# Bulk Modulus (GPa) = 43.61020 56.51624 50.06322
# Shear Modulus (GPa) = 22.05633 28.74357 25.39995
#
# Velocity S-wave (km/s) = 3.35576 3.83084 3.60114
# Velocity P-wave (km/s) = 6.10577 6.95860 6.54609
#
# Compressibility (1/GPa) = 0.02293041
#
# Stress axis : x y z
#
# Youngs Moduli (GPa) = 113.77231 101.73781 48.39804
#
# Poissons Ratio (x) = 0.21949 0.18500
# Poissons Ratio (y) = 0.24546 0.10624
# Poissons Ratio (z) = 0.43490 0.22333
#
# Static dielectric constant tensor:
#      x y z
#    x 3.850480 0.000000 0.046950 
#    y 0.000000 3.706260 0.000000 
#    z 0.046950 0.000000 3.428800 
# 
# 
# High freq. dielectric constant tensor:
#      x y z
#    x 1.784850 0.000000 -0.001110 
#    y 0.000000 1.772410 0.000000 
#    z -0.001110 0.000000 1.717250 
# 
# From -- ./inp_files/42596.got.cif
#   From: 2010.06.25/outbox.cif.g09.slc.cpg/sg10_22_cif.got.tgz:42596.got - 2010.06.27 22:07:45.
