data_PCOD8059054
_publ_section_title
;
Structure prediction by ZEFSAII (Michael W. Deem and Ramdas Pophale) SiO2 
 PCOD8059054
Probable space group: P 2/M
;
_chemical_formula_sum "Si O2"
_cell_formula_units_Z 24
_cell_length_a 17.523938
_cell_length_b 8.714561
_cell_length_c 24.835634
_cell_angle_alpha 90.000000
_cell_angle_beta 160.636733
_cell_angle_gamma 90.000000
_cell_volume 1257.505307
_symmetry_space_group_name_H-M "P 2/M"
_symmetry_group_IT_number 10
_symmetry_cell_setting 'monoclinic'
loop_
_space_group_symop_operation_xyz
x,y,z
-x,y,-z
-x,-y,-z
x,-y,z
loop_
_atom_site_type_symbol
_atom_site_label
_atom_site_fract_x
_atom_site_fract_y
_atom_site_fract_z
Si Si1 0.512513 0.820018 0.069797
Si Si2 0.966541 0.326401 0.414533
Si Si3 0.224146 0.682405 0.970742
Si Si4 0.271496 0.682917 0.319629
Si Si5 0.756358 0.682852 0.818791
Si Si6 0.533366 0.317233 0.275604
O O1 0.761199 0.781962 0.259568
O O2 0.471852 0.000000 0.044832
O O3 0.500000 0.759206 0.000000
O O4 0.311153 0.742886 0.971087
O O5 0.914690 0.500000 0.360322
O O6 0.000000 0.324563 0.500000
O O7 0.203974 0.260022 0.548572
O O8 0.232661 0.500000 0.975130
O O9 0.962686 0.740675 0.807254
O O10 0.388972 0.746203 0.128298
O O11 0.500000 0.748377 0.500000
O O12 0.270399 0.500000 0.318851
O O13 0.288935 0.747752 0.270708
O O14 0.756176 0.500000 0.817953
O O15 0.569804 0.744658 0.737091
O O16 0.000000 0.746652 0.000000
O O17 0.525079 0.500000 0.266636
#
# Coordination Sequence:
#
# PCOD8059054 Si02
#       6
#     4   4   4   4   4   4
#     4  11  25  41  55  76 109 146 186 228 275 331
#     4  10  19  34  57  84 111 138 179 229 273 322
#     4  10  18  33  56  79 107 141 178 224 276 322
#     4   9  17  27  44  76 111 138 171 217 265 318
#     4   9  14  23  41  67 103 140 167 200 255 313
#     4   9  16  27  48  79 110 141 174 214 266 321
#
# _framework density 19.085405999999999
#
# number of rings (size 3 to 8) (size 9 to 14) (size 15 to 20)
#    0.000    2.333    3.333    0.500    0.000    3.000 
#    0.000    3.333    0.000    0.500    0.000    3.500 
#    0.000    0.000    0.000    0.000    0.000    0.000 
#
# Total GULP energy -297509.831450 kJ/mol
# GULP energy per Si atom -12396.242977 kJ/mol
# Density = 1.904197 g / cm^3
# Si number density = 19.085406 Si / 1000 Ang^3
#
#
#
# Elastic Constant Matrix: (Units=GPa)
#
#
# Indices 1 2 3 4 5 6 
#
# 1 183.6838 16.7345 76.4080 0.0000 14.3066 0.0000
# 2 16.7345 16.5533 12.4754 0.0000 0.3179 0.0000
# 3 76.4080 12.4754 125.4384 0.0000 8.3584 0.0000
# 4 0.0000 0.0000 0.0000 10.9150 0.0000 -6.8621
# 5 14.3066 0.3179 8.3584 0.0000 41.2571 0.0000
# 6 0.0000 0.0000 0.0000 -6.8621 0.0000 16.7098
#
#
#
# Elastic Compliance Matrix: (Units=1/GPa)
#
#
# Indices 1 2 3 4 5 6 
#
# 1 0.007724 -0.004669 -0.004120 0.000000 -0.001808 0.000000
# 2 -0.004669 0.068155 -0.004062 0.000000 0.001917 0.000000
# 3 -0.004120 -0.004062 0.010936 0.000000 -0.000756 0.000000
# 4 0.000000 0.000000 0.000000 0.123503 0.000000 0.050718
# 5 -0.001808 0.001917 -0.000756 0.000000 0.025003 0.000000
# 6 0.000000 0.000000 0.000000 0.050718 0.000000 0.080673
#
#
# Mechanical properties :
#
#
# Convention : Reuss Voigt Hill
#
# Bulk Modulus (GPa) = 16.36305 59.65680 38.00992
# Shear Modulus (GPa) = 13.80955 28.44689 21.12822
#
# Velocity S-wave (km/s) = 2.69284 3.86489 3.33082
# Velocity P-wave (km/s) = 4.27325 7.15837 5.89504
#
# Compressibility (1/GPa) = 0.06111331
#
# Stress axis : x y z
#
# Youngs Moduli (GPa) = 129.46306 14.67235 91.44002
#
# Poissons Ratio (x) = 0.06850 0.37675
# Poissons Ratio (y) = 0.60444 0.37144
# Poissons Ratio (z) = 0.53342 0.05960
#
# Static dielectric constant tensor:
#      x y z
#    x 3.804870 0.000000 -0.003900 
#    y 0.000000 2.860330 0.000000 
#    z -0.003900 0.000000 3.437250 
# 
# 
# High freq. dielectric constant tensor:
#      x y z
#    x 1.760410 0.000000 0.009630 
#    y 0.000000 1.675990 0.000000 
#    z 0.009630 0.000000 1.745900 
# 
# From -- ./inp_files/76049.got.cif
#   From: 2010.06.25/outbox.cif.g09.slc.cpg/sg10_39_cif.got.tgz:76049.got - 2010.06.27 22:07:45.
