data_PCOD8059083
_publ_section_title
;
Structure prediction by ZEFSAII (Michael W. Deem and Ramdas Pophale) SiO2 
 PCOD8059083
Probable space group: P 2/M
;
_chemical_formula_sum "Si O2"
_cell_formula_units_Z 32
_cell_length_a 25.909077
_cell_length_b 8.863397
_cell_length_c 15.432540
_cell_angle_alpha 90.000000
_cell_angle_beta 152.525025
_cell_angle_gamma 90.000000
_cell_volume 1635.048264
_symmetry_space_group_name_H-M "P 2/M"
_symmetry_group_IT_number 10
_symmetry_cell_setting 'monoclinic'
loop_
_space_group_symop_operation_xyz
x,y,z
-x,y,-z
-x,-y,-z
x,-y,z
loop_
_atom_site_type_symbol
_atom_site_label
_atom_site_fract_x
_atom_site_fract_y
_atom_site_fract_z
Si Si1 0.007217 0.322852 0.160674
Si Si2 0.375092 0.179670 0.307621
Si Si3 0.003946 0.172617 0.673814
Si Si4 0.233811 0.821185 0.936715
Si Si5 0.373277 0.322240 0.800140
Si Si6 0.766409 0.173079 0.555137
Si Si7 0.216230 0.826531 0.224386
Si Si8 0.240577 0.173056 0.755526
O O1 0.021549 0.500000 0.171847
O O2 0.111982 0.244433 0.271977
O O3 0.003634 0.280406 0.255531
O O4 0.895676 0.271413 0.945716
O O5 0.500000 0.246758 0.500000
O O6 0.304423 0.235251 0.285278
O O7 0.378781 0.000000 0.311357
O O8 0.318393 0.243097 0.135332
O O9 0.107633 0.229904 0.770613
O O10 0.892666 0.186368 0.451724
O O11 0.023095 0.000000 0.733678
O O12 0.269881 0.763401 0.895075
O O13 0.238463 0.000000 0.941883
O O14 0.366421 0.500000 0.780725
O O15 0.325232 0.252676 0.640742
O O16 0.302026 0.274336 0.776927
O O17 0.500000 0.265499 0.000000
O O18 0.727987 0.188842 0.597758
O O19 0.774198 0.000000 0.537050
O O20 0.184700 0.000000 0.157475
O O21 0.279200 0.000000 0.800755
#
# Coordination Sequence:
#
# PCOD8059083 Si02
#       8
#     4   4   4   4   4   4   4   4
#     4  12  23  35  57  87 120 156 191 232 289 355
#     4   9  17  31  54  84 115 146 184 233 284 333
#     4  10  18  33  57  84 116 150 186 234 290 343
#     4   9  17  31  55  86 118 148 184 233 289 343
#     4  11  25  43  60  81 116 160 198 238 291 346
#     4  11  23  39  62  89 115 149 194 246 293 339
#     4  10  21  38  60  87 118 152 192 240 291 343
#     4  10  20  34  59  89 113 146 192 241 288 339
#
# _framework density 19.571287999999999
#
# number of rings (size 3 to 8) (size 9 to 14) (size 15 to 20)
#    0.000    1.750    2.500    2.625    0.000    6.000 
#    0.000    3.125    0.000    1.875    0.000    0.000 
#    0.000    0.000    0.000    0.000    0.000    0.000 
#
# Total GULP energy -396853.907857 kJ/mol
# GULP energy per Si atom -12401.684621 kJ/mol
# Density = 1.952674 g / cm^3
# Si number density = 19.571288 Si / 1000 Ang^3
#
#
#
# Elastic Constant Matrix: (Units=GPa)
#
#
# Indices 1 2 3 4 5 6 
#
# 1 91.1404 22.0543 66.7231 0.0000 -27.0869 0.0000
# 2 22.0543 53.5013 33.8673 0.0000 -2.2026 0.0000
# 3 66.7231 33.8673 144.3793 0.0000 -0.1513 0.0000
# 4 0.0000 0.0000 0.0000 21.5797 0.0000 2.5458
# 5 -27.0869 -2.2026 -0.1513 0.0000 32.2829 0.0000
# 6 0.0000 0.0000 0.0000 2.5458 0.0000 1.6245
#
#
#
# Elastic Compliance Matrix: (Units=1/GPa)
#
#
# Indices 1 2 3 4 5 6 
#
# 1 0.026859 -0.002714 -0.011753 0.000000 0.022296 0.000000
# 2 -0.002714 0.022295 -0.003976 0.000000 -0.000775 0.000000
# 3 -0.011753 -0.003976 0.013280 0.000000 -0.010070 0.000000
# 4 0.000000 0.000000 0.000000 0.056850 0.000000 -0.089088
# 5 0.022296 -0.000775 -0.010070 0.000000 0.049583 0.000000
# 6 0.000000 0.000000 0.000000 -0.089088 0.000000 0.755163
#
#
# Mechanical properties :
#
#
# Convention : Reuss Voigt Hill
#
# Bulk Modulus (GPa) = 39.14247 59.36781 49.25514
# Shear Modulus (GPa) = 5.15766 22.18919 13.67342
#
# Velocity S-wave (km/s) = 1.62513 3.37079 2.64606
# Velocity P-wave (km/s) = 4.85435 6.74905 5.87854
#
# Compressibility (1/GPa) = 0.02554770
#
# Stress axis : x y z
#
# Youngs Moduli (GPa) = 37.23121 44.85280 75.30330
#
# Poissons Ratio (x) = 0.12175 0.88501
# Poissons Ratio (y) = 0.10106 0.29942
# Poissons Ratio (z) = 0.43756 0.17834
#
# Static dielectric constant tensor:
#      x y z
#    x 3.725650 0.000000 -0.077040 
#    y 0.000000 3.265740 0.000000 
#    z -0.077040 0.000000 3.758910 
# 
# 
# High freq. dielectric constant tensor:
#      x y z
#    x 1.773460 0.000000 -0.008690 
#    y 0.000000 1.727720 0.000000 
#    z -0.008690 0.000000 1.767190 
# 
# From -- ./inp_files/71640.got.cif
#   From: 2010.06.25/outbox.cif.g09.slc.cpg/sg10_36_cif.got.tgz:71640.got - 2010.06.27 22:07:45.
