data_PCOD8059318
_publ_section_title
;
Structure prediction by ZEFSAII (Michael W. Deem and Ramdas Pophale) SiO2 
 PCOD8059318
Probable space group: P 2/M
;
_chemical_formula_sum "Si O2"
_cell_formula_units_Z 28
_cell_length_a 17.339950
_cell_length_b 15.607974
_cell_length_c 20.192912
_cell_angle_alpha 90.000000
_cell_angle_beta 20.743776
_cell_angle_gamma 90.000000
_cell_volume 1935.659444
_symmetry_space_group_name_H-M "P 2/M"
_symmetry_group_IT_number 10
_symmetry_cell_setting 'monoclinic'
loop_
_space_group_symop_operation_xyz
x,y,z
-x,y,-z
-x,-y,-z
x,-y,z
loop_
_atom_site_type_symbol
_atom_site_label
_atom_site_fract_x
_atom_site_fract_y
_atom_site_fract_z
Si Si1 0.581568 0.101170 0.004200
Si Si2 0.318608 0.829259 0.560467
Si Si3 0.943324 0.898429 0.352233
Si Si4 0.359812 0.634845 0.546738
Si Si5 0.175754 0.898830 0.410017
Si Si6 0.653962 0.500000 0.252379
Si Si7 0.214520 0.898131 0.785479
Si Si8 0.934968 0.500000 0.158698
O O1 0.810956 0.137859 0.845000
O O2 0.602118 0.000000 0.977748
O O3 0.500000 0.141113 0.000000
O O4 0.414536 0.126990 0.195149
O O5 0.188626 0.865972 0.603792
O O6 0.301956 0.727631 0.566021
O O7 0.200713 0.860253 0.722524
O O8 0.568998 0.860246 0.354247
O O9 0.843063 0.862142 0.500979
O O10 0.937955 0.000000 0.354020
O O11 0.500000 0.645887 0.500000
O O12 0.500379 0.584082 0.378440
O O13 0.136050 0.584083 0.742767
O O14 0.000000 0.858892 0.500000
O O15 0.137490 0.000000 0.442376
O O16 0.805634 0.500000 0.194368
O O17 0.805069 0.500000 0.064987
O O18 0.235300 0.000000 0.764697
O O19 0.000000 0.871246 0.000000
#
# Coordination Sequence:
#
# PCOD8059318 Si02
#       8
#     4   4   4   4   4   2   4   2
#     4   9  15  25  41  59  78 104 141 180 220 269
#     4  11  20  33  46  64  89 116 152 196 231 260
#     4  10  19  28  42  62  86 115 149 191 228 254
#     4   9  16  29  44  65  86 110 144 174 214 273
#     4   9  15  25  41  59  78 104 141 180 220 269
#     4   8  15  27  46  67  87 106 131 170 216 268
#     4  10  21  35  48  57  77 121 170 203 227 251
#     4   8  15  27  46  67  87 106 131 170 216 268
#
# _framework density 14.465355000000001
#
# number of rings (size 3 to 8) (size 9 to 14) (size 15 to 20)
#    0.000    2.571    2.857    2.571    0.000    2.286 
#    0.000    2.857    0.000    0.000    0.000    0.000 
#    0.000    0.000    0.000    5.143    0.000    0.000 
#
# Total GULP energy -347005.764306 kJ/mol
# GULP energy per Si atom -12393.063011 kJ/mol
# Density = 1.443243 g / cm^3
# Si number density = 14.465355 Si / 1000 Ang^3
#
#
#
# Elastic Constant Matrix: (Units=GPa)
#
#
# Indices 1 2 3 4 5 6 
#
# 1 109.5883 18.9637 65.9688 0.0000 -4.9572 0.0000
# 2 18.9637 59.3833 39.6996 0.0000 4.9203 0.0000
# 3 65.9688 39.6996 139.8473 0.0000 12.1528 0.0000
# 4 0.0000 0.0000 0.0000 9.1593 0.0000 3.3651
# 5 -4.9572 4.9203 12.1528 0.0000 15.4074 0.0000
# 6 0.0000 0.0000 0.0000 3.3651 0.0000 -5.0217
#
#
#
# Elastic Compliance Matrix: (Units=1/GPa)
#
#
# Indices 1 2 3 4 5 6 
#
# 1 0.014190 -0.000394 -0.007504 0.000000 0.010611 0.000000
# 2 -0.000394 0.020860 -0.005525 0.000000 -0.002431 0.000000
# 3 -0.007504 -0.005525 0.013222 0.000000 -0.011079 0.000000
# 4 0.000000 0.000000 0.000000 0.087609 0.000000 0.058709
# 5 0.010611 -0.002431 -0.011079 0.000000 0.077832 0.000000
# 6 0.000000 0.000000 0.000000 0.058709 0.000000 -0.159794
#
#
# Mechanical properties :
#
#
# Convention : Reuss Voigt Hill
#
# Bulk Modulus (GPa) = 46.67065 62.00925 54.33995
# Shear Modulus (GPa) = 56.87758 16.18812 36.53285
#
# Velocity S-wave (km/s) = 6.27736 3.34892 5.03093
# Velocity P-wave (km/s) = 9.21271 7.61014 8.44950
#
# Compressibility (1/GPa) = 0.02142674
#
# Stress axis : x y z
#
# Youngs Moduli (GPa) = 70.46977 47.93765 75.63376
#
# Poissons Ratio (x) = 0.01889 0.56757
# Poissons Ratio (y) = 0.02777 0.41785
# Poissons Ratio (z) = 0.52881 0.26484
#
# Static dielectric constant tensor:
#      x y z
#    x 2.720390 0.000000 0.111020 
#    y 0.000000 2.641550 0.000000 
#    z 0.111020 0.000000 3.188240 
# 
# 
# High freq. dielectric constant tensor:
#      x y z
#    x 1.529290 0.000000 0.009520 
#    y 0.000000 1.508570 0.000000 
#    z 0.009520 0.000000 1.569390 
# 
# From -- ./inp_files/85914.got.cif
#   From: 2010.06.25/outbox.cif.g09.slc.cpg/sg10_43_cif.got.tgz:85914.got - 2010.06.27 22:07:45.
