data_PCOD8059256
_publ_section_title
;
Structure prediction by ZEFSAII (Michael W. Deem and Ramdas Pophale) SiO2 
 PCOD8059256
Probable space group: P 2/M
;
_chemical_formula_sum "Si O2"
_cell_formula_units_Z 24
_cell_length_a 15.142374
_cell_length_b 15.376893
_cell_length_c 9.681872
_cell_angle_alpha 90.000000
_cell_angle_beta 33.179128
_cell_angle_gamma 90.000000
_cell_volume 1233.713472
_symmetry_space_group_name_H-M "P 2/M"
_symmetry_group_IT_number 10
_symmetry_cell_setting 'monoclinic'
loop_
_space_group_symop_operation_xyz
x,y,z
-x,y,-z
-x,-y,-z
x,-y,z
loop_
_atom_site_type_symbol
_atom_site_label
_atom_site_fract_x
_atom_site_fract_y
_atom_site_fract_z
Si Si1 0.721204 0.190678 0.127497
Si Si2 0.378171 0.759378 0.462096
Si Si3 0.688317 0.166778 0.726998
Si Si4 0.811600 0.000000 0.708869
Si Si5 0.668923 0.000000 0.191604
Si Si6 0.479615 0.401527 0.863940
Si Si7 0.824920 0.300640 0.756924
O O1 0.728246 0.245312 0.260002
O O2 0.547705 0.194790 0.278366
O O3 0.761169 0.089521 0.110242
O O4 0.847119 0.233918 0.857123
O O5 0.286786 0.818654 0.469360
O O6 0.400061 0.662043 0.375371
O O7 0.754127 0.250813 0.718734
O O8 0.784746 0.082978 0.648290
O O9 0.500000 0.156363 0.000000
O O10 0.000000 0.000000 0.500000
O O11 0.680455 0.000000 0.007142
O O12 0.500000 0.000000 0.500000
O O13 0.520347 0.500000 0.767787
O O14 0.500000 0.387400 0.000000
O O15 0.297060 0.379867 0.053558
O O16 0.000000 0.340999 0.500000
#
# Coordination Sequence:
#
# PCOD8059256 Si02
#       7
#     4   4   4   2   2   4   4
#     4  10  21  34  57  85 123 152 194 252 303 345
#     4  10  18  36  57  87 115 144 199 244 301 353
#     4  12  20  37  61  87 114 154 212 247 282 361
#     4  12  27  40  60  90 126 163 208 259 306 347
#     4  12  20  34  56  85 114 159 200 244 303 346
#     4  10  19  36  63  90 115 147 196 255 299 357
#     4  11  21  38  59  85 123 160 197 242 301 366
#
# _framework density 19.453462999999999
#
# number of rings (size 3 to 8) (size 9 to 14) (size 15 to 20)
#    0.000    1.167    8.333    0.750    0.000    1.667 
#    0.000    7.500    0.000    1.000    0.000    2.333 
#    0.000    0.000    0.000    0.000    0.000    0.000 
#
# Total GULP energy -297441.571644 kJ/mol
# GULP energy per Si atom -12393.398819 kJ/mol
# Density = 1.940919 g / cm^3
# Si number density = 19.453463 Si / 1000 Ang^3
#
#
#
# Elastic Constant Matrix: (Units=GPa)
#
#
# Indices 1 2 3 4 5 6 
#
# 1 95.4541 43.9442 44.3855 0.0000 18.9284 0.0000
# 2 43.9442 126.2822 24.8134 0.0000 13.2083 0.0000
# 3 44.3855 24.8134 76.8747 0.0000 20.7547 0.0000
# 4 0.0000 0.0000 0.0000 18.5252 0.0000 6.0214
# 5 18.9284 13.2083 20.7547 0.0000 39.0608 0.0000
# 6 0.0000 0.0000 0.0000 6.0214 0.0000 25.3314
#
#
#
# Elastic Compliance Matrix: (Units=1/GPa)
#
#
# Indices 1 2 3 4 5 6 
#
# 1 0.016245 -0.003924 -0.007408 0.000000 -0.002609 0.000000
# 2 -0.003924 0.009495 -0.000520 0.000000 -0.001033 0.000000
# 3 -0.007408 -0.000520 0.019190 0.000000 -0.006430 0.000000
# 4 0.000000 0.000000 0.000000 0.058500 0.000000 -0.013906
# 5 -0.002609 -0.001033 -0.006430 0.000000 0.030631 0.000000
# 6 0.000000 0.000000 0.000000 -0.013906 0.000000 0.042782
#
#
# Mechanical properties :
#
#
# Convention : Reuss Voigt Hill
#
# Bulk Modulus (GPa) = 47.11786 58.32190 52.71988
# Shear Modulus (GPa) = 24.08210 28.94803 26.51507
#
# Velocity S-wave (km/s) = 3.52225 3.86173 3.69589
# Velocity P-wave (km/s) = 6.38866 7.06606 6.73588
#
# Compressibility (1/GPa) = 0.02122337
#
# Stress axis : x y z
#
# Youngs Moduli (GPa) = 61.55684 105.32303 52.11173
#
# Poissons Ratio (x) = 0.41334 0.38607
# Poissons Ratio (y) = 0.24158 0.02710
# Poissons Ratio (z) = 0.45604 0.05477
#
# Static dielectric constant tensor:
#      x y z
#    x 3.789300 0.000000 0.336400 
#    y 0.000000 3.713860 0.000000 
#    z 0.336400 0.000000 3.642500 
# 
# 
# High freq. dielectric constant tensor:
#      x y z
#    x 1.743950 0.000000 0.023740 
#    y 0.000000 1.751920 0.000000 
#    z 0.023740 0.000000 1.739430 
# 
# From -- ./inp_files/29350.got.cif
#   From: 2010.06.25/outbox.cif.g09.slc.cpg/sg10_15_cif.got.tgz:29350.got - 2010.06.27 22:07:45.
