data_PCOD8059447
_publ_section_title
;
Structure prediction by ZEFSAII (Michael W. Deem and Ramdas Pophale) SiO2 
 PCOD8059447
Probable space group: P 2/M
;
_chemical_formula_sum "Si O2"
_cell_formula_units_Z 32
_cell_length_a 21.125405
_cell_length_b 9.204040
_cell_length_c 11.097768
_cell_angle_alpha 90.000000
_cell_angle_beta 128.407533
_cell_angle_gamma 90.000000
_cell_volume 1690.908633
_symmetry_space_group_name_H-M "P 2/M"
_symmetry_group_IT_number 10
_symmetry_cell_setting 'monoclinic'
loop_
_space_group_symop_operation_xyz
x,y,z
-x,y,-z
-x,-y,-z
x,-y,z
loop_
_atom_site_type_symbol
_atom_site_label
_atom_site_fract_x
_atom_site_fract_y
_atom_site_fract_z
Si Si1 0.255669 0.666664 0.326032
Si Si2 0.119212 0.162711 0.063460
Si Si3 0.184975 0.328618 0.496937
Si Si4 0.452092 0.662402 0.820504
Si Si5 0.591004 0.169884 0.868390
Si Si6 0.685630 0.829739 0.221510
Si Si7 0.957584 0.835674 0.764943
Si Si8 0.409205 0.668419 0.363909
O O1 0.232764 0.500000 0.288174
O O2 0.200285 0.742315 0.158351
O O3 0.234567 0.719505 0.435673
O O4 0.350343 0.695406 0.409070
O O5 0.080831 0.168077 0.149352
O O6 0.144722 0.000000 0.059238
O O7 0.051217 0.216917 0.886869
O O8 0.185858 0.500000 0.520545
O O9 0.227291 0.246292 0.659092
O O10 0.092420 0.273058 0.380197
O O11 0.429649 0.500000 0.745344
O O12 0.506805 0.746101 0.789106
O O13 0.372234 0.755578 0.748170
O O14 0.500000 0.646969 0.000000
O O15 0.626604 0.234545 0.787182
O O16 0.572220 0.000000 0.835137
O O17 0.654923 0.200053 0.050129
O O18 0.690554 0.000000 0.255237
O O19 0.953577 0.000000 0.708747
O O20 0.500000 0.720220 0.500000
O O21 0.408142 0.500000 0.323787
#
# Coordination Sequence:
#
# PCOD8059447 Si02
#       8
#     4   4   4   4   4   4   4   4
#     4   9  19  33  47  70 100 130 166 207 246 288
#     4   8  14  26  46  68  93 129 166 197 236 293
#     4  10  19  29  46  74 105 133 165 199 242 297
#     4   9  17  30  49  70  91 119 156 197 243 294
#     4  10  21  36  52  72  95 123 165 210 250 294
#     4  10  20  33  49  71 100 129 159 202 251 295
#     4   8  14  26  43  67  99 131 161 194 239 291
#     4  10  22  38  54  70  95 133 171 209 252 290
#
# _framework density 18.924735999999999
#
# number of rings (size 3 to 8) (size 9 to 14) (size 15 to 20)
#    0.000    2.750    0.000    2.250    1.750    4.750 
#    0.000    2.500    0.000    0.000    0.000    0.875 
#    0.000    7.000    0.000    0.000    0.000    0.000 
#
# Total GULP energy -396659.170440 kJ/mol
# GULP energy per Si atom -12395.599076 kJ/mol
# Density = 1.888166 g / cm^3
# Si number density = 18.924736 Si / 1000 Ang^3
#
#
#
# Elastic Constant Matrix: (Units=GPa)
#
#
# Indices 1 2 3 4 5 6 
#
# 1 30.9394 12.8537 17.1716 0.0000 7.7990 0.0000
# 2 12.8537 94.6724 51.0440 0.0000 8.0592 0.0000
# 3 17.1716 51.0440 97.0346 0.0000 23.4341 0.0000
# 4 0.0000 0.0000 0.0000 33.1761 0.0000 6.0348
# 5 7.7990 8.0592 23.4341 0.0000 28.6026 0.0000
# 6 0.0000 0.0000 0.0000 6.0348 0.0000 22.8451
#
#
#
# Elastic Compliance Matrix: (Units=1/GPa)
#
#
# Indices 1 2 3 4 5 6 
#
# 1 0.037014 -0.002485 -0.003708 0.000000 -0.006354 0.000000
# 2 -0.002485 0.015086 -0.008269 0.000000 0.003202 0.000000
# 3 -0.003708 -0.008269 0.018083 0.000000 -0.011474 0.000000
# 4 0.000000 0.000000 0.000000 0.031664 0.000000 -0.008364
# 5 -0.006354 0.003202 -0.011474 0.000000 0.045193 0.000000
# 6 0.000000 0.000000 0.000000 -0.008364 0.000000 0.045983
#
#
# Mechanical properties :
#
#
# Convention : Reuss Voigt Hill
#
# Bulk Modulus (GPa) = 24.23831 42.75387 33.49609
# Shear Modulus (GPa) = 21.21342 26.36322 23.78832
#
# Velocity S-wave (km/s) = 3.35167 3.73642 3.54926
# Velocity P-wave (km/s) = 5.27388 6.42300 5.87660
#
# Compressibility (1/GPa) = 0.04125701
#
# Stress axis : x y z
#
# Youngs Moduli (GPa) = 27.01716 66.28609 55.30074
#
# Poissons Ratio (x) = 0.16472 0.20507
# Poissons Ratio (y) = 0.06714 0.45731
# Poissons Ratio (z) = 0.10019 0.54815
#
# Static dielectric constant tensor:
#      x y z
#    x 3.181640 0.000000 0.304680 
#    y 0.000000 3.521270 0.000000 
#    z 0.304680 0.000000 3.624770 
# 
# 
# High freq. dielectric constant tensor:
#      x y z
#    x 1.686110 0.000000 0.020910 
#    y 0.000000 1.737960 0.000000 
#    z 0.020910 0.000000 1.736810 
# 
# From -- ./inp_files/55335.got.cif
#   From: 2010.06.25/outbox.cif.g09.slc.cpg/sg10_28_cif.got.tgz:55335.got - 2010.06.27 22:07:45.
