data_PCOD8059912
_publ_section_title
;
Structure prediction by ZEFSAII (Michael W. Deem and Ramdas Pophale) SiO2 
 PCOD8059912
Probable space group: P 2/M
;
_chemical_formula_sum "Si O2"
_cell_formula_units_Z 32
_cell_length_a 13.528264
_cell_length_b 9.971033
_cell_length_c 15.539619
_cell_angle_alpha 90.000000
_cell_angle_beta 114.547843
_cell_angle_gamma 90.000000
_cell_volume 1906.689827
_symmetry_space_group_name_H-M "P 2/M"
_symmetry_group_IT_number 10
_symmetry_cell_setting 'monoclinic'
loop_
_space_group_symop_operation_xyz
x,y,z
-x,y,-z
-x,-y,-z
x,-y,z
loop_
_atom_site_type_symbol
_atom_site_label
_atom_site_fract_x
_atom_site_fract_y
_atom_site_fract_z
Si Si1 0.446795 0.155917 0.265574
Si Si2 0.341800 0.342445 0.894189
Si Si3 0.286009 0.155545 0.364993
Si Si4 0.879166 0.748328 0.464029
Si Si5 0.104223 0.346563 0.342559
Si Si6 0.657481 0.850416 0.430058
Si Si7 0.434582 0.341983 0.106182
Si Si8 0.866291 0.346814 0.272384
O O1 0.366566 0.175342 0.316100
O O2 0.565511 0.216517 0.336021
O O3 0.399970 0.249955 0.173562
O O4 0.450226 0.000000 0.236910
O O5 0.340646 0.500000 0.878688
O O6 0.447557 0.289823 0.882194
O O7 0.233635 0.274278 0.813774
O O8 0.349105 0.311737 0.998514
O O9 0.179940 0.248390 0.313971
O O10 0.342855 0.209207 0.473417
O O11 0.249642 0.000000 0.362251
O O12 0.873371 0.655694 0.546537
O O13 0.779210 0.852637 0.434101
O O14 0.854937 0.660947 0.371149
O O15 0.000000 0.816898 0.500000
O O16 0.119611 0.500000 0.317189
O O17 0.982186 0.289730 0.282522
O O18 0.613433 0.000000 0.422547
O O19 0.433554 0.500000 0.130059
O O20 0.864111 0.500000 0.244496
#
# Coordination Sequence:
#
# PCOD8059912 Si02
#       8
#     4   4   4   4   4   4   4   4
#     4  10  19  31  48  67  87 115 150 184 221 263
#     4   8  15  28  46  67  92 120 146 173 213 266
#     4   9  18  32  47  62  86 120 151 180 218 262
#     4   9  16  25  40  65  95 121 144 175 216 257
#     4   9  17  28  44  67  92 117 148 184 217 253
#     4   9  17  29  44  62  87 120 154 181 208 255
#     4   9  17  30  48  69  91 115 145 181 219 259
#     4   9  15  25  43  65  90 120 149 176 213 263
#
# _framework density 16.783014000000001
#
# number of rings (size 3 to 8) (size 9 to 14) (size 15 to 20)
#    0.000    3.000    0.000    2.250    0.000    3.750 
#    0.000    5.625    0.000    6.750    0.000    5.250 
#    0.000    0.000    0.000    0.000    0.000    0.000 
#
# Total GULP energy -396417.723553 kJ/mol
# GULP energy per Si atom -12388.053861 kJ/mol
# Density = 1.674481 g / cm^3
# Si number density = 16.783014 Si / 1000 Ang^3
#
#
#
# Elastic Constant Matrix: (Units=GPa)
#
#
# Indices 1 2 3 4 5 6 
#
# 1 95.6350 30.9686 49.9453 0.0000 8.8509 0.0000
# 2 30.9686 46.7795 26.4076 0.0000 -1.2781 0.0000
# 3 49.9453 26.4076 85.3529 0.0000 12.5888 0.0000
# 4 0.0000 0.0000 0.0000 19.2798 0.0000 -2.8259
# 5 8.8509 -1.2781 12.5888 0.0000 27.2976 0.0000
# 6 0.0000 0.0000 0.0000 -2.8259 0.0000 23.8773
#
#
#
# Elastic Compliance Matrix: (Units=1/GPa)
#
#
# Indices 1 2 3 4 5 6 
#
# 1 0.016762 -0.007059 -0.007268 0.000000 -0.002413 0.000000
# 2 -0.007059 0.029599 -0.005975 0.000000 0.006430 0.000000
# 3 -0.007268 -0.005975 0.018790 0.000000 -0.006588 0.000000
# 4 0.000000 0.000000 0.000000 0.052783 0.000000 0.006247
# 5 -0.002413 0.006430 -0.006588 0.000000 0.040755 0.000000
# 6 0.000000 0.000000 0.000000 0.006247 0.000000 0.042620
#
#
# Mechanical properties :
#
#
# Convention : Reuss Voigt Hill
#
# Bulk Modulus (GPa) = 40.74223 49.15671 44.94947
# Shear Modulus (GPa) = 19.99232 22.12066 21.05649
#
# Velocity S-wave (km/s) = 3.45515 3.63442 3.54592
# Velocity P-wave (km/s) = 6.34398 6.85311 6.60345
#
# Compressibility (1/GPa) = 0.02454455
#
# Stress axis : x y z
#
# Youngs Moduli (GPa) = 59.66043 33.78478 53.22107
#
# Poissons Ratio (x) = 0.23850 0.38682
# Poissons Ratio (y) = 0.42116 0.31801
# Poissons Ratio (z) = 0.43362 0.20188
#
# Static dielectric constant tensor:
#      x y z
#    x 3.341180 0.000000 0.353550 
#    y 0.000000 2.811580 0.000000 
#    z 0.353550 0.000000 3.281100 
# 
# 
# High freq. dielectric constant tensor:
#      x y z
#    x 1.645750 0.000000 0.010530 
#    y 0.000000 1.609910 0.000000 
#    z 0.010530 0.000000 1.636420 
# 
# From -- ./inp_files/55681.got.cif
#   From: 2010.06.25/outbox.cif.g09.slc.cpg/sg10_28_cif.got.tgz:55681.got - 2010.06.27 22:07:45.
