data_PCOD8059970
_publ_section_title
;
Structure prediction by ZEFSAII (Michael W. Deem and Ramdas Pophale) SiO2 
 PCOD8059970
Probable space group: P 2/M
;
_chemical_formula_sum "Si O2"
_cell_formula_units_Z 32
_cell_length_a 12.556384
_cell_length_b 8.988457
_cell_length_c 33.480342
_cell_angle_alpha 90.000000
_cell_angle_beta 26.530971
_cell_angle_gamma 90.000000
_cell_volume 1687.864529
_symmetry_space_group_name_H-M "P 2/M"
_symmetry_group_IT_number 10
_symmetry_cell_setting 'monoclinic'
loop_
_space_group_symop_operation_xyz
x,y,z
-x,y,-z
-x,-y,-z
x,-y,z
loop_
_atom_site_type_symbol
_atom_site_label
_atom_site_fract_x
_atom_site_fract_y
_atom_site_fract_z
Si Si1 0.441026 0.823960 0.399245
Si Si2 0.633926 0.822540 0.866028
Si Si3 0.074429 0.328373 0.571495
Si Si4 0.275909 0.826040 0.252998
Si Si5 0.353563 0.170462 0.805450
Si Si6 0.973677 0.177001 0.203355
Si Si7 0.865374 0.827095 0.936339
Si Si8 0.682273 0.670908 0.636922
O O1 0.325271 0.752904 0.478057
O O2 0.712083 0.765508 0.303672
O O3 0.288981 0.769239 0.412234
O O4 0.426402 0.000000 0.407711
O O5 0.689429 0.762703 0.803079
O O6 0.838653 0.764589 0.826932
O O7 0.622332 0.000000 0.868886
O O8 0.380996 0.754632 0.965658
O O9 0.121866 0.500000 0.565003
O O10 0.948281 0.256569 0.652204
O O11 0.911375 0.304795 0.587447
O O12 0.523152 0.792910 0.193646
O O13 0.216533 0.000000 0.273072
O O14 0.449745 0.277497 0.738829
O O15 0.068445 0.197189 0.902248
O O16 0.408776 0.000000 0.774289
O O17 0.050551 0.241909 0.134301
O O18 0.969133 0.000000 0.203322
O O19 0.816983 0.000000 0.945347
O O20 0.653913 0.500000 0.633605
#
# Coordination Sequence:
#
# PCOD8059970 Si02
#       8
#     4   4   4   4   4   4   4   4
#     4  11  20  31  50  76 103 131 164 207 254 296
#     4   9  17  29  48  74 102 134 170 207 248 294
#     4  10  21  35  51  72  99 134 170 203 246 303
#     4   9  18  32  50  74 103 133 168 209 248 289
#     4   9  16  28  47  74 106 133 162 203 252 295
#     4   9  17  29  46  73 106 134 163 202 251 299
#     4   9  15  26  47  75 105 133 162 203 253 300
#     4  10  19  31  48  72 103 134 165 200 246 303
#
# _framework density 18.958867999999999
#
# number of rings (size 3 to 8) (size 9 to 14) (size 15 to 20)
#    0.000    2.500    1.250    1.875    0.000    5.000 
#    0.000    3.125    0.000    6.000    0.000    4.375 
#    0.000    0.000    0.000    0.000    0.000    0.000 
#
# Total GULP energy -396718.995032 kJ/mol
# GULP energy per Si atom -12397.468595 kJ/mol
# Density = 1.891572 g / cm^3
# Si number density = 18.958868 Si / 1000 Ang^3
#
#
#
# Elastic Constant Matrix: (Units=GPa)
#
#
# Indices 1 2 3 4 5 6 
#
# 1 84.2895 17.8600 63.2139 0.0000 17.3643 0.0000
# 2 17.8600 45.1007 41.2152 0.0000 3.7362 0.0000
# 3 63.2139 41.2152 170.7834 0.0000 8.2823 0.0000
# 4 0.0000 0.0000 0.0000 7.5953 0.0000 1.3920
# 5 17.3643 3.7362 8.2823 0.0000 20.7029 0.0000
# 6 0.0000 0.0000 0.0000 1.3920 0.0000 10.0056
#
#
#
# Elastic Compliance Matrix: (Units=1/GPa)
#
#
# Indices 1 2 3 4 5 6 
#
# 1 0.019698 -0.000777 -0.006434 0.000000 -0.013808 0.000000
# 2 -0.000777 0.028598 -0.006522 0.000000 -0.001900 0.000000
# 3 -0.006434 -0.006522 0.009680 0.000000 0.002701 0.000000
# 4 0.000000 0.000000 0.000000 0.135106 0.000000 -0.018797
# 5 -0.013808 -0.001900 0.002701 0.000000 0.059146 0.000000
# 6 0.000000 0.000000 0.000000 -0.018797 0.000000 0.102559
#
#
# Mechanical properties :
#
#
# Convention : Reuss Voigt Hill
#
# Bulk Modulus (GPa) = 32.77598 60.52797 46.65197
# Shear Modulus (GPa) = 12.74141 19.51973 16.13057
#
# Velocity S-wave (km/s) = 2.59522 3.21219 2.92004
# Velocity P-wave (km/s) = 5.12890 6.76408 6.00244
#
# Compressibility (1/GPa) = 0.03051015
#
# Stress axis : x y z
#
# Youngs Moduli (GPa) = 50.76596 34.96804 103.30845
#
# Poissons Ratio (x) = 0.02717 0.66469
# Poissons Ratio (y) = 0.03945 0.67375
# Poissons Ratio (z) = 0.32663 0.22805
#
# Static dielectric constant tensor:
#      x y z
#    x 3.449760 0.000000 -0.019280 
#    y 0.000000 3.076670 0.000000 
#    z -0.019280 0.000000 3.663670 
# 
# 
# High freq. dielectric constant tensor:
#      x y z
#    x 1.722620 0.000000 -0.003480 
#    y 0.000000 1.691890 0.000000 
#    z -0.003480 0.000000 1.745930 
# 
# From -- ./inp_files/94975.got.cif
#   From: 2010.06.25/outbox.cif.g09.slc.cpg/sg10_48_cif.got.tgz:94975.got - 2010.06.27 22:07:45.
