data_PCOD8059984
_publ_section_title
;
Structure prediction by ZEFSAII (Michael W. Deem and Ramdas Pophale) SiO2 
 PCOD8059984
Probable space group: P 2/M
;
_chemical_formula_sum "Si O2"
_cell_formula_units_Z 32
_cell_length_a 15.041291
_cell_length_b 8.595129
_cell_length_c 15.086207
_cell_angle_alpha 90.000000
_cell_angle_beta 78.836631
_cell_angle_gamma 90.000000
_cell_volume 1913.469811
_symmetry_space_group_name_H-M "P 2/M"
_symmetry_group_IT_number 10
_symmetry_cell_setting 'monoclinic'
loop_
_space_group_symop_operation_xyz
x,y,z
-x,y,-z
-x,-y,-z
x,-y,z
loop_
_atom_site_type_symbol
_atom_site_label
_atom_site_fract_x
_atom_site_fract_y
_atom_site_fract_z
Si Si1 0.559643 0.818874 0.105944
Si Si2 0.306867 0.816640 0.581556
Si Si3 0.886625 0.183979 0.440460
Si Si4 0.748057 0.316678 0.743130
Si Si5 0.420561 0.681140 0.714509
Si Si6 0.917113 0.183836 0.631696
Si Si7 0.375562 0.317124 0.077021
Si Si8 0.380064 0.316519 0.389565
O O1 0.602322 0.776800 0.192312
O O2 0.469306 0.718047 0.109295
O O3 0.535935 0.000000 0.104812
O O4 0.630963 0.774779 0.014631
O O5 0.202954 0.756958 0.592134
O O6 0.345901 0.724680 0.656925
O O7 0.362544 0.775895 0.482969
O O8 0.312587 0.000000 0.597669
O O9 0.888016 0.248635 0.540643
O O10 0.978328 0.235347 0.370902
O O11 0.885638 0.000000 0.448488
O O12 0.743196 0.500000 0.741720
O O13 0.851592 0.259505 0.717464
O O14 0.705898 0.258112 0.844084
O O15 0.689197 0.253360 0.671659
O O16 0.414957 0.500000 0.737662
O O17 0.519259 0.727495 0.660072
O O18 0.906594 0.000000 0.639682
O O19 0.369690 0.500000 0.059588
O O20 0.369841 0.500000 0.409044
#
# Coordination Sequence:
#
# PCOD8059984 Si02
#       8
#     4   4   4   4   4   4   4   4
#     4  11  21  33  50  75  98 122 164 213 243 278
#     4  11  21  33  49  72  97 128 169 213 244 278
#     4   8  16  30  47  68  96 127 161 199 247 292
#     4  10  19  31  48  73 100 129 163 198 238 287
#     4  11  22  37  51  66  95 138 171 199 243 297
#     4   9  16  30  50  69  93 129 163 197 243 294
#     4  10  19  34  52  70  99 135 161 192 247 303
#     4  10  20  34  47  65  97 136 171 198 234 288
#
# _framework density 16.723545000000001
#
# number of rings (size 3 to 8) (size 9 to 14) (size 15 to 20)
#    0.000    2.000    2.500    4.125    0.000    3.500 
#    0.000    2.500    0.000    0.000    0.000    0.875 
#    0.000    7.000    0.000    0.000    0.000    0.000 
#
# Total GULP energy -396783.178633 kJ/mol
# GULP energy per Si atom -12399.474332 kJ/mol
# Density = 1.668548 g / cm^3
# Si number density = 16.723545 Si / 1000 Ang^3
#
#
#
# Elastic Constant Matrix: (Units=GPa)
#
#
# Indices 1 2 3 4 5 6 
#
# 1 93.6875 14.3566 55.1470 0.0000 -10.0337 0.0000
# 2 14.3566 30.6933 21.2092 0.0000 -1.0739 0.0000
# 3 55.1470 21.2092 117.2426 0.0000 -11.1440 0.0000
# 4 0.0000 0.0000 0.0000 19.5571 0.0000 -5.6500
# 5 -10.0337 -1.0739 -11.1440 0.0000 25.1131 0.0000
# 6 0.0000 0.0000 0.0000 -5.6500 0.0000 20.0049
#
#
#
# Elastic Compliance Matrix: (Units=1/GPa)
#
#
# Indices 1 2 3 4 5 6 
#
# 1 0.015148 -0.002580 -0.006362 0.000000 0.003119 0.000000
# 2 -0.002580 0.037725 -0.005800 0.000000 -0.001992 0.000000
# 3 -0.006362 -0.005800 0.012848 0.000000 0.002911 0.000000
# 4 0.000000 0.000000 0.000000 0.055675 0.000000 0.015724
# 5 0.003119 -0.001992 0.002911 0.000000 0.042273 0.000000
# 6 0.000000 0.000000 0.000000 0.015724 0.000000 0.054429
#
#
# Mechanical properties :
#
#
# Convention : Reuss Voigt Hill
#
# Bulk Modulus (GPa) = 27.59637 47.00543 37.30090
# Shear Modulus (GPa) = 19.25588 22.99574 21.12581
#
# Velocity S-wave (km/s) = 3.39694 3.71219 3.55806
# Velocity P-wave (km/s) = 5.65004 6.82218 6.26359
#
# Compressibility (1/GPa) = 0.03623665
#
# Stress axis : x y z
#
# Youngs Moduli (GPa) = 66.01548 26.50729 77.83474
#
# Poissons Ratio (x) = 0.06839 0.49518
# Poissons Ratio (y) = 0.17033 0.45146
# Poissons Ratio (z) = 0.41998 0.15375
#
# Static dielectric constant tensor:
#      x y z
#    x 3.258030 0.000000 -0.149950 
#    y 0.000000 2.981790 0.000000 
#    z -0.149950 0.000000 3.225220 
# 
# 
# High freq. dielectric constant tensor:
#      x y z
#    x 1.625370 0.000000 -0.012770 
#    y 0.000000 1.639820 0.000000 
#    z -0.012770 0.000000 1.634050 
# 
# From -- ./inp_files/66051.got.cif
#   From: 2010.06.25/outbox.cif.g09.slc.cpg/sg10_34_cif.got.tgz:66051.got - 2010.06.27 22:07:45.
