data_PCOD8059886
_publ_section_title
;
Structure prediction by ZEFSAII (Michael W. Deem and Ramdas Pophale) SiO2 
 PCOD8059886
Probable space group: P 2/M
;
_chemical_formula_sum "Si O2"
_cell_formula_units_Z 32
_cell_length_a 26.162555
_cell_length_b 9.033243
_cell_length_c 14.274930
_cell_angle_alpha 90.000000
_cell_angle_beta 144.710419
_cell_angle_gamma 90.000000
_cell_volume 1948.978827
_symmetry_space_group_name_H-M "P 2/M"
_symmetry_group_IT_number 10
_symmetry_cell_setting 'monoclinic'
loop_
_space_group_symop_operation_xyz
x,y,z
-x,y,-z
-x,-y,-z
x,-y,z
loop_
_atom_site_type_symbol
_atom_site_label
_atom_site_fract_x
_atom_site_fract_y
_atom_site_fract_z
Si Si1 0.594013 0.675067 0.255190
Si Si2 0.853828 0.834885 0.521894
Si Si3 0.601657 0.674592 0.054613
Si Si4 0.243656 0.169540 0.435127
Si Si5 0.782450 0.325970 0.243826
Si Si6 0.085287 0.174837 0.686255
Si Si7 0.947249 0.169782 0.150652
Si Si8 0.907673 0.324918 0.907892
O O1 0.610112 0.500000 0.287170
O O2 0.492976 0.718120 0.131838
O O3 0.658867 0.757780 0.425021
O O4 0.610498 0.734168 0.174008
O O5 0.782224 0.816302 0.495274
O O6 0.839291 0.713628 0.420519
O O7 0.948701 0.809942 0.710383
O O8 0.849810 0.000000 0.470626
O O9 0.608572 0.500000 0.072852
O O10 0.681930 0.733578 0.109598
O O11 0.175257 0.257726 0.269760
O O12 0.246745 0.000000 0.405901
O O13 0.785444 0.500000 0.231817
O O14 0.824599 0.247090 0.217036
O O15 0.076999 0.224375 0.781479
O O16 0.000000 0.231852 0.500000
O O17 0.092591 0.000000 0.687634
O O18 0.918152 0.000000 0.091982
O O19 0.899255 0.271565 0.002529
O O20 0.900604 0.500000 0.892966
O O21 0.000000 0.269728 0.000000
#
# Coordination Sequence:
#
# PCOD8059886 Si02
#       8
#     4   4   4   4   4   4   4   4
#     4   9  16  31  50  68  97 132 166 200 242 293
#     4  10  19  31  47  68  98 135 167 200 242 288
#     4   8  16  29  47  70  98 133 163 197 246 297
#     4  11  21  32  49  73 100 131 168 203 244 292
#     4  11  20  30  48  74 100 130 170 207 242 286
#     4  10  20  35  51  69  97 134 170 200 243 296
#     4  10  20  36  53  67  94 135 172 205 241 286
#     4  11  23  35  50  73 100 129 165 206 246 290
#
# _framework density 16.418855000000001
#
# number of rings (size 3 to 8) (size 9 to 14) (size 15 to 20)
#    0.000    2.000    3.750    1.875    0.000    2.250 
#    0.000    2.500    0.000    0.000    0.000    0.875 
#    0.000    7.000    0.000    0.000    0.000    0.000 
#
# Total GULP energy -396737.300905 kJ/mol
# GULP energy per Si atom -12398.040653 kJ/mol
# Density = 1.638149 g / cm^3
# Si number density = 16.418855 Si / 1000 Ang^3
#
#
#
# Elastic Constant Matrix: (Units=GPa)
#
#
# Indices 1 2 3 4 5 6 
#
# 1 81.2936 31.9809 45.7176 0.0000 7.6467 0.0000
# 2 31.9809 51.5299 41.9738 0.0000 -0.1934 0.0000
# 3 45.7176 41.9738 115.0685 0.0000 6.5777 0.0000
# 4 0.0000 0.0000 0.0000 25.7893 0.0000 -3.0269
# 5 7.6467 -0.1934 6.5777 0.0000 25.6148 0.0000
# 6 0.0000 0.0000 0.0000 -3.0269 0.0000 20.3435
#
#
#
# Elastic Compliance Matrix: (Units=1/GPa)
#
#
# Indices 1 2 3 4 5 6 
#
# 1 0.018128 -0.007977 -0.004039 0.000000 -0.004435 0.000000
# 2 -0.007977 0.031325 -0.008532 0.000000 0.004809 0.000000
# 3 -0.004039 -0.008532 0.013541 0.000000 -0.002336 0.000000
# 4 0.000000 0.000000 0.000000 0.039465 0.000000 0.005872
# 5 -0.004435 0.004809 -0.002336 0.000000 0.041000 0.000000
# 6 0.000000 0.000000 0.000000 0.005872 0.000000 0.050029
#
#
# Mechanical properties :
#
#
# Convention : Reuss Voigt Hill
#
# Bulk Modulus (GPa) = 45.66767 54.13740 49.90253
# Shear Modulus (GPa) = 20.67108 22.89750 21.78429
#
# Velocity S-wave (km/s) = 3.55207 3.73847 3.64646
# Velocity P-wave (km/s) = 6.68561 7.18882 6.94178
#
# Compressibility (1/GPa) = 0.02189733
#
# Stress axis : x y z
#
# Youngs Moduli (GPa) = 55.16342 31.92339 73.85029
#
# Poissons Ratio (x) = 0.25467 0.29828
# Poissons Ratio (y) = 0.44006 0.63008
# Poissons Ratio (z) = 0.22280 0.27237
#
# Static dielectric constant tensor:
#      x y z
#    x 3.135210 0.000000 0.227130 
#    y 0.000000 2.988440 0.000000 
#    z 0.227130 0.000000 3.065050 
# 
# 
# High freq. dielectric constant tensor:
#      x y z
#    x 1.610450 0.000000 0.011800 
#    y 0.000000 1.625080 0.000000 
#    z 0.011800 0.000000 1.621040 
# 
# From -- ./inp_files/72215.got.cif
#   From: 2010.06.25/outbox.cif.g09.slc.cpg/sg10_37_cif.got.tgz:72215.got - 2010.06.27 22:07:45.
