data_PCOD8059244
_publ_section_title
;
Structure prediction by ZEFSAII (Michael W. Deem and Ramdas Pophale) SiO2 
 PCOD8059244
Probable space group: P 2/M
;
_chemical_formula_sum "Si O2"
_cell_formula_units_Z 32
_cell_length_a 9.820659
_cell_length_b 13.373638
_cell_length_c 24.998815
_cell_angle_alpha 90.000000
_cell_angle_beta 30.381035
_cell_angle_gamma 90.000000
_cell_volume 1660.519577
_symmetry_space_group_name_H-M "P 2/M"
_symmetry_group_IT_number 10
_symmetry_cell_setting 'monoclinic'
loop_
_space_group_symop_operation_xyz
x,y,z
-x,y,-z
-x,-y,-z
x,-y,z
loop_
_atom_site_type_symbol
_atom_site_label
_atom_site_fract_x
_atom_site_fract_y
_atom_site_fract_z
Si Si1 0.896358 0.610838 0.091710
Si Si2 0.421556 0.885080 0.467788
Si Si3 0.579705 0.797536 0.846481
Si Si4 0.074043 0.205861 0.089899
Si Si5 0.944574 0.242413 0.579101
Si Si6 0.452959 0.884947 0.776829
Si Si7 0.994399 0.885837 0.226889
Si Si8 0.304248 0.387443 0.258920
O O1 0.020300 0.500000 0.057003
O O2 0.995718 0.678721 0.106667
O O3 0.575965 0.608179 0.201353
O O4 0.000000 0.656738 0.000000
O O5 0.500000 0.844127 0.500000
O O6 0.676169 0.874639 0.342484
O O7 0.181849 0.823354 0.523173
O O8 0.326935 0.000000 0.504694
O O9 0.462534 0.853242 0.834963
O O10 0.855658 0.851475 0.769984
O O11 0.646850 0.681188 0.810241
O O12 0.365611 0.812549 0.965984
O O13 0.848834 0.133348 0.141390
O O14 0.094457 0.186427 0.145844
O O15 0.669668 0.178837 0.670328
O O16 0.917928 0.339284 0.626440
O O17 0.000000 0.278020 0.500000
O O18 0.526027 0.000000 0.744456
O O19 0.069823 0.000000 0.187757
O O20 0.217117 0.500000 0.271088
#
# Coordination Sequence:
#
# PCOD8059244 Si02
#       8
#     4   4   4   4   4   4   4   4
#     4  10  18  35  62  88 114 148 194 240 289 344
#     4  10  21  39  61  80 107 155 205 240 280 337
#     4  11  22  38  59  84 115 157 199 234 277 350
#     4  12  21  36  56  88 121 153 189 232 297 342
#     4  11  22  36  58  86 115 145 185 246 299 346
#     4  11  22  35  55  84 117 151 197 243 282 340
#     4  11  25  40  57  84 123 162 195 234 285 344
#     4  10  21  38  62  88 114 148 191 243 295 347
#
# _framework density 19.271076000000001
#
# number of rings (size 3 to 8) (size 9 to 14) (size 15 to 20)
#    0.000    1.250    3.750    4.125    0.000    6.250 
#    0.000    0.625    0.000    4.875    0.000    0.000 
#    0.000    0.000    0.000    0.000    0.000    0.000 
#
# Total GULP energy -396872.393142 kJ/mol
# GULP energy per Si atom -12402.262286 kJ/mol
# Density = 1.922721 g / cm^3
# Si number density = 19.271076 Si / 1000 Ang^3
#
#
#
# Elastic Constant Matrix: (Units=GPa)
#
#
# Indices 1 2 3 4 5 6 
#
# 1 69.3266 19.7050 24.6953 0.0000 3.7206 0.0000
# 2 19.7050 110.3525 34.5660 0.0000 3.1000 0.0000
# 3 24.6953 34.5660 96.3134 0.0000 8.7182 0.0000
# 4 0.0000 0.0000 0.0000 22.0808 0.0000 -0.7466
# 5 3.7206 3.1000 8.7182 0.0000 36.0018 0.0000
# 6 0.0000 0.0000 0.0000 -0.7466 0.0000 23.7938
#
#
#
# Elastic Compliance Matrix: (Units=1/GPa)
#
#
# Indices 1 2 3 4 5 6 
#
# 1 0.016199 -0.001793 -0.003448 0.000000 -0.000685 0.000000
# 2 -0.001793 0.010408 -0.003283 0.000000 0.000084 0.000000
# 3 -0.003448 -0.003283 0.012665 0.000000 -0.002428 0.000000
# 4 0.000000 0.000000 0.000000 0.045336 0.000000 0.001423
# 5 -0.000685 0.000084 -0.002428 0.000000 0.028428 0.000000
# 6 0.000000 0.000000 0.000000 0.001423 0.000000 0.042072
#
#
# Mechanical properties :
#
#
# Convention : Reuss Voigt Hill
#
# Bulk Modulus (GPa) = 44.99791 48.21391 46.60591
# Shear Modulus (GPa) = 27.84499 29.51035 28.67767
#
# Velocity S-wave (km/s) = 3.80532 3.91746 3.86180
# Velocity P-wave (km/s) = 6.53513 6.74797 6.64241
#
# Compressibility (1/GPa) = 0.02222326
#
# Stress axis : x y z
#
# Youngs Moduli (GPa) = 61.73154 96.07870 78.95818
#
# Poissons Ratio (x) = 0.17230 0.27225
# Poissons Ratio (y) = 0.11071 0.25923
# Poissons Ratio (z) = 0.21285 0.31544
#
# Static dielectric constant tensor:
#      x y z
#    x 3.341820 0.000000 0.025530 
#    y 0.000000 3.678170 0.000000 
#    z 0.025530 0.000000 3.658770 
# 
# 
# High freq. dielectric constant tensor:
#      x y z
#    x 1.734820 0.000000 -0.001110 
#    y 0.000000 1.743580 0.000000 
#    z -0.001110 0.000000 1.759930 
# 
# From -- ./inp_files/51639.got.cif
#   From: 2010.06.25/outbox.cif.g09.slc.cpg/sg10_26_cif.got.tgz:51639.got - 2010.06.27 22:07:45.
