data_PCOD8059100
_publ_section_title
;
Structure prediction by ZEFSAII (Michael W. Deem and Ramdas Pophale) SiO2 
 PCOD8059100
Probable space group: P 2/M
;
_chemical_formula_sum "Si O2"
_cell_formula_units_Z 30
_cell_length_a 19.419706
_cell_length_b 15.844442
_cell_length_c 13.677827
_cell_angle_alpha 90.000000
_cell_angle_beta 20.953728
_cell_angle_gamma 90.000000
_cell_volume 1505.050478
_symmetry_space_group_name_H-M "P 2/M"
_symmetry_group_IT_number 10
_symmetry_cell_setting 'monoclinic'
loop_
_space_group_symop_operation_xyz
x,y,z
-x,y,-z
-x,-y,-z
x,-y,z
loop_
_atom_site_type_symbol
_atom_site_label
_atom_site_fract_x
_atom_site_fract_y
_atom_site_fract_z
Si Si1 0.500000 0.670865 0.000000
Si Si2 0.806776 0.664358 0.306293
Si Si3 0.860071 0.245797 0.437168
Si Si4 0.953672 0.091803 0.870488
Si Si5 0.442994 0.406468 0.868829
Si Si6 0.643107 0.183213 0.400118
Si Si7 0.332214 0.092911 0.928994
Si Si8 0.153234 0.260378 0.213766
O O1 0.679410 0.733187 0.745033
O O2 0.467695 0.610638 0.951058
O O3 0.869484 0.700365 0.327349
O O4 0.647436 0.593277 0.540876
O O5 0.704095 0.731908 0.373162
O O6 0.000000 0.626560 0.000000
O O7 0.859123 0.146871 0.408192
O O8 0.056951 0.262495 0.235037
O O9 0.026325 0.000000 0.809104
O O10 0.839470 0.137947 0.108522
O O11 0.812140 0.080986 0.968057
O O12 0.352798 0.500000 0.975710
O O13 0.308443 0.334582 0.002444
O O14 0.500000 0.205197 0.500000
O O15 0.540006 0.120277 0.612844
O O16 0.348104 0.000000 0.960830
O O17 0.253139 0.168990 0.103287
O O18 0.000000 0.280527 0.500000
#
# Coordination Sequence:
#
# PCOD8059100 Si02
#       8
#     2   4   4   4   4   4   4   4
#     4  10  21  42  63  84 120 158 199 244 314 366
#     4  11  22  38  62  90 123 163 195 238 316 372
#     4  10  21  37  60  85 122 163 199 246 300 363
#     4   9  17  31  54  86 119 156 206 252 293 348
#     4  11  24  42  66  92 119 152 203 257 307 365
#     4  10  18  33  58  84 117 160 209 249 293 349
#     4   9  18  32  55  87 119 157 206 250 297 351
#     4  11  21  39  62  89 117 160 206 258 299 347
#
# _framework density 19.932887000000001
#
# number of rings (size 3 to 8) (size 9 to 14) (size 15 to 20)
#    0.000    1.867    4.000    0.600    0.000    2.400 
#    0.000    3.000    0.000    2.800    0.000    0.000 
#    0.000    0.000    0.000    0.000    0.000    0.000 
#
# Total GULP energy -371818.296051 kJ/mol
# GULP energy per Si atom -12393.943202 kJ/mol
# Density = 1.988752 g / cm^3
# Si number density = 19.932887 Si / 1000 Ang^3
#
#
#
# Elastic Constant Matrix: (Units=GPa)
#
#
# Indices 1 2 3 4 5 6 
#
# 1 61.3683 25.6142 18.7386 0.0000 -1.0101 0.0000
# 2 25.6142 121.0296 55.0223 0.0000 -2.8931 0.0000
# 3 18.7386 55.0223 121.1536 0.0000 15.7929 0.0000
# 4 0.0000 0.0000 0.0000 19.1176 0.0000 0.4256
# 5 -1.0101 -2.8931 15.7929 0.0000 23.3020 0.0000
# 6 0.0000 0.0000 0.0000 0.4256 0.0000 15.0887
#
#
#
# Elastic Compliance Matrix: (Units=1/GPa)
#
#
# Indices 1 2 3 4 5 6 
#
# 1 0.018087 -0.003065 -0.001599 0.000000 0.001487 0.000000
# 2 -0.003065 0.011476 -0.005381 0.000000 0.004939 0.000000
# 3 -0.001599 -0.005381 0.012112 0.000000 -0.008946 0.000000
# 4 0.000000 0.000000 0.000000 0.052341 0.000000 -0.001476
# 5 0.001487 0.004939 -0.008946 0.000000 0.049656 0.000000
# 6 0.000000 0.000000 0.000000 -0.001476 0.000000 0.066317
#
#
# Mechanical properties :
#
#
# Convention : Reuss Voigt Hill
#
# Bulk Modulus (GPa) = 46.33406 55.81129 51.07268
# Shear Modulus (GPa) = 21.07271 25.11342 23.09307
#
# Velocity S-wave (km/s) = 3.25496 3.55336 3.40743
# Velocity P-wave (km/s) = 6.11734 6.70041 6.41550
#
# Compressibility (1/GPa) = 0.02158239
#
# Stress axis : x y z
#
# Youngs Moduli (GPa) = 55.28749 87.14018 82.56597
#
# Poissons Ratio (x) = 0.26711 0.13205
# Poissons Ratio (y) = 0.16947 0.44433
# Poissons Ratio (z) = 0.08842 0.46894
#
# Static dielectric constant tensor:
#      x y z
#    x 3.518040 0.000000 0.028270 
#    y 0.000000 3.667550 0.000000 
#    z 0.028270 0.000000 3.925430 
# 
# 
# High freq. dielectric constant tensor:
#      x y z
#    x 1.764540 0.000000 0.003930 
#    y 0.000000 1.765440 0.000000 
#    z 0.003930 0.000000 1.782940 
# 
# From -- ./inp_files/70712.got.cif
#   From: 2010.06.25/outbox.cif.g09.slc.cpg/sg10_36_cif.got.tgz:70712.got - 2010.06.27 22:07:45.
