data_PCOD8059756
_publ_section_title
;
Structure prediction by ZEFSAII (Michael W. Deem and Ramdas Pophale) SiO2 
 PCOD8059756
Probable space group: P 2/M
;
_chemical_formula_sum "Si O2"
_cell_formula_units_Z 28
_cell_length_a 9.692861
_cell_length_b 13.846866
_cell_length_c 18.891112
_cell_angle_alpha 90.000000
_cell_angle_beta 39.612633
_cell_angle_gamma 90.000000
_cell_volume 1616.609494
_symmetry_space_group_name_H-M "P 2/M"
_symmetry_group_IT_number 10
_symmetry_cell_setting 'monoclinic'
loop_
_space_group_symop_operation_xyz
x,y,z
-x,y,-z
-x,-y,-z
x,-y,z
loop_
_atom_site_type_symbol
_atom_site_label
_atom_site_fract_x
_atom_site_fract_y
_atom_site_fract_z
Si Si1 0.613218 0.609272 0.028027
Si Si2 0.693669 0.222023 0.220179
Si Si3 0.882826 0.110659 0.928796
Si Si4 0.083287 0.113011 0.248896
Si Si5 0.111953 0.610199 0.794392
Si Si6 0.486714 0.793433 0.158429
Si Si7 0.300848 0.236465 0.627644
O O1 0.556219 0.500000 0.074353
O O2 0.524636 0.682094 0.122188
O O3 0.500000 0.636642 0.000000
O O4 0.866444 0.621538 0.915423
O O5 0.743576 0.337909 0.201757
O O6 0.515468 0.197936 0.231940
O O7 0.614282 0.190728 0.330756
O O8 0.921018 0.169244 0.113595
O O9 0.854280 0.132819 0.857070
O O10 0.934869 0.000000 0.922354
O O11 0.657076 0.137650 0.053029
O O12 0.249050 0.169032 0.234096
O O13 0.845433 0.158040 0.355876
O O14 0.081208 0.000000 0.268700
O O15 0.183397 0.500000 0.757049
O O16 0.156801 0.667664 0.702703
O O17 0.500000 0.266401 0.500000
#
# Coordination Sequence:
#
# PCOD8059756 Si02
#       7
#     4   4   4   4   4   4   4
#     4  10  19  30  49  76 109 146 175 203 247 307
#     4   9  21  33  47  79 105 136 172 216 258 304
#     4  10  19  32  50  73 107 146 178 203 243 306
#     4  10  21  35  54  80 105 138 180 217 257 311
#     4   9  18  34  53  78 106 134 179 216 252 311
#     4  12  19  31  50  75 113 140 171 209 256 302
#     4   9  19  39  59  75  97 135 175 226 275 316
#
# _framework density 17.320201000000001
#
# number of rings (size 3 to 8) (size 9 to 14) (size 15 to 20)
#    0.857    1.286    1.429    3.000    0.000    4.000 
#    0.000    2.143    0.000    0.857    0.000    1.000 
#    0.000    0.000    0.000    0.000    0.000    0.000 
#
# Total GULP energy -347014.348166 kJ/mol
# GULP energy per Si atom -12393.369577 kJ/mol
# Density = 1.728078 g / cm^3
# Si number density = 17.320201 Si / 1000 Ang^3
#
#
#
# Elastic Constant Matrix: (Units=GPa)
#
#
# Indices 1 2 3 4 5 6 
#
# 1 116.6147 44.6631 21.2546 0.0000 -1.9539 0.0000
# 2 44.6631 107.6882 35.6062 0.0000 -5.4782 0.0000
# 3 21.2546 35.6062 37.3162 0.0000 -3.0956 0.0000
# 4 0.0000 0.0000 0.0000 -8.3612 0.0000 -16.6647
# 5 -1.9539 -5.4782 -3.0956 0.0000 8.9823 0.0000
# 6 0.0000 0.0000 0.0000 -16.6647 0.0000 7.3014
#
#
#
# Elastic Compliance Matrix: (Units=1/GPa)
#
#
# Indices 1 2 3 4 5 6 
#
# 1 0.010374 -0.003458 -0.002674 0.000000 -0.000774 0.000000
# 2 -0.003458 0.014854 -0.011854 0.000000 0.004222 0.000000
# 3 -0.002674 -0.011854 0.040131 0.000000 0.006019 0.000000
# 4 0.000000 0.000000 0.000000 -0.021553 0.000000 -0.049193
# 5 -0.000774 0.004222 0.006019 0.000000 0.115812 0.000000
# 6 0.000000 0.000000 0.000000 -0.049193 0.000000 0.024682
#
#
# Mechanical properties :
#
#
# Convention : Reuss Voigt Hill
#
# Bulk Modulus (GPa) = 34.02694 51.62968 42.82831
# Shear Modulus (GPa) = 21.73290 12.25752 16.99521
#
# Velocity S-wave (km/s) = 3.54612 2.66315 3.13587
# Velocity P-wave (km/s) = 6.03780 6.27138 6.15570
#
# Compressibility (1/GPa) = 0.02938848
#
# Stress axis : x y z
#
# Youngs Moduli (GPa) = 96.39540 67.32016 24.91852
#
# Poissons Ratio (x) = 0.23279 0.06662
# Poissons Ratio (y) = 0.33333 0.29538
# Poissons Ratio (z) = 0.25772 0.79801
#
# Static dielectric constant tensor:
#      x y z
#    x 3.160200 0.000000 -0.020430 
#    y 0.000000 3.388240 0.000000 
#    z -0.020430 0.000000 2.800440 
# 
# 
# High freq. dielectric constant tensor:
#      x y z
#    x 1.661670 0.000000 -0.004440 
#    y 0.000000 1.679250 0.000000 
#    z -0.004440 0.000000 1.626340 
# 
# From -- ./inp_files/75270.got.cif
#   From: 2010.06.25/outbox.cif.g09.slc.cpg/sg10_38_cif.got.tgz:75270.got - 2010.06.27 22:07:45.
