data_PCOD8059933
_publ_section_title
;
Structure prediction by ZEFSAII (Michael W. Deem and Ramdas Pophale) SiO2 
 PCOD8059933
Probable space group: P 2/M
;
_chemical_formula_sum "Si O2"
_cell_formula_units_Z 28
_cell_length_a 9.542264
_cell_length_b 9.111048
_cell_length_c 26.835246
_cell_angle_alpha 90.000000
_cell_angle_beta 140.460970
_cell_angle_gamma 90.000000
_cell_volume 1485.232709
_symmetry_space_group_name_H-M "P 2/M"
_symmetry_group_IT_number 10
_symmetry_cell_setting 'monoclinic'
loop_
_space_group_symop_operation_xyz
x,y,z
-x,y,-z
-x,-y,-z
x,-y,z
loop_
_atom_site_type_symbol
_atom_site_label
_atom_site_fract_x
_atom_site_fract_y
_atom_site_fract_z
Si Si1 0.261885 0.666815 0.322556
Si Si2 0.417907 0.173917 0.744300
Si Si3 0.064522 0.832455 0.570613
Si Si4 0.713642 0.672495 0.090118
Si Si5 0.590675 0.833200 0.473365
Si Si6 0.182071 0.334782 0.185724
Si Si7 0.820283 0.825702 0.219639
O O1 0.236833 0.500000 0.334044
O O2 0.494532 0.733919 0.402937
O O3 0.267434 0.676611 0.265073
O O4 0.064282 0.760491 0.292188
O O5 0.265674 0.238676 0.657257
O O6 0.666206 0.234264 0.807785
O O7 0.320397 0.222301 0.770769
O O8 0.423895 0.000000 0.742347
O O9 0.000000 0.754732 0.500000
O O10 0.853085 0.822867 0.548115
O O11 0.130501 0.000000 0.576441
O O12 0.730046 0.500000 0.107683
O O13 0.701185 0.760662 0.138235
O O14 0.927245 0.718472 0.115801
O O15 0.500000 0.712830 0.000000
O O16 0.500000 0.769655 0.500000
O O17 0.511948 0.000000 0.443112
O O18 0.199477 0.500000 0.169960
O O19 0.837177 0.000000 0.219252
#
# Coordination Sequence:
#
# PCOD8059933 Si02
#       7
#     4   4   4   4   4   4   4
#     4  10  20  34  51  73 102 137 179 221 263 315
#     4  10  20  34  52  76 106 139 176 218 264 314
#     4   9  17  29  46  68  95 131 174 216 260 307
#     4   9  19  38  61  83 108 137 171 211 255 309
#     4  10  19  31  48  69  95 130 174 224 271 312
#     4   9  19  34  53  77 102 132 171 211 254 309
#     4  10  20  34  54  80 108 139 176 216 260 313
#
# _framework density 18.852263000000001
#
# number of rings (size 3 to 8) (size 9 to 14) (size 15 to 20)
#    0.000    2.429    0.000    3.429    0.000    8.000 
#    0.000    1.429    0.000    6.857    0.000    0.000 
#    0.000    0.000    0.000    0.000    0.000    0.000 
#
# Total GULP energy -347139.668746 kJ/mol
# GULP energy per Si atom -12397.845312 kJ/mol
# Density = 1.880935 g / cm^3
# Si number density = 18.852263 Si / 1000 Ang^3
#
#
#
# Elastic Constant Matrix: (Units=GPa)
#
#
# Indices 1 2 3 4 5 6 
#
# 1 106.7116 30.0385 28.6878 0.0000 8.6017 0.0000
# 2 30.0385 55.1658 28.1096 0.0000 0.9152 0.0000
# 3 28.6878 28.1096 96.7990 0.0000 12.2607 0.0000
# 4 0.0000 0.0000 0.0000 22.0478 0.0000 1.2682
# 5 8.6017 0.9152 12.2607 0.0000 20.9878 0.0000
# 6 0.0000 0.0000 0.0000 1.2682 0.0000 23.8904
#
#
#
# Elastic Compliance Matrix: (Units=1/GPa)
#
#
# Indices 1 2 3 4 5 6 
#
# 1 0.011601 -0.005567 -0.001350 0.000000 -0.003723 0.000000
# 2 -0.005567 0.024111 -0.005948 0.000000 0.004705 0.000000
# 3 -0.001350 -0.005948 0.013342 0.000000 -0.006982 0.000000
# 4 0.000000 0.000000 0.000000 0.045495 0.000000 -0.002415
# 5 -0.003723 0.004705 -0.006982 0.000000 0.053046 0.000000
# 6 0.000000 0.000000 0.000000 -0.002415 0.000000 0.041986
#
#
# Mechanical properties :
#
#
# Convention : Reuss Voigt Hill
#
# Bulk Modulus (GPa) = 42.87275 48.03868 45.45571
# Shear Modulus (GPa) = 22.41283 24.84124 23.62704
#
# Velocity S-wave (km/s) = 3.45174 3.63392 3.54400
# Velocity P-wave (km/s) = 6.21907 6.56842 6.39613
#
# Compressibility (1/GPa) = 0.02332484
#
# Stress axis : x y z
#
# Youngs Moduli (GPa) = 86.19747 41.47435 74.95012
#
# Poissons Ratio (x) = 0.23091 0.10117
# Poissons Ratio (y) = 0.47990 0.44578
# Poissons Ratio (z) = 0.11635 0.24667
#
# Static dielectric constant tensor:
#      x y z
#    x 3.465570 0.000000 0.074720 
#    y 0.000000 3.280800 0.000000 
#    z 0.074720 0.000000 3.427650 
# 
# 
# High freq. dielectric constant tensor:
#      x y z
#    x 1.735980 0.000000 0.008190 
#    y 0.000000 1.710320 0.000000 
#    z 0.008190 0.000000 1.723390 
# 
# From -- ./inp_files/37101.got.cif
#   From: 2010.06.25/outbox.cif.g09.slc.cpg/sg10_19_cif.got.tgz:37101.got - 2010.06.27 22:07:45.
