data_PCOD8059253
_publ_section_title
;
Structure prediction by ZEFSAII (Michael W. Deem and Ramdas Pophale) SiO2 
 PCOD8059253
Probable space group: P 2/M
;
_chemical_formula_sum "Si O2"
_cell_formula_units_Z 32
_cell_length_a 17.803180
_cell_length_b 19.417923
_cell_length_c 17.129755
_cell_angle_alpha 90.000000
_cell_angle_beta 163.273076
_cell_angle_gamma 90.000000
_cell_volume 1704.347959
_symmetry_space_group_name_H-M "P 2/M"
_symmetry_group_IT_number 10
_symmetry_cell_setting 'monoclinic'
loop_
_space_group_symop_operation_xyz
x,y,z
-x,y,-z
-x,-y,-z
x,-y,z
loop_
_atom_site_type_symbol
_atom_site_label
_atom_site_fract_x
_atom_site_fract_y
_atom_site_fract_z
Si Si1 0.541950 0.080068 0.633312
Si Si2 0.519466 0.253564 0.875005
Si Si3 0.973267 0.722676 0.719643
Si Si4 0.990696 0.925960 0.674469
Si Si5 0.489402 0.398675 0.900988
Si Si6 0.511885 0.893416 0.923997
Si Si7 0.966741 0.848492 0.805212
Si Si8 0.002153 0.425191 0.691813
O O1 0.500000 0.082182 0.500000
O O2 0.311501 0.121598 0.445919
O O3 0.554305 0.000000 0.674252
O O4 0.810902 0.120389 0.917723
O O5 0.498839 0.316460 0.913980
O O6 0.531057 0.188647 0.942649
O O7 0.278590 0.250791 0.576389
O O8 0.775457 0.255938 0.077957
O O9 0.972924 0.638230 0.725230
O O10 0.971444 0.763842 0.802325
O O11 0.740325 0.916531 0.372863
O O12 0.023502 0.868906 0.772832
O O13 0.971066 0.000000 0.697485
O O14 0.239190 0.927336 0.866857
O O15 0.220827 0.422444 0.595286
O O16 0.500000 0.427492 0.000000
O O17 0.725347 0.425051 0.082703
O O18 0.500000 0.920430 0.000000
O O19 0.983108 0.500000 0.716394
#
# Coordination Sequence:
#
# PCOD8059253 Si02
#       8
#     4   4   4   4   4   4   4   4
#     4  11  24  40  61  92 125 151 175 212 271 333
#     4  10  18  36  50  73  98 131 180 235 281 324
#     4  10  20  35  57  77 104 136 184 226 262 314
#     4  12  25  38  54  77 101 136 187 233 278 329
#     4  10  20  31  49  71  97 134 179 223 281 347
#     4  12  23  37  54  70 100 138 184 243 294 328
#     4  12  21  40  63  83 113 150 188 224 263 323
#     4  10  21  34  50  73 106 137 171 229 283 325
#
# _framework density 18.775507999999999
#
# number of rings (size 3 to 8) (size 9 to 14) (size 15 to 20)
#    0.000    1.125    2.500    4.875    0.000    4.000 
#    0.000    3.750    0.000    0.000    0.000    0.000 
#    0.000    3.000    0.000    0.000    0.000    0.000 
#
# Total GULP energy -396630.749564 kJ/mol
# GULP energy per Si atom -12394.710924 kJ/mol
# Density = 1.873277 g / cm^3
# Si number density = 18.775508 Si / 1000 Ang^3
#
#
#
# Elastic Constant Matrix: (Units=GPa)
#
#
# Indices 1 2 3 4 5 6 
#
# 1 42.3537 21.9036 9.8673 0.0000 -8.7465 0.0000
# 2 21.9036 146.9850 11.0859 0.0000 -5.0855 0.0000
# 3 9.8673 11.0859 105.5179 0.0000 2.4490 0.0000
# 4 0.0000 0.0000 0.0000 36.7626 0.0000 -0.8230
# 5 -8.7465 -5.0855 2.4490 0.0000 21.8077 0.0000
# 6 0.0000 0.0000 0.0000 -0.8230 0.0000 13.2622
#
#
#
# Elastic Compliance Matrix: (Units=1/GPa)
#
#
# Indices 1 2 3 4 5 6 
#
# 1 0.028315 -0.003657 -0.002514 0.000000 0.010786 0.000000
# 2 -0.003657 0.007392 -0.000442 0.000000 0.000307 0.000000
# 3 -0.002514 -0.000442 0.009810 0.000000 -0.002213 0.000000
# 4 0.000000 0.000000 0.000000 0.027239 0.000000 0.001690
# 5 0.010786 0.000307 -0.002213 0.000000 0.050501 0.000000
# 6 0.000000 0.000000 0.000000 0.001690 0.000000 0.075507
#
#
# Mechanical properties :
#
#
# Convention : Reuss Voigt Hill
#
# Bulk Modulus (GPa) = 30.96727 42.28558 36.62643
# Shear Modulus (GPa) = 22.44631 31.16650 26.80641
#
# Velocity S-wave (km/s) = 3.46137 4.07867 3.78263
# Velocity P-wave (km/s) = 5.70123 6.68964 6.21512
#
# Compressibility (1/GPa) = 0.03229216
#
# Stress axis : x y z
#
# Youngs Moduli (GPa) = 35.31713 135.27649 101.93746
#
# Poissons Ratio (x) = 0.49466 0.25627
# Poissons Ratio (y) = 0.12914 0.04504
# Poissons Ratio (z) = 0.08879 0.05977
#
# Static dielectric constant tensor:
#      x y z
#    x 3.088790 0.000000 0.095480 
#    y 0.000000 3.785980 0.000000 
#    z 0.095480 0.000000 3.690280 
# 
# 
# High freq. dielectric constant tensor:
#      x y z
#    x 1.679820 0.000000 0.017850 
#    y 0.000000 1.747230 0.000000 
#    z 0.017850 0.000000 1.751980 
# 
# From -- ./inp_files/67936.got.cif
#   From: 2010.06.25/outbox.cif.g09.slc.cpg/sg10_34_cif.got.tgz:67936.got - 2010.06.27 22:07:45.
