data_PCOD8059426
_publ_section_title
;
Structure prediction by ZEFSAII (Michael W. Deem and Ramdas Pophale) SiO2 
 PCOD8059426
Probable space group: P 2/M
;
_chemical_formula_sum "Si O2"
_cell_formula_units_Z 24
_cell_length_a 11.487423
_cell_length_b 8.876811
_cell_length_c 20.208616
_cell_angle_alpha 90.000000
_cell_angle_beta 42.663835
_cell_angle_gamma 90.000000
_cell_volume 1396.531903
_symmetry_space_group_name_H-M "P 2/M"
_symmetry_group_IT_number 10
_symmetry_cell_setting 'monoclinic'
loop_
_space_group_symop_operation_xyz
x,y,z
-x,y,-z
-x,-y,-z
x,-y,z
loop_
_atom_site_type_symbol
_atom_site_label
_atom_site_fract_x
_atom_site_fract_y
_atom_site_fract_z
Si Si1 0.308395 0.678951 0.589932
Si Si2 0.226650 0.176166 0.365553
Si Si3 0.127624 0.666489 0.008088
Si Si4 0.184732 0.320797 0.782523
Si Si5 0.900084 0.679551 0.450419
Si Si6 0.615719 0.826446 0.183777
O O1 0.500000 0.744351 0.500000
O O2 0.315433 0.500000 0.589548
O O3 0.230367 0.742483 0.690990
O O4 0.188221 0.733290 0.580411
O O5 0.212746 0.255930 0.442434
O O6 0.414602 0.204013 0.257175
O O7 0.091107 0.251151 0.371930
O O8 0.186010 0.000000 0.390915
O O9 0.199735 0.500000 0.994272
O O10 0.011359 0.729585 0.117527
O O11 0.288052 0.772851 0.923449
O O12 0.000000 0.657949 0.000000
O O13 0.197100 0.500000 0.780734
O O14 0.322643 0.259950 0.776941
O O15 0.909495 0.500000 0.452545
O O16 0.657400 0.000000 0.177578
#
# Coordination Sequence:
#
# PCOD8059426 Si02
#       6
#     4   4   4   4   4   4
#     4   9  17  29  47  71  96 119 145 182 225 269
#     4  10  20  33  47  65  94 125 150 187 233 266
#     4   8  15  27  44  66  91 120 150 185 230 271
#     4   9  17  30  47  68  96 124 148 182 231 276
#     4  10  19  31  50  72  90 117 156 188 220 268
#     4  10  19  29  45  69  93 120 155 190 225 267
#
# _framework density 17.185428999999999
#
# number of rings (size 3 to 8) (size 9 to 14) (size 15 to 20)
#    0.000    2.667    0.000    4.500    0.000    7.000 
#    0.000    1.667    0.000    5.500    0.000    7.000 
#    0.000    0.000    0.000    0.000    0.000    0.000 
#
# Total GULP energy -297510.816334 kJ/mol
# GULP energy per Si atom -12396.284014 kJ/mol
# Density = 1.714631 g / cm^3
# Si number density = 17.185429 Si / 1000 Ang^3
#
#
#
# Elastic Constant Matrix: (Units=GPa)
#
#
# Indices 1 2 3 4 5 6 
#
# 1 102.1385 32.7194 72.6687 0.0000 -0.0751 0.0000
# 2 32.7194 61.2087 41.7257 0.0000 -8.8964 0.0000
# 3 72.6687 41.7257 162.1893 0.0000 -6.4254 0.0000
# 4 0.0000 0.0000 0.0000 22.7680 0.0000 -9.8696
# 5 -0.0751 -8.8964 -6.4254 0.0000 25.5654 0.0000
# 6 0.0000 0.0000 0.0000 -9.8696 0.0000 10.1128
#
#
#
# Elastic Compliance Matrix: (Units=1/GPa)
#
#
# Indices 1 2 3 4 5 6 
#
# 1 0.015449 -0.004733 -0.005826 0.000000 -0.003066 0.000000
# 2 -0.004733 0.022110 -0.003296 0.000000 0.006852 0.000000
# 3 -0.005826 -0.003296 0.009674 0.000000 0.001267 0.000000
# 4 0.000000 0.000000 0.000000 0.076127 0.000000 0.074296
# 5 -0.003066 0.006852 0.001267 0.000000 0.041809 0.000000
# 6 0.000000 0.000000 0.000000 0.074296 0.000000 0.171393
#
#
# Mechanical properties :
#
#
# Convention : Reuss Voigt Hill
#
# Bulk Modulus (GPa) = 51.21879 68.86266 60.04072
# Shear Modulus (GPa) = 13.48502 23.58409 18.53456
#
# Velocity S-wave (km/s) = 2.80425 3.70852 3.28762
# Velocity P-wave (km/s) = 6.35243 7.64819 7.03023
#
# Compressibility (1/GPa) = 0.01952408
#
# Stress axis : x y z
#
# Youngs Moduli (GPa) = 64.72701 45.22763 103.36751
#
# Poissons Ratio (x) = 0.21405 0.60222
# Poissons Ratio (y) = 0.30633 0.34073
# Poissons Ratio (z) = 0.37710 0.14909
#
# Static dielectric constant tensor:
#      x y z
#    x 3.037180 0.000000 0.017100 
#    y 0.000000 3.116420 0.000000 
#    z 0.017100 0.000000 3.686720 
# 
# 
# High freq. dielectric constant tensor:
#      x y z
#    x 1.631890 0.000000 -0.009670 
#    y 0.000000 1.653870 0.000000 
#    z -0.009670 0.000000 1.674680 
# 
# From -- ./inp_files/83287.got.cif
#   From: 2010.06.25/outbox.cif.g09.slc.cpg/sg10_42_cif.got.tgz:83287.got - 2010.06.27 22:07:45.
