data_PCOD8059044
_publ_section_title
;
Structure prediction by ZEFSAII (Michael W. Deem and Ramdas Pophale) SiO2 
 PCOD8059044
Probable space group: P 2/M
;
_chemical_formula_sum "Si O2"
_cell_formula_units_Z 32
_cell_length_a 14.534626
_cell_length_b 19.567251
_cell_length_c 8.920709
_cell_angle_alpha 90.000000
_cell_angle_beta 142.027281
_cell_angle_gamma 90.000000
_cell_volume 1561.026314
_symmetry_space_group_name_H-M "P 2/M"
_symmetry_group_IT_number 10
_symmetry_cell_setting 'monoclinic'
loop_
_space_group_symop_operation_xyz
x,y,z
-x,y,-z
-x,-y,-z
x,-y,z
loop_
_atom_site_type_symbol
_atom_site_label
_atom_site_fract_x
_atom_site_fract_y
_atom_site_fract_z
Si Si1 0.204868 0.250499 0.660067
Si Si2 0.451731 0.750887 0.610769
Si Si3 0.164612 0.304632 0.145877
Si Si4 0.658157 0.422759 0.772643
Si Si5 0.391485 0.360919 0.993191
Si Si6 0.617592 0.140423 0.269862
Si Si7 0.092214 0.798157 0.818494
Si Si8 0.062303 0.078419 0.246204
O O1 0.337834 0.212213 0.747503
O O2 0.183307 0.205380 0.783018
O O3 0.053336 0.250380 0.371494
O O4 0.240064 0.331088 0.725043
O O5 0.500000 0.747506 0.500000
O O6 0.288650 0.714408 0.429515
O O7 0.560566 0.705784 0.851357
O O8 0.457811 0.830834 0.673277
O O9 0.209948 0.373579 0.115199
O O10 0.184163 0.235962 0.070444
O O11 0.000000 0.315074 0.000000
O O12 0.500000 0.398603 0.500000
O O13 0.696275 0.500000 0.772242
O O14 0.642901 0.421486 0.934483
O O15 0.500000 0.387093 0.000000
O O16 0.760792 0.093967 0.498744
O O17 0.500000 0.104175 0.000000
O O18 0.041698 0.876385 0.779324
O O19 0.035103 0.000000 0.253181
O O20 0.000000 0.094206 0.000000
#
# Coordination Sequence:
#
# PCOD8059044 Si02
#       8
#     4   4   4   4   4   4   4   4
#     4  10  18  33  55  89 121 148 188 258 314 350
#     4  12  20  35  60  96 119 158 208 261 312 366
#     4  12  22  34  61  90 124 155 209 259 310 358
#     4  11  24  43  62  87 126 167 207 250 307 383
#     4  12  20  36  63  87 121 154 202 257 306 364
#     4  11  21  35  59  94 123 153 205 267 323 359
#     4  10  20  33  57  90 117 153 203 252 301 365
#     4  10  22  41  60  84 126 173 208 250 317 391
#
# _framework density 20.499333
#
# number of rings (size 3 to 8) (size 9 to 14) (size 15 to 20)
#    0.000    1.000    6.250    2.625    0.000    0.750 
#    0.000    5.000    0.000    1.875    0.000    0.000 
#    0.000    0.000    0.000    0.000    0.000    0.000 
#
# Total GULP energy -396526.107078 kJ/mol
# GULP energy per Si atom -12391.440846 kJ/mol
# Density = 2.045268 g / cm^3
# Si number density = 20.499333 Si / 1000 Ang^3
#
#
#
# Elastic Constant Matrix: (Units=GPa)
#
#
# Indices 1 2 3 4 5 6 
#
# 1 63.0744 18.1938 14.9975 0.0000 1.7095 0.0000
# 2 18.1938 84.5080 22.9303 0.0000 2.6342 0.0000
# 3 14.9975 22.9303 88.0379 0.0000 6.9593 0.0000
# 4 0.0000 0.0000 0.0000 20.4673 0.0000 -1.6752
# 5 1.7095 2.6342 6.9593 0.0000 26.1534 0.0000
# 6 0.0000 0.0000 0.0000 -1.6752 0.0000 24.2350
#
#
#
# Elastic Compliance Matrix: (Units=1/GPa)
#
#
# Indices 1 2 3 4 5 6 
#
# 1 0.017267 -0.003139 -0.002104 0.000000 -0.000253 0.000000
# 2 -0.003139 0.013308 -0.002903 0.000000 -0.000363 0.000000
# 3 -0.002104 -0.002903 0.012707 0.000000 -0.002951 0.000000
# 4 0.000000 0.000000 0.000000 0.049137 0.000000 0.003396
# 5 -0.000253 -0.000363 -0.002951 0.000000 0.039074 0.000000
# 6 0.000000 0.000000 0.000000 0.003396 0.000000 0.041497
#
#
# Mechanical properties :
#
#
# Convention : Reuss Voigt Hill
#
# Bulk Modulus (GPa) = 37.05031 38.65150 37.85091
# Shear Modulus (GPa) = 25.21725 26.13771 25.67748
#
# Velocity S-wave (km/s) = 3.51115 3.57466 3.54305
# Velocity P-wave (km/s) = 5.87799 5.99446 5.93651
#
# Compressibility (1/GPa) = 0.02699033
#
# Stress axis : x y z
#
# Youngs Moduli (GPa) = 57.91476 75.14356 78.69979
#
# Poissons Ratio (x) = 0.23585 0.16558
# Poissons Ratio (y) = 0.18177 0.22845
# Poissons Ratio (z) = 0.12185 0.21813
#
# Static dielectric constant tensor:
#      x y z
#    x 3.734800 0.000000 -0.087760 
#    y 0.000000 3.336860 0.000000 
#    z -0.087760 0.000000 4.202060 
# 
# 
# High freq. dielectric constant tensor:
#      x y z
#    x 1.802850 0.000000 -0.006190 
#    y 0.000000 1.759660 0.000000 
#    z -0.006190 0.000000 1.821890 
# 
# From -- ./inp_files/30312.got.cif
#   From: 2010.06.25/outbox.cif.g09.slc.cpg/sg10_16_cif.got.tgz:30312.got - 2010.06.27 22:07:45.
