data_PCOD8059819
_publ_section_title
;
Structure prediction by ZEFSAII (Michael W. Deem and Ramdas Pophale) SiO2 
 PCOD8059819
Probable space group: P 2/M
;
_chemical_formula_sum "Si O2"
_cell_formula_units_Z 32
_cell_length_a 16.567671
_cell_length_b 8.816848
_cell_length_c 13.968930
_cell_angle_alpha 90.000000
_cell_angle_beta 84.739649
_cell_angle_gamma 90.000000
_cell_volume 2031.912542
_symmetry_space_group_name_H-M "P 2/M"
_symmetry_group_IT_number 10
_symmetry_cell_setting 'monoclinic'
loop_
_space_group_symop_operation_xyz
x,y,z
-x,y,-z
-x,-y,-z
x,-y,z
loop_
_atom_site_type_symbol
_atom_site_label
_atom_site_fract_x
_atom_site_fract_y
_atom_site_fract_z
Si Si1 0.729353 0.178530 0.810462
Si Si2 0.092108 0.833111 0.522816
Si Si3 0.398758 0.668755 0.921376
Si Si4 0.231355 0.680622 0.992794
Si Si5 0.856270 0.677413 0.663563
Si Si6 0.981843 0.821922 0.279654
Si Si7 0.432108 0.671164 0.141539
Si Si8 0.074510 0.823442 0.924319
O O1 0.768263 0.250109 0.901325
O O2 0.779664 0.235110 0.714275
O O3 0.635715 0.225072 0.801266
O O4 0.735565 0.000000 0.819431
O O5 0.140092 0.715878 0.450356
O O6 0.088265 0.781012 0.634648
O O7 0.000000 0.842922 0.500000
O O8 0.132445 0.000000 0.509097
O O9 0.395932 0.500000 0.879565
O O10 0.476303 0.744955 0.858163
O O11 0.308978 0.743359 0.921366
O O12 0.413789 0.663713 0.032174
O O13 0.237490 0.500000 0.002851
O O14 0.150941 0.725266 0.946401
O O15 0.843844 0.500000 0.678323
O O16 0.937015 0.727876 0.710065
O O17 0.947748 0.776199 0.180592
O O18 0.004159 0.000000 0.282832
O O19 0.428289 0.500000 0.184396
O O20 0.096483 0.000000 0.930710
O O21 0.000000 0.780197 0.000000
#
# Coordination Sequence:
#
# PCOD8059819 Si02
#       8
#     4   4   4   4   4   4   4   4
#     4  11  20  29  41  60  88 117 143 173 212 256
#     4   8  15  29  46  62  82 110 140 171 213 260
#     4   7  12  24  42  59  79 108 138 171 210 249
#     4  10  19  31  45  62  84 113 149 182 212 247
#     4  11  20  29  44  65  86 109 141 179 216 255
#     4   9  18  32  47  62  85 116 146 177 215 254
#     4   8  13  25  42  59  80 108 140 170 205 249
#     4  10  20  32  45  62  86 117 150 181 212 244
#
# _framework density 15.748711
#
# number of rings (size 3 to 8) (size 9 to 14) (size 15 to 20)
#    0.000    2.750    0.000    5.625    0.000    4.000 
#    0.000    5.625    0.000    0.000    0.000    0.000 
#    0.000    1.000    0.000   11.500    0.000    3.750 
#
# Total GULP energy -396448.837172 kJ/mol
# GULP energy per Si atom -12389.026162 kJ/mol
# Density = 1.571287 g / cm^3
# Si number density = 15.748711 Si / 1000 Ang^3
#
#
#
# Elastic Constant Matrix: (Units=GPa)
#
#
# Indices 1 2 3 4 5 6 
#
# 1 114.8830 41.9206 45.4318 0.0000 -16.7806 0.0000
# 2 41.9206 73.0253 26.0117 0.0000 -7.5918 0.0000
# 3 45.4318 26.0117 86.0825 0.0000 -13.8513 0.0000
# 4 0.0000 0.0000 0.0000 14.1252 0.0000 -7.4350
# 5 -16.7806 -7.5918 -13.8513 0.0000 15.5244 0.0000
# 6 0.0000 0.0000 0.0000 -7.4350 0.0000 14.4995
#
#
#
# Elastic Compliance Matrix: (Units=1/GPa)
#
#
# Indices 1 2 3 4 5 6 
#
# 1 0.013544 -0.005428 -0.004179 0.000000 0.008257 0.000000
# 2 -0.005428 0.017729 -0.002384 0.000000 0.000676 0.000000
# 3 -0.004179 -0.002384 0.015913 0.000000 0.008515 0.000000
# 4 0.000000 0.000000 0.000000 0.096968 0.000000 0.049723
# 5 0.008257 0.000676 0.008515 0.000000 0.081267 0.000000
# 6 0.000000 0.000000 0.000000 0.049723 0.000000 0.094464
#
#
# Mechanical properties :
#
#
# Convention : Reuss Voigt Hill
#
# Bulk Modulus (GPa) = 43.09632 55.63543 49.36587
# Shear Modulus (GPa) = 14.22062 19.53826 16.87944
#
# Velocity S-wave (km/s) = 3.00821 3.52607 3.27739
# Velocity P-wave (km/s) = 6.28412 7.20980 6.76282
#
# Compressibility (1/GPa) = 0.02320384
#
# Stress axis : x y z
#
# Youngs Moduli (GPa) = 73.83374 56.40414 62.84204
#
# Poissons Ratio (x) = 0.30616 0.26264
# Poissons Ratio (y) = 0.40076 0.14980
# Poissons Ratio (z) = 0.30858 0.13446
#
# Static dielectric constant tensor:
#      x y z
#    x 3.378830 0.000000 -0.254380 
#    y 0.000000 2.904480 0.000000 
#    z -0.254380 0.000000 2.958850 
# 
# 
# High freq. dielectric constant tensor:
#      x y z
#    x 1.601880 0.000000 -0.025020 
#    y 0.000000 1.595340 0.000000 
#    z -0.025020 0.000000 1.566330 
# 
# From -- ./inp_files/66205.got.cif
#   From: 2010.06.25/outbox.cif.g09.slc.cpg/sg10_34_cif.got.tgz:66205.got - 2010.06.27 22:07:45.
