data_PCOD8059864
_publ_section_title
;
Structure prediction by ZEFSAII (Michael W. Deem and Ramdas Pophale) SiO2 
 PCOD8059864
Probable space group: P 2/M
;
_chemical_formula_sum "Si O2"
_cell_formula_units_Z 24
_cell_length_a 5.241063
_cell_length_b 16.325781
_cell_length_c 19.794386
_cell_angle_alpha 90.000000
_cell_angle_beta 119.802958
_cell_angle_gamma 90.000000
_cell_volume 1469.687148
_symmetry_space_group_name_H-M "P 2/M"
_symmetry_group_IT_number 10
_symmetry_cell_setting 'monoclinic'
loop_
_space_group_symop_operation_xyz
x,y,z
-x,y,-z
-x,-y,-z
x,-y,z
loop_
_atom_site_type_symbol
_atom_site_label
_atom_site_fract_x
_atom_site_fract_y
_atom_site_fract_z
Si Si1 0.120164 0.905897 0.924196
Si Si2 0.753424 0.593784 0.081622
Si Si3 0.586455 0.838301 0.905393
Si Si4 0.401982 0.340801 0.152410
Si Si5 0.347761 0.596617 0.413384
Si Si6 0.676114 0.402712 0.320403
O O1 0.264124 0.878843 0.871933
O O2 0.771493 0.889215 0.873904
O O3 0.188653 0.000000 0.950476
O O4 0.250866 0.848048 0.000696
O O5 0.821544 0.500000 0.073546
O O6 0.621977 0.599527 0.139924
O O7 0.054591 0.640792 0.104899
O O8 0.500000 0.630485 0.000000
O O9 0.546963 0.746882 0.874366
O O10 0.501287 0.349302 0.242597
O O11 0.500000 0.635409 0.500000
O O12 0.342314 0.500000 0.420568
O O13 0.535925 0.622582 0.373310
O O14 0.012811 0.626959 0.363458
O O15 0.639248 0.500000 0.301556
#
# Coordination Sequence:
#
# PCOD8059864 Si02
#       6
#     4   4   4   4   4   4
#     4  10  19  34  52  70  89 114 155 195 241 294
#     4  11  24  37  48  60  83 125 174 217 245 270
#     4  10  20  30  48  71  89 115 147 195 242 280
#     4  12  23  34  50  68  95 122 162 202 253 293
#     4   9  17  30  49  70  88 112 154 199 234 276
#     4  10  19  31  47  66  93 125 154 193 240 285
#
# _framework density 16.330006999999998
#
# number of rings (size 3 to 8) (size 9 to 14) (size 15 to 20)
#    0.000    1.667    0.000    7.000    7.000    4.667 
#    0.000    0.000    0.000    0.000    0.000    0.000 
#    0.000    0.000    0.000    0.000    0.000   96.667 
#
# Total GULP energy -297434.127807 kJ/mol
# GULP energy per Si atom -12393.088659 kJ/mol
# Density = 1.629284 g / cm^3
# Si number density = 16.330007 Si / 1000 Ang^3
#
#
#
# Elastic Constant Matrix: (Units=GPa)
#
#
# Indices 1 2 3 4 5 6 
#
# 1 157.5738 32.3282 28.7571 0.0000 8.9846 0.0000
# 2 32.3282 64.8690 38.2624 0.0000 -0.3274 0.0000
# 3 28.7571 38.2624 75.5238 0.0000 -0.2402 0.0000
# 4 0.0000 0.0000 0.0000 1.2527 0.0000 -9.3460
# 5 8.9846 -0.3274 -0.2402 0.0000 22.1520 0.0000
# 6 0.0000 0.0000 0.0000 -9.3460 0.0000 12.9838
#
#
#
# Elastic Compliance Matrix: (Units=1/GPa)
#
#
# Indices 1 2 3 4 5 6 
#
# 1 0.007358 -0.002887 -0.001349 0.000000 -0.003042 0.000000
# 2 -0.002887 0.023119 -0.010609 0.000000 0.001397 0.000000
# 3 -0.001349 -0.010609 0.019131 0.000000 0.000598 0.000000
# 4 0.000000 0.000000 0.000000 -0.182655 0.000000 -0.131479
# 5 -0.003042 0.001397 0.000598 0.000000 0.046403 0.000000
# 6 0.000000 0.000000 0.000000 -0.131479 0.000000 -0.017623
#
#
# Mechanical properties :
#
#
# Convention : Reuss Voigt Hill
#
# Bulk Modulus (GPa) = 50.20353 55.18464 52.69409
# Shear Modulus (GPa) = -73.59748 20.51896 -26.53926
#
# Velocity S-wave (km/s) = -6.72062 3.54859 -4.03573
# Velocity P-wave (km/s) = 5.42332 7.11735 3.25916
#
# Compressibility (1/GPa) = 0.01991892
#
# Stress axis : x y z
#
# Youngs Moduli (GPa) = 135.90514 43.25436 52.27044
#
# Poissons Ratio (x) = 0.12486 0.07051
# Poissons Ratio (y) = 0.39231 0.55454
# Poissons Ratio (z) = 0.18333 0.45889
#
# Static dielectric constant tensor:
#      x y z
#    x 4.068590 0.000000 0.071840 
#    y 0.000000 2.750560 0.000000 
#    z 0.071840 0.000000 2.891670 
# 
# 
# High freq. dielectric constant tensor:
#      x y z
#    x 1.671930 0.000000 0.002340 
#    y 0.000000 1.587560 0.000000 
#    z 0.002340 0.000000 1.583060 
# 
# From -- ./inp_files/59089.got.cif
#   From: 2010.06.25/outbox.cif.g09.slc.cpg/sg10_30_cif.got.tgz:59089.got - 2010.06.27 22:07:45.
