data_PCOD8059474
_publ_section_title
;
Structure prediction by ZEFSAII (Michael W. Deem and Ramdas Pophale) SiO2 
 PCOD8059474
Probable space group: P 2/M
;
_chemical_formula_sum "Si O2"
_cell_formula_units_Z 18
_cell_length_a 21.369162
_cell_length_b 7.604692
_cell_length_c 5.235871
_cell_angle_alpha 90.000000
_cell_angle_beta 82.963345
_cell_angle_gamma 90.000000
_cell_volume 844.451213
_symmetry_space_group_name_H-M "P 2/M"
_symmetry_group_IT_number 10
_symmetry_cell_setting 'monoclinic'
loop_
_space_group_symop_operation_xyz
x,y,z
-x,y,-z
-x,-y,-z
x,-y,z
loop_
_atom_site_type_symbol
_atom_site_label
_atom_site_fract_x
_atom_site_fract_y
_atom_site_fract_z
Si Si1 0.042097 0.500000 0.228953
Si Si2 0.571859 0.709927 0.964063
Si Si3 0.364278 0.698603 0.567868
Si Si4 0.144930 0.206343 0.177611
Si Si5 0.776725 0.795846 0.361558
O O1 0.082232 0.321333 0.208880
O O2 0.000000 0.500000 0.500000
O O3 0.000000 0.500000 0.000000
O O4 0.576486 0.500000 0.961747
O O5 0.607487 0.790625 0.699264
O O6 0.500000 0.775072 0.000000
O O7 0.607490 0.790625 0.193227
O O8 0.389106 0.500000 0.555456
O O9 0.288941 0.695289 0.605524
O O10 0.184515 0.258452 0.407523
O O11 0.126494 0.000000 0.186795
O O12 0.184557 0.258453 0.908203
O O13 0.760867 0.000000 0.369514
#
# Coordination Sequence:
#
# PCOD8059474 Si02
#       5
#     2   4   4   4   4
#     4  12  26  42  66  96 122 158 195 234 279 330
#     4   9  17  30  46  71 107 142 183 235 289 342
#     4  10  19  29  51  80 101 139 189 237 286 337
#     4  10  23  41  62  88 121 159 192 235 289 339
#     4  10  21  38  58  83 116 152 188 236 294 341
#
# _framework density 21.315619000000002
#
# number of rings (size 3 to 8) (size 9 to 14) (size 15 to 20)
#    0.000    2.000    0.000    3.333    3.111    3.556 
#    0.000    0.000    0.000    4.000    0.000    0.000 
#    0.000    0.000    0.000    0.000    0.000    0.000 
#
# Total GULP energy -223221.846036 kJ/mol
# GULP energy per Si atom -12401.213669 kJ/mol
# Density = 2.126710 g / cm^3
# Si number density = 21.315619 Si / 1000 Ang^3
#
#
#
# Elastic Constant Matrix: (Units=GPa)
#
#
# Indices 1 2 3 4 5 6 
#
# 1 179.6610 39.5738 113.8789 0.0000 5.9180 0.0000
# 2 39.5738 49.0569 30.8155 0.0000 -1.5647 0.0000
# 3 113.8789 30.8155 248.3230 0.0000 6.3030 0.0000
# 4 0.0000 0.0000 0.0000 -7.2047 0.0000 2.0022
# 5 5.9180 -1.5647 6.3030 0.0000 49.5793 0.0000
# 6 0.0000 0.0000 0.0000 2.0022 0.0000 -18.5244
#
#
#
# Elastic Compliance Matrix: (Units=1/GPa)
#
#
# Indices 1 2 3 4 5 6 
#
# 1 0.008870 -0.005030 -0.003424 0.000000 -0.000782 0.000000
# 2 -0.005030 0.025014 -0.000836 0.000000 0.001496 0.000000
# 3 -0.003424 -0.000836 0.005709 0.000000 -0.000344 0.000000
# 4 0.000000 0.000000 0.000000 -0.143096 0.000000 -0.015467
# 5 -0.000782 0.001496 -0.000344 0.000000 0.020354 0.000000
# 6 0.000000 0.000000 0.000000 -0.015467 0.000000 -0.055655
#
#
# Mechanical properties :
#
#
# Convention : Reuss Voigt Hill
#
# Bulk Modulus (GPa) = 47.58261 93.95304 70.76782
# Shear Modulus (GPa) = -44.16173 24.28821 -9.93676
#
# Velocity S-wave (km/s) = -4.55664 3.37925 -2.16145
# Velocity P-wave (km/s) = 2.30492 7.70704 5.20028
#
# Compressibility (1/GPa) = 0.02101608
#
# Stress axis : x y z
#
# Youngs Moduli (GPa) = 112.74332 39.97703 175.14803
#
# Poissons Ratio (x) = 0.20107 0.59963
# Poissons Ratio (y) = 0.56704 0.14636
# Poissons Ratio (z) = 0.38599 0.03341
#
# Static dielectric constant tensor:
#      x y z
#    x 3.717980 0.000000 0.146190 
#    y 0.000000 3.505530 0.000000 
#    z 0.146190 0.000000 4.537530 
# 
# 
# High freq. dielectric constant tensor:
#      x y z
#    x 1.835810 0.000000 0.004830 
#    y 0.000000 1.815340 0.000000 
#    z 0.004830 0.000000 1.862850 
# 
# From -- ./inp_files/10408.got.cif
#   From: 2010.06.25/outbox.cif.g09.slc.cpg/sg10_6_cif.got.tgz:10408.got - 2010.06.27 22:07:45.
