data_PCOD8059967
_publ_section_title
;
Structure prediction by ZEFSAII (Michael W. Deem and Ramdas Pophale) SiO2 
 PCOD8059967
Probable space group: P 2/M
;
_chemical_formula_sum "Si O2"
_cell_formula_units_Z 28
_cell_length_a 18.646978
_cell_length_b 9.265079
_cell_length_c 23.946026
_cell_angle_alpha 90.000000
_cell_angle_beta 157.534143
_cell_angle_gamma 90.000000
_cell_volume 1580.903538
_symmetry_space_group_name_H-M "P 2/M"
_symmetry_group_IT_number 10
_symmetry_cell_setting 'monoclinic'
loop_
_space_group_symop_operation_xyz
x,y,z
-x,y,-z
-x,-y,-z
x,-y,z
loop_
_atom_site_type_symbol
_atom_site_label
_atom_site_fract_x
_atom_site_fract_y
_atom_site_fract_z
Si Si1 0.312679 0.170012 0.124444
Si Si2 0.394179 0.171593 0.755235
Si Si3 0.334348 0.340455 0.424933
Si Si4 0.575274 0.831312 0.676125
Si Si5 0.635285 0.670189 0.149630
Si Si6 0.048479 0.341918 0.470586
Si Si7 0.897367 0.169435 0.822771
O O1 0.421497 0.217199 0.147025
O O2 0.419808 0.221222 0.256752
O O3 0.294291 0.000000 0.113443
O O4 0.104429 0.234198 0.979429
O O5 0.422746 0.243517 0.836337
O O6 0.216625 0.225610 0.589972
O O7 0.373157 0.000000 0.747412
O O8 0.500000 0.348926 0.500000
O O9 0.262808 0.500000 0.389370
O O10 0.402133 0.259093 0.528595
O O11 0.168056 0.247204 0.280247
O O12 0.770635 0.792910 0.785420
O O13 0.531815 0.000000 0.637604
O O14 0.611021 0.500000 0.143842
O O15 0.858252 0.705396 0.299572
O O16 0.500000 0.716706 0.000000
O O17 0.114961 0.500000 0.496262
O O18 0.000000 0.358093 0.500000
O O19 0.894593 0.000000 0.809212
#
# Coordination Sequence:
#
# PCOD8059967 Si02
#       7
#     4   4   4   4   4   4   4
#     4   9  18  31  47  70  98 124 155 201 245 275
#     4  10  19  31  48  72 102 129 152 187 239 289
#     4   9  17  29  44  65  93 118 146 194 248 287
#     4   9  16  29  50  70  88 121 168 204 232 277
#     4   9  18  34  55  75  95 122 157 195 229 268
#     4   8  15  30  51  71  92 121 155 187 220 267
#     4   9  16  29  50  70  89 122 167 204 234 276
#
# _framework density 17.711390000000002
#
# number of rings (size 3 to 8) (size 9 to 14) (size 15 to 20)
#    0.000    3.000    0.000    2.143    0.000    6.286 
#    0.000    5.000    0.000    8.571    0.000    0.000 
#    0.000    0.000    0.000    0.000    0.000    0.000 
#
# Total GULP energy -346903.504041 kJ/mol
# GULP energy per Si atom -12389.410859 kJ/mol
# Density = 1.767108 g / cm^3
# Si number density = 17.711390 Si / 1000 Ang^3
#
#
#
# Elastic Constant Matrix: (Units=GPa)
#
#
# Indices 1 2 3 4 5 6 
#
# 1 79.5951 37.0162 44.8018 0.0000 -13.8221 0.0000
# 2 37.0162 58.8046 25.5417 0.0000 -6.1572 0.0000
# 3 44.8018 25.5417 78.5209 0.0000 -25.5337 0.0000
# 4 0.0000 0.0000 0.0000 12.0753 0.0000 4.5991
# 5 -13.8221 -6.1572 -25.5337 0.0000 21.5538 0.0000
# 6 0.0000 0.0000 0.0000 4.5991 0.0000 6.1087
#
#
#
# Elastic Compliance Matrix: (Units=1/GPa)
#
#
# Indices 1 2 3 4 5 6 
#
# 1 0.022699 -0.010104 -0.009548 0.000000 0.000359 0.000000
# 2 -0.010104 0.024438 -0.003288 0.000000 -0.003393 0.000000
# 3 -0.009548 -0.003288 0.027582 0.000000 0.025612 0.000000
# 4 0.000000 0.000000 0.000000 0.116107 0.000000 -0.087414
# 5 0.000359 -0.003393 0.025612 0.000000 0.075998 0.000000
# 6 0.000000 0.000000 0.000000 -0.087414 0.000000 0.229513
#
#
# Mechanical properties :
#
#
# Convention : Reuss Voigt Hill
#
# Bulk Modulus (GPa) = 34.67476 47.96002 41.31739
# Shear Modulus (GPa) = 9.06077 15.25162 12.15619
#
# Velocity S-wave (km/s) = 2.26426 2.93767 2.62267
# Velocity P-wave (km/s) = 5.14354 6.21642 5.70526
#
# Compressibility (1/GPa) = 0.02883942
#
# Stress axis : x y z
#
# Youngs Moduli (GPa) = 44.05449 40.91921 36.25611
#
# Poissons Ratio (x) = 0.41344 0.34618
# Poissons Ratio (y) = 0.44512 0.11921
# Poissons Ratio (z) = 0.42064 0.13454
#
# Static dielectric constant tensor:
#      x y z
#    x 3.119040 0.000000 -0.071890 
#    y 0.000000 3.306080 0.000000 
#    z -0.071890 0.000000 3.710390 
# 
# 
# High freq. dielectric constant tensor:
#      x y z
#    x 1.654410 0.000000 -0.009880 
#    y 0.000000 1.672950 0.000000 
#    z -0.009880 0.000000 1.690400 
# 
# From -- ./inp_files/31529.got.cif
#   From: 2010.06.25/outbox.cif.g09.slc.cpg/sg10_16_cif.got.tgz:31529.got - 2010.06.27 22:07:45.
