data_PCOD8059665
_publ_section_title
;
Structure prediction by ZEFSAII (Michael W. Deem and Ramdas Pophale) SiO2 
 PCOD8059665
Probable space group: P 2/M
;
_chemical_formula_sum "Si O2"
_cell_formula_units_Z 28
_cell_length_a 14.491999
_cell_length_b 8.999589
_cell_length_c 17.209111
_cell_angle_alpha 90.000000
_cell_angle_beta 130.913638
_cell_angle_gamma 90.000000
_cell_volume 1696.123420
_symmetry_space_group_name_H-M "P 2/M"
_symmetry_group_IT_number 10
_symmetry_cell_setting 'monoclinic'
loop_
_space_group_symop_operation_xyz
x,y,z
-x,y,-z
-x,-y,-z
x,-y,z
loop_
_atom_site_type_symbol
_atom_site_label
_atom_site_fract_x
_atom_site_fract_y
_atom_site_fract_z
Si Si1 0.916253 0.828383 0.379556
Si Si2 0.662538 0.328797 0.235536
Si Si3 0.682641 0.333199 0.069228
Si Si4 0.034846 0.328705 0.747307
Si Si5 0.813625 0.175284 0.916449
Si Si6 0.035179 0.175707 0.142986
Si Si7 0.575769 0.825242 0.868365
O O1 0.786774 0.753397 0.325997
O O2 0.986057 0.753411 0.345808
O O3 0.000000 0.805691 0.500000
O O4 0.893615 0.000000 0.347431
O O5 0.678289 0.500000 0.267406
O O6 0.630111 0.311162 0.126678
O O7 0.550598 0.257203 0.221630
O O8 0.652427 0.500000 0.022843
O O9 0.826590 0.306169 0.149826
O O10 0.621283 0.212882 0.979946
O O11 0.000542 0.500000 0.717014
O O12 0.948508 0.257613 0.765711
O O13 0.849623 0.220319 0.848281
O O14 0.678139 0.232252 0.863388
O O15 0.819135 0.000000 0.927502
O O16 0.913010 0.236212 0.032818
O O17 0.029905 0.000000 0.154613
O O18 0.553935 0.000000 0.850384
#
# Coordination Sequence:
#
# PCOD8059665 Si02
#       7
#     4   4   4   4   4   4   4
#     4  10  21  37  56  76  94 116 153 198 239 284
#     4  10  21  34  47  66  95 127 156 190 237 289
#     4   9  18  30  41  59  92 129 161 192 229 276
#     4  10  19  30  47  72 100 128 158 194 240 288
#     4   8  16  27  43  66  93 129 169 207 238 267
#     4   9  15  29  47  64  92 130 170 204 236 274
#     4  11  19  28  44  67  93 127 168 201 232 272
#
# _framework density 16.508233000000001
#
# number of rings (size 3 to 8) (size 9 to 14) (size 15 to 20)
#    0.000    2.429    1.429    3.857    0.000    5.714 
#    0.000    2.857    0.000    0.000    0.000    1.000 
#    0.000    8.000    0.000    0.000    0.000    0.000 
#
# Total GULP energy -347150.333910 kJ/mol
# GULP energy per Si atom -12398.226211 kJ/mol
# Density = 1.647066 g / cm^3
# Si number density = 16.508233 Si / 1000 Ang^3
#
#
#
# Elastic Constant Matrix: (Units=GPa)
#
#
# Indices 1 2 3 4 5 6 
#
# 1 131.1160 54.3613 42.8983 0.0000 -7.8316 0.0000
# 2 54.3613 98.0578 43.1162 0.0000 -4.3692 0.0000
# 3 42.8983 43.1162 56.0726 0.0000 -6.3506 0.0000
# 4 0.0000 0.0000 0.0000 15.5703 0.0000 3.1897
# 5 -7.8316 -4.3692 -6.3506 0.0000 14.2496 0.0000
# 6 0.0000 0.0000 0.0000 3.1897 0.0000 19.4325
#
#
#
# Elastic Compliance Matrix: (Units=1/GPa)
#
#
# Indices 1 2 3 4 5 6 
#
# 1 0.011046 -0.003658 -0.005347 0.000000 0.002566 0.000000
# 2 -0.003658 0.016624 -0.010146 0.000000 -0.001435 0.000000
# 3 -0.005347 -0.010146 0.030585 0.000000 0.007581 0.000000
# 4 0.000000 0.000000 0.000000 0.066460 0.000000 -0.010909
# 5 0.002566 -0.001435 0.007581 0.000000 0.074527 0.000000
# 6 0.000000 0.000000 0.000000 -0.010909 0.000000 0.053251
#
#
# Mechanical properties :
#
#
# Convention : Reuss Voigt Hill
#
# Bulk Modulus (GPa) = 50.12141 62.88867 56.50504
# Shear Modulus (GPa) = 16.80972 19.50849 18.15910
#
# Velocity S-wave (km/s) = 3.19448 3.44138 3.32023
# Velocity P-wave (km/s) = 6.63579 7.34635 7.00009
#
# Compressibility (1/GPa) = 0.01995155
#
# Stress axis : x y z
#
# Youngs Moduli (GPa) = 90.52692 60.15580 32.69531
#
# Poissons Ratio (x) = 0.22007 0.17484
# Poissons Ratio (y) = 0.33118 0.33173
# Poissons Ratio (z) = 0.48409 0.61035
#
# Static dielectric constant tensor:
#      x y z
#    x 3.436110 0.000000 -0.067240 
#    y 0.000000 3.067440 0.000000 
#    z -0.067240 0.000000 2.698880 
# 
# 
# High freq. dielectric constant tensor:
#      x y z
#    x 1.641380 0.000000 -0.005300 
#    y 0.000000 1.635560 0.000000 
#    z -0.005300 0.000000 1.586430 
# 
# From -- ./inp_files/66651.got.cif
#   From: 2010.06.25/outbox.cif.g09.slc.cpg/sg10_34_cif.got.tgz:66651.got - 2010.06.27 22:07:45.
