data_PCOD8059373
_publ_section_title
;
Structure prediction by ZEFSAII (Michael W. Deem and Ramdas Pophale) SiO2 
 PCOD8059373
Probable space group: P 2/M
;
_chemical_formula_sum "Si O2"
_cell_formula_units_Z 28
_cell_length_a 20.901392
_cell_length_b 8.969048
_cell_length_c 13.816693
_cell_angle_alpha 90.000000
_cell_angle_beta 138.260291
_cell_angle_gamma 90.000000
_cell_volume 1724.389269
_symmetry_space_group_name_H-M "P 2/M"
_symmetry_group_IT_number 10
_symmetry_cell_setting 'monoclinic'
loop_
_space_group_symop_operation_xyz
x,y,z
-x,y,-z
-x,-y,-z
x,-y,z
loop_
_atom_site_type_symbol
_atom_site_label
_atom_site_fract_x
_atom_site_fract_y
_atom_site_fract_z
Si Si1 0.224448 0.821893 0.197648
Si Si2 0.677699 0.324682 0.336569
Si Si3 0.422192 0.172438 0.329450
Si Si4 0.973778 0.837445 0.081800
Si Si5 0.823092 0.821392 0.642654
Si Si6 0.394283 0.168229 0.924189
Si Si7 0.471794 0.674754 0.188187
O O1 0.320635 0.766063 0.254245
O O2 0.224394 0.768783 0.309389
O O3 0.217805 0.000000 0.189332
O O4 0.130815 0.755279 0.033509
O O5 0.691971 0.500000 0.345276
O O6 0.767245 0.252829 0.491995
O O7 0.676117 0.258240 0.226505
O O8 0.580658 0.281679 0.283925
O O9 0.500000 0.194579 0.500000
O O10 0.452834 0.272149 0.274620
O O11 0.415603 0.000000 0.290243
O O12 0.065788 0.760330 0.237518
O O13 0.961658 0.000000 0.116333
O O14 0.000000 0.858062 0.000000
O O15 0.819717 0.000000 0.629777
O O16 0.356069 0.000000 0.892390
O O17 0.500000 0.171880 0.000000
O O18 0.396196 0.245699 0.031236
O O19 0.454887 0.500000 0.160068
#
# Coordination Sequence:
#
# PCOD8059373 Si02
#       7
#     4   4   4   4   4   4   4
#     4   8  14  25  41  62  88 116 147 183 217 248
#     4  10  19  29  42  63  91 117 139 171 218 263
#     4  10  19  29  43  64  89 118 152 185 211 241
#     4   7  11  21  39  62  84 108 141 180 219 255
#     4   9  15  25  44  66  86 111 145 182 217 255
#     4   9  17  30  48  66  83 107 142 180 214 253
#     4  10  20  32  44  60  87 120 148 175 211 256
#
# _framework density 16.237632000000001
#
# number of rings (size 3 to 8) (size 9 to 14) (size 15 to 20)
#    0.000    3.000    0.000    3.857    0.000    4.857 
#    0.000    0.714    0.000    4.714    0.000    1.000 
#    0.000    8.000    0.000    0.000    0.000    0.000 
#
# Total GULP energy -346961.355971 kJ/mol
# GULP energy per Si atom -12391.476999 kJ/mol
# Density = 1.620067 g / cm^3
# Si number density = 16.237632 Si / 1000 Ang^3
#
#
#
# Elastic Constant Matrix: (Units=GPa)
#
#
# Indices 1 2 3 4 5 6 
#
# 1 52.5695 17.8136 35.7546 0.0000 12.5060 0.0000
# 2 17.8136 47.5028 38.9471 0.0000 2.9271 0.0000
# 3 35.7546 38.9471 127.9190 0.0000 12.6922 0.0000
# 4 0.0000 0.0000 0.0000 6.8738 0.0000 -6.9509
# 5 12.5060 2.9271 12.6922 0.0000 25.5490 0.0000
# 6 0.0000 0.0000 0.0000 -6.9509 0.0000 14.4348
#
#
#
# Elastic Compliance Matrix: (Units=1/GPa)
#
#
# Indices 1 2 3 4 5 6 
#
# 1 0.026465 -0.005406 -0.004762 0.000000 -0.009969 0.000000
# 2 -0.005406 0.029187 -0.007685 0.000000 0.003120 0.000000
# 3 -0.004762 -0.007685 0.011749 0.000000 -0.002625 0.000000
# 4 0.000000 0.000000 0.000000 0.283555 0.000000 0.136544
# 5 -0.009969 0.003120 -0.002625 0.000000 0.044967 0.000000
# 6 0.000000 0.000000 0.000000 0.136544 0.000000 0.135029
#
#
# Mechanical properties :
#
#
# Convention : Reuss Voigt Hill
#
# Bulk Modulus (GPa) = 31.55075 45.89133 38.72104
# Shear Modulus (GPa) = 8.66217 18.40325 13.53271
#
# Velocity S-wave (km/s) = 2.31219 3.37021 2.89003
# Velocity P-wave (km/s) = 5.15762 6.59303 5.91900
#
# Compressibility (1/GPa) = 0.03169497
#
# Stress axis : x y z
#
# Youngs Moduli (GPa) = 37.78617 34.26159 85.11448
#
# Poissons Ratio (x) = 0.18520 0.40533
# Poissons Ratio (y) = 0.20425 0.65412
# Poissons Ratio (z) = 0.17995 0.26331
#
# Static dielectric constant tensor:
#      x y z
#    x 2.988280 0.000000 0.236390 
#    y 0.000000 2.834940 0.000000 
#    z 0.236390 0.000000 3.281460 
# 
# 
# High freq. dielectric constant tensor:
#      x y z
#    x 1.587220 0.000000 0.010000 
#    y 0.000000 1.600630 0.000000 
#    z 0.010000 0.000000 1.632470 
# 
# From -- ./inp_files/54981.got.cif
#   From: 2010.06.25/outbox.cif.g09.slc.cpg/sg10_28_cif.got.tgz:54981.got - 2010.06.27 22:07:45.
