data_PCOD8059392
_publ_section_title
;
Structure prediction by ZEFSAII (Michael W. Deem and Ramdas Pophale) SiO2 
 PCOD8059392
Probable space group: P 2/M
;
_chemical_formula_sum "Si O2"
_cell_formula_units_Z 30
_cell_length_a 12.804244
_cell_length_b 13.994243
_cell_length_c 11.305191
_cell_angle_alpha 90.000000
_cell_angle_beta 117.259433
_cell_angle_gamma 90.000000
_cell_volume 1800.754706
_symmetry_space_group_name_H-M "P 2/M"
_symmetry_group_IT_number 10
_symmetry_cell_setting 'monoclinic'
loop_
_space_group_symop_operation_xyz
x,y,z
-x,y,-z
-x,-y,-z
x,-y,z
loop_
_atom_site_type_symbol
_atom_site_label
_atom_site_fract_x
_atom_site_fract_y
_atom_site_fract_z
Si Si1 0.372803 0.889745 0.409896
Si Si2 0.759754 0.888554 0.886469
Si Si3 0.158379 0.109454 0.456970
Si Si4 0.804823 0.767202 0.305843
Si Si5 0.873138 0.607055 0.494660
Si Si6 0.000000 0.219230 0.000000
Si Si7 0.975634 0.735340 0.734002
Si Si8 0.362153 0.109410 0.930480
O O1 0.500000 0.840765 0.500000
O O2 0.308660 0.843073 0.262143
O O3 0.294058 0.878771 0.486998
O O4 0.394388 0.000000 0.389483
O O5 0.777953 0.000000 0.874688
O O6 0.684131 0.866565 0.963524
O O7 0.887742 0.845157 0.968935
O O8 0.136203 0.157346 0.572980
O O9 0.077601 0.159238 0.316077
O O10 0.119677 0.000000 0.443819
O O11 0.780616 0.670048 0.369337
O O12 0.892933 0.737142 0.248058
O O13 0.689706 0.815445 0.190942
O O14 0.822915 0.500000 0.482006
O O15 0.000000 0.607609 0.500000
O O16 0.891666 0.654946 0.632582
O O17 0.978664 0.286309 0.875107
O O18 0.329172 0.000000 0.877452
O O19 0.500000 0.124509 0.000000
#
# Coordination Sequence:
#
# PCOD8059392 Si02
#       8
#     4   4   4   4   4   2   4   4
#     4   9  18  30  43  60  86 124 172 210 233 270
#     4  10  20  32  46  64  94 141 179 205 241 284
#     4  10  19  29  43  65  94 126 160 200 242 282
#     4  10  19  32  48  71  94 125 164 205 245 293
#     4   8  16  33  55  74  94 119 155 203 257 308
#     4  12  19  32  47  68 104 132 160 206 242 308
#     4  10  20  31  47  71  98 125 159 200 245 297
#     4  10  21  33  46  68 103 142 175 206 239 282
#
# _framework density 16.659682
#
# number of rings (size 3 to 8) (size 9 to 14) (size 15 to 20)
#    0.000    2.267    2.667    1.800    1.867    2.133 
#    0.000    0.333    0.000    0.400    0.000    0.000 
#    0.000   10.667    0.000    0.000    0.000    0.000 
#
# Total GULP energy -371873.919841 kJ/mol
# GULP energy per Si atom -12395.797328 kJ/mol
# Density = 1.662176 g / cm^3
# Si number density = 16.659682 Si / 1000 Ang^3
#
#
#
# Elastic Constant Matrix: (Units=GPa)
#
#
# Indices 1 2 3 4 5 6 
#
# 1 67.2303 19.0913 33.7075 0.0000 -1.6976 0.0000
# 2 19.0913 97.5656 46.9118 0.0000 -4.4296 0.0000
# 3 33.7075 46.9118 106.5136 0.0000 -11.3769 0.0000
# 4 0.0000 0.0000 0.0000 10.7155 0.0000 -0.0511
# 5 -1.6976 -4.4296 -11.3769 0.0000 30.8300 0.0000
# 6 0.0000 0.0000 0.0000 -0.0511 0.0000 7.6591
#
#
#
# Elastic Compliance Matrix: (Units=1/GPa)
#
#
# Indices 1 2 3 4 5 6 
#
# 1 0.017790 -0.000974 -0.005321 0.000000 -0.001124 0.000000
# 2 -0.000974 0.013058 -0.005464 0.000000 -0.000194 0.000000
# 3 -0.005321 -0.005464 0.013912 0.000000 0.004056 0.000000
# 4 0.000000 0.000000 0.000000 0.093326 0.000000 0.000623
# 5 -0.001124 -0.000194 0.004056 0.000000 0.033843 0.000000
# 6 0.000000 0.000000 0.000000 0.000623 0.000000 0.130567
#
#
# Mechanical properties :
#
#
# Convention : Reuss Voigt Hill
#
# Bulk Modulus (GPa) = 47.07349 52.30340 49.68844
# Shear Modulus (GPa) = 15.01071 21.28086 18.14578
#
# Velocity S-wave (km/s) = 3.00496 3.57793 3.30389
# Velocity P-wave (km/s) = 6.35271 6.96650 6.66668
#
# Compressibility (1/GPa) = 0.02124338
#
# Stress axis : x y z
#
# Youngs Moduli (GPa) = 56.21056 76.57908 71.87997
#
# Poissons Ratio (x) = 0.07456 0.38249
# Poissons Ratio (y) = 0.05473 0.39274
# Poissons Ratio (z) = 0.29911 0.41842
#
# Static dielectric constant tensor:
#      x y z
#    x 3.062910 0.000000 -0.094630 
#    y 0.000000 2.969390 0.000000 
#    z -0.094630 0.000000 3.311200 
# 
# 
# High freq. dielectric constant tensor:
#      x y z
#    x 1.632770 0.000000 -0.010870 
#    y 0.000000 1.595310 0.000000 
#    z -0.010870 0.000000 1.648690 
# 
# From -- ./inp_files/47441.got.cif
#   From: 2010.06.25/outbox.cif.g09.slc.cpg/sg10_24_cif.got.tgz:47441.got - 2010.06.27 22:07:45.
