data_PCOD8059654
_publ_section_title
;
Structure prediction by ZEFSAII (Michael W. Deem and Ramdas Pophale) SiO2 
 PCOD8059654
Probable space group: P 2/M
;
_chemical_formula_sum "Si O2"
_cell_formula_units_Z 28
_cell_length_a 16.484273
_cell_length_b 9.316246
_cell_length_c 14.497955
_cell_angle_alpha 90.000000
_cell_angle_beta 41.095439
_cell_angle_gamma 90.000000
_cell_volume 1463.494876
_symmetry_space_group_name_H-M "P 2/M"
_symmetry_group_IT_number 10
_symmetry_cell_setting 'monoclinic'
loop_
_space_group_symop_operation_xyz
x,y,z
-x,y,-z
-x,-y,-z
x,-y,z
loop_
_atom_site_type_symbol
_atom_site_label
_atom_site_fract_x
_atom_site_fract_y
_atom_site_fract_z
Si Si1 0.138345 0.660733 0.916419
Si Si2 0.608716 0.669936 0.846761
Si Si3 0.470814 0.835764 0.422915
Si Si4 0.774866 0.334512 0.860975
Si Si5 0.461976 0.334921 0.807040
Si Si6 0.799152 0.836699 0.305704
Si Si7 0.062928 0.831195 0.152226
O O1 0.189833 0.500000 0.891787
O O2 0.218345 0.737324 0.769058
O O3 0.144375 0.754157 0.003743
O O4 0.000000 0.652600 0.000000
O O5 0.593204 0.500000 0.864616
O O6 0.737994 0.710350 0.786582
O O7 0.584438 0.716586 0.761055
O O8 0.500000 0.741220 0.000000
O O9 0.500000 0.775185 0.500000
O O10 0.547482 0.751483 0.280000
O O11 0.324247 0.819510 0.528015
O O12 0.514151 0.000000 0.380171
O O13 0.817224 0.500000 0.828747
O O14 0.889717 0.234354 0.791701
O O15 0.658928 0.308532 0.027857
O O16 0.475034 0.500000 0.768108
O O17 0.917945 0.793725 0.265226
O O18 0.815443 0.000000 0.256391
O O19 0.087764 0.000000 0.127426
#
# Coordination Sequence:
#
# PCOD8059654 Si02
#       7
#     4   4   4   4   4   4   4
#     4   9  17  29  46  68  92 121 159 201 243 285
#     4   7  12  27  50  73  99 128 154 190 246 300
#     4  10  22  37  51  69  96 132 170 206 242 283
#     4   9  17  30  51  79 105 126 155 198 247 296
#     4   9  18  33  53  76 100 128 162 200 245 294
#     4   9  19  35  49  64  93 133 168 199 242 291
#     4  10  19  30  47  70  98 130 162 197 242 293
#
# _framework density 19.132283000000001
#
# number of rings (size 3 to 8) (size 9 to 14) (size 15 to 20)
#    0.000    3.000    0.000    2.571    2.000    3.714 
#    0.000    0.714    0.000    3.429    0.000    6.000 
#    0.000    0.000    0.000    0.000    0.000    0.000 
#
# Total GULP energy -346926.190065 kJ/mol
# GULP energy per Si atom -12390.221074 kJ/mol
# Density = 1.908874 g / cm^3
# Si number density = 19.132283 Si / 1000 Ang^3
#
#
#
# Elastic Constant Matrix: (Units=GPa)
#
#
# Indices 1 2 3 4 5 6 
#
# 1 119.7930 33.3760 8.5071 0.0000 8.8420 0.0000
# 2 33.3760 67.0665 10.7002 0.0000 1.9424 0.0000
# 3 8.5071 10.7002 28.5380 0.0000 3.0607 0.0000
# 4 0.0000 0.0000 0.0000 8.4622 0.0000 -1.6436
# 5 8.8420 1.9424 3.0607 0.0000 22.6142 0.0000
# 6 0.0000 0.0000 0.0000 -1.6436 0.0000 26.0786
#
#
#
# Elastic Compliance Matrix: (Units=1/GPa)
#
#
# Indices 1 2 3 4 5 6 
#
# 1 0.009975 -0.004733 -0.000836 0.000000 -0.003381 0.000000
# 2 -0.004733 0.018112 -0.005492 0.000000 0.001038 0.000000
# 3 -0.000836 -0.005492 0.037813 0.000000 -0.004319 0.000000
# 4 0.000000 0.000000 0.000000 0.119637 0.000000 0.007540
# 5 -0.003381 0.001038 -0.004319 0.000000 0.046037 0.000000
# 6 0.000000 0.000000 0.000000 0.007540 0.000000 0.038821
#
#
# Mechanical properties :
#
#
# Convention : Reuss Voigt Hill
#
# Bulk Modulus (GPa) = 22.84242 35.61823 29.23033
# Shear Modulus (GPa) = 16.28085 22.28528 19.28307
#
# Velocity S-wave (km/s) = 2.92029 3.41662 3.17816
# Velocity P-wave (km/s) = 4.83073 5.84992 5.36458
#
# Compressibility (1/GPa) = 0.04377820
#
# Stress axis : x y z
#
# Youngs Moduli (GPa) = 100.24752 55.21195 26.44620
#
# Poissons Ratio (x) = 0.26131 0.02212
# Poissons Ratio (y) = 0.47446 0.14523
# Poissons Ratio (z) = 0.08385 0.30320
#
# Static dielectric constant tensor:
#      x y z
#    x 3.923080 0.000000 0.031000 
#    y 0.000000 3.354350 0.000000 
#    z 0.031000 0.000000 3.041760 
# 
# 
# High freq. dielectric constant tensor:
#      x y z
#    x 1.763420 0.000000 -0.003940 
#    y 0.000000 1.724600 0.000000 
#    z -0.003940 0.000000 1.691830 
# 
# From -- ./inp_files/68597.got.cif
#   From: 2010.06.25/outbox.cif.g09.slc.cpg/sg10_35_cif.got.tgz:68597.got - 2010.06.27 22:07:45.
