data_PCOD8059508
_publ_section_title
;
Structure prediction by ZEFSAII (Michael W. Deem and Ramdas Pophale) SiO2 
 PCOD8059508
Probable space group: P 2/M
;
_chemical_formula_sum "Si O2"
_cell_formula_units_Z 32
_cell_length_a 12.591389
_cell_length_b 9.189433
_cell_length_c 21.240280
_cell_angle_alpha 90.000000
_cell_angle_beta 56.457184
_cell_angle_gamma 90.000000
_cell_volume 2048.397334
_symmetry_space_group_name_H-M "P 2/M"
_symmetry_group_IT_number 10
_symmetry_cell_setting 'monoclinic'
loop_
_space_group_symop_operation_xyz
x,y,z
-x,y,-z
-x,-y,-z
x,-y,z
loop_
_atom_site_type_symbol
_atom_site_label
_atom_site_fract_x
_atom_site_fract_y
_atom_site_fract_z
Si Si1 0.536353 0.836691 0.347648
Si Si2 0.587643 0.339776 0.910292
Si Si3 0.232431 0.839350 0.631621
Si Si4 0.341791 0.330052 0.927753
Si Si5 0.214557 0.170470 0.083094
Si Si6 0.292455 0.328650 0.800517
Si Si7 0.382345 0.336653 0.490812
Si Si8 0.923193 0.170359 0.202084
O O1 0.646238 0.843386 0.363017
O O2 0.585357 0.746271 0.271669
O O3 0.414277 0.756758 0.418154
O O4 0.497321 0.000000 0.339715
O O5 0.644273 0.500000 0.876902
O O6 0.492154 0.287346 0.885811
O O7 0.703603 0.229469 0.884418
O O8 0.500000 0.346792 0.000000
O O9 0.257306 0.729526 0.565930
O O10 0.112737 0.789438 0.713740
O O11 0.209025 0.000000 0.610813
O O12 0.325110 0.500000 0.949423
O O13 0.297039 0.292861 0.872626
O O14 0.253258 0.241239 0.004405
O O15 0.068938 0.210746 0.143805
O O16 0.237630 0.000000 0.070739
O O17 0.297985 0.500000 0.784636
O O18 0.160044 0.264388 0.818840
O O19 0.500000 0.335084 0.500000
O O20 0.349447 0.500000 0.480537
O O21 0.894048 0.000000 0.199454
#
# Coordination Sequence:
#
# PCOD8059508 Si02
#       8
#     4   4   4   4   4   4   4   4
#     4   9  16  26  39  55  79 110 139 168 208 251
#     4   8  15  30  48  63  82 106 133 171 220 262
#     4   8  14  25  38  51  74 109 140 165 202 248
#     4   9  19  33  46  62  85 112 140 175 219 257
#     4  10  19  30  46  66  85 108 142 180 213 249
#     4  10  19  30  44  61  83 113 148 179 206 245
#     4   9  15  22  35  56  78 101 136 176 205 235
#     4   9  19  32  42  58  88 119 142 171 213 253
#
# _framework density 15.621968000000001
#
# number of rings (size 3 to 8) (size 9 to 14) (size 15 to 20)
#    0.000    3.000    0.000    3.000    0.000    9.250 
#    0.000    2.500    0.000    0.000    0.000    0.000 
#    0.000    1.000    0.000   11.500    0.000    5.875 
#
# Total GULP energy -396641.030635 kJ/mol
# GULP energy per Si atom -12395.032207 kJ/mol
# Density = 1.558641 g / cm^3
# Si number density = 15.621968 Si / 1000 Ang^3
#
#
#
# Elastic Constant Matrix: (Units=GPa)
#
#
# Indices 1 2 3 4 5 6 
#
# 1 60.3600 45.0974 49.6202 0.0000 -9.7194 0.0000
# 2 45.0974 107.8706 68.3840 0.0000 -9.7650 0.0000
# 3 49.6202 68.3840 109.6981 0.0000 -15.8514 0.0000
# 4 0.0000 0.0000 0.0000 22.0418 0.0000 -1.0953
# 5 -9.7194 -9.7650 -15.8514 0.0000 2.7209 0.0000
# 6 0.0000 0.0000 0.0000 -1.0953 0.0000 14.2573
#
#
#
# Elastic Compliance Matrix: (Units=1/GPa)
#
#
# Indices 1 2 3 4 5 6 
#
# 1 0.051463 -0.011724 0.028535 0.000000 0.307993 0.000000
# 2 -0.011724 0.018006 -0.016660 0.000000 -0.074314 0.000000
# 3 0.028535 -0.016660 0.080183 0.000000 0.509261 0.000000
# 4 0.000000 0.000000 0.000000 0.045542 0.000000 0.003499
# 5 0.307993 -0.074314 0.509261 0.000000 4.167818 0.000000
# 6 0.000000 0.000000 0.000000 0.003499 0.000000 0.070408
#
#
# Mechanical properties :
#
#
# Convention : Reuss Voigt Hill
#
# Bulk Modulus (GPa) = 6.66870 67.12577 36.89724
# Shear Modulus (GPa) = 1.11530 15.45916 8.28723
#
# Velocity S-wave (km/s) = 0.84586 3.14917 2.30573
# Velocity P-wave (km/s) = 2.28737 7.50234 5.54604
#
# Compressibility (1/GPa) = 0.14995416
#
# Stress axis : x y z
#
# Youngs Moduli (GPa) = 19.43145 55.53755 12.47154
#
# Poissons Ratio (x) = 0.65110 -0.35587
# Poissons Ratio (y) = 0.22781 0.20778
# Poissons Ratio (z) = -0.55447 0.92525
#
# Static dielectric constant tensor:
#      x y z
#    x 2.825140 0.000000 -0.021720 
#    y 0.000000 3.139940 0.000000 
#    z -0.021720 0.000000 3.061880 
# 
# 
# High freq. dielectric constant tensor:
#      x y z
#    x 1.548640 0.000000 -0.005450 
#    y 0.000000 1.611750 0.000000 
#    z -0.005450 0.000000 1.593340 
# 
# From -- ./inp_files/88438.got.cif
#   From: 2010.06.25/outbox.cif.g09.slc.cpg/sg10_45_cif.got.tgz:88438.got - 2010.06.27 22:07:45.
