data_PCOD8059703
_publ_section_title
;
Structure prediction by ZEFSAII (Michael W. Deem and Ramdas Pophale) SiO2 
 PCOD8059703
Probable space group: P 2/M
;
_chemical_formula_sum "Si O2"
_cell_formula_units_Z 32
_cell_length_a 21.145069
_cell_length_b 9.027825
_cell_length_c 15.477169
_cell_angle_alpha 90.000000
_cell_angle_beta 42.252554
_cell_angle_gamma 90.000000
_cell_volume 1986.604160
_symmetry_space_group_name_H-M "P 2/M"
_symmetry_group_IT_number 10
_symmetry_cell_setting 'monoclinic'
loop_
_space_group_symop_operation_xyz
x,y,z
-x,y,-z
-x,-y,-z
x,-y,z
loop_
_atom_site_type_symbol
_atom_site_label
_atom_site_fract_x
_atom_site_fract_y
_atom_site_fract_z
Si Si1 0.717840 0.674302 0.443285
Si Si2 0.409047 0.325972 0.268290
Si Si3 0.610994 0.162642 0.878591
Si Si4 0.106174 0.171832 0.794307
Si Si5 0.280072 0.324525 0.891147
Si Si6 0.605514 0.323987 0.391920
Si Si7 0.106714 0.827145 0.992044
Si Si8 0.608749 0.175681 0.071010
O O1 0.726980 0.500000 0.426242
O O2 0.664736 0.720764 0.583936
O O3 0.822524 0.740442 0.339325
O O4 0.660883 0.739265 0.418799
O O5 0.429191 0.500000 0.247467
O O6 0.363303 0.278295 0.222807
O O7 0.506059 0.243852 0.190584
O O8 0.651542 0.000000 0.813355
O O9 0.500000 0.150785 0.000000
O O10 0.648273 0.214350 0.934900
O O11 0.000128 0.205745 0.870882
O O12 0.128438 0.000000 0.762961
O O13 0.119993 0.221998 0.879389
O O14 0.283310 0.500000 0.899818
O O15 0.343567 0.270687 0.746630
O O16 0.317336 0.246599 0.938972
O O17 0.173465 0.272056 0.984228
O O18 0.500000 0.258854 0.500000
O O19 0.602375 0.500000 0.399497
O O20 0.130785 0.000000 0.979260
O O21 0.601448 0.000000 0.091609
#
# Coordination Sequence:
#
# PCOD8059703 Si02
#       8
#     4   4   4   4   4   4   4   4
#     4  10  19  31  46  68  97 127 157 194 237 277
#     4  10  19  30  48  72  97 126 159 197 237 277
#     4   8  16  31  48  66  91 124 158 194 238 279
#     4   9  18  32  50  68  90 123 159 197 238 279
#     4  11  20  30  48  71  93 125 162 196 235 278
#     4   9  17  29  42  59  91 129 158 185 221 267
#     4   9  18  33  49  67  93 122 155 199 243 278
#     4  10  20  33  48  67  96 130 160 196 237 279
#
# _framework density 16.107889
#
# number of rings (size 3 to 8) (size 9 to 14) (size 15 to 20)
#    0.000    2.500    1.250    3.375    0.000    6.250 
#    0.000    1.250    0.000    1.875    0.000    0.875 
#    0.000    7.000    0.000    0.000    0.000    0.000 
#
# Total GULP energy -396753.687603 kJ/mol
# GULP energy per Si atom -12398.552738 kJ/mol
# Density = 1.607123 g / cm^3
# Si number density = 16.107889 Si / 1000 Ang^3
#
#
#
# Elastic Constant Matrix: (Units=GPa)
#
#
# Indices 1 2 3 4 5 6 
#
# 1 111.8173 45.7821 63.4818 0.0000 8.5576 0.0000
# 2 45.7821 57.3099 37.6195 0.0000 4.2483 0.0000
# 3 63.4818 37.6195 79.8093 0.0000 0.5083 0.0000
# 4 0.0000 0.0000 0.0000 23.5427 0.0000 -1.1720
# 5 8.5576 4.2483 0.5083 0.0000 25.9531 0.0000
# 6 0.0000 0.0000 0.0000 -1.1720 0.0000 26.9505
#
#
#
# Elastic Compliance Matrix: (Units=1/GPa)
#
#
# Indices 1 2 3 4 5 6 
#
# 1 0.018765 -0.007032 -0.011581 0.000000 -0.004810 0.000000
# 2 -0.007032 0.028304 -0.007734 0.000000 -0.002163 0.000000
# 3 -0.011581 -0.007734 0.025358 0.000000 0.004588 0.000000
# 4 0.000000 0.000000 0.000000 0.042568 0.000000 0.001851
# 5 -0.004810 -0.002163 0.004588 0.000000 0.040381 0.000000
# 6 0.000000 0.000000 0.000000 0.001851 0.000000 0.037186
#
#
# Mechanical properties :
#
#
# Convention : Reuss Voigt Hill
#
# Bulk Modulus (GPa) = 50.67765 60.30035 55.48900
# Shear Modulus (GPa) = 19.85433 22.09279 20.97356
#
# Velocity S-wave (km/s) = 3.51463 3.70746 3.61233
# Velocity P-wave (km/s) = 6.92819 7.47286 7.20567
#
# Compressibility (1/GPa) = 0.01973256
#
# Stress axis : x y z
#
# Youngs Moduli (GPa) = 53.28988 35.33080 39.43535
#
# Poissons Ratio (x) = 0.24845 0.45670
# Poissons Ratio (y) = 0.37475 0.30500
# Poissons Ratio (z) = 0.61714 0.27326
#
# Static dielectric constant tensor:
#      x y z
#    x 3.145100 0.000000 0.145930 
#    y 0.000000 2.948670 0.000000 
#    z 0.145930 0.000000 3.014400 
# 
# 
# High freq. dielectric constant tensor:
#      x y z
#    x 1.609260 0.000000 0.005120 
#    y 0.000000 1.615160 0.000000 
#    z 0.005120 0.000000 1.601210 
# 
# From -- ./inp_files/69990.got.cif
#   From: 2010.06.25/outbox.cif.g09.slc.cpg/sg10_35_cif.got.tgz:69990.got - 2010.06.27 22:07:45.
