data_PCOD8059443
_publ_section_title
;
Structure prediction by ZEFSAII (Michael W. Deem and Ramdas Pophale) SiO2 
 PCOD8059443
Probable space group: P 2/M
;
_chemical_formula_sum "Si O2"
_cell_formula_units_Z 32
_cell_length_a 14.821180
_cell_length_b 9.003949
_cell_length_c 20.681155
_cell_angle_alpha 90.000000
_cell_angle_beta 138.665517
_cell_angle_gamma 90.000000
_cell_volume 1822.774604
_symmetry_space_group_name_H-M "P 2/M"
_symmetry_group_IT_number 10
_symmetry_cell_setting 'monoclinic'
loop_
_space_group_symop_operation_xyz
x,y,z
-x,y,-z
-x,-y,-z
x,-y,z
loop_
_atom_site_type_symbol
_atom_site_label
_atom_site_fract_x
_atom_site_fract_y
_atom_site_fract_z
Si Si1 0.701104 0.831946 0.683930
Si Si2 0.896008 0.671236 0.997299
Si Si3 0.630041 0.823760 0.389111
Si Si4 0.977062 0.664441 0.687442
Si Si5 0.345234 0.667974 0.465608
Si Si6 0.980128 0.164056 0.168982
Si Si7 0.368795 0.672438 0.223953
Si Si8 0.088744 0.324879 0.486467
O O1 0.615888 0.745294 0.582049
O O2 0.695868 0.739168 0.746272
O O3 0.857922 0.839280 0.748662
O O4 0.643452 0.000000 0.661724
O O5 0.934867 0.500000 0.027317
O O6 0.740222 0.694144 0.891739
O O7 0.911091 0.746438 0.074392
O O8 0.000000 0.740879 0.000000
O O9 0.595227 0.764534 0.442828
O O10 0.505901 0.762301 0.278248
O O11 0.769518 0.762647 0.434553
O O12 0.635051 0.000000 0.392297
O O13 0.037894 0.500000 0.728212
O O14 0.058219 0.766702 0.781772
O O15 0.816730 0.663895 0.614995
O O16 0.996271 0.720053 0.623732
O O17 0.403930 0.500000 0.499527
O O18 0.917847 0.000000 0.133434
O O19 0.403302 0.500000 0.253283
O O20 0.122049 0.500000 0.503529
O O21 0.000000 0.276916 0.500000
#
# Coordination Sequence:
#
# PCOD8059443 Si02
#       8
#     4   4   4   4   4   4   4   4
#     4  10  19  30  45  69  97 128 167 211 256 296
#     4  10  20  34  51  70  92 127 177 224 259 294
#     4  11  22  35  50  72 103 132 162 203 251 301
#     4   8  15  28  48  73 101 130 161 200 241 288
#     4   9  17  31  49  67  92 130 172 207 243 290
#     4  10  19  29  46  70 100 133 166 210 256 298
#     4  11  22  35  50  67  93 131 174 214 253 298
#     4   9  18  35  59  84 107 133 165 199 240 297
#
# _framework density 17.555654000000001
#
# number of rings (size 3 to 8) (size 9 to 14) (size 15 to 20)
#    0.000    2.250    1.250    3.375    0.000    6.000 
#    0.000    2.500    0.000    0.000    0.000    0.875 
#    0.000    7.000    0.000    0.000    0.000    0.000 
#
# Total GULP energy -396784.810467 kJ/mol
# GULP energy per Si atom -12399.525327 kJ/mol
# Density = 1.751570 g / cm^3
# Si number density = 17.555654 Si / 1000 Ang^3
#
#
#
# Elastic Constant Matrix: (Units=GPa)
#
#
# Indices 1 2 3 4 5 6 
#
# 1 80.8023 39.3210 36.6249 0.0000 -20.1014 0.0000
# 2 39.3210 116.5961 60.4952 0.0000 -8.8234 0.0000
# 3 36.6249 60.4952 95.9330 0.0000 -19.3020 0.0000
# 4 0.0000 0.0000 0.0000 19.3554 0.0000 1.0461
# 5 -20.1014 -8.8234 -19.3020 0.0000 22.5961 0.0000
# 6 0.0000 0.0000 0.0000 1.0461 0.0000 14.0784
#
#
#
# Elastic Compliance Matrix: (Units=1/GPa)
#
#
# Indices 1 2 3 4 5 6 
#
# 1 0.018602 -0.004421 -0.001608 0.000000 0.013448 0.000000
# 2 -0.004421 0.013896 -0.008181 0.000000 -0.005495 0.000000
# 3 -0.001608 -0.008181 0.018434 0.000000 0.011122 0.000000
# 4 0.000000 0.000000 0.000000 0.051874 0.000000 -0.003855
# 5 0.013448 -0.005495 0.011122 0.000000 0.063574 0.000000
# 6 0.000000 0.000000 0.000000 -0.003855 0.000000 0.071317
#
#
# Mechanical properties :
#
#
# Convention : Reuss Voigt Hill
#
# Bulk Modulus (GPa) = 44.41922 62.91263 53.66593
# Shear Modulus (GPa) = 18.27345 21.66533 19.96939
#
# Velocity S-wave (km/s) = 3.22978 3.51678 3.37633
# Velocity P-wave (km/s) = 6.26622 7.23908 6.77014
#
# Compressibility (1/GPa) = 0.02251277
#
# Stress axis : x y z
#
# Youngs Moduli (GPa) = 53.75828 71.96136 54.24679
#
# Poissons Ratio (x) = 0.31817 0.08722
# Poissons Ratio (y) = 0.23769 0.44377
# Poissons Ratio (z) = 0.08643 0.58869
#
# Static dielectric constant tensor:
#      x y z
#    x 3.048740 0.000000 -0.154840 
#    y 0.000000 3.445920 0.000000 
#    z -0.154840 0.000000 3.277650 
# 
# 
# High freq. dielectric constant tensor:
#      x y z
#    x 1.639220 0.000000 -0.011760 
#    y 0.000000 1.688380 0.000000 
#    z -0.011760 0.000000 1.673150 
# 
# From -- ./inp_files/84767.got.cif
#   From: 2010.06.25/outbox.cif.g09.slc.cpg/sg10_43_cif.got.tgz:84767.got - 2010.06.27 22:07:45.
