data_PCOD8059524
_publ_section_title
;
Structure prediction by ZEFSAII (Michael W. Deem and Ramdas Pophale) SiO2 
 PCOD8059524
Probable space group: P 2/M
;
_chemical_formula_sum "Si O2"
_cell_formula_units_Z 32
_cell_length_a 12.208136
_cell_length_b 8.831960
_cell_length_c 18.366008
_cell_angle_alpha 90.000000
_cell_angle_beta 120.700144
_cell_angle_gamma 90.000000
_cell_volume 1702.724622
_symmetry_space_group_name_H-M "P 2/M"
_symmetry_group_IT_number 10
_symmetry_cell_setting 'monoclinic'
loop_
_space_group_symop_operation_xyz
x,y,z
-x,y,-z
-x,-y,-z
x,-y,z
loop_
_atom_site_type_symbol
_atom_site_label
_atom_site_fract_x
_atom_site_fract_y
_atom_site_fract_z
Si Si1 0.831120 0.821456 0.230352
Si Si2 0.525918 0.674375 0.782408
Si Si3 0.243777 0.679378 0.647809
Si Si4 0.910363 0.680545 0.710562
Si Si5 0.577429 0.675556 0.096717
Si Si6 0.461706 0.162668 0.566730
Si Si7 0.298175 0.822138 0.261867
Si Si8 0.208651 0.674949 0.478076
O O1 0.829213 0.764903 0.313007
O O2 0.704319 0.774995 0.144445
O O3 0.948601 0.743360 0.228790
O O4 0.847962 0.000000 0.234427
O O5 0.551487 0.500000 0.773743
O O6 0.394137 0.727837 0.697055
O O7 0.510775 0.703966 0.863104
O O8 0.652457 0.766670 0.800684
O O9 0.236249 0.500000 0.660933
O O10 0.169681 0.724564 0.547528
O O11 0.909449 0.500000 0.710623
O O12 0.826101 0.737981 0.749802
O O13 0.862127 0.750022 0.615499
O O14 0.617662 0.500000 0.105402
O O15 0.500000 0.729013 0.000000
O O16 0.500000 0.119743 0.500000
O O17 0.585031 0.228526 0.648069
O O18 0.357771 0.292994 0.527673
O O19 0.415751 0.000000 0.586396
O O20 0.270252 0.000000 0.251643
O O21 0.183210 0.500000 0.460795
#
# Coordination Sequence:
#
# PCOD8059524 Si02
#       8
#     4   4   4   4   4   4   4   4
#     4  11  23  38  56  80 111 143 177 219 270 328
#     4   9  17  31  54  83 112 139 173 217 265 316
#     4   9  18  34  53  74 104 141 185 234 277 318
#     4  11  23  37  53  73 103 148 195 233 271 317
#     4   9  19  39  67  93 114 137 168 210 261 320
#     4  10  19  30  44  67 102 141 181 231 279 316
#     4  11  21  32  49  75 109 147 184 224 272 320
#     4  10  20  32  50  73  98 138 192 241 275 310
#
# _framework density 18.793409
#
# number of rings (size 3 to 8) (size 9 to 14) (size 15 to 20)
#    0.000    2.000    2.500    2.625    0.000    4.500 
#    0.000    2.500    0.000    0.750    0.000    5.250 
#    0.000    0.000    0.000    0.000    0.000    0.000 
#
# Total GULP energy -396554.442822 kJ/mol
# GULP energy per Si atom -12392.326338 kJ/mol
# Density = 1.875063 g / cm^3
# Si number density = 18.793409 Si / 1000 Ang^3
#
#
#
# Elastic Constant Matrix: (Units=GPa)
#
#
# Indices 1 2 3 4 5 6 
#
# 1 126.5904 46.7395 36.3459 0.0000 2.6423 0.0000
# 2 46.7395 65.9663 25.8902 0.0000 -1.3806 0.0000
# 3 36.3459 25.8902 71.9502 0.0000 -10.0315 0.0000
# 4 0.0000 0.0000 0.0000 14.5753 0.0000 4.5085
# 5 2.6423 -1.3806 -10.0315 0.0000 15.4749 0.0000
# 6 0.0000 0.0000 0.0000 4.5085 0.0000 26.3534
#
#
#
# Elastic Compliance Matrix: (Units=1/GPa)
#
#
# Indices 1 2 3 4 5 6 
#
# 1 0.011721 -0.006754 -0.004237 0.000000 -0.005350 0.000000
# 2 -0.006754 0.021655 -0.004343 0.000000 0.000270 0.000000
# 3 -0.004237 -0.004343 0.019402 0.000000 0.012913 0.000000
# 4 0.000000 0.000000 0.000000 0.072443 0.000000 -0.012393
# 5 -0.005350 0.000270 0.012913 0.000000 0.073929 0.000000
# 6 0.000000 0.000000 0.000000 -0.012393 0.000000 0.040066
#
#
# Mechanical properties :
#
#
# Convention : Reuss Voigt Hill
#
# Bulk Modulus (GPa) = 45.22641 53.60643 49.41642
# Shear Modulus (GPa) = 18.03410 21.64949 19.84179
#
# Velocity S-wave (km/s) = 3.10110 3.39775 3.25281
# Velocity P-wave (km/s) = 6.07780 6.63166 6.36076
#
# Compressibility (1/GPa) = 0.02211097
#
# Stress axis : x y z
#
# Youngs Moduli (GPa) = 85.31455 46.17896 51.54206
#
# Poissons Ratio (x) = 0.31190 0.21836
# Poissons Ratio (y) = 0.57623 0.22383
# Poissons Ratio (z) = 0.36145 0.20054
#
# Static dielectric constant tensor:
#      x y z
#    x 3.447370 0.000000 -0.161800 
#    y 0.000000 3.372750 0.000000 
#    z -0.161800 0.000000 3.324170 
# 
# 
# High freq. dielectric constant tensor:
#      x y z
#    x 1.727260 0.000000 -0.011660 
#    y 0.000000 1.725640 0.000000 
#    z -0.011660 0.000000 1.698640 
# 
# From -- ./inp_files/83390.got.cif
#   From: 2010.06.25/outbox.cif.g09.slc.cpg/sg10_42_cif.got.tgz:83390.got - 2010.06.27 22:07:45.
