data_PCOD8059528
_publ_section_title
;
Structure prediction by ZEFSAII (Michael W. Deem and Ramdas Pophale) SiO2 
 PCOD8059528
Probable space group: P 2/M
;
_chemical_formula_sum "Si O2"
_cell_formula_units_Z 32
_cell_length_a 22.039553
_cell_length_b 9.146669
_cell_length_c 11.657028
_cell_angle_alpha 90.000000
_cell_angle_beta 55.797538
_cell_angle_gamma 90.000000
_cell_volume 1943.518694
_symmetry_space_group_name_H-M "P 2/M"
_symmetry_group_IT_number 10
_symmetry_cell_setting 'monoclinic'
loop_
_space_group_symop_operation_xyz
x,y,z
-x,y,-z
-x,-y,-z
x,-y,z
loop_
_atom_site_type_symbol
_atom_site_label
_atom_site_fract_x
_atom_site_fract_y
_atom_site_fract_z
Si Si1 0.433134 0.337413 0.426266
Si Si2 0.871139 0.171688 0.863240
Si Si3 0.990604 0.826843 0.138501
Si Si4 0.268362 0.827531 0.837048
Si Si5 0.136174 0.669015 0.599683
Si Si6 0.410451 0.334547 0.720576
Si Si7 0.723049 0.672876 0.411359
Si Si8 0.915987 0.328771 0.594203
O O1 0.441084 0.500000 0.368966
O O2 0.420041 0.340393 0.575186
O O3 0.512454 0.264227 0.311242
O O4 0.357160 0.267707 0.457759
O O5 0.870368 0.249356 0.741473
O O6 0.941070 0.229702 0.859664
O O7 0.876045 0.000000 0.837471
O O8 0.798533 0.214551 0.009494
O O9 0.915770 0.764053 0.266032
O O10 0.985292 0.000000 0.146101
O O11 0.000000 0.767948 0.000000
O O12 0.341551 0.768217 0.823061
O O13 0.253281 0.754088 0.730163
O O14 0.275457 0.000000 0.810983
O O15 0.116262 0.500000 0.640181
O O16 0.219312 0.704454 0.548931
O O17 0.125553 0.712251 0.478820
O O18 0.396897 0.500000 0.781172
O O19 0.717626 0.500000 0.389080
O O20 0.915033 0.500000 0.620838
O O21 0.000000 0.271680 0.500000
#
# Coordination Sequence:
#
# PCOD8059528 Si02
#       8
#     4   4   4   4   4   4   4   4
#     4   7  11  22  41  63  88 120 153 182 211 262
#     4  10  21  34  48  66  89 122 157 186 224 273
#     4  10  20  33  48  66  91 122 152 181 219 270
#     4  10  19  30  44  67  98 123 151 190 227 263
#     4  10  20  33  49  70  91 116 150 190 233 270
#     4   8  13  24  42  63  89 122 155 180 217 268
#     4   9  17  30  47  67  94 125 154 181 222 277
#     4  10  20  35  52  69  90 113 147 199 242 268
#
# _framework density 16.464983
#
# number of rings (size 3 to 8) (size 9 to 14) (size 15 to 20)
#    0.000    2.750    1.250    2.625    0.000    3.500 
#    0.000    5.000    0.000    0.000    0.000    0.875 
#    0.000    7.000    0.000    0.000    0.000    0.000 
#
# Total GULP energy -396517.983746 kJ/mol
# GULP energy per Si atom -12391.186992 kJ/mol
# Density = 1.642751 g / cm^3
# Si number density = 16.464983 Si / 1000 Ang^3
#
#
#
# Elastic Constant Matrix: (Units=GPa)
#
#
# Indices 1 2 3 4 5 6 
#
# 1 146.6285 31.5001 65.4208 0.0000 -18.0166 0.0000
# 2 31.5001 31.8705 23.1612 0.0000 -1.0573 0.0000
# 3 65.4208 23.1612 56.1906 0.0000 5.4486 0.0000
# 4 0.0000 0.0000 0.0000 25.7513 0.0000 -0.8357
# 5 -18.0166 -1.0573 5.4486 0.0000 23.8199 0.0000
# 6 0.0000 0.0000 0.0000 -0.8357 0.0000 28.6566
#
#
#
# Elastic Compliance Matrix: (Units=1/GPa)
#
#
# Indices 1 2 3 4 5 6 
#
# 1 0.022257 -0.001099 -0.027702 0.000000 0.023122 0.000000
# 2 -0.001099 0.045810 -0.018121 0.000000 0.005347 0.000000
# 3 -0.027702 -0.018121 0.060980 0.000000 -0.035706 0.000000
# 4 0.000000 0.000000 0.000000 0.038870 0.000000 0.001133
# 5 0.023122 0.005347 -0.035706 0.000000 0.067875 0.000000
# 6 0.000000 0.000000 0.000000 0.001133 0.000000 0.034929
#
#
# Mechanical properties :
#
#
# Convention : Reuss Voigt Hill
#
# Bulk Modulus (GPa) = 28.40668 52.76155 40.58412
# Shear Modulus (GPa) = 13.28729 23.28607 18.28668
#
# Velocity S-wave (km/s) = 2.84386 3.76477 3.33624
# Velocity P-wave (km/s) = 5.29846 7.14229 6.28832
#
# Compressibility (1/GPa) = 0.03520299
#
# Stress axis : x y z
#
# Youngs Moduli (GPa) = 44.92995 21.82933 16.39873
#
# Poissons Ratio (x) = 0.02400 0.45427
# Poissons Ratio (y) = 0.04940 0.29716
# Poissons Ratio (z) = 1.24464 0.39557
#
# Static dielectric constant tensor:
#      x y z
#    x 3.666790 0.000000 -0.313080 
#    y 0.000000 2.942490 0.000000 
#    z -0.313080 0.000000 2.909570 
# 
# 
# High freq. dielectric constant tensor:
#      x y z
#    x 1.643930 0.000000 -0.022880 
#    y 0.000000 1.616060 0.000000 
#    z -0.022880 0.000000 1.602850 
# 
# From -- ./inp_files/54836.got.cif
#   From: 2010.06.25/outbox.cif.g09.slc.cpg/sg10_28_cif.got.tgz:54836.got - 2010.06.27 22:07:45.
