data_PCOD8059950
_publ_section_title
;
Structure prediction by ZEFSAII (Michael W. Deem and Ramdas Pophale) SiO2 
 PCOD8059950
Probable space group: P 2/M
;
_chemical_formula_sum "Si O2"
_cell_formula_units_Z 32
_cell_length_a 21.388925
_cell_length_b 8.764230
_cell_length_c 12.188755
_cell_angle_alpha 90.000000
_cell_angle_beta 46.907343
_cell_angle_gamma 90.000000
_cell_volume 1668.528162
_symmetry_space_group_name_H-M "P 2/M"
_symmetry_group_IT_number 10
_symmetry_cell_setting 'monoclinic'
loop_
_space_group_symop_operation_xyz
x,y,z
-x,y,-z
-x,-y,-z
x,-y,z
loop_
_atom_site_type_symbol
_atom_site_label
_atom_site_fract_x
_atom_site_fract_y
_atom_site_fract_z
Si Si1 0.278028 0.679588 0.446082
Si Si2 0.057812 0.169700 0.834959
Si Si3 0.267184 0.175996 0.113125
Si Si4 0.402246 0.822507 0.131677
Si Si5 0.139525 0.820997 0.454517
Si Si6 0.797175 0.679344 0.016643
Si Si7 0.755346 0.170437 0.295999
Si Si8 0.985166 0.676181 0.725210
O O1 0.264184 0.500000 0.462050
O O2 0.362537 0.722958 0.276485
O O3 0.194324 0.755744 0.491230
O O4 0.296307 0.734589 0.549711
O O5 0.151428 0.160991 0.767734
O O6 0.047867 0.293697 0.752259
O O7 0.027723 0.000000 0.832034
O O8 0.000000 0.234919 0.000000
O O9 0.353911 0.210618 0.075272
O O10 0.185459 0.221670 0.285636
O O11 0.261701 0.000000 0.084446
O O12 0.267551 0.279453 0.004051
O O13 0.392188 0.000000 0.175406
O O14 0.500000 0.773368 0.000000
O O15 0.041341 0.758384 0.562338
O O16 0.137232 0.000000 0.477864
O O17 0.803121 0.500000 0.028247
O O18 0.758893 0.751130 0.172889
O O19 0.891146 0.744436 0.867069
O O20 0.716341 0.000000 0.329444
O O21 0.977173 0.500000 0.705164
#
# Coordination Sequence:
#
# PCOD8059950 Si02
#       8
#     4   4   4   4   4   4   4   4
#     4  11  21  33  54  86 119 144 174 221 277 328
#     4  10  19  31  48  70  97 136 187 239 279 315
#     4   9  20  38  58  80 106 141 182 221 267 325
#     4   9  19  39  67  94 116 139 172 215 264 324
#     4  10  20  35  54  75 103 142 190 238 280 322
#     4  11  24  37  50  74 110 151 190 229 276 326
#     4  11  21  34  54  77 106 146 191 232 272 321
#     4  11  22  32  47  72 104 143 187 236 284 325
#
# _framework density 19.178581000000001
#
# number of rings (size 3 to 8) (size 9 to 14) (size 15 to 20)
#    0.000    1.750    2.500    3.375    0.000    5.500 
#    0.000    2.500    0.000    0.750    0.000    5.250 
#    0.000    0.000    0.000    0.000    0.000    0.000 
#
# Total GULP energy -396617.889238 kJ/mol
# GULP energy per Si atom -12394.309039 kJ/mol
# Density = 1.913493 g / cm^3
# Si number density = 19.178581 Si / 1000 Ang^3
#
#
#
# Elastic Constant Matrix: (Units=GPa)
#
#
# Indices 1 2 3 4 5 6 
#
# 1 67.7326 29.7998 49.6702 0.0000 13.5976 0.0000
# 2 29.7998 89.6655 37.6870 0.0000 11.0475 0.0000
# 3 49.6702 37.6870 94.9264 0.0000 10.7845 0.0000
# 4 0.0000 0.0000 0.0000 30.7393 0.0000 2.8164
# 5 13.5976 11.0475 10.7845 0.0000 28.8243 0.0000
# 6 0.0000 0.0000 0.0000 2.8164 0.0000 51.7819
#
#
#
# Elastic Compliance Matrix: (Units=1/GPa)
#
#
# Indices 1 2 3 4 5 6 
#
# 1 0.025944 -0.002888 -0.011659 0.000000 -0.006770 0.000000
# 2 -0.002888 0.014012 -0.003756 0.000000 -0.002603 0.000000
# 3 -0.011659 -0.003756 0.018108 0.000000 0.000165 0.000000
# 4 0.000000 0.000000 0.000000 0.032695 0.000000 -0.001778
# 5 -0.006770 -0.002603 0.000165 0.000000 0.038822 0.000000
# 6 0.000000 0.000000 0.000000 -0.001778 0.000000 0.019408
#
#
# Mechanical properties :
#
#
# Convention : Reuss Voigt Hill
#
# Bulk Modulus (GPa) = 46.60579 54.07092 50.33836
# Shear Modulus (GPa) = 25.94072 31.28027 28.61050
#
# Velocity S-wave (km/s) = 3.68174 4.04295 3.86657
# Velocity P-wave (km/s) = 6.51363 7.07450 6.79985
#
# Compressibility (1/GPa) = 0.02145656
#
# Stress axis : x y z
#
# Youngs Moduli (GPa) = 38.54511 71.36911 55.22474
#
# Poissons Ratio (x) = 0.20609 0.64389
# Poissons Ratio (y) = 0.11130 0.20743
# Poissons Ratio (z) = 0.44942 0.26808
#
# Static dielectric constant tensor:
#      x y z
#    x 3.221510 0.000000 0.090290 
#    y 0.000000 3.561330 0.000000 
#    z 0.090290 0.000000 3.696520 
# 
# 
# High freq. dielectric constant tensor:
#      x y z
#    x 1.712420 0.000000 0.017290 
#    y 0.000000 1.744310 0.000000 
#    z 0.017290 0.000000 1.748900 
# 
# From -- ./inp_files/55269.got.cif
#   From: 2010.06.25/outbox.cif.g09.slc.cpg/sg10_28_cif.got.tgz:55269.got - 2010.06.27 22:07:45.
