data_PCOD8059494
_publ_section_title
;
Structure prediction by ZEFSAII (Michael W. Deem and Ramdas Pophale) SiO2 
 PCOD8059494
Probable space group: P 2/M
;
_chemical_formula_sum "Si O2"
_cell_formula_units_Z 32
_cell_length_a 13.818462
_cell_length_b 9.908669
_cell_length_c 14.615462
_cell_angle_alpha 90.000000
_cell_angle_beta 90.158057
_cell_angle_gamma 90.000000
_cell_volume 2001.178947
_symmetry_space_group_name_H-M "P 2/M"
_symmetry_group_IT_number 10
_symmetry_cell_setting 'monoclinic'
loop_
_space_group_symop_operation_xyz
x,y,z
-x,y,-z
-x,-y,-z
x,-y,z
loop_
_atom_site_type_symbol
_atom_site_label
_atom_site_fract_x
_atom_site_fract_y
_atom_site_fract_z
Si Si1 0.328527 0.650948 0.196455
Si Si2 0.997041 0.842562 0.392752
Si Si3 0.465848 0.157592 0.099997
Si Si4 0.469880 0.350739 0.367975
Si Si5 0.403522 0.152871 0.732459
Si Si6 0.218466 0.152529 0.637899
Si Si7 0.297488 0.651841 0.488608
Si Si8 0.157765 0.653914 0.319194
O O1 0.332144 0.500000 0.153800
O O2 0.368849 0.758828 0.123522
O O3 0.393170 0.656228 0.286462
O O4 0.217983 0.686062 0.226140
O O5 0.892900 0.807201 0.347571
O O6 0.000000 0.799551 0.500000
O O7 0.069535 0.756730 0.330741
O O8 0.023596 0.000000 0.383346
O O9 0.554193 0.195696 0.168822
O O10 0.439235 0.000000 0.104548
O O11 0.500000 0.200954 0.000000
O O12 0.517104 0.500000 0.372023
O O13 0.554070 0.243354 0.349935
O O14 0.410098 0.322431 0.461368
O O15 0.285639 0.166131 0.729714
O O16 0.435336 0.000000 0.711294
O O17 0.268384 0.243541 0.563774
O O18 0.220748 0.000000 0.600194
O O19 0.285014 0.500000 0.525965
O O20 0.228986 0.675806 0.403035
O O21 0.118689 0.500000 0.316502
#
# Coordination Sequence:
#
# PCOD8059494 Si02
#       8
#     4   4   4   4   4   4   4   4
#     4   8  15  28  45  67  92 115 141 174 215 260
#     4  10  19  30  43  61  84 114 153 193 224 250
#     4   9  17  30  49  72  93 112 138 172 212 262
#     4   8  15  28  43  59  83 113 145 178 208 246
#     4   9  18  31  44  60  85 115 141 171 213 258
#     4  10  20  31  41  57  84 115 148 182 216 253
#     4   9  17  28  42  60  82 113 149 182 216 247
#     4   9  17  29  45  64  87 115 149 188 222 253
#
# _framework density 15.990572999999999
#
# number of rings (size 3 to 8) (size 9 to 14) (size 15 to 20)
#    0.000    3.000    1.250    1.500    0.000    3.000 
#    0.000    5.000    0.000    0.000    0.000    0.875 
#    0.000    7.000    0.000    0.000    0.000    0.000 
#
# Total GULP energy -396548.296104 kJ/mol
# GULP energy per Si atom -12392.134253 kJ/mol
# Density = 1.595418 g / cm^3
# Si number density = 15.990573 Si / 1000 Ang^3
#
#
#
# Elastic Constant Matrix: (Units=GPa)
#
#
# Indices 1 2 3 4 5 6 
#
# 1 112.5462 59.0832 37.4031 0.0000 -16.0613 0.0000
# 2 59.0832 64.3212 61.2890 0.0000 4.2001 0.0000
# 3 37.4031 61.2890 33.2232 0.0000 -45.7790 0.0000
# 4 0.0000 0.0000 0.0000 20.2408 0.0000 -10.6671
# 5 -16.0613 4.2001 -45.7790 0.0000 -14.4058 0.0000
# 6 0.0000 0.0000 0.0000 -10.6671 0.0000 23.7334
#
#
#
# Elastic Compliance Matrix: (Units=1/GPa)
#
#
# Indices 1 2 3 4 5 6 
#
# 1 0.014530 -0.008460 -0.004922 0.000000 -0.003026 0.000000
# 2 -0.008460 0.023906 -0.002227 0.000000 0.023478 0.000000
# 3 -0.004922 -0.002227 0.008629 0.000000 -0.022584 0.000000
# 4 0.000000 0.000000 0.000000 0.064740 0.000000 0.029097
# 5 -0.003026 0.023478 -0.022584 0.000000 0.012570 0.000000
# 6 0.000000 0.000000 0.000000 0.029097 0.000000 0.055213
#
#
# Mechanical properties :
#
#
# Convention : Reuss Voigt Hill
#
# Bulk Modulus (GPa) = 63.09328 58.40457 60.74892
# Shear Modulus (GPa) = 23.13877 9.40138 16.27007
#
# Velocity S-wave (km/s) = 3.80811 2.42736 3.19326
# Velocity P-wave (km/s) = 7.67318 6.66782 7.18810
#
# Compressibility (1/GPa) = 0.01584955
#
# Stress axis : x y z
#
# Youngs Moduli (GPa) = 68.82279 41.82985 115.88505
#
# Poissons Ratio (x) = 0.35386 0.57035
# Poissons Ratio (y) = 0.58221 0.25805
# Poissons Ratio (z) = 0.33873 0.09315
#
# Static dielectric constant tensor:
#      x y z
#    x 3.241050 0.000000 -0.122930 
#    y 0.000000 3.142100 0.000000 
#    z -0.122930 0.000000 3.052590 
# 
# 
# High freq. dielectric constant tensor:
#      x y z
#    x 1.612110 0.000000 -0.002490 
#    y 0.000000 1.620640 0.000000 
#    z -0.002490 0.000000 1.571840 
# 
# From -- ./inp_files/66057.got.cif
#   From: 2010.06.25/outbox.cif.g09.slc.cpg/sg10_34_cif.got.tgz:66057.got - 2010.06.27 22:07:45.
