data_PCOD8059627
_publ_section_title
;
Structure prediction by ZEFSAII (Michael W. Deem and Ramdas Pophale) SiO2 
 PCOD8059627
Probable space group: P 2/M
;
_chemical_formula_sum "Si O2"
_cell_formula_units_Z 28
_cell_length_a 20.647081
_cell_length_b 7.776715
_cell_length_c 11.915799
_cell_angle_alpha 90.000000
_cell_angle_beta 125.248159
_cell_angle_gamma 90.000000
_cell_volume 1562.497571
_symmetry_space_group_name_H-M "P 2/M"
_symmetry_group_IT_number 10
_symmetry_cell_setting 'monoclinic'
loop_
_space_group_symop_operation_xyz
x,y,z
-x,y,-z
-x,-y,-z
x,-y,z
loop_
_atom_site_type_symbol
_atom_site_label
_atom_site_fract_x
_atom_site_fract_y
_atom_site_fract_z
Si Si1 0.590045 0.811217 0.590045
Si Si2 0.800749 0.191471 0.930463
Si Si3 0.199252 0.808529 0.328965
Si Si4 0.354701 0.693837 0.582903
Si Si5 0.354700 0.693837 0.126496
Si Si6 0.912221 0.500000 0.044450
Si Si7 0.500001 0.705170 0.872064
Si Si8 0.912221 0.500000 0.779992
O O1 0.500000 0.861663 0.500000
O O2 0.607441 0.693271 0.501429
O O3 0.607442 0.693272 0.713456
O O4 0.635792 0.000000 0.635792
O O5 0.773388 0.231611 0.773388
O O6 0.727390 0.201131 0.944640
O O7 0.837403 0.000000 0.974451
O O8 0.866211 0.328113 0.036431
O O9 0.272611 0.798869 0.489860
O O10 0.133790 0.671887 0.304009
O O11 0.162597 0.000000 0.299644
O O12 0.334662 0.500000 0.600124
O O13 0.419165 0.777292 0.733282
O O14 0.334661 0.500000 0.069198
O O15 0.419163 0.777292 0.105044
O O16 0.000001 0.500000 0.187438
O O17 0.921014 0.500000 0.921014
O O18 0.500001 0.500000 0.859421
O O19 0.500000 0.767508 0.000000
#
# Coordination Sequence:
#
# PCOD8059627 Si02
#       8
#     4   4   4   4   4   2   4   2
#     4  11  21  29  41  67  97 124 165 213 255 293
#     4  10  19  30  46  71 102 132 165 206 247 291
#     4  10  19  30  46  71 102 132 165 206 247 291
#     4  11  19  30  49  69  95 129 171 214 250 294
#     4  11  19  30  49  69  95 129 171 214 250 294
#     4   9  18  32  48  69  99 134 168 197 237 302
#     4   9  20  35  49  68  96 134 176 215 255 298
#     4   9  18  32  48  69  99 134 168 197 237 302
#
# _framework density 17.920027000000001
#
# number of rings (size 3 to 8) (size 9 to 14) (size 15 to 20)
#    0.000    1.857    4.286    1.286    0.000    1.143 
#    0.000    2.857    0.000    6.857    0.000    0.000 
#    0.000    2.286    0.000    2.571    0.000    0.286 
#
# Total GULP energy -346951.222411 kJ/mol
# GULP energy per Si atom -12391.115086 kJ/mol
# Density = 1.787924 g / cm^3
# Si number density = 17.920027 Si / 1000 Ang^3
#
#
#
# Elastic Constant Matrix: (Units=GPa)
#
#
# Indices 1 2 3 4 5 6 
#
# 1 90.9872 34.3872 61.6461 0.0000 20.4902 0.0000
# 2 34.3872 97.2851 24.4542 0.0000 18.2922 0.0000
# 3 61.6461 24.4542 75.2251 0.0000 8.5324 0.0000
# 4 0.0000 0.0000 0.0000 9.8924 0.0000 2.2572
# 5 20.4902 18.2922 8.5324 0.0000 31.1286 0.0000
# 6 0.0000 0.0000 0.0000 2.2572 0.0000 11.1180
#
#
#
# Elastic Compliance Matrix: (Units=1/GPa)
#
#
# Indices 1 2 3 4 5 6 
#
# 1 0.029626 -0.002696 -0.022055 0.000000 -0.011872 0.000000
# 2 -0.002696 0.012538 -0.001272 0.000000 -0.005245 0.000000
# 3 -0.022055 -0.001272 0.031013 0.000000 0.006764 0.000000
# 4 0.000000 0.000000 0.000000 0.105998 0.000000 -0.021520
# 5 -0.011872 -0.005245 0.006764 0.000000 0.041167 0.000000
# 6 0.000000 0.000000 0.000000 -0.021520 0.000000 0.094313
#
#
# Mechanical properties :
#
#
# Convention : Reuss Voigt Hill
#
# Bulk Modulus (GPa) = 47.32201 56.05247 51.68724
# Shear Modulus (GPa) = 13.37815 19.96178 16.66997
#
# Velocity S-wave (km/s) = 2.73527 3.34119 3.05330
# Velocity P-wave (km/s) = 6.03657 6.79940 6.42931
#
# Compressibility (1/GPa) = 0.02113181
#
# Stress axis : x y z
#
# Youngs Moduli (GPa) = 33.75459 79.75937 32.24404
#
# Poissons Ratio (x) = 0.21501 0.71114
# Poissons Ratio (y) = 0.09099 0.04101
# Poissons Ratio (z) = 0.74446 0.10144
#
# Static dielectric constant tensor:
#      x y z
#    x 3.242800 0.000000 0.275310 
#    y 0.000000 3.288200 0.000000 
#    z 0.275310 0.000000 3.093310 
# 
# 
# High freq. dielectric constant tensor:
#      x y z
#    x 1.663550 0.000000 0.028480 
#    y 0.000000 1.699080 0.000000 
#    z 0.028480 0.000000 1.648090 
# 
# From -- ./inp_files/55022.got.cif
#   From: 2010.06.25/outbox.cif.g09.slc.cpg/sg10_28_cif.got.tgz:55022.got - 2010.06.27 22:07:45.
