data_PCOD8059070
_publ_section_title
;
Structure prediction by ZEFSAII (Michael W. Deem and Ramdas Pophale) SiO2 
 PCOD8059070
Probable space group: P 2/M
;
_chemical_formula_sum "Si O2"
_cell_formula_units_Z 32
_cell_length_a 14.350473
_cell_length_b 8.680924
_cell_length_c 24.070122
_cell_angle_alpha 90.000000
_cell_angle_beta 147.029095
_cell_angle_gamma 90.000000
_cell_volume 1631.847014
_symmetry_space_group_name_H-M "P 2/M"
_symmetry_group_IT_number 10
_symmetry_cell_setting 'monoclinic'
loop_
_space_group_symop_operation_xyz
x,y,z
-x,y,-z
-x,-y,-z
x,-y,z
loop_
_atom_site_type_symbol
_atom_site_label
_atom_site_fract_x
_atom_site_fract_y
_atom_site_fract_z
Si Si1 0.689000 0.316695 0.478085
Si Si2 0.179846 0.683114 0.339932
Si Si3 0.315401 0.180679 0.790334
Si Si4 0.329698 0.681126 0.033247
Si Si5 0.005540 0.683107 0.565725
Si Si6 0.791321 0.319134 0.149587
Si Si7 0.997470 0.683602 0.061353
Si Si8 0.311583 0.683632 0.289632
O O1 0.696709 0.500000 0.482687
O O2 0.725214 0.253025 0.558061
O O3 0.500277 0.260012 0.364876
O O4 0.833121 0.252466 0.508540
O O5 0.182537 0.500000 0.340122
O O6 0.274679 0.748017 0.332943
O O7 0.985066 0.740841 0.242851
O O8 0.500605 0.233384 0.860379
O O9 0.171103 0.257285 0.680350
O O10 0.302605 0.231097 0.847937
O O11 0.296269 0.000000 0.775501
O O12 0.353583 0.500000 0.054124
O O13 0.300695 0.720254 0.954143
O O14 0.170047 0.742907 0.989773
O O15 0.011452 0.500000 0.570772
O O16 0.000000 0.744342 0.500000
O O17 0.782868 0.500000 0.158536
O O18 0.999260 0.500000 0.063300
O O19 0.168379 0.749131 0.176275
O O20 0.000000 0.747468 0.000000
O O21 0.303241 0.500000 0.286210
#
# Coordination Sequence:
#
# PCOD8059070 Si02
#       8
#     4   4   4   4   4   4   4   4
#     4   9  16  26  46  76 108 135 164 214 271 323
#     4   9  14  24  45  72 104 136 166 209 267 326
#     4  12  25  38  55  80 111 147 186 232 281 330
#     4  10  20  35  57  83 112 148 185 227 279 331
#     4  10  21  38  59  82 109 143 185 227 270 324
#     4  10  18  33  57  81 109 144 183 227 279 337
#     4   9  17  29  47  75 112 145 174 218 275 328
#     4   9  15  24  41  73 108 135 167 210 268 326
#
# _framework density 19.609680000000001
#
# number of rings (size 3 to 8) (size 9 to 14) (size 15 to 20)
#    0.000    2.250    2.500    1.875    0.000    4.750 
#    0.000    3.750    0.000    0.375    0.000    2.625 
#    0.000    0.000    0.000    0.000    0.000    0.000 
#
# Total GULP energy -396749.173158 kJ/mol
# GULP energy per Si atom -12398.411661 kJ/mol
# Density = 1.956505 g / cm^3
# Si number density = 19.609680 Si / 1000 Ang^3
#
#
#
# Elastic Constant Matrix: (Units=GPa)
#
#
# Indices 1 2 3 4 5 6 
#
# 1 137.1689 13.4506 104.1250 0.0000 -2.9443 0.0000
# 2 13.4506 11.8437 11.0001 0.0000 -1.2485 0.0000
# 3 104.1250 11.0001 151.7458 0.0000 18.5156 0.0000
# 4 0.0000 0.0000 0.0000 4.8451 0.0000 -0.3531
# 5 -2.9443 -1.2485 18.5156 0.0000 40.1368 0.0000
# 6 0.0000 0.0000 0.0000 -0.3531 0.0000 -0.4132
#
#
#
# Elastic Compliance Matrix: (Units=1/GPa)
#
#
# Indices 1 2 3 4 5 6 
#
# 1 0.017511 -0.007785 -0.012269 0.000000 0.006702 0.000000
# 2 -0.007785 0.095465 -0.001983 0.000000 0.003313 0.000000
# 3 -0.012269 -0.001983 0.016181 0.000000 -0.008426 0.000000
# 4 0.000000 0.000000 0.000000 0.194290 0.000000 -0.166070
# 5 0.006702 0.003313 -0.008426 0.000000 0.029397 0.000000
# 6 0.000000 0.000000 0.000000 -0.166070 0.000000 -2.278437
#
#
# Mechanical properties :
#
#
# Convention : Reuss Voigt Hill
#
# Bulk Modulus (GPa) = 11.75323 61.98996 36.87160
# Shear Modulus (GPa) = -2.69810 20.39261 8.84726
#
# Velocity S-wave (km/s) = -1.17426 3.22829 2.12638
# Velocity P-wave (km/s) = 2.04159 6.75102 4.98720
#
# Compressibility (1/GPa) = 0.08508299
#
# Stress axis : x y z
#
# Youngs Moduli (GPa) = 57.10648 10.47506 61.80185
#
# Poissons Ratio (x) = 0.08155 0.75826
# Poissons Ratio (y) = 0.44458 0.12253
# Poissons Ratio (z) = 0.70065 0.02077
#
# Static dielectric constant tensor:
#      x y z
#    x 3.828060 0.000000 0.083220 
#    y 0.000000 2.872420 0.000000 
#    z 0.083220 0.000000 3.785710 
# 
# 
# High freq. dielectric constant tensor:
#      x y z
#    x 1.772050 0.000000 0.009370 
#    y 0.000000 1.691410 0.000000 
#    z 0.009370 0.000000 1.778970 
# 
# From -- ./inp_files/89643.got.cif
#   From: 2010.06.25/outbox.cif.g09.slc.cpg/sg10_45_cif.got.tgz:89643.got - 2010.06.27 22:07:45.
