data_PCOD8059961
_publ_section_title
;
Structure prediction by ZEFSAII (Michael W. Deem and Ramdas Pophale) SiO2 
 PCOD8059961
Probable space group: P 2/M
;
_chemical_formula_sum "Si O2"
_cell_formula_units_Z 32
_cell_length_a 11.632463
_cell_length_b 9.259783
_cell_length_c 17.332213
_cell_angle_alpha 90.000000
_cell_angle_beta 85.211180
_cell_angle_gamma 90.000000
_cell_volume 1860.406316
_symmetry_space_group_name_H-M "P 2/M"
_symmetry_group_IT_number 10
_symmetry_cell_setting 'monoclinic'
loop_
_space_group_symop_operation_xyz
x,y,z
-x,y,-z
-x,-y,-z
x,-y,z
loop_
_atom_site_type_symbol
_atom_site_label
_atom_site_fract_x
_atom_site_fract_y
_atom_site_fract_z
Si Si1 0.387882 0.170451 0.224890
Si Si2 0.726968 0.833088 0.401023
Si Si3 0.860588 0.169403 0.705561
Si Si4 0.268740 0.341059 0.831278
Si Si5 0.479713 0.670044 0.913023
Si Si6 0.100864 0.165729 0.749515
Si Si7 0.123659 0.827977 0.466781
Si Si8 0.445047 0.662320 0.681130
O O1 0.251827 0.203315 0.237671
O O2 0.430569 0.239244 0.142759
O O3 0.447072 0.243203 0.296038
O O4 0.414831 0.000000 0.224565
O O5 0.825668 0.810533 0.331672
O O6 0.777332 0.776354 0.479446
O O7 0.613167 0.739291 0.389304
O O8 0.689468 0.000000 0.406539
O O9 0.847221 0.233427 0.619860
O O10 0.973725 0.233583 0.741945
O O11 0.881530 0.000000 0.694665
O O12 0.219654 0.500000 0.851245
O O13 0.347580 0.287107 0.898653
O O14 0.159398 0.240180 0.820716
O O15 0.351953 0.343045 0.753573
O O16 0.499878 0.500000 0.895545
O O17 0.500000 0.711881 0.000000
O O18 0.092126 0.000000 0.773109
O O19 0.000000 0.765683 0.500000
O O20 0.119604 0.000000 0.469030
O O21 0.484961 0.500000 0.657007
#
# Coordination Sequence:
#
# PCOD8059961 Si02
#       8
#     4   4   4   4   4   4   4   4
#     4  10  19  31  48  71  98 123 154 193 231 278
#     4   9  15  24  45  71  89 113 158 209 245 275
#     4   9  17  28  43  67  98 128 155 192 240 283
#     4   8  15  27  44  68  92 113 145 189 229 267
#     4   9  18  34  55  75  96 123 152 186 231 279
#     4   9  15  25  43  67  93 121 154 190 231 274
#     4   9  14  24  43  68  95 122 158 202 244 281
#     4   9  17  30  46  62  89 126 159 195 239 283
#
# _framework density 17.200543
#
# number of rings (size 3 to 8) (size 9 to 14) (size 15 to 20)
#    0.000    3.000    1.250    1.500    0.000    3.250 
#    0.000    1.875    0.000    7.125    0.000    5.250 
#    0.000    0.000    0.000    0.000    0.000    0.000 
#
# Total GULP energy -396636.241367 kJ/mol
# GULP energy per Si atom -12394.882543 kJ/mol
# Density = 1.716139 g / cm^3
# Si number density = 17.200543 Si / 1000 Ang^3
#
#
#
# Elastic Constant Matrix: (Units=GPa)
#
#
# Indices 1 2 3 4 5 6 
#
# 1 106.2323 48.7821 62.6657 0.0000 26.7179 0.0000
# 2 48.7821 68.1289 39.0122 0.0000 10.7186 0.0000
# 3 62.6657 39.0122 97.9861 0.0000 30.3226 0.0000
# 4 0.0000 0.0000 0.0000 16.2305 0.0000 4.9387
# 5 26.7179 10.7186 30.3226 0.0000 30.5458 0.0000
# 6 0.0000 0.0000 0.0000 4.9387 0.0000 12.4459
#
#
#
# Elastic Compliance Matrix: (Units=1/GPa)
#
#
# Indices 1 2 3 4 5 6 
#
# 1 0.019094 -0.008836 -0.006473 0.000000 -0.007175 0.000000
# 2 -0.008836 0.023133 -0.004964 0.000000 0.004539 0.000000
# 3 -0.006473 -0.004964 0.020251 0.000000 -0.012700 0.000000
# 4 0.000000 0.000000 0.000000 0.070073 0.000000 -0.027806
# 5 -0.007175 0.004539 -0.012700 0.000000 0.050028 0.000000
# 6 0.000000 0.000000 0.000000 -0.027806 0.000000 0.091382
#
#
# Mechanical properties :
#
#
# Convention : Reuss Voigt Hill
#
# Bulk Modulus (GPa) = 45.59357 63.69636 54.64497
# Shear Modulus (GPa) = 15.53670 19.97025 17.75348
#
# Velocity S-wave (km/s) = 3.00870 3.41108 3.21619
# Velocity P-wave (km/s) = 6.21565 7.25437 6.75501
#
# Compressibility (1/GPa) = 0.02193292
#
# Stress axis : x y z
#
# Youngs Moduli (GPa) = 52.37317 43.22757 49.37910
#
# Poissons Ratio (x) = 0.38198 0.31962
# Poissons Ratio (y) = 0.46279 0.24510
# Poissons Ratio (z) = 0.33900 0.21457
#
# Static dielectric constant tensor:
#      x y z
#    x 3.289670 0.000000 0.377630 
#    y 0.000000 3.095100 0.000000 
#    z 0.377630 0.000000 3.096220 
# 
# 
# High freq. dielectric constant tensor:
#      x y z
#    x 1.659870 0.000000 0.029550 
#    y 0.000000 1.639880 0.000000 
#    z 0.029550 0.000000 1.637800 
# 
# From -- ./inp_files/52806.got.cif
#   From: 2010.06.25/outbox.cif.g09.slc.cpg/sg10_27_cif.got.tgz:52806.got - 2010.06.27 22:07:45.
